MODEL 1
REMARK VINA RESULT:     -11.2      0.000      0.000
REMARK SMILES C[C@@H]1CCCN(C(=O)CSc2nnc3c4ccccc4n(CC(=O)OCCOCCOCCOC(=O)c4ccc(-c5c6nc(c(-c7cc(S(=O)(=O)[O-])ccc7F)c7ccc([nH]7)c(-c7cc(S(=O)(=O)[O-])ccc7F)c7nc(c(-c8cc(S(=O)(=O)[O-])ccc8F)c8ccc5[nH]8)C=C7)C=C6)cc4)c3n2)C1
REMARK SMILES IDX 29 1 28 2 27 3 26 4 25 5 23 6 24 7 22 8 21 9 11 10 12 11
REMARK SMILES IDX 101 12 13 13 100 14 14 15 15 16 20 17 16 18 19 19 17 20
REMARK SMILES IDX 18 21 10 22 9 23 7 24 8 25 6 26 1 27 2 28 3 29 102 30 4 31
REMARK SMILES IDX 5 32 30 33 31 34 32 35 33 36 34 37 35 38 36 39 37 40 38 41
REMARK SMILES IDX 99 42 39 43 98 44 40 45 41 46 42 47 92 48 43 49 97 50 91 51
REMARK SMILES IDX 93 52 44 53 96 54 90 55 89 56 45 58 77 59 57 60 76 61 58 62
REMARK SMILES IDX 61 63 75 64 94 65 59 66 60 67 74 69 95 70 62 71 46 72 47 73
REMARK SMILES IDX 55 74 48 75 54 76 56 77 53 78 49 79 50 80 51 81 52 82 78 83
REMARK SMILES IDX 79 84 87 85 80 86 86 87 88 88 85 89 81 90 82 91 83 92 84 93
REMARK SMILES IDX 63 94 64 95 72 96 65 97 71 98 73 99 70 100 66 101 67 102
REMARK SMILES IDX 68 103 69 104
REMARK H PARENT 93 57 61 68
REMARK Flexibility Score: inf
ROOT
ATOM      1  C   UNL A   1      33.567  27.469  26.143  1.00  0.00     0.188 C 
ENDROOT
BRANCH   1   2
ATOM      2  O   UNL A   1      33.645  27.141  24.776  1.00  0.00    -0.376 OA
BRANCH   2   3
ATOM      3  C   UNL A   1      34.020  28.177  23.891  1.00  0.00     0.202 C 
BRANCH   3   4
ATOM      4  C   UNL A   1      33.919  27.916  22.379  1.00  0.00     0.261 C 
BRANCH   4   5
ATOM      5  O   UNL A   1      34.158  26.527  21.990  1.00  0.00    -0.462 OA
BRANCH   5   6
ATOM      6  C   UNL A   1      33.091  25.882  21.440  1.00  0.00     0.326 C 
ATOM      7  O   UNL A   1      32.986  25.775  20.218  1.00  0.00    -0.250 OA
BRANCH   6   8
ATOM      8  C   UNL A   1      32.180  25.068  22.371  1.00  0.00     0.246 C 
BRANCH   8   9
ATOM      9  N   UNL A   1      31.004  25.626  23.042  1.00  0.00    -0.313 N 
ATOM     10  C   UNL A   1      30.604  24.023  26.147  1.00  0.00     0.211 A 
ATOM     11  N   UNL A   1      29.595  24.780  26.660  1.00  0.00    -0.122 NA
ATOM     12  N   UNL A   1      31.126  24.117  24.911  1.00  0.00    -0.201 NA
ATOM     13  N   UNL A   1      29.059  25.779  25.955  1.00  0.00    -0.144 NA
ATOM     14  C   UNL A   1      30.596  25.163  24.261  1.00  0.00     0.165 A 
ATOM     15  C   UNL A   1      29.601  26.002  24.735  1.00  0.00     0.138 A 
ATOM     16  C   UNL A   1      29.421  27.052  23.808  1.00  0.00     0.030 A 
ATOM     17  C   UNL A   1      30.457  26.900  22.884  1.00  0.00     0.053 A 
ATOM     18  C   UNL A   1      28.589  28.196  23.729  1.00  0.00     0.013 A 
ATOM     19  C   UNL A   1      30.800  27.976  22.068  1.00  0.00     0.027 A 
ATOM     20  C   UNL A   1      28.862  29.203  22.798  1.00  0.00     0.001 A 
ATOM     21  C   UNL A   1      30.000  29.121  22.020  1.00  0.00     0.002 A 
BRANCH  10  22
ATOM     22  S   UNL A   1      31.151  22.623  27.085  1.00  0.00    -0.074 SA
BRANCH  22  23
ATOM     23  C   UNL A   1      32.938  22.941  27.082  1.00  0.00     0.178 C 
BRANCH  23  24
ATOM     24  C   UNL A   1      33.704  22.077  26.096  1.00  0.00     0.233 C 
ATOM     25  O   UNL A   1      33.244  20.964  25.835  1.00  0.00    -0.274 OA
BRANCH  24  26
ATOM     26  N   UNL A   1      34.867  22.579  25.497  1.00  0.00    -0.342 N 
ATOM     27  C   UNL A   1      38.938  24.830  27.065  1.00  0.00     0.009 C 
ATOM     28  C   UNL A   1      37.470  23.647  25.970  1.00  0.00     0.005 C 
ATOM     29  C   UNL A   1      37.386  23.403  24.199  1.00  0.00     0.007 C 
ATOM     30  C   UNL A   1      35.724  23.429  26.339  1.00  0.00     0.122 C 
ATOM     31  C   UNL A   1      36.438  22.323  23.708  1.00  0.00     0.022 C 
ATOM     32  C   UNL A   1      35.034  22.688  24.073  1.00  0.00     0.119 C 
ENDBRANCH  24  26
ENDBRANCH  23  24
ENDBRANCH  22  23
ENDBRANCH  10  22
ENDBRANCH   8   9
ENDBRANCH   6   8
ENDBRANCH   5   6
ENDBRANCH   4   5
ENDBRANCH   3   4
ENDBRANCH   2   3
ENDBRANCH   1   2
BRANCH   1  33
ATOM     33  C   UNL A   1      32.185  27.601  26.804  1.00  0.00     0.188 C 
BRANCH  33  34
ATOM     34  O   UNL A   1      31.852  28.799  27.458  1.00  0.00    -0.376 OA
BRANCH  34  35
ATOM     35  C   UNL A   1      31.744  29.939  26.625  1.00  0.00     0.202 C 
BRANCH  35  36
ATOM     36  C   UNL A   1      32.783  31.095  26.731  1.00  0.00     0.261 C 
BRANCH  36  37
ATOM     37  O   UNL A   1      33.706  31.035  27.869  1.00  0.00    -0.460 OA
BRANCH  37  38
ATOM     38  C   UNL A   1      34.840  31.817  27.816  1.00  0.00     0.338 C 
ATOM     39  O   UNL A   1      34.818  33.029  27.648  1.00  0.00    -0.246 OA
BRANCH  38  40
ATOM     40  C   UNL A   1      36.057  31.101  28.399  1.00  0.00     0.060 A 
ATOM     41  C   UNL A   1      37.174  31.665  29.018  1.00  0.00     0.016 A 
ATOM     42  C   UNL A   1      36.159  29.748  28.093  1.00  0.00     0.016 A 
ATOM     43  C   UNL A   1      38.435  30.965  29.028  1.00  0.00     0.010 A 
ATOM     44  C   UNL A   1      37.402  29.069  28.107  1.00  0.00     0.010 A 
ATOM     45  C   UNL A   1      38.606  29.699  28.424  1.00  0.00    -0.014 A 
BRANCH  45  46
ATOM     46  C   UNL A   1      39.845  28.827  28.543  1.00  0.00     0.031 A 
ATOM     47  C   UNL A   1      40.064  28.593  29.974  1.00  0.00     0.074 A 
ATOM     48  C   UNL A   1      40.723  28.172  27.717  1.00  0.00     0.049 A 
ATOM     49  N   UNL A   1      40.736  29.412  30.707  1.00  0.00    -0.248 NA
ATOM     50  C   UNL A   1      39.275  27.601  30.708  1.00  0.00     0.031 C 
ATOM     51  C   UNL A   1      40.781  28.179  26.275  1.00  0.00     0.029 A 
ATOM     52  N   UNL A   1      41.814  27.341  27.988  1.00  0.00    -0.354 N 
ATOM     53  C   UNL A   1      40.706  28.852  31.962  1.00  0.00     0.074 A 
ATOM     54  C   UNL A   1      39.575  27.955  31.961  1.00  0.00     0.031 C 
ATOM     55  C   UNL A   1      41.596  27.218  25.771  1.00  0.00     0.029 A 
ATOM     56  C   UNL A   1      42.344  26.629  26.875  1.00  0.00     0.049 A 
ATOM     57  H   UNL A   1      42.192  27.253  28.892  1.00  0.00     0.167 HD
ATOM     58  C   UNL A   1      41.808  28.927  32.754  1.00  0.00     0.034 A 
ATOM     59  C   UNL A   1      43.546  25.985  26.660  1.00  0.00     0.034 A 
ATOM     60  C   UNL A   1      42.785  29.842  32.196  1.00  0.00     0.049 A 
ATOM     61  C   UNL A   1      44.501  26.468  27.678  1.00  0.00     0.074 A 
ATOM     62  C   UNL A   1      42.786  31.181  31.856  1.00  0.00     0.029 A 
ATOM     63  N   UNL A   1      43.839  29.284  31.512  1.00  0.00    -0.354 N 
ATOM     64  N   UNL A   1      45.035  27.656  27.636  1.00  0.00    -0.248 NA
ATOM     65  C   UNL A   1      44.421  25.859  28.994  1.00  0.00     0.031 C 
ATOM     66  C   UNL A   1      43.566  31.274  30.666  1.00  0.00     0.029 A 
ATOM     67  C   UNL A   1      44.088  30.012  30.375  1.00  0.00     0.049 A 
ATOM     68  H   UNL A   1      44.340  28.485  31.794  1.00  0.00     0.167 HD
ATOM     69  C   UNL A   1      44.861  28.141  28.923  1.00  0.00     0.074 A 
ATOM     70  C   UNL A   1      44.541  26.964  29.730  1.00  0.00     0.031 C 
ATOM     71  C   UNL A   1      44.699  29.473  29.170  1.00  0.00     0.034 A 
BRANCH  58  72
ATOM     72  C   UNL A   1      42.149  27.877  33.776  1.00  0.00     0.023 A 
ATOM     73  C   UNL A   1      43.025  26.803  33.527  1.00  0.00     0.031 A 
ATOM     74  C   UNL A   1      41.731  28.033  35.107  1.00  0.00     0.131 A 
ATOM     75  C   UNL A   1      43.413  25.918  34.536  1.00  0.00     0.055 A 
ATOM     76  C   UNL A   1      42.182  27.199  36.135  1.00  0.00     0.041 A 
ATOM     77  F   UNL A   1      40.910  29.035  35.458  1.00  0.00    -0.206 F 
ATOM     78  C   UNL A   1      43.023  26.129  35.851  1.00  0.00     0.022 A 
BRANCH  75  79
ATOM     79  S   UNL A   1      44.432  24.470  34.139  1.00  0.00     0.124 S 
ATOM     80  O   UNL A   1      45.764  24.931  34.513  1.00  0.00    -0.237 OA
ATOM     81  O   UNL A   1      43.843  23.455  35.010  1.00  0.00    -0.237 OA
ATOM     82  O   UNL A   1      44.198  24.270  32.713  1.00  0.00    -0.744 OA
ENDBRANCH  75  79
ENDBRANCH  58  72
BRANCH  59  83
ATOM     83  C   UNL A   1      43.668  24.571  26.131  1.00  0.00     0.023 A 
ATOM     84  C   UNL A   1      42.291  23.491  26.550  1.00  0.00     0.031 A 
ATOM     85  C   UNL A   1      45.205  23.783  25.576  1.00  0.00     0.131 A 
ATOM     86  C   UNL A   1      42.382  21.709  26.295  1.00  0.00     0.055 A 
ATOM     87  C   UNL A   1      45.301  21.974  25.281  1.00  0.00     0.041 A 
ATOM     88  F   UNL A   1      46.321  24.508  25.394  1.00  0.00    -0.206 F 
ATOM     89  C   UNL A   1      43.885  20.929  25.688  1.00  0.00     0.022 A 
BRANCH  86  90
ATOM     90  S   UNL A   1      41.011  20.714  26.883  1.00  0.00     0.124 S 
ATOM     91  O   UNL A   1      40.739  21.323  28.181  1.00  0.00    -0.237 OA
ATOM     92  O   UNL A   1      40.012  20.950  25.849  1.00  0.00    -0.237 OA
ATOM     93  O   UNL A   1      41.601  19.381  26.911  1.00  0.00    -0.744 OA
ENDBRANCH  86  90
ENDBRANCH  59  83
BRANCH  71  94
ATOM     94  C   UNL A   1      45.015  30.462  28.065  1.00  0.00     0.023 A 
ATOM     95  C   UNL A   1      46.319  30.985  28.044  1.00  0.00     0.031 A 
ATOM     96  C   UNL A   1      44.077  31.036  27.184  1.00  0.00     0.131 A 
ATOM     97  C   UNL A   1      46.644  32.067  27.219  1.00  0.00     0.055 A 
ATOM     98  C   UNL A   1      44.422  32.080  26.312  1.00  0.00     0.041 A 
ATOM     99  F   UNL A   1      42.792  30.660  27.188  1.00  0.00    -0.206 F 
ATOM    100  C   UNL A   1      45.708  32.612  26.340  1.00  0.00     0.022 A 
BRANCH  97 101
ATOM    101  S   UNL A   1      48.253  32.882  27.388  1.00  0.00     0.124 S 
ATOM    102  O   UNL A   1      48.595  33.180  26.000  1.00  0.00    -0.237 OA
ATOM    103  O   UNL A   1      47.927  34.041  28.217  1.00  0.00    -0.237 OA
ATOM    104  O   UNL A   1      49.091  31.877  28.035  1.00  0.00    -0.744 OA
ENDBRANCH  97 101
ENDBRANCH  71  94
ENDBRANCH  45  46
ENDBRANCH  38  40
ENDBRANCH  37  38
ENDBRANCH  36  37
ENDBRANCH  35  36
ENDBRANCH  34  35
ENDBRANCH  33  34
ENDBRANCH   1  33
TORSDOF 25
ENDMDL
MODEL 2
REMARK VINA RESULT:      -9.1      5.182     11.291
REMARK SMILES C[C@@H]1CCCN(C(=O)CSc2nnc3c4ccccc4n(CC(=O)OCCOCCOCCOC(=O)c4ccc(-c5c6nc(c(-c7cc(S(=O)(=O)[O-])ccc7F)c7ccc([nH]7)c(-c7cc(S(=O)(=O)[O-])ccc7F)c7nc(c(-c8cc(S(=O)(=O)[O-])ccc8F)c8ccc5[nH]8)C=C7)C=C6)cc4)c3n2)C1
REMARK SMILES IDX 29 1 28 2 27 3 26 4 25 5 23 6 24 7 22 8 21 9 11 10 12 11
REMARK SMILES IDX 101 12 13 13 100 14 14 15 15 16 20 17 16 18 19 19 17 20
REMARK SMILES IDX 18 21 10 22 9 23 7 24 8 25 6 26 1 27 2 28 3 29 102 30 4 31
REMARK SMILES IDX 5 32 30 33 31 34 32 35 33 36 34 37 35 38 36 39 37 40 38 41
REMARK SMILES IDX 99 42 39 43 98 44 40 45 41 46 42 47 92 48 43 49 97 50 91 51
REMARK SMILES IDX 93 52 44 53 96 54 90 55 89 56 45 58 77 59 57 60 76 61 58 62
REMARK SMILES IDX 61 63 75 64 94 65 59 66 60 67 74 69 95 70 62 71 46 72 47 73
REMARK SMILES IDX 55 74 48 75 54 76 56 77 53 78 49 79 50 80 51 81 52 82 78 83
REMARK SMILES IDX 79 84 87 85 80 86 86 87 88 88 85 89 81 90 82 91 83 92 84 93
REMARK SMILES IDX 63 94 64 95 72 96 65 97 71 98 73 99 70 100 66 101 67 102
REMARK SMILES IDX 68 103 69 104
REMARK H PARENT 93 57 61 68
REMARK Flexibility Score: inf
ROOT
ATOM      1  C   UNL A   1      45.216  29.471  28.915  1.00  0.00     0.188 C 
ENDROOT
BRANCH   1   2
ATOM      2  O   UNL A   1      44.535  29.437  27.683  1.00  0.00    -0.376 OA
BRANCH   2   3
ATOM      3  C   UNL A   1      43.122  29.433  27.734  1.00  0.00     0.202 C 
BRANCH   3   4
ATOM      4  C   UNL A   1      42.357  28.646  26.657  1.00  0.00     0.261 C 
BRANCH   4   5
ATOM      5  O   UNL A   1      41.123  28.020  27.131  1.00  0.00    -0.462 OA
BRANCH   5   6
ATOM      6  C   UNL A   1      40.764  26.874  26.487  1.00  0.00     0.326 C 
ATOM      7  O   UNL A   1      41.237  26.602  25.382  1.00  0.00    -0.250 OA
BRANCH   6   8
ATOM      8  C   UNL A   1      39.978  25.817  27.277  1.00  0.00     0.246 C 
BRANCH   8   9
ATOM      9  N   UNL A   1      40.563  24.560  27.749  1.00  0.00    -0.313 N 
ATOM     10  C   UNL A   1      38.950  21.884  26.134  1.00  0.00     0.211 A 
ATOM     11  N   UNL A   1      39.730  20.857  26.572  1.00  0.00    -0.122 NA
ATOM     12  N   UNL A   1      39.039  23.172  26.510  1.00  0.00    -0.201 NA
ATOM     13  N   UNL A   1      40.747  21.076  27.409  1.00  0.00    -0.144 NA
ATOM     14  C   UNL A   1      40.102  23.352  27.306  1.00  0.00     0.165 A 
ATOM     15  C   UNL A   1      40.964  22.366  27.755  1.00  0.00     0.138 A 
ATOM     16  C   UNL A   1      42.025  22.982  28.456  1.00  0.00     0.030 A 
ATOM     17  C   UNL A   1      41.851  24.351  28.242  1.00  0.00     0.053 A 
ATOM     18  C   UNL A   1      43.190  22.531  29.122  1.00  0.00     0.013 A 
ATOM     19  C   UNL A   1      42.923  25.213  28.467  1.00  0.00     0.027 A 
ATOM     20  C   UNL A   1      44.196  23.436  29.474  1.00  0.00     0.001 A 
ATOM     21  C   UNL A   1      44.089  24.757  29.088  1.00  0.00     0.002 A 
BRANCH  10  22
ATOM     22  S   UNL A   1      37.531  21.487  25.151  1.00  0.00    -0.074 SA
BRANCH  22  23
ATOM     23  C   UNL A   1      36.425  22.831  25.667  1.00  0.00     0.178 C 
BRANCH  23  24
ATOM     24  C   UNL A   1      34.952  22.505  25.487  1.00  0.00     0.233 C 
ATOM     25  O   UNL A   1      34.535  21.458  25.985  1.00  0.00    -0.274 OA
BRANCH  24  26
ATOM     26  N   UNL A   1      34.124  23.407  24.807  1.00  0.00    -0.342 N 
ATOM     27  C   UNL A   1      29.923  25.748  25.787  1.00  0.00     0.009 C 
ATOM     28  C   UNL A   1      31.880  25.154  25.034  1.00  0.00     0.005 C 
ATOM     29  C   UNL A   1      32.552  25.476  23.407  1.00  0.00     0.007 C 
ATOM     30  C   UNL A   1      32.797  23.650  25.395  1.00  0.00     0.122 C 
ATOM     31  C   UNL A   1      34.034  25.197  23.218  1.00  0.00     0.022 C 
ATOM     32  C   UNL A   1      34.295  23.738  23.418  1.00  0.00     0.119 C 
ENDBRANCH  24  26
ENDBRANCH  23  24
ENDBRANCH  22  23
ENDBRANCH  10  22
ENDBRANCH   8   9
ENDBRANCH   6   8
ENDBRANCH   5   6
ENDBRANCH   4   5
ENDBRANCH   3   4
ENDBRANCH   2   3
ENDBRANCH   1   2
BRANCH   1  33
ATOM     33  C   UNL A   1      45.612  28.147  29.589  1.00  0.00     0.188 C 
BRANCH  33  34
ATOM     34  O   UNL A   1      46.617  28.155  30.571  1.00  0.00    -0.376 OA
BRANCH  34  35
ATOM     35  C   UNL A   1      47.448  27.009  30.602  1.00  0.00     0.202 C 
BRANCH  35  36
ATOM     36  C   UNL A   1      46.986  25.719  31.344  1.00  0.00     0.261 C 
BRANCH  36  37
ATOM     37  O   UNL A   1      46.359  25.915  32.655  1.00  0.00    -0.460 OA
BRANCH  37  38
ATOM     38  C   UNL A   1      45.016  25.627  32.771  1.00  0.00     0.338 C 
ATOM     39  O   UNL A   1      44.538  24.524  32.542  1.00  0.00    -0.246 OA
BRANCH  38  40
ATOM     40  C   UNL A   1      44.277  26.674  33.603  1.00  0.00     0.060 A 
ATOM     41  C   UNL A   1      43.140  26.500  34.395  1.00  0.00     0.016 A 
ATOM     42  C   UNL A   1      44.656  27.993  33.378  1.00  0.00     0.016 A 
ATOM     43  C   UNL A   1      42.265  27.612  34.672  1.00  0.00     0.010 A 
ATOM     44  C   UNL A   1      43.789  29.079  33.655  1.00  0.00     0.010 A 
ATOM     45  C   UNL A   1      42.501  28.910  34.165  1.00  0.00    -0.014 A 
BRANCH  45  46
ATOM     46  C   UNL A   1      41.729  30.160  34.551  1.00  0.00     0.031 A 
ATOM     47  C   UNL A   1      40.606  30.272  33.615  1.00  0.00     0.074 A 
ATOM     48  C   UNL A   1      41.752  31.119  35.532  1.00  0.00     0.049 A 
ATOM     49  N   UNL A   1      40.720  30.860  32.474  1.00  0.00    -0.248 NA
ATOM     50  C   UNL A   1      39.400  29.457  33.778  1.00  0.00     0.031 C 
ATOM     51  C   UNL A   1      42.703  31.291  36.604  1.00  0.00     0.029 A 
ATOM     52  N   UNL A   1      40.915  32.209  35.790  1.00  0.00    -0.354 N 
ATOM     53  C   UNL A   1      39.475  30.747  31.904  1.00  0.00     0.074 A 
ATOM     54  C   UNL A   1      38.834  29.646  32.583  1.00  0.00     0.031 C 
ATOM     55  C   UNL A   1      42.286  32.171  37.549  1.00  0.00     0.029 A 
ATOM     56  C   UNL A   1      41.094  32.846  37.051  1.00  0.00     0.049 A 
ATOM     57  H   UNL A   1      40.243  32.517  35.140  1.00  0.00     0.167 HD
ATOM     58  C   UNL A   1      38.977  31.781  31.175  1.00  0.00     0.034 A 
ATOM     59  C   UNL A   1      40.714  34.079  37.540  1.00  0.00     0.034 A 
ATOM     60  C   UNL A   1      40.004  32.771  30.915  1.00  0.00     0.049 A 
ATOM     61  C   UNL A   1      40.380  34.936  36.384  1.00  0.00     0.074 A 
ATOM     62  C   UNL A   1      41.237  32.761  30.290  1.00  0.00     0.029 A 
ATOM     63  N   UNL A   1      40.001  33.892  31.712  1.00  0.00    -0.354 N 
ATOM     64  N   UNL A   1      41.286  35.438  35.594  1.00  0.00    -0.248 NA
ATOM     65  C   UNL A   1      39.059  34.770  35.804  1.00  0.00     0.031 C 
ATOM     66  C   UNL A   1      42.064  33.629  31.060  1.00  0.00     0.029 A 
ATOM     67  C   UNL A   1      41.290  34.209  32.066  1.00  0.00     0.049 A 
ATOM     68  H   UNL A   1      39.199  34.392  31.986  1.00  0.00     0.167 HD
ATOM     69  C   UNL A   1      40.811  35.148  34.324  1.00  0.00     0.074 A 
ATOM     70  C   UNL A   1      39.404  34.799  34.517  1.00  0.00     0.031 C 
ATOM     71  C   UNL A   1      41.657  34.928  33.276  1.00  0.00     0.034 A 
BRANCH  58  72
ATOM     72  C   UNL A   1      37.505  32.070  31.072  1.00  0.00     0.023 A 
ATOM     73  C   UNL A   1      36.759  32.683  32.097  1.00  0.00     0.031 A 
ATOM     74  C   UNL A   1      36.840  31.894  29.847  1.00  0.00     0.131 A 
ATOM     75  C   UNL A   1      35.422  33.047  31.918  1.00  0.00     0.055 A 
ATOM     76  C   UNL A   1      35.528  32.332  29.641  1.00  0.00     0.041 A 
ATOM     77  F   UNL A   1      37.465  31.337  28.799  1.00  0.00    -0.206 F 
ATOM     78  C   UNL A   1      34.808  32.906  30.681  1.00  0.00     0.022 A 
BRANCH  75  79
ATOM     79  S   UNL A   1      34.461  33.707  33.309  1.00  0.00     0.124 S 
ATOM     80  O   UNL A   1      33.202  32.983  33.172  1.00  0.00    -0.237 OA
ATOM     81  O   UNL A   1      35.295  33.322  34.445  1.00  0.00    -0.237 OA
ATOM     82  O   UNL A   1      34.410  35.140  33.039  1.00  0.00    -0.744 OA
ENDBRANCH  75  79
ENDBRANCH  58  72
BRANCH  59  83
ATOM     83  C   UNL A   1      39.993  34.283  38.857  1.00  0.00     0.023 A 
ATOM     84  C   UNL A   1      38.958  32.902  39.368  1.00  0.00     0.031 A 
ATOM     85  C   UNL A   1      39.704  35.883  39.662  1.00  0.00     0.131 A 
ATOM     86  C   UNL A   1      37.782  33.061  40.724  1.00  0.00     0.055 A 
ATOM     87  C   UNL A   1      38.534  36.050  41.065  1.00  0.00     0.041 A 
ATOM     88  F   UNL A   1      40.326  36.992  39.228  1.00  0.00    -0.206 F 
ATOM     89  C   UNL A   1      37.535  34.631  41.567  1.00  0.00     0.022 A 
BRANCH  86  90
ATOM     90  S   UNL A   1      36.700  31.669  41.053  1.00  0.00     0.124 S 
ATOM     91  O   UNL A   1      36.441  31.827  42.480  1.00  0.00    -0.237 OA
ATOM     92  O   UNL A   1      35.579  31.953  40.168  1.00  0.00    -0.237 OA
ATOM     93  O   UNL A   1      37.544  30.541  40.675  1.00  0.00    -0.744 OA
ENDBRANCH  86  90
ENDBRANCH  59  83
BRANCH  71  94
ATOM     94  C   UNL A   1      43.119  35.302  33.429  1.00  0.00     0.023 A 
ATOM     95  C   UNL A   1      43.488  36.586  32.994  1.00  0.00     0.031 A 
ATOM     96  C   UNL A   1      44.158  34.422  33.792  1.00  0.00     0.131 A 
ATOM     97  C   UNL A   1      44.836  36.943  32.875  1.00  0.00     0.055 A 
ATOM     98  C   UNL A   1      45.506  34.803  33.732  1.00  0.00     0.041 A 
ATOM     99  F   UNL A   1      43.909  33.153  34.142  1.00  0.00    -0.206 F 
ATOM    100  C   UNL A   1      45.851  36.064  33.255  1.00  0.00     0.022 A 
BRANCH  97 101
ATOM    101  S   UNL A   1      45.291  38.504  32.080  1.00  0.00     0.124 S 
ATOM    102  O   UNL A   1      43.996  39.018  31.643  1.00  0.00    -0.237 OA
ATOM    103  O   UNL A   1      45.920  39.238  33.177  1.00  0.00    -0.237 OA
ATOM    104  O   UNL A   1      46.198  38.103  31.007  1.00  0.00    -0.744 OA
ENDBRANCH  97 101
ENDBRANCH  71  94
ENDBRANCH  45  46
ENDBRANCH  38  40
ENDBRANCH  37  38
ENDBRANCH  36  37
ENDBRANCH  35  36
ENDBRANCH  34  35
ENDBRANCH  33  34
ENDBRANCH   1  33
TORSDOF 25
ENDMDL
MODEL 3
REMARK VINA RESULT:      -8.9      4.371      9.515
REMARK SMILES C[C@@H]1CCCN(C(=O)CSc2nnc3c4ccccc4n(CC(=O)OCCOCCOCCOC(=O)c4ccc(-c5c6nc(c(-c7cc(S(=O)(=O)[O-])ccc7F)c7ccc([nH]7)c(-c7cc(S(=O)(=O)[O-])ccc7F)c7nc(c(-c8cc(S(=O)(=O)[O-])ccc8F)c8ccc5[nH]8)C=C7)C=C6)cc4)c3n2)C1
REMARK SMILES IDX 29 1 28 2 27 3 26 4 25 5 23 6 24 7 22 8 21 9 11 10 12 11
REMARK SMILES IDX 101 12 13 13 100 14 14 15 15 16 20 17 16 18 19 19 17 20
REMARK SMILES IDX 18 21 10 22 9 23 7 24 8 25 6 26 1 27 2 28 3 29 102 30 4 31
REMARK SMILES IDX 5 32 30 33 31 34 32 35 33 36 34 37 35 38 36 39 37 40 38 41
REMARK SMILES IDX 99 42 39 43 98 44 40 45 41 46 42 47 92 48 43 49 97 50 91 51
REMARK SMILES IDX 93 52 44 53 96 54 90 55 89 56 45 58 77 59 57 60 76 61 58 62
REMARK SMILES IDX 61 63 75 64 94 65 59 66 60 67 74 69 95 70 62 71 46 72 47 73
REMARK SMILES IDX 55 74 48 75 54 76 56 77 53 78 49 79 50 80 51 81 52 82 78 83
REMARK SMILES IDX 79 84 87 85 80 86 86 87 88 88 85 89 81 90 82 91 83 92 84 93
REMARK SMILES IDX 63 94 64 95 72 96 65 97 71 98 73 99 70 100 66 101 67 102
REMARK SMILES IDX 68 103 69 104
REMARK H PARENT 93 57 61 68
REMARK Flexibility Score: inf
ROOT
ATOM      1  C   UNL A   1      34.506  33.113  33.279  1.00  0.00     0.188 C 
ENDROOT
BRANCH   1   2
ATOM      2  O   UNL A   1      34.063  33.682  32.070  1.00  0.00    -0.376 OA
BRANCH   2   3
ATOM      3  C   UNL A   1      34.190  35.084  31.940  1.00  0.00     0.202 C 
BRANCH   3   4
ATOM      4  C   UNL A   1      33.128  35.838  31.122  1.00  0.00     0.261 C 
BRANCH   4   5
ATOM      5  O   UNL A   1      32.521  35.050  30.050  1.00  0.00    -0.462 OA
BRANCH   5   6
ATOM      6  C   UNL A   1      33.158  35.109  28.847  1.00  0.00     0.326 C 
ATOM      7  O   UNL A   1      33.786  36.116  28.519  1.00  0.00    -0.250 OA
BRANCH   6   8
ATOM      8  C   UNL A   1      33.298  33.809  28.040  1.00  0.00     0.246 C 
BRANCH   8   9
ATOM      9  N   UNL A   1      34.267  32.759  28.360  1.00  0.00    -0.313 N 
ATOM     10  C   UNL A   1      33.244  29.766  26.821  1.00  0.00     0.211 A 
ATOM     11  N   UNL A   1      34.330  28.992  27.095  1.00  0.00    -0.122 NA
ATOM     12  N   UNL A   1      33.026  31.021  27.254  1.00  0.00    -0.201 NA
ATOM     13  N   UNL A   1      35.355  29.473  27.802  1.00  0.00    -0.144 NA
ATOM     14  C   UNL A   1      34.099  31.478  27.913  1.00  0.00     0.165 A 
ATOM     15  C   UNL A   1      35.255  30.766  28.189  1.00  0.00     0.138 A 
ATOM     16  C   UNL A   1      36.192  31.643  28.780  1.00  0.00     0.030 A 
ATOM     17  C   UNL A   1      35.619  32.911  28.668  1.00  0.00     0.053 A 
ATOM     18  C   UNL A   1      37.519  31.525  29.261  1.00  0.00     0.013 A 
ATOM     19  C   UNL A   1      36.433  34.035  28.799  1.00  0.00     0.027 A 
ATOM     20  C   UNL A   1      38.275  32.669  29.530  1.00  0.00     0.001 A 
ATOM     21  C   UNL A   1      37.755  33.914  29.236  1.00  0.00     0.002 A 
BRANCH  10  22
ATOM     22  S   UNL A   1      31.865  29.004  26.011  1.00  0.00    -0.074 SA
BRANCH  22  23
ATOM     23  C   UNL A   1      32.717  27.614  25.213  1.00  0.00     0.178 C 
BRANCH  23  24
ATOM     24  C   UNL A   1      32.270  26.256  25.726  1.00  0.00     0.233 C 
ATOM     25  O   UNL A   1      31.647  26.225  26.789  1.00  0.00    -0.274 OA
BRANCH  24  26
ATOM     26  N   UNL A   1      32.544  25.108  24.970  1.00  0.00    -0.342 N 
ATOM     27  C   UNL A   1      36.581  22.920  23.236  1.00  0.00     0.009 C 
ATOM     28  C   UNL A   1      34.593  23.373  24.008  1.00  0.00     0.005 C 
ATOM     29  C   UNL A   1      33.058  22.559  23.577  1.00  0.00     0.007 C 
ATOM     30  C   UNL A   1      33.913  24.978  24.448  1.00  0.00     0.122 C 
ATOM     31  C   UNL A   1      31.855  22.875  24.448  1.00  0.00     0.022 C 
ATOM     32  C   UNL A   1      31.521  24.328  24.328  1.00  0.00     0.119 C 
ENDBRANCH  24  26
ENDBRANCH  23  24
ENDBRANCH  22  23
ENDBRANCH  10  22
ENDBRANCH   8   9
ENDBRANCH   6   8
ENDBRANCH   5   6
ENDBRANCH   4   5
ENDBRANCH   3   4
ENDBRANCH   2   3
ENDBRANCH   1   2
BRANCH   1  33
ATOM     33  C   UNL A   1      35.817  33.615  33.908  1.00  0.00     0.188 C 
BRANCH  33  34
ATOM     34  O   UNL A   1      36.487  32.798  34.833  1.00  0.00    -0.376 OA
BRANCH  34  35
ATOM     35  C   UNL A   1      37.414  33.461  35.673  1.00  0.00     0.202 C 
BRANCH  35  36
ATOM     36  C   UNL A   1      37.168  33.542  37.209  1.00  0.00     0.261 C 
BRANCH  36  37
ATOM     37  O   UNL A   1      38.364  33.617  38.054  1.00  0.00    -0.460 OA
BRANCH  37  38
ATOM     38  C   UNL A   1      39.192  34.708  37.897  1.00  0.00     0.338 C 
ATOM     39  O   UNL A   1      39.139  35.705  38.605  1.00  0.00    -0.246 OA
BRANCH  38  40
ATOM     40  C   UNL A   1      40.422  34.376  37.054  1.00  0.00     0.060 A 
ATOM     41  C   UNL A   1      41.000  35.136  36.035  1.00  0.00     0.016 A 
ATOM     42  C   UNL A   1      40.897  33.075  37.176  1.00  0.00     0.016 A 
ATOM     43  C   UNL A   1      41.780  34.501  35.002  1.00  0.00     0.010 A 
ATOM     44  C   UNL A   1      41.665  32.459  36.156  1.00  0.00     0.010 A 
ATOM     45  C   UNL A   1      41.997  33.104  34.965  1.00  0.00    -0.014 A 
BRANCH  45  46
ATOM     46  C   UNL A   1      42.944  32.386  34.018  1.00  0.00     0.031 A 
ATOM     47  C   UNL A   1      42.121  31.806  32.953  1.00  0.00     0.074 A 
ATOM     48  C   UNL A   1      44.295  32.207  33.857  1.00  0.00     0.049 A 
ATOM     49  N   UNL A   1      41.572  30.646  33.066  1.00  0.00    -0.248 NA
ATOM     50  C   UNL A   1      41.618  32.629  31.851  1.00  0.00     0.031 C 
ATOM     51  C   UNL A   1      45.372  32.653  34.708  1.00  0.00     0.029 A 
ATOM     52  N   UNL A   1      45.037  31.544  32.875  1.00  0.00    -0.354 N 
ATOM     53  C   UNL A   1      40.892  30.471  31.884  1.00  0.00     0.074 A 
ATOM     54  C   UNL A   1      40.704  31.797  31.344  1.00  0.00     0.031 C 
ATOM     55  C   UNL A   1      46.592  32.543  34.123  1.00  0.00     0.029 A 
ATOM     56  C   UNL A   1      46.441  31.780  32.890  1.00  0.00     0.049 A 
ATOM     57  H   UNL A   1      44.614  30.950  32.213  1.00  0.00     0.167 HD
ATOM     58  C   UNL A   1      40.856  29.240  31.309  1.00  0.00     0.034 A 
ATOM     59  C   UNL A   1      47.510  31.113  32.328  1.00  0.00     0.034 A 
ATOM     60  C   UNL A   1      41.363  28.230  32.218  1.00  0.00     0.049 A 
ATOM     61  C   UNL A   1      47.050  29.756  31.964  1.00  0.00     0.074 A 
ATOM     62  C   UNL A   1      41.014  27.787  33.479  1.00  0.00     0.029 A 
ATOM     63  N   UNL A   1      42.659  27.813  32.023  1.00  0.00    -0.354 N 
ATOM     64  N   UNL A   1      46.830  28.826  32.850  1.00  0.00    -0.248 NA
ATOM     65  C   UNL A   1      46.322  29.623  30.715  1.00  0.00     0.031 C 
ATOM     66  C   UNL A   1      42.245  27.504  34.140  1.00  0.00     0.029 A 
ATOM     67  C   UNL A   1      43.291  27.692  33.235  1.00  0.00     0.049 A 
ATOM     68  H   UNL A   1      43.071  27.628  31.148  1.00  0.00     0.167 HD
ATOM     69  C   UNL A   1      45.586  28.326  32.497  1.00  0.00     0.074 A 
ATOM     70  C   UNL A   1      45.356  28.807  31.136  1.00  0.00     0.031 C 
ATOM     71  C   UNL A   1      44.727  27.820  33.430  1.00  0.00     0.034 A 
BRANCH  58  72
ATOM     72  C   UNL A   1      40.758  29.039  29.821  1.00  0.00     0.023 A 
ATOM     73  C   UNL A   1      41.863  29.110  28.951  1.00  0.00     0.031 A 
ATOM     74  C   UNL A   1      39.556  28.587  29.254  1.00  0.00     0.131 A 
ATOM     75  C   UNL A   1      41.754  28.796  27.594  1.00  0.00     0.055 A 
ATOM     76  C   UNL A   1      39.464  28.194  27.914  1.00  0.00     0.041 A 
ATOM     77  F   UNL A   1      38.447  28.464  29.998  1.00  0.00    -0.206 F 
ATOM     78  C   UNL A   1      40.565  28.305  27.074  1.00  0.00     0.022 A 
BRANCH  75  79
ATOM     79  S   UNL A   1      43.170  29.036  26.485  1.00  0.00     0.124 S 
ATOM     80  O   UNL A   1      44.209  28.263  27.157  1.00  0.00    -0.237 OA
ATOM     81  O   UNL A   1      42.661  28.467  25.239  1.00  0.00    -0.237 OA
ATOM     82  O   UNL A   1      43.353  30.483  26.473  1.00  0.00    -0.744 OA
ENDBRANCH  75  79
ENDBRANCH  58  72
BRANCH  59  83
ATOM     83  C   UNL A   1      48.589  31.783  31.503  1.00  0.00     0.023 A 
ATOM     84  C   UNL A   1      50.108  32.138  32.400  1.00  0.00     0.031 A 
ATOM     85  C   UNL A   1      48.325  32.655  29.933  1.00  0.00     0.131 A 
ATOM     86  C   UNL A   1      51.384  33.204  31.703  1.00  0.00     0.055 A 
ATOM     87  C   UNL A   1      49.630  33.715  29.198  1.00  0.00     0.041 A 
ATOM     88  F   UNL A   1      47.152  32.561  29.285  1.00  0.00    -0.206 F 
ATOM     89  C   UNL A   1      51.153  34.022  30.118  1.00  0.00     0.022 A 
BRANCH  86  90
ATOM     90  S   UNL A   1      52.789  33.606  32.742  1.00  0.00     0.124 S 
ATOM     91  O   UNL A   1      53.001  32.350  33.453  1.00  0.00    -0.237 OA
ATOM     92  O   UNL A   1      53.798  33.953  31.751  1.00  0.00    -0.237 OA
ATOM     93  O   UNL A   1      52.265  34.712  33.536  1.00  0.00    -0.744 OA
ENDBRANCH  86  90
ENDBRANCH  59  83
BRANCH  71  94
ATOM     94  C   UNL A   1      45.255  27.524  34.821  1.00  0.00     0.023 A 
ATOM     95  C   UNL A   1      45.711  26.214  35.053  1.00  0.00     0.031 A 
ATOM     96  C   UNL A   1      45.158  28.378  35.936  1.00  0.00     0.131 A 
ATOM     97  C   UNL A   1      45.998  25.775  36.350  1.00  0.00     0.055 A 
ATOM     98  C   UNL A   1      45.506  27.955  37.228  1.00  0.00     0.041 A 
ATOM     99  F   UNL A   1      44.658  29.616  35.827  1.00  0.00    -0.206 F 
ATOM    100  C   UNL A   1      45.912  26.641  37.441  1.00  0.00     0.022 A 
BRANCH  97 101
ATOM    101  S   UNL A   1      46.341  24.024  36.657  1.00  0.00     0.124 S 
ATOM    102  O   UNL A   1      47.638  24.076  37.327  1.00  0.00    -0.237 OA
ATOM    103  O   UNL A   1      45.214  23.631  37.500  1.00  0.00    -0.237 OA
ATOM    104  O   UNL A   1      46.351  23.427  35.324  1.00  0.00    -0.744 OA
ENDBRANCH  97 101
ENDBRANCH  71  94
ENDBRANCH  45  46
ENDBRANCH  38  40
ENDBRANCH  37  38
ENDBRANCH  36  37
ENDBRANCH  35  36
ENDBRANCH  34  35
ENDBRANCH  33  34
ENDBRANCH   1  33
TORSDOF 25
ENDMDL
