MODEL 1
REMARK VINA RESULT:      -8.2      0.000      0.000
REMARK SMILES CC[C@@H](C)[C@H](NC(=O)[C@@H](C)N1C(=O)N2CCC3=c4cc(OC)ccc4=N[C@@H]3[C@@]2(C)C1=O)C(=O)OCCOCCOCCOC(=O)c1ccc(-c2c3nc(c(-c4cc(S(=O)(=O)[O-])ccc4F)c4ccc([nH]4)c(-c4cc(S(=O)(=O)[O-])ccc4F)c4nc(c(-c5cc(S(=O)(=O)[O-])ccc5F)c5ccc2[nH]5)C=C4)C=C3)cc1
REMARK SMILES IDX 38 1 37 2 36 3 35 4 34 5 32 6 33 7 5 8 3 9 4 10 2 11 1 12
REMARK SMILES IDX 6 13 7 14 8 16 9 17 10 18 11 19 12 20 30 21 14 22 13 23
REMARK SMILES IDX 28 24 31 25 15 26 27 27 29 28 16 29 17 30 26 31 18 32 25 33
REMARK SMILES IDX 19 34 24 35 20 36 23 37 21 38 22 39 39 40 40 41 41 42 42 43
REMARK SMILES IDX 43 44 44 45 45 46 46 47 47 48 108 49 48 50 107 51 49 52
REMARK SMILES IDX 50 53 51 54 101 55 52 56 106 57 100 58 102 59 53 60 105 61
REMARK SMILES IDX 99 62 98 63 54 65 86 66 66 67 85 68 67 69 70 70 84 71 103 72
REMARK SMILES IDX 68 73 69 74 83 76 104 77 71 78 55 79 56 80 64 81 57 82 63 83
REMARK SMILES IDX 65 84 62 85 58 86 59 87 60 88 61 89 87 90 88 91 96 92 89 93
REMARK SMILES IDX 95 94 97 95 94 96 90 97 91 98 92 99 93 100 72 101 73 102
REMARK SMILES IDX 81 103 74 104 80 105 82 106 79 107 75 108 76 109 77 110
REMARK SMILES IDX 78 111
REMARK H PARENT 6 15 102 64 70 75
REMARK Flexibility Score: inf
ROOT
ATOM      1  C   UNL A   1      50.655  32.537  28.931  1.00  0.00     0.188 C 
ENDROOT
BRANCH   1   2
ATOM      2  O   UNL A   1      49.287  32.034  28.971  1.00  0.00    -0.376 OA
BRANCH   2   3
ATOM      3  C   UNL A   1      48.357  31.889  30.060  1.00  0.00     0.202 C 
BRANCH   3   4
ATOM      4  C   UNL A   1      49.080  31.110  31.231  1.00  0.00     0.261 C 
BRANCH   4   5
ATOM      5  O   UNL A   1      49.454  29.787  30.818  1.00  0.00    -0.462 OA
BRANCH   5   6
ATOM      6  C   UNL A   1      48.537  28.873  31.209  1.00  0.00     0.328 C 
ATOM      7  O   UNL A   1      47.515  28.637  30.572  1.00  0.00    -0.250 OA
BRANCH   6   8
ATOM      8  C   UNL A   1      48.969  28.098  32.478  1.00  0.00     0.195 C 
BRANCH   8   9
ATOM      9  C   UNL A   1      48.540  26.645  32.655  1.00  0.00     0.019 C 
ATOM     10  C   UNL A   1      49.676  25.877  33.361  1.00  0.00     0.010 C 
BRANCH   9  11
ATOM     11  C   UNL A   1      48.117  25.995  31.334  1.00  0.00     0.002 C 
ATOM     12  C   UNL A   1      49.296  25.708  30.423  1.00  0.00     0.004 C 
ENDBRANCH   9  11
ENDBRANCH   8   9
BRANCH   8  13
ATOM     13  N   UNL A   1      48.996  28.812  33.788  1.00  0.00    -0.341 N 
ATOM     14  C   UNL A   1      47.918  28.978  34.698  1.00  0.00     0.243 C 
ATOM     15  H   UNL A   1      49.856  29.212  34.050  1.00  0.00     0.164 HD
ATOM     16  O   UNL A   1      47.411  27.920  35.111  1.00  0.00    -0.273 OA
BRANCH  14  17
ATOM     17  C   UNL A   1      47.136  30.660  35.217  1.00  0.00     0.181 C 
ATOM     18  C   UNL A   1      48.265  30.986  36.338  1.00  0.00     0.042 C 
BRANCH  17  19
ATOM     19  N   UNL A   1      45.592  31.853  34.659  1.00  0.00    -0.250 N 
ATOM     20  C   UNL A   1      44.957  32.579  33.224  1.00  0.00     0.328 C 
ATOM     21  C   UNL A   1      44.535  32.223  35.401  1.00  0.00     0.259 C 
ATOM     22  N   UNL A   1      43.515  33.212  33.298  1.00  0.00    -0.307 N 
ATOM     23  O   UNL A   1      45.460  32.783  32.113  1.00  0.00    -0.248 OA
ATOM     24  C   UNL A   1      43.560  32.759  34.524  1.00  0.00     0.147 C 
ATOM     25  O   UNL A   1      44.134  32.130  36.558  1.00  0.00    -0.271 OA
ATOM     26  C   UNL A   1      41.761  33.387  33.673  1.00  0.00     0.127 C 
ATOM     27  C   UNL A   1      42.764  31.368  33.653  1.00  0.00     0.168 C 
ATOM     28  C   UNL A   1      43.717  34.342  34.955  1.00  0.00     0.048 C 
ATOM     29  C   UNL A   1      41.188  32.100  34.880  1.00  0.00     0.055 C 
ATOM     30  C   UNL A   1      41.779  30.732  34.500  1.00  0.00    -0.032 C 
ATOM     31  N   UNL A   1      43.466  30.432  32.763  1.00  0.00    -0.274 NA
ATOM     32  C   UNL A   1      42.178  29.443  34.501  1.00  0.00     0.005 A 
ATOM     33  C   UNL A   1      42.903  29.355  33.187  1.00  0.00     0.066 A 
ATOM     34  C   UNL A   1      42.416  28.273  35.347  1.00  0.00     0.056 A 
ATOM     35  C   UNL A   1      42.976  28.064  32.506  1.00  0.00     0.032 A 
ATOM     36  C   UNL A   1      43.056  27.215  34.763  1.00  0.00     0.119 A 
ATOM     37  C   UNL A   1      42.997  27.012  33.323  1.00  0.00     0.048 A 
BRANCH  36  38
ATOM     38  O   UNL A   1      43.966  26.407  35.440  1.00  0.00    -0.497 OA
ATOM     39  C   UNL A   1      44.373  26.942  36.731  1.00  0.00     0.278 C 
ENDBRANCH  36  38
ENDBRANCH  17  19
ENDBRANCH  14  17
ENDBRANCH   8  13
ENDBRANCH   6   8
ENDBRANCH   5   6
ENDBRANCH   4   5
ENDBRANCH   3   4
ENDBRANCH   2   3
ENDBRANCH   1   2
BRANCH   1  40
ATOM     40  C   UNL A   1      51.140  34.371  28.535  1.00  0.00     0.188 C 
BRANCH  40  41
ATOM     41  O   UNL A   1      50.181  35.842  28.822  1.00  0.00    -0.376 OA
BRANCH  41  42
ATOM     42  C   UNL A   1      49.734  37.239  27.721  1.00  0.00     0.202 C 
BRANCH  42  43
ATOM     43  C   UNL A   1      48.135  38.362  27.873  1.00  0.00     0.261 C 
BRANCH  43  44
ATOM     44  O   UNL A   1      46.794  38.180  26.778  1.00  0.00    -0.460 OA
BRANCH  44  45
ATOM     45  C   UNL A   1      45.479  37.699  26.911  1.00  0.00     0.338 C 
ATOM     46  O   UNL A   1      44.540  38.479  26.792  1.00  0.00    -0.246 OA
BRANCH  45  47
ATOM     47  C   UNL A   1      45.106  36.100  27.190  1.00  0.00     0.060 A 
ATOM     48  C   UNL A   1      45.532  35.450  28.365  1.00  0.00     0.016 A 
ATOM     49  C   UNL A   1      44.246  35.244  26.483  1.00  0.00     0.016 A 
ATOM     50  C   UNL A   1      45.202  34.063  28.692  1.00  0.00     0.010 A 
ATOM     51  C   UNL A   1      43.886  33.896  26.775  1.00  0.00     0.010 A 
ATOM     52  C   UNL A   1      44.406  33.249  27.867  1.00  0.00    -0.014 A 
BRANCH  52  53
ATOM     53  C   UNL A   1      44.135  31.780  28.049  1.00  0.00     0.031 A 
ATOM     54  C   UNL A   1      42.950  31.338  28.886  1.00  0.00     0.074 A 
ATOM     55  C   UNL A   1      44.972  30.817  27.601  1.00  0.00     0.049 A 
ATOM     56  N   UNL A   1      42.307  30.200  28.877  1.00  0.00    -0.248 NA
ATOM     57  C   UNL A   1      42.431  32.298  29.878  1.00  0.00     0.031 C 
ATOM     58  C   UNL A   1      46.298  31.061  27.038  1.00  0.00     0.029 A 
ATOM     59  N   UNL A   1      44.840  29.444  27.544  1.00  0.00    -0.354 N 
ATOM     60  C   UNL A   1      41.248  30.349  29.770  1.00  0.00     0.074 A 
ATOM     61  C   UNL A   1      41.403  31.639  30.398  1.00  0.00     0.031 C 
ATOM     62  C   UNL A   1      46.824  29.894  26.623  1.00  0.00     0.029 A 
ATOM     63  C   UNL A   1      45.860  28.817  26.854  1.00  0.00     0.049 A 
ATOM     64  H   UNL A   1      44.089  28.958  27.954  1.00  0.00     0.167 HD
ATOM     65  C   UNL A   1      40.215  29.500  29.994  1.00  0.00     0.034 A 
ATOM     66  C   UNL A   1      45.968  27.549  26.391  1.00  0.00     0.034 A 
ATOM     67  C   UNL A   1      40.150  28.189  29.402  1.00  0.00     0.049 A 
ATOM     68  C   UNL A   1      44.774  26.630  26.550  1.00  0.00     0.074 A 
ATOM     69  C   UNL A   1      39.134  27.255  29.480  1.00  0.00     0.029 A 
ATOM     70  N   UNL A   1      41.162  27.621  28.641  1.00  0.00    -0.354 N 
ATOM     71  N   UNL A   1      43.635  26.865  27.163  1.00  0.00    -0.248 NA
ATOM     72  C   UNL A   1      44.844  25.301  25.922  1.00  0.00     0.031 C 
ATOM     73  C   UNL A   1      39.561  26.100  28.823  1.00  0.00     0.029 A 
ATOM     74  C   UNL A   1      40.809  26.340  28.264  1.00  0.00     0.049 A 
ATOM     75  H   UNL A   1      42.008  28.066  28.405  1.00  0.00     0.167 HD
ATOM     76  C   UNL A   1      42.850  25.729  26.979  1.00  0.00     0.074 A 
ATOM     77  C   UNL A   1      43.631  24.820  26.164  1.00  0.00     0.031 C 
ATOM     78  C   UNL A   1      41.605  25.456  27.446  1.00  0.00     0.034 A 
BRANCH  65  79
ATOM     79  C   UNL A   1      39.037  29.961  30.826  1.00  0.00     0.023 A 
ATOM     80  C   UNL A   1      38.155  30.954  30.354  1.00  0.00     0.031 A 
ATOM     81  C   UNL A   1      38.905  29.548  32.166  1.00  0.00     0.131 A 
ATOM     82  C   UNL A   1      37.217  31.528  31.226  1.00  0.00     0.055 A 
ATOM     83  C   UNL A   1      37.944  30.095  33.018  1.00  0.00     0.041 A 
ATOM     84  F   UNL A   1      39.726  28.615  32.675  1.00  0.00    -0.206 F 
ATOM     85  C   UNL A   1      37.103  31.100  32.552  1.00  0.00     0.022 A 
BRANCH  82  86
ATOM     86  S   UNL A   1      36.150  32.897  30.694  1.00  0.00     0.124 S 
ATOM     87  O   UNL A   1      36.143  32.729  29.242  1.00  0.00    -0.237 OA
ATOM     88  O   UNL A   1      34.893  32.581  31.363  1.00  0.00    -0.237 OA
ATOM     89  O   UNL A   1      36.844  34.087  31.174  1.00  0.00    -0.744 OA
ENDBRANCH  82  86
ENDBRANCH  65  79
BRANCH  66  90
ATOM     90  C   UNL A   1      47.180  27.154  25.600  1.00  0.00     0.023 A 
ATOM     91  C   UNL A   1      48.273  26.525  26.224  1.00  0.00     0.031 A 
ATOM     92  C   UNL A   1      47.325  27.510  24.245  1.00  0.00     0.131 A 
ATOM     93  C   UNL A   1      49.478  26.344  25.525  1.00  0.00     0.055 A 
ATOM     94  C   UNL A   1      48.501  27.258  23.529  1.00  0.00     0.041 A 
ATOM     95  F   UNL A   1      46.326  28.129  23.596  1.00  0.00    -0.206 F 
ATOM     96  C   UNL A   1      49.594  26.693  24.178  1.00  0.00     0.022 A 
BRANCH  93  97
ATOM     97  S   UNL A   1      50.981  25.811  26.396  1.00  0.00     0.124 S 
ATOM     98  O   UNL A   1      51.800  25.297  25.304  1.00  0.00    -0.237 OA
ATOM     99  O   UNL A   1      51.442  27.062  26.996  1.00  0.00    -0.237 OA
ATOM    100  O   UNL A   1      50.493  24.817  27.345  1.00  0.00    -0.744 OA
ENDBRANCH  93  97
ENDBRANCH  66  90
BRANCH  78 101
ATOM    101  C   UNL A   1      40.988  24.116  27.127  1.00  0.00     0.023 A 
ATOM    102  C   UNL A   1      39.779  24.055  26.409  1.00  0.00     0.031 A 
ATOM    103  C   UNL A   1      41.483  22.935  27.705  1.00  0.00     0.131 A 
ATOM    104  C   UNL A   1      39.075  22.848  26.337  1.00  0.00     0.055 A 
ATOM    105  C   UNL A   1      40.806  21.722  27.581  1.00  0.00     0.041 A 
ATOM    106  F   UNL A   1      42.622  22.948  28.417  1.00  0.00    -0.206 F 
ATOM    107  C   UNL A   1      39.586  21.680  26.910  1.00  0.00     0.022 A 
BRANCH 104 108
ATOM    108  S   UNL A   1      37.416  22.778  25.605  1.00  0.00     0.124 S 
ATOM    109  O   UNL A   1      37.053  21.379  25.820  1.00  0.00    -0.237 OA
ATOM    110  O   UNL A   1      36.682  23.745  26.415  1.00  0.00    -0.237 OA
ATOM    111  O   UNL A   1      37.629  23.157  24.213  1.00  0.00    -0.744 OA
ENDBRANCH 104 108
ENDBRANCH  78 101
ENDBRANCH  52  53
ENDBRANCH  45  47
ENDBRANCH  44  45
ENDBRANCH  43  44
ENDBRANCH  42  43
ENDBRANCH  41  42
ENDBRANCH  40  41
ENDBRANCH   1  40
TORSDOF 26
ENDMDL
MODEL 2
REMARK VINA RESULT:      -8.0      3.128      5.182
REMARK SMILES CC[C@@H](C)[C@H](NC(=O)[C@@H](C)N1C(=O)N2CCC3=c4cc(OC)ccc4=N[C@@H]3[C@@]2(C)C1=O)C(=O)OCCOCCOCCOC(=O)c1ccc(-c2c3nc(c(-c4cc(S(=O)(=O)[O-])ccc4F)c4ccc([nH]4)c(-c4cc(S(=O)(=O)[O-])ccc4F)c4nc(c(-c5cc(S(=O)(=O)[O-])ccc5F)c5ccc2[nH]5)C=C4)C=C3)cc1
REMARK SMILES IDX 38 1 37 2 36 3 35 4 34 5 32 6 33 7 5 8 3 9 4 10 2 11 1 12
REMARK SMILES IDX 6 13 7 14 8 16 9 17 10 18 11 19 12 20 30 21 14 22 13 23
REMARK SMILES IDX 28 24 31 25 15 26 27 27 29 28 16 29 17 30 26 31 18 32 25 33
REMARK SMILES IDX 19 34 24 35 20 36 23 37 21 38 22 39 39 40 40 41 41 42 42 43
REMARK SMILES IDX 43 44 44 45 45 46 46 47 47 48 108 49 48 50 107 51 49 52
REMARK SMILES IDX 50 53 51 54 101 55 52 56 106 57 100 58 102 59 53 60 105 61
REMARK SMILES IDX 99 62 98 63 54 65 86 66 66 67 85 68 67 69 70 70 84 71 103 72
REMARK SMILES IDX 68 73 69 74 83 76 104 77 71 78 55 79 56 80 64 81 57 82 63 83
REMARK SMILES IDX 65 84 62 85 58 86 59 87 60 88 61 89 87 90 88 91 96 92 89 93
REMARK SMILES IDX 95 94 97 95 94 96 90 97 91 98 92 99 93 100 72 101 73 102
REMARK SMILES IDX 81 103 74 104 80 105 82 106 79 107 75 108 76 109 77 110
REMARK SMILES IDX 78 111
REMARK H PARENT 6 15 102 64 70 75
REMARK Flexibility Score: inf
ROOT
ATOM      1  C   UNL A   1      50.583  32.526  29.009  1.00  0.00     0.188 C 
ENDROOT
BRANCH   1   2
ATOM      2  O   UNL A   1      49.270  31.976  28.693  1.00  0.00    -0.376 OA
BRANCH   2   3
ATOM      3  C   UNL A   1      48.194  31.535  29.540  1.00  0.00     0.202 C 
BRANCH   3   4
ATOM      4  C   UNL A   1      48.804  31.096  30.932  1.00  0.00     0.261 C 
BRANCH   4   5
ATOM      5  O   UNL A   1      49.138  29.699  30.932  1.00  0.00    -0.462 OA
BRANCH   5   6
ATOM      6  C   UNL A   1      48.598  29.066  31.999  1.00  0.00     0.328 C 
ATOM      7  O   UNL A   1      47.404  28.793  32.079  1.00  0.00    -0.250 OA
BRANCH   6   8
ATOM      8  C   UNL A   1      49.660  28.643  33.043  1.00  0.00     0.195 C 
BRANCH   8   9
ATOM      9  C   UNL A   1      51.136  28.903  32.762  1.00  0.00     0.019 C 
ATOM     10  C   UNL A   1      51.958  27.711  33.293  1.00  0.00     0.010 C 
BRANCH   9  11
ATOM     11  C   UNL A   1      51.611  30.247  33.323  1.00  0.00     0.002 C 
ATOM     12  C   UNL A   1      51.016  30.551  34.685  1.00  0.00     0.004 C 
ENDBRANCH   9  11
ENDBRANCH   8   9
BRANCH   8  13
ATOM     13  N   UNL A   1      49.474  27.363  33.788  1.00  0.00    -0.341 N 
ATOM     14  C   UNL A   1      48.837  26.183  33.321  1.00  0.00     0.243 C 
ATOM     15  H   UNL A   1      49.831  27.335  34.704  1.00  0.00     0.164 HD
ATOM     16  O   UNL A   1      49.332  25.690  32.292  1.00  0.00    -0.273 OA
BRANCH  14  17
ATOM     17  C   UNL A   1      47.245  25.395  34.067  1.00  0.00     0.181 C 
ATOM     18  C   UNL A   1      46.336  25.675  32.751  1.00  0.00     0.042 C 
BRANCH  17  19
ATOM     19  N   UNL A   1      46.683  24.414  35.751  1.00  0.00    -0.250 N 
ATOM     20  C   UNL A   1      45.393  23.402  36.304  1.00  0.00     0.328 C 
ATOM     21  C   UNL A   1      47.407  24.221  36.866  1.00  0.00     0.259 C 
ATOM     22  N   UNL A   1      45.588  22.646  37.673  1.00  0.00    -0.307 N 
ATOM     23  O   UNL A   1      44.257  23.201  35.858  1.00  0.00    -0.248 OA
ATOM     24  C   UNL A   1      46.764  23.215  37.629  1.00  0.00     0.147 C 
ATOM     25  O   UNL A   1      48.485  24.566  37.345  1.00  0.00    -0.271 OA
ATOM     26  C   UNL A   1      46.366  21.665  38.968  1.00  0.00     0.127 C 
ATOM     27  C   UNL A   1      47.109  21.607  36.840  1.00  0.00     0.168 C 
ATOM     28  C   UNL A   1      46.188  24.181  38.834  1.00  0.00     0.048 C 
ATOM     29  C   UNL A   1      48.185  21.458  38.669  1.00  0.00     0.055 C 
ATOM     30  C   UNL A   1      48.436  21.143  37.185  1.00  0.00    -0.032 C 
ATOM     31  N   UNL A   1      46.695  21.242  35.478  1.00  0.00    -0.274 NA
ATOM     32  C   UNL A   1      49.002  20.941  35.977  1.00  0.00     0.005 A 
ATOM     33  C   UNL A   1      47.793  20.670  35.124  1.00  0.00     0.066 A 
ATOM     34  C   UNL A   1      50.208  21.155  35.178  1.00  0.00     0.056 A 
ATOM     35  C   UNL A   1      47.941  19.837  33.932  1.00  0.00     0.032 A 
ATOM     36  C   UNL A   1      50.117  20.876  33.843  1.00  0.00     0.119 A 
ATOM     37  C   UNL A   1      49.135  19.924  33.348  1.00  0.00     0.048 A 
BRANCH  36  38
ATOM     38  O   UNL A   1      50.774  21.617  32.863  1.00  0.00    -0.497 OA
ATOM     39  C   UNL A   1      51.467  22.787  33.382  1.00  0.00     0.278 C 
ENDBRANCH  36  38
ENDBRANCH  17  19
ENDBRANCH  14  17
ENDBRANCH   8  13
ENDBRANCH   6   8
ENDBRANCH   5   6
ENDBRANCH   4   5
ENDBRANCH   3   4
ENDBRANCH   2   3
ENDBRANCH   1   2
BRANCH   1  40
ATOM     40  C   UNL A   1      51.008  34.417  29.022  1.00  0.00     0.188 C 
BRANCH  40  41
ATOM     41  O   UNL A   1      49.928  35.778  29.409  1.00  0.00    -0.376 OA
BRANCH  41  42
ATOM     42  C   UNL A   1      49.518  37.309  28.486  1.00  0.00     0.202 C 
BRANCH  42  43
ATOM     43  C   UNL A   1      47.805  38.260  28.532  1.00  0.00     0.261 C 
BRANCH  43  44
ATOM     44  O   UNL A   1      46.650  38.106  27.239  1.00  0.00    -0.460 OA
BRANCH  44  45
ATOM     45  C   UNL A   1      45.341  37.599  27.149  1.00  0.00     0.338 C 
ATOM     46  O   UNL A   1      44.423  38.358  26.856  1.00  0.00    -0.246 OA
BRANCH  45  47
ATOM     47  C   UNL A   1      44.954  35.997  27.385  1.00  0.00     0.060 A 
ATOM     48  C   UNL A   1      45.193  35.367  28.623  1.00  0.00     0.016 A 
ATOM     49  C   UNL A   1      44.237  35.116  26.559  1.00  0.00     0.016 A 
ATOM     50  C   UNL A   1      44.838  33.978  28.910  1.00  0.00     0.010 A 
ATOM     51  C   UNL A   1      43.856  33.765  26.807  1.00  0.00     0.010 A 
ATOM     52  C   UNL A   1      44.202  33.140  27.978  1.00  0.00    -0.014 A 
BRANCH  52  53
ATOM     53  C   UNL A   1      43.929  31.668  28.134  1.00  0.00     0.031 A 
ATOM     54  C   UNL A   1      42.776  31.211  29.006  1.00  0.00     0.074 A 
ATOM     55  C   UNL A   1      44.742  30.714  27.628  1.00  0.00     0.049 A 
ATOM     56  N   UNL A   1      42.127  30.077  28.994  1.00  0.00    -0.248 NA
ATOM     57  C   UNL A   1      42.304  32.148  30.043  1.00  0.00     0.031 C 
ATOM     58  C   UNL A   1      46.046  30.965  27.018  1.00  0.00     0.029 A 
ATOM     59  N   UNL A   1      44.600  29.343  27.541  1.00  0.00    -0.354 N 
ATOM     60  C   UNL A   1      41.105  30.208  29.932  1.00  0.00     0.074 A 
ATOM     61  C   UNL A   1      41.293  31.480  30.586  1.00  0.00     0.031 C 
ATOM     62  C   UNL A   1      46.548  29.806  26.553  1.00  0.00     0.029 A 
ATOM     63  C   UNL A   1      45.588  28.729  26.794  1.00  0.00     0.049 A 
ATOM     64  H   UNL A   1      43.863  28.850  27.969  1.00  0.00     0.167 HD
ATOM     65  C   UNL A   1      40.078  29.358  30.177  1.00  0.00     0.034 A 
ATOM     66  C   UNL A   1      45.669  27.472  26.295  1.00  0.00     0.034 A 
ATOM     67  C   UNL A   1      39.981  28.063  29.554  1.00  0.00     0.049 A 
ATOM     68  C   UNL A   1      44.477  26.555  26.479  1.00  0.00     0.074 A 
ATOM     69  C   UNL A   1      38.963  27.133  29.649  1.00  0.00     0.029 A 
ATOM     70  N   UNL A   1      40.958  27.510  28.739  1.00  0.00    -0.354 N 
ATOM     71  N   UNL A   1      43.366  26.780  27.143  1.00  0.00    -0.248 NA
ATOM     72  C   UNL A   1      44.514  25.243  25.816  1.00  0.00     0.031 C 
ATOM     73  C   UNL A   1      39.357  25.993  28.946  1.00  0.00     0.029 A 
ATOM     74  C   UNL A   1      40.582  26.241  28.344  1.00  0.00     0.049 A 
ATOM     75  H   UNL A   1      41.796  27.957  28.480  1.00  0.00     0.167 HD
ATOM     76  C   UNL A   1      42.567  25.653  26.962  1.00  0.00     0.074 A 
ATOM     77  C   UNL A   1      43.309  24.761  26.093  1.00  0.00     0.031 C 
ATOM     78  C   UNL A   1      41.340  25.375  27.472  1.00  0.00     0.034 A 
BRANCH  65  79
ATOM     79  C   UNL A   1      38.936  29.804  31.066  1.00  0.00     0.023 A 
ATOM     80  C   UNL A   1      37.923  30.655  30.582  1.00  0.00     0.031 A 
ATOM     81  C   UNL A   1      38.964  29.535  32.448  1.00  0.00     0.131 A 
ATOM     82  C   UNL A   1      37.013  31.238  31.477  1.00  0.00     0.055 A 
ATOM     83  C   UNL A   1      38.031  30.087  33.329  1.00  0.00     0.041 A 
ATOM     84  F   UNL A   1      39.914  28.741  32.970  1.00  0.00    -0.206 F 
ATOM     85  C   UNL A   1      37.058  30.954  32.845  1.00  0.00     0.022 A 
BRANCH  82  86
ATOM     86  S   UNL A   1      35.774  32.438  30.912  1.00  0.00     0.124 S 
ATOM     87  O   UNL A   1      35.456  31.940  29.575  1.00  0.00    -0.237 OA
ATOM     88  O   UNL A   1      34.717  32.275  31.904  1.00  0.00    -0.237 OA
ATOM     89  O   UNL A   1      36.482  33.713  30.943  1.00  0.00    -0.744 OA
ENDBRANCH  82  86
ENDBRANCH  65  79
BRANCH  66  90
ATOM     90  C   UNL A   1      46.846  27.092  25.446  1.00  0.00     0.023 A 
ATOM     91  C   UNL A   1      47.069  27.718  24.206  1.00  0.00     0.031 A 
ATOM     92  C   UNL A   1      47.690  26.019  25.791  1.00  0.00     0.131 A 
ATOM     93  C   UNL A   1      48.048  27.220  23.329  1.00  0.00     0.055 A 
ATOM     94  C   UNL A   1      48.715  25.575  24.948  1.00  0.00     0.041 A 
ATOM     95  F   UNL A   1      47.519  25.369  26.953  1.00  0.00    -0.206 F 
ATOM     96  C   UNL A   1      48.882  26.162  23.699  1.00  0.00     0.022 A 
BRANCH  93  97
ATOM     97  S   UNL A   1      48.147  27.819  21.617  1.00  0.00     0.124 S 
ATOM     98  O   UNL A   1      48.264  26.575  20.865  1.00  0.00    -0.237 OA
ATOM     99  O   UNL A   1      46.877  28.529  21.470  1.00  0.00    -0.237 OA
ATOM    100  O   UNL A   1      49.330  28.672  21.621  1.00  0.00    -0.744 OA
ENDBRANCH  93  97
ENDBRANCH  66  90
BRANCH  78 101
ATOM    101  C   UNL A   1      40.703  24.046  27.145  1.00  0.00     0.023 A 
ATOM    102  C   UNL A   1      41.467  22.866  27.221  1.00  0.00     0.031 A 
ATOM    103  C   UNL A   1      39.423  23.977  26.569  1.00  0.00     0.131 A 
ATOM    104  C   UNL A   1      40.967  21.679  26.676  1.00  0.00     0.055 A 
ATOM    105  C   UNL A   1      38.907  22.778  26.079  1.00  0.00     0.041 A 
ATOM    106  F   UNL A   1      38.667  25.081  26.455  1.00  0.00    -0.206 F 
ATOM    107  C   UNL A   1      39.688  21.626  26.114  1.00  0.00     0.022 A 
BRANCH 104 108
ATOM    108  S   UNL A   1      42.003  20.194  26.565  1.00  0.00     0.124 S 
ATOM    109  O   UNL A   1      42.125  19.807  27.969  1.00  0.00    -0.237 OA
ATOM    110  O   UNL A   1      41.184  19.309  25.743  1.00  0.00    -0.237 OA
ATOM    111  O   UNL A   1      43.234  20.668  25.942  1.00  0.00    -0.744 OA
ENDBRANCH 104 108
ENDBRANCH  78 101
ENDBRANCH  52  53
ENDBRANCH  45  47
ENDBRANCH  44  45
ENDBRANCH  43  44
ENDBRANCH  42  43
ENDBRANCH  41  42
ENDBRANCH  40  41
ENDBRANCH   1  40
TORSDOF 26
ENDMDL
MODEL 3
REMARK VINA RESULT:      -7.7      4.092     10.449
REMARK SMILES CC[C@@H](C)[C@H](NC(=O)[C@@H](C)N1C(=O)N2CCC3=c4cc(OC)ccc4=N[C@@H]3[C@@]2(C)C1=O)C(=O)OCCOCCOCCOC(=O)c1ccc(-c2c3nc(c(-c4cc(S(=O)(=O)[O-])ccc4F)c4ccc([nH]4)c(-c4cc(S(=O)(=O)[O-])ccc4F)c4nc(c(-c5cc(S(=O)(=O)[O-])ccc5F)c5ccc2[nH]5)C=C4)C=C3)cc1
REMARK SMILES IDX 38 1 37 2 36 3 35 4 34 5 32 6 33 7 5 8 3 9 4 10 2 11 1 12
REMARK SMILES IDX 6 13 7 14 8 16 9 17 10 18 11 19 12 20 30 21 14 22 13 23
REMARK SMILES IDX 28 24 31 25 15 26 27 27 29 28 16 29 17 30 26 31 18 32 25 33
REMARK SMILES IDX 19 34 24 35 20 36 23 37 21 38 22 39 39 40 40 41 41 42 42 43
REMARK SMILES IDX 43 44 44 45 45 46 46 47 47 48 108 49 48 50 107 51 49 52
REMARK SMILES IDX 50 53 51 54 101 55 52 56 106 57 100 58 102 59 53 60 105 61
REMARK SMILES IDX 99 62 98 63 54 65 86 66 66 67 85 68 67 69 70 70 84 71 103 72
REMARK SMILES IDX 68 73 69 74 83 76 104 77 71 78 55 79 56 80 64 81 57 82 63 83
REMARK SMILES IDX 65 84 62 85 58 86 59 87 60 88 61 89 87 90 88 91 96 92 89 93
REMARK SMILES IDX 95 94 97 95 94 96 90 97 91 98 92 99 93 100 72 101 73 102
REMARK SMILES IDX 81 103 74 104 80 105 82 106 79 107 75 108 76 109 77 110
REMARK SMILES IDX 78 111
REMARK H PARENT 6 15 102 64 70 75
REMARK Flexibility Score: inf
ROOT
ATOM      1  C   UNL A   1      50.028  30.546  26.898  1.00  0.00     0.188 C 
ENDROOT
BRANCH   1   2
ATOM      2  O   UNL A   1      49.192  31.722  26.683  1.00  0.00    -0.376 OA
BRANCH   2   3
ATOM      3  C   UNL A   1      49.478  33.127  26.794  1.00  0.00     0.202 C 
BRANCH   3   4
ATOM      4  C   UNL A   1      48.250  33.830  27.499  1.00  0.00     0.261 C 
BRANCH   4   5
ATOM      5  O   UNL A   1      48.129  35.200  27.085  1.00  0.00    -0.462 OA
BRANCH   5   6
ATOM      6  C   UNL A   1      46.840  35.525  26.834  1.00  0.00     0.328 C 
ATOM      7  O   UNL A   1      46.491  36.140  25.831  1.00  0.00    -0.250 OA
BRANCH   6   8
ATOM      8  C   UNL A   1      45.863  34.952  27.889  1.00  0.00     0.195 C 
BRANCH   8   9
ATOM      9  C   UNL A   1      44.679  34.104  27.434  1.00  0.00     0.019 C 
ATOM     10  C   UNL A   1      43.715  33.923  28.624  1.00  0.00     0.010 C 
BRANCH   9  11
ATOM     11  C   UNL A   1      45.116  32.771  26.818  1.00  0.00     0.002 C 
ATOM     12  C   UNL A   1      44.047  32.161  25.932  1.00  0.00     0.004 C 
ENDBRANCH   9  11
ENDBRANCH   8   9
BRANCH   8  13
ATOM     13  N   UNL A   1      45.501  35.787  29.070  1.00  0.00    -0.341 N 
ATOM     14  C   UNL A   1      45.197  37.175  29.081  1.00  0.00     0.243 C 
ATOM     15  H   UNL A   1      45.470  35.325  29.939  1.00  0.00     0.164 HD
ATOM     16  O   UNL A   1      44.242  37.509  28.359  1.00  0.00    -0.273 OA
BRANCH  14  17
ATOM     17  C   UNL A   1      46.202  38.538  29.999  1.00  0.00     0.181 C 
ATOM     18  C   UNL A   1      47.650  37.936  29.575  1.00  0.00     0.042 C 
BRANCH  17  19
ATOM     19  N   UNL A   1      45.849  40.240  31.045  1.00  0.00    -0.250 N 
ATOM     20  C   UNL A   1      46.734  41.446  31.913  1.00  0.00     0.328 C 
ATOM     21  C   UNL A   1      44.695  40.922  31.131  1.00  0.00     0.259 C 
ATOM     22  N   UNL A   1      45.973  42.766  32.318  1.00  0.00    -0.307 N 
ATOM     23  O   UNL A   1      47.882  41.452  32.374  1.00  0.00    -0.248 OA
ATOM     24  C   UNL A   1      44.989  42.199  31.671  1.00  0.00     0.147 C 
ATOM     25  O   UNL A   1      43.522  40.810  30.785  1.00  0.00    -0.271 OA
ATOM     26  C   UNL A   1      44.920  44.221  32.181  1.00  0.00     0.127 C 
ATOM     27  C   UNL A   1      45.758  43.200  30.355  1.00  0.00     0.168 C 
ATOM     28  C   UNL A   1      44.324  41.971  33.162  1.00  0.00     0.048 C 
ATOM     29  C   UNL A   1      43.891  44.178  30.638  1.00  0.00     0.055 C 
ATOM     30  C   UNL A   1      44.753  43.716  29.451  1.00  0.00    -0.032 C 
ATOM     31  N   UNL A   1      47.029  42.870  29.693  1.00  0.00    -0.274 NA
ATOM     32  C   UNL A   1      45.182  43.278  28.249  1.00  0.00     0.005 A 
ATOM     33  C   UNL A   1      46.660  43.148  28.491  1.00  0.00     0.066 A 
ATOM     34  C   UNL A   1      44.767  42.649  26.995  1.00  0.00     0.056 A 
ATOM     35  C   UNL A   1      47.576  43.285  27.360  1.00  0.00     0.032 A 
ATOM     36  C   UNL A   1      45.765  42.244  26.153  1.00  0.00     0.119 A 
ATOM     37  C   UNL A   1      47.076  42.874  26.196  1.00  0.00     0.048 A 
BRANCH  36  38
ATOM     38  O   UNL A   1      45.684  41.092  25.375  1.00  0.00    -0.497 OA
ATOM     39  C   UNL A   1      45.971  39.870  26.109  1.00  0.00     0.278 C 
ENDBRANCH  36  38
ENDBRANCH  17  19
ENDBRANCH  14  17
ENDBRANCH   8  13
ENDBRANCH   6   8
ENDBRANCH   5   6
ENDBRANCH   4   5
ENDBRANCH   3   4
ENDBRANCH   2   3
ENDBRANCH   1   2
BRANCH   1  40
ATOM     40  C   UNL A   1      49.407  28.885  27.679  1.00  0.00     0.188 C 
BRANCH  40  41
ATOM     41  O   UNL A   1      49.288  27.288  26.901  1.00  0.00    -0.376 OA
BRANCH  41  42
ATOM     42  C   UNL A   1      49.826  26.693  25.253  1.00  0.00     0.202 C 
BRANCH  42  43
ATOM     43  C   UNL A   1      48.656  26.043  23.821  1.00  0.00     0.261 C 
BRANCH  43  44
ATOM     44  O   UNL A   1      47.059  25.439  24.163  1.00  0.00    -0.460 OA
BRANCH  44  45
ATOM     45  C   UNL A   1      46.297  25.293  25.337  1.00  0.00     0.338 C 
ATOM     46  O   UNL A   1      45.904  24.177  25.661  1.00  0.00    -0.246 OA
BRANCH  45  47
ATOM     47  C   UNL A   1      45.917  26.556  26.354  1.00  0.00     0.060 A 
ATOM     48  C   UNL A   1      45.772  26.352  27.740  1.00  0.00     0.016 A 
ATOM     49  C   UNL A   1      45.853  27.933  26.087  1.00  0.00     0.016 A 
ATOM     50  C   UNL A   1      45.482  27.423  28.693  1.00  0.00     0.010 A 
ATOM     51  C   UNL A   1      45.592  29.008  26.987  1.00  0.00     0.010 A 
ATOM     52  C   UNL A   1      45.341  28.770  28.314  1.00  0.00    -0.014 A 
BRANCH  52  53
ATOM     53  C   UNL A   1      44.906  29.909  29.196  1.00  0.00     0.031 A 
ATOM     54  C   UNL A   1      43.429  30.216  29.343  1.00  0.00     0.074 A 
ATOM     55  C   UNL A   1      45.779  30.763  29.777  1.00  0.00     0.049 A 
ATOM     56  N   UNL A   1      42.807  30.862  30.295  1.00  0.00    -0.248 NA
ATOM     57  C   UNL A   1      42.534  29.752  28.267  1.00  0.00     0.031 C 
ATOM     58  C   UNL A   1      47.215  30.799  29.508  1.00  0.00     0.029 A 
ATOM     59  N   UNL A   1      45.596  31.763  30.711  1.00  0.00    -0.354 N 
ATOM     60  C   UNL A   1      41.449  30.780  29.993  1.00  0.00     0.074 A 
ATOM     61  C   UNL A   1      41.341  30.134  28.707  1.00  0.00     0.031 C 
ATOM     62  C   UNL A   1      47.792  31.712  30.311  1.00  0.00     0.029 A 
ATOM     63  C   UNL A   1      46.777  32.304  31.183  1.00  0.00     0.049 A 
ATOM     64  H   UNL A   1      44.708  32.061  31.014  1.00  0.00     0.167 HD
ATOM     65  C   UNL A   1      40.396  31.165  30.755  1.00  0.00     0.034 A 
ATOM     66  C   UNL A   1      47.020  33.114  32.241  1.00  0.00     0.034 A 
ATOM     67  C   UNL A   1      40.559  31.879  31.995  1.00  0.00     0.049 A 
ATOM     68  C   UNL A   1      45.861  33.461  33.153  1.00  0.00     0.074 A 
ATOM     69  C   UNL A   1      39.593  32.265  32.904  1.00  0.00     0.029 A 
ATOM     70  N   UNL A   1      41.776  32.336  32.482  1.00  0.00    -0.354 N 
ATOM     71  N   UNL A   1      44.592  33.144  33.021  1.00  0.00    -0.248 NA
ATOM     72  C   UNL A   1      46.156  34.223  34.376  1.00  0.00     0.031 C 
ATOM     73  C   UNL A   1      40.217  33.012  33.904  1.00  0.00     0.029 A 
ATOM     74  C   UNL A   1      41.584  33.023  33.664  1.00  0.00     0.049 A 
ATOM     75  H   UNL A   1      42.648  32.192  32.048  1.00  0.00     0.167 HD
ATOM     76  C   UNL A   1      43.945  33.648  34.146  1.00  0.00     0.074 A 
ATOM     77  C   UNL A   1      44.969  34.258  34.969  1.00  0.00     0.031 C 
ATOM     78  C   UNL A   1      42.626  33.618  34.468  1.00  0.00     0.034 A 
BRANCH  65  79
ATOM     79  C   UNL A   1      38.994  30.762  30.348  1.00  0.00     0.023 A 
ATOM     80  C   UNL A   1      38.126  31.677  29.721  1.00  0.00     0.031 A 
ATOM     81  C   UNL A   1      38.461  29.525  30.760  1.00  0.00     0.131 A 
ATOM     82  C   UNL A   1      36.768  31.357  29.566  1.00  0.00     0.055 A 
ATOM     83  C   UNL A   1      37.117  29.197  30.567  1.00  0.00     0.041 A 
ATOM     84  F   UNL A   1      39.238  28.619  31.375  1.00  0.00    -0.206 F 
ATOM     85  C   UNL A   1      36.261  30.122  29.980  1.00  0.00     0.022 A 
BRANCH  82  86
ATOM     86  S   UNL A   1      35.590  32.557  28.879  1.00  0.00     0.124 S 
ATOM     87  O   UNL A   1      35.503  32.131  27.483  1.00  0.00    -0.237 OA
ATOM     88  O   UNL A   1      34.398  32.307  29.682  1.00  0.00    -0.237 OA
ATOM     89  O   UNL A   1      36.240  33.845  29.091  1.00  0.00    -0.744 OA
ENDBRANCH  82  86
ENDBRANCH  65  79
BRANCH  66  90
ATOM     90  C   UNL A   1      48.435  33.496  32.566  1.00  0.00     0.023 A 
ATOM     91  C   UNL A   1      49.038  34.608  31.951  1.00  0.00     0.031 A 
ATOM     92  C   UNL A   1      49.246  32.692  33.389  1.00  0.00     0.131 A 
ATOM     93  C   UNL A   1      50.415  34.839  32.103  1.00  0.00     0.055 A 
ATOM     94  C   UNL A   1      50.601  32.969  33.600  1.00  0.00     0.041 A 
ATOM     95  F   UNL A   1      48.735  31.606  33.992  1.00  0.00    -0.206 F 
ATOM     96  C   UNL A   1      51.198  34.035  32.935  1.00  0.00     0.022 A 
BRANCH  93  97
ATOM     97  S   UNL A   1      51.263  36.083  31.086  1.00  0.00     0.124 S 
ATOM     98  O   UNL A   1      50.791  35.754  29.745  1.00  0.00    -0.237 OA
ATOM     99  O   UNL A   1      50.751  37.332  31.646  1.00  0.00    -0.237 OA
ATOM    100  O   UNL A   1      52.676  35.828  31.341  1.00  0.00    -0.744 OA
ENDBRANCH  93  97
ENDBRANCH  66  90
BRANCH  78 101
ATOM    101  C   UNL A   1      42.177  34.281  35.748  1.00  0.00     0.023 A 
ATOM    102  C   UNL A   1      42.076  33.523  36.930  1.00  0.00     0.031 A 
ATOM    103  C   UNL A   1      41.661  35.587  35.745  1.00  0.00     0.131 A 
ATOM    104  C   UNL A   1      41.420  34.058  38.043  1.00  0.00     0.055 A 
ATOM    105  C   UNL A   1      41.060  36.137  36.877  1.00  0.00     0.041 A 
ATOM    106  F   UNL A   1      41.716  36.340  34.635  1.00  0.00    -0.206 F 
ATOM    107  C   UNL A   1      40.920  35.364  38.027  1.00  0.00     0.022 A 
BRANCH 104 108
ATOM    108  S   UNL A   1      41.084  33.041  39.508  1.00  0.00     0.124 S 
ATOM    109  O   UNL A   1      41.951  31.887  39.277  1.00  0.00    -0.237 OA
ATOM    110  O   UNL A   1      41.495  33.923  40.596  1.00  0.00    -0.237 OA
ATOM    111  O   UNL A   1      39.653  32.768  39.426  1.00  0.00    -0.744 OA
ENDBRANCH 104 108
ENDBRANCH  78 101
ENDBRANCH  52  53
ENDBRANCH  45  47
ENDBRANCH  44  45
ENDBRANCH  43  44
ENDBRANCH  42  43
ENDBRANCH  41  42
ENDBRANCH  40  41
ENDBRANCH   1  40
TORSDOF 26
ENDMDL
