MODEL 1
REMARK VINA RESULT:     -10.3      0.000      0.000
REMARK SMILES CNC(=O)c1cc(S(=O)(=O)N2CCC(C(=O)OCCOCCOCCOC(=O)c3ccc(-c4c5nc(c(-c6cc(S(=O)(=O)[O-])ccc6F)c6ccc([nH]6)c(-c6cc(S(=O)(=O)[O-])ccc6F)c6nc(c(-c7cc(S(=O)(=O)[O-])ccc7F)c7ccc4[nH]7)C=C6)C=C5)cc3)CC2)ccc1OC
REMARK SMILES IDX 21 1 20 2 19 3 18 4 17 5 15 6 16 7 14 8 11 9 12 10 93 11
REMARK SMILES IDX 13 12 92 13 8 14 9 15 10 16 7 17 5 18 6 19 96 20 95 21 94 22
REMARK SMILES IDX 3 23 1 24 2 25 4 27 97 28 98 29 22 30 23 31 24 32 25 33
REMARK SMILES IDX 26 34 27 35 28 36 29 37 30 38 91 39 31 40 90 41 32 42 33 43
REMARK SMILES IDX 34 44 84 45 35 46 89 47 83 48 85 49 36 50 88 51 82 52 81 53
REMARK SMILES IDX 37 55 69 56 49 57 68 58 50 59 53 60 67 61 86 62 51 63 52 64
REMARK SMILES IDX 66 66 87 67 54 68 38 69 39 70 47 71 40 72 46 73 48 74 45 75
REMARK SMILES IDX 41 76 42 77 43 78 44 79 70 80 71 81 79 82 72 83 78 84 80 85
REMARK SMILES IDX 77 86 73 87 74 88 75 89 76 90 55 91 56 92 64 93 57 94 63 95
REMARK SMILES IDX 65 96 62 97 58 98 59 99 60 100 61 101
REMARK H PARENT 2 26 85 54 53 65
REMARK Flexibility Score: inf
ROOT
ATOM      1  C   UNL A   1      36.308  22.912  25.928  1.00  0.00     0.188 C 
ENDROOT
BRANCH   1   2
ATOM      2  O   UNL A   1      35.459  22.230  26.845  1.00  0.00    -0.376 OA
BRANCH   2   3
ATOM      3  C   UNL A   1      34.483  23.015  27.528  1.00  0.00     0.202 C 
BRANCH   3   4
ATOM      4  C   UNL A   1      33.014  22.695  27.222  1.00  0.00     0.261 C 
BRANCH   4   5
ATOM      5  O   UNL A   1      32.801  21.399  26.628  1.00  0.00    -0.463 OA
BRANCH   5   6
ATOM      6  C   UNL A   1      32.252  21.417  25.386  1.00  0.00     0.309 C 
ATOM      7  O   UNL A   1      31.562  20.517  24.917  1.00  0.00    -0.252 OA
BRANCH   6   8
ATOM      8  C   UNL A   1      32.514  22.691  24.605  1.00  0.00     0.102 C 
ATOM      9  N   UNL A   1      32.429  24.650  22.479  1.00  0.00    -0.198 NA
ATOM     10  C   UNL A   1      33.726  24.023  22.839  1.00  0.00     0.103 C 
ATOM     11  C   UNL A   1      31.315  24.553  23.447  1.00  0.00     0.103 C 
ATOM     12  C   UNL A   1      33.552  22.643  23.487  1.00  0.00     0.032 C 
ATOM     13  C   UNL A   1      31.188  23.151  24.003  1.00  0.00     0.032 C 
BRANCH   9  14
ATOM     14  S   UNL A   1      32.484  26.096  21.563  1.00  0.00     0.243 S 
ATOM     15  O   UNL A   1      31.634  25.888  20.409  1.00  0.00    -0.207 OA
ATOM     16  O   UNL A   1      33.874  26.475  21.409  1.00  0.00    -0.207 OA
BRANCH  14  17
ATOM     17  C   UNL A   1      31.706  27.393  22.517  1.00  0.00     0.083 A 
ATOM     18  C   UNL A   1      31.853  28.871  24.447  1.00  0.00     0.083 A 
ATOM     19  C   UNL A   1      32.393  27.846  23.653  1.00  0.00     0.039 A 
ATOM     20  C   UNL A   1      30.663  29.496  24.062  1.00  0.00     0.131 A 
ATOM     21  C   UNL A   1      29.968  29.021  22.946  1.00  0.00     0.048 A 
ATOM     22  C   UNL A   1      30.484  27.972  22.177  1.00  0.00     0.025 A 
BRANCH  18  23
ATOM     23  C   UNL A   1      32.604  29.230  25.668  1.00  0.00     0.254 C 
ATOM     24  C   UNL A   1      31.449  27.485  27.111  1.00  0.00     0.143 C 
ATOM     25  N   UNL A   1      32.365  28.576  26.849  1.00  0.00    -0.355 N 
ATOM     26  H   UNL A   1      32.886  28.890  27.622  1.00  0.00     0.163 HD
ATOM     27  O   UNL A   1      33.471  30.098  25.604  1.00  0.00    -0.269 OA
ENDBRANCH  18  23
BRANCH  20  28
ATOM     28  O   UNL A   1      30.055  30.524  24.728  1.00  0.00    -0.496 OA
ATOM     29  C   UNL A   1      29.214  31.325  23.896  1.00  0.00     0.278 C 
ENDBRANCH  20  28
ENDBRANCH  14  17
ENDBRANCH   9  14
ENDBRANCH   6   8
ENDBRANCH   5   6
ENDBRANCH   4   5
ENDBRANCH   3   4
ENDBRANCH   2   3
ENDBRANCH   1   2
BRANCH   1  30
ATOM     30  C   UNL A   1      36.992  22.046  24.869  1.00  0.00     0.188 C 
BRANCH  30  31
ATOM     31  O   UNL A   1      38.353  21.726  25.144  1.00  0.00    -0.376 OA
BRANCH  31  32
ATOM     32  C   UNL A   1      38.634  20.329  25.298  1.00  0.00     0.202 C 
BRANCH  32  33
ATOM     33  C   UNL A   1      39.733  19.974  26.321  1.00  0.00     0.261 C 
BRANCH  33  34
ATOM     34  O   UNL A   1      40.898  19.346  25.746  1.00  0.00    -0.460 OA
BRANCH  34  35
ATOM     35  C   UNL A   1      42.087  19.594  26.348  1.00  0.00     0.338 C 
ATOM     36  O   UNL A   1      43.041  18.836  26.393  1.00  0.00    -0.246 OA
BRANCH  35  37
ATOM     37  C   UNL A   1      42.143  21.039  26.690  1.00  0.00     0.060 A 
ATOM     38  C   UNL A   1      42.054  21.967  25.643  1.00  0.00     0.016 A 
ATOM     39  C   UNL A   1      42.200  21.486  28.014  1.00  0.00     0.016 A 
ATOM     40  C   UNL A   1      42.055  23.338  25.913  1.00  0.00     0.010 A 
ATOM     41  C   UNL A   1      42.215  22.859  28.284  1.00  0.00     0.010 A 
ATOM     42  C   UNL A   1      42.170  23.793  27.233  1.00  0.00    -0.014 A 
BRANCH  42  43
ATOM     43  C   UNL A   1      42.463  25.224  27.502  1.00  0.00     0.031 A 
ATOM     44  C   UNL A   1      43.830  25.743  27.146  1.00  0.00     0.074 A 
ATOM     45  C   UNL A   1      41.546  26.055  28.031  1.00  0.00     0.049 A 
ATOM     46  N   UNL A   1      44.342  26.934  27.323  1.00  0.00    -0.248 NA
ATOM     47  C   UNL A   1      44.741  24.782  26.505  1.00  0.00     0.031 C 
ATOM     48  C   UNL A   1      40.175  25.694  28.381  1.00  0.00     0.029 A 
ATOM     49  N   UNL A   1      41.644  27.382  28.376  1.00  0.00    -0.354 N 
ATOM     50  C   UNL A   1      45.633  26.867  26.812  1.00  0.00     0.074 A 
ATOM     51  C   UNL A   1      45.836  25.509  26.355  1.00  0.00     0.031 C 
ATOM     52  C   UNL A   1      39.562  26.772  28.905  1.00  0.00     0.029 A 
ATOM     53  C   UNL A   1      40.506  27.888  28.961  1.00  0.00     0.049 A 
ATOM     54  H   UNL A   1      42.453  27.920  28.219  1.00  0.00     0.167 HD
ATOM     55  C   UNL A   1      46.564  27.849  26.721  1.00  0.00     0.034 A 
ATOM     56  C   UNL A   1      40.266  29.101  29.503  1.00  0.00     0.034 A 
ATOM     57  C   UNL A   1      46.370  29.192  27.204  1.00  0.00     0.049 A 
ATOM     58  C   UNL A   1      41.359  30.148  29.494  1.00  0.00     0.074 A 
ATOM     59  C   UNL A   1      47.249  30.260  27.156  1.00  0.00     0.029 A 
ATOM     60  N   UNL A   1      45.226  29.651  27.842  1.00  0.00    -0.354 N 
ATOM     61  N   UNL A   1      42.572  30.077  28.997  1.00  0.00    -0.248 NA
ATOM     62  C   UNL A   1      41.045  31.440  30.122  1.00  0.00     0.031 C 
ATOM     63  C   UNL A   1      46.665  31.340  27.826  1.00  0.00     0.029 A 
ATOM     64  C   UNL A   1      45.391  30.972  28.225  1.00  0.00     0.049 A 
ATOM     65  H   UNL A   1      44.415  29.115  28.000  1.00  0.00     0.167 HD
ATOM     66  C   UNL A   1      43.152  31.324  29.225  1.00  0.00     0.074 A 
ATOM     67  C   UNL A   1      42.153  32.130  29.894  1.00  0.00     0.031 C 
ATOM     68  C   UNL A   1      44.394  31.766  28.903  1.00  0.00     0.034 A 
BRANCH  55  69
ATOM     69  C   UNL A   1      47.895  27.472  26.123  1.00  0.00     0.023 A 
ATOM     70  C   UNL A   1      48.162  27.648  24.755  1.00  0.00     0.031 A 
ATOM     71  C   UNL A   1      48.892  26.886  26.922  1.00  0.00     0.131 A 
ATOM     72  C   UNL A   1      49.366  27.175  24.212  1.00  0.00     0.055 A 
ATOM     73  C   UNL A   1      50.120  26.490  26.391  1.00  0.00     0.041 A 
ATOM     74  F   UNL A   1      48.679  26.671  28.230  1.00  0.00    -0.206 F 
ATOM     75  C   UNL A   1      50.357  26.619  25.025  1.00  0.00     0.022 A 
BRANCH  72  76
ATOM     76  S   UNL A   1      49.556  27.163  22.409  1.00  0.00     0.124 S 
ATOM     77  O   UNL A   1      49.136  28.519  22.060  1.00  0.00    -0.237 OA
ATOM     78  O   UNL A   1      50.975  26.872  22.243  1.00  0.00    -0.237 OA
ATOM     79  O   UNL A   1      48.646  26.107  21.975  1.00  0.00    -0.744 OA
ENDBRANCH  72  76
ENDBRANCH  55  69
BRANCH  56  80
ATOM     80  C   UNL A   1      38.959  29.396  30.159  1.00  0.00     0.023 A 
ATOM     81  C   UNL A   1      37.986  30.183  29.523  1.00  0.00     0.031 A 
ATOM     82  C   UNL A   1      38.701  28.962  31.472  1.00  0.00     0.131 A 
ATOM     83  C   UNL A   1      36.823  30.555  30.217  1.00  0.00     0.055 A 
ATOM     84  C   UNL A   1      37.520  29.291  32.140  1.00  0.00     0.041 A 
ATOM     85  F   UNL A   1      39.601  28.212  32.128  1.00  0.00    -0.206 F 
ATOM     86  C   UNL A   1      36.578  30.104  31.516  1.00  0.00     0.022 A 
BRANCH  83  87
ATOM     87  S   UNL A   1      35.671  31.711  29.425  1.00  0.00     0.124 S 
ATOM     88  O   UNL A   1      34.953  32.247  30.576  1.00  0.00    -0.237 OA
ATOM     89  O   UNL A   1      36.581  32.631  28.751  1.00  0.00    -0.237 OA
ATOM     90  O   UNL A   1      34.884  30.855  28.541  1.00  0.00    -0.744 OA
ENDBRANCH  83  87
ENDBRANCH  56  80
BRANCH  68  91
ATOM     91  C   UNL A   1      44.726  33.203  29.230  1.00  0.00     0.023 A 
ATOM     92  C   UNL A   1      44.423  34.256  28.348  1.00  0.00     0.031 A 
ATOM     93  C   UNL A   1      45.355  33.522  30.447  1.00  0.00     0.131 A 
ATOM     94  C   UNL A   1      44.793  35.570  28.675  1.00  0.00     0.055 A 
ATOM     95  C   UNL A   1      45.671  34.838  30.792  1.00  0.00     0.041 A 
ATOM     96  F   UNL A   1      45.668  32.557  31.328  1.00  0.00    -0.206 F 
ATOM     97  C   UNL A   1      45.400  35.869  29.898  1.00  0.00     0.022 A 
BRANCH  94  98
ATOM     98  S   UNL A   1      44.540  36.881  27.446  1.00  0.00     0.124 S 
ATOM     99  O   UNL A   1      45.757  36.784  26.645  1.00  0.00    -0.237 OA
ATOM    100  O   UNL A   1      43.308  36.460  26.788  1.00  0.00    -0.237 OA
ATOM    101  O   UNL A   1      44.426  38.094  28.255  1.00  0.00    -0.744 OA
ENDBRANCH  94  98
ENDBRANCH  68  91
ENDBRANCH  42  43
ENDBRANCH  35  37
ENDBRANCH  34  35
ENDBRANCH  33  34
ENDBRANCH  32  33
ENDBRANCH  31  32
ENDBRANCH  30  31
ENDBRANCH   1  30
TORSDOF 24
ENDMDL
MODEL 2
REMARK VINA RESULT:     -10.0      1.632      2.099
REMARK SMILES CNC(=O)c1cc(S(=O)(=O)N2CCC(C(=O)OCCOCCOCCOC(=O)c3ccc(-c4c5nc(c(-c6cc(S(=O)(=O)[O-])ccc6F)c6ccc([nH]6)c(-c6cc(S(=O)(=O)[O-])ccc6F)c6nc(c(-c7cc(S(=O)(=O)[O-])ccc7F)c7ccc4[nH]7)C=C6)C=C5)cc3)CC2)ccc1OC
REMARK SMILES IDX 21 1 20 2 19 3 18 4 17 5 15 6 16 7 14 8 11 9 12 10 93 11
REMARK SMILES IDX 13 12 92 13 8 14 9 15 10 16 7 17 5 18 6 19 96 20 95 21 94 22
REMARK SMILES IDX 3 23 1 24 2 25 4 27 97 28 98 29 22 30 23 31 24 32 25 33
REMARK SMILES IDX 26 34 27 35 28 36 29 37 30 38 91 39 31 40 90 41 32 42 33 43
REMARK SMILES IDX 34 44 84 45 35 46 89 47 83 48 85 49 36 50 88 51 82 52 81 53
REMARK SMILES IDX 37 55 69 56 49 57 68 58 50 59 53 60 67 61 86 62 51 63 52 64
REMARK SMILES IDX 66 66 87 67 54 68 38 69 39 70 47 71 40 72 46 73 48 74 45 75
REMARK SMILES IDX 41 76 42 77 43 78 44 79 70 80 71 81 79 82 72 83 78 84 80 85
REMARK SMILES IDX 77 86 73 87 74 88 75 89 76 90 55 91 56 92 64 93 57 94 63 95
REMARK SMILES IDX 65 96 62 97 58 98 59 99 60 100 61 101
REMARK H PARENT 2 26 85 54 53 65
REMARK Flexibility Score: inf
ROOT
ATOM      1  C   UNL A   1      35.797  21.772  25.227  1.00  0.00     0.188 C 
ENDROOT
BRANCH   1   2
ATOM      2  O   UNL A   1      35.552  22.268  26.539  1.00  0.00    -0.376 OA
BRANCH   2   3
ATOM      3  C   UNL A   1      34.458  21.695  27.252  1.00  0.00     0.202 C 
BRANCH   3   4
ATOM      4  C   UNL A   1      33.157  22.510  27.275  1.00  0.00     0.261 C 
BRANCH   4   5
ATOM      5  O   UNL A   1      32.010  21.808  26.756  1.00  0.00    -0.463 OA
BRANCH   5   6
ATOM      6  C   UNL A   1      32.044  21.557  25.421  1.00  0.00     0.309 C 
ATOM      7  O   UNL A   1      31.790  20.470  24.911  1.00  0.00    -0.252 OA
BRANCH   6   8
ATOM      8  C   UNL A   1      32.381  22.764  24.566  1.00  0.00     0.102 C 
ATOM      9  N   UNL A   1      32.129  24.856  22.585  1.00  0.00    -0.198 NA
ATOM     10  C   UNL A   1      33.198  23.837  22.434  1.00  0.00     0.103 C 
ATOM     11  C   UNL A   1      31.487  25.004  23.910  1.00  0.00     0.103 C 
ATOM     12  C   UNL A   1      32.855  22.516  23.135  1.00  0.00     0.032 C 
ATOM     13  C   UNL A   1      31.144  23.657  24.509  1.00  0.00     0.032 C 
BRANCH   9  14
ATOM     14  S   UNL A   1      32.289  26.302  21.681  1.00  0.00     0.243 S 
ATOM     15  O   UNL A   1      31.218  26.301  20.706  1.00  0.00    -0.207 OA
ATOM     16  O   UNL A   1      33.673  26.421  21.270  1.00  0.00    -0.207 OA
BRANCH  14  17
ATOM     17  C   UNL A   1      31.961  27.682  22.769  1.00  0.00     0.083 A 
ATOM     18  C   UNL A   1      30.392  29.420  23.440  1.00  0.00     0.083 A 
ATOM     19  C   UNL A   1      30.728  28.335  22.614  1.00  0.00     0.039 A 
ATOM     20  C   UNL A   1      31.255  29.804  24.472  1.00  0.00     0.131 A 
ATOM     21  C   UNL A   1      32.493  29.169  24.602  1.00  0.00     0.048 A 
ATOM     22  C   UNL A   1      32.848  28.115  23.754  1.00  0.00     0.025 A 
BRANCH  18  23
ATOM     23  C   UNL A   1      29.111  30.098  23.155  1.00  0.00     0.254 C 
ATOM     24  C   UNL A   1      27.748  27.954  23.231  1.00  0.00     0.143 C 
ATOM     25  N   UNL A   1      27.948  29.377  23.057  1.00  0.00    -0.355 N 
ATOM     26  H   UNL A   1      27.142  29.897  22.839  1.00  0.00     0.163 HD
ATOM     27  O   UNL A   1      29.093  31.321  23.042  1.00  0.00    -0.269 OA
ENDBRANCH  18  23
BRANCH  20  28
ATOM     28  O   UNL A   1      31.027  30.817  25.361  1.00  0.00    -0.496 OA
ATOM     29  C   UNL A   1      31.898  30.791  26.492  1.00  0.00     0.278 C 
ENDBRANCH  20  28
ENDBRANCH  14  17
ENDBRANCH   9  14
ENDBRANCH   6   8
ENDBRANCH   5   6
ENDBRANCH   4   5
ENDBRANCH   3   4
ENDBRANCH   2   3
ENDBRANCH   1   2
BRANCH   1  30
ATOM     30  C   UNL A   1      35.467  20.298  24.990  1.00  0.00     0.188 C 
BRANCH  30  31
ATOM     31  O   UNL A   1      36.591  19.422  24.993  1.00  0.00    -0.376 OA
BRANCH  31  32
ATOM     32  C   UNL A   1      37.870  20.069  25.031  1.00  0.00     0.202 C 
BRANCH  32  33
ATOM     33  C   UNL A   1      39.071  19.163  25.372  1.00  0.00     0.261 C 
BRANCH  33  34
ATOM     34  O   UNL A   1      39.824  19.584  26.529  1.00  0.00    -0.460 OA
BRANCH  34  35
ATOM     35  C   UNL A   1      41.174  19.593  26.411  1.00  0.00     0.338 C 
ATOM     36  O   UNL A   1      41.863  18.683  25.983  1.00  0.00    -0.246 OA
BRANCH  35  37
ATOM     37  C   UNL A   1      41.648  20.987  26.610  1.00  0.00     0.060 A 
ATOM     38  C   UNL A   1      42.030  21.375  27.903  1.00  0.00     0.016 A 
ATOM     39  C   UNL A   1      41.797  21.879  25.543  1.00  0.00     0.016 A 
ATOM     40  C   UNL A   1      42.527  22.659  28.137  1.00  0.00     0.010 A 
ATOM     41  C   UNL A   1      42.282  23.170  25.780  1.00  0.00     0.010 A 
ATOM     42  C   UNL A   1      42.624  23.577  27.082  1.00  0.00    -0.014 A 
BRANCH  42  43
ATOM     43  C   UNL A   1      42.870  25.013  27.369  1.00  0.00     0.031 A 
ATOM     44  C   UNL A   1      44.235  25.569  27.064  1.00  0.00     0.074 A 
ATOM     45  C   UNL A   1      41.915  25.817  27.871  1.00  0.00     0.049 A 
ATOM     46  N   UNL A   1      44.711  26.771  27.266  1.00  0.00    -0.248 NA
ATOM     47  C   UNL A   1      45.193  24.635  26.450  1.00  0.00     0.031 C 
ATOM     48  C   UNL A   1      40.542  25.420  28.170  1.00  0.00     0.029 A 
ATOM     49  N   UNL A   1      41.967  27.144  28.226  1.00  0.00    -0.354 N 
ATOM     50  C   UNL A   1      46.020  26.740  26.801  1.00  0.00     0.074 A 
ATOM     51  C   UNL A   1      46.273  25.390  26.343  1.00  0.00     0.031 C 
ATOM     52  C   UNL A   1      39.884  26.478  28.678  1.00  0.00     0.029 A 
ATOM     53  C   UNL A   1      40.797  27.617  28.774  1.00  0.00     0.049 A 
ATOM     54  H   UNL A   1      42.767  27.703  28.101  1.00  0.00     0.167 HD
ATOM     55  C   UNL A   1      46.928  27.745  26.748  1.00  0.00     0.034 A 
ATOM     56  C   UNL A   1      40.508  28.820  29.315  1.00  0.00     0.034 A 
ATOM     57  C   UNL A   1      46.684  29.079  27.232  1.00  0.00     0.049 A 
ATOM     58  C   UNL A   1      41.574  29.894  29.351  1.00  0.00     0.074 A 
ATOM     59  C   UNL A   1      47.537  30.169  27.221  1.00  0.00     0.029 A 
ATOM     60  N   UNL A   1      45.508  29.505  27.833  1.00  0.00    -0.354 N 
ATOM     61  N   UNL A   1      42.805  29.856  28.896  1.00  0.00    -0.248 NA
ATOM     62  C   UNL A   1      41.206  31.173  29.975  1.00  0.00     0.031 C 
ATOM     63  C   UNL A   1      46.903  31.230  27.877  1.00  0.00     0.029 A 
ATOM     64  C   UNL A   1      45.625  30.828  28.229  1.00  0.00     0.049 A 
ATOM     65  H   UNL A   1      44.705  28.948  27.959  1.00  0.00     0.167 HD
ATOM     66  C   UNL A   1      43.344  31.116  29.152  1.00  0.00     0.074 A 
ATOM     67  C   UNL A   1      42.303  31.892  29.790  1.00  0.00     0.031 C 
ATOM     68  C   UNL A   1      44.586  31.592  28.876  1.00  0.00     0.034 A 
BRANCH  55  69
ATOM     69  C   UNL A   1      48.289  27.406  26.195  1.00  0.00     0.023 A 
ATOM     70  C   UNL A   1      49.366  27.083  27.038  1.00  0.00     0.031 A 
ATOM     71  C   UNL A   1      48.524  27.454  24.810  1.00  0.00     0.131 A 
ATOM     72  C   UNL A   1      50.645  26.892  26.494  1.00  0.00     0.055 A 
ATOM     73  C   UNL A   1      49.782  27.185  24.269  1.00  0.00     0.041 A 
ATOM     74  F   UNL A   1      47.537  27.784  23.961  1.00  0.00    -0.206 F 
ATOM     75  C   UNL A   1      50.855  26.918  25.114  1.00  0.00     0.022 A 
BRANCH  72  76
ATOM     76  S   UNL A   1      52.054  26.757  27.627  1.00  0.00     0.124 S 
ATOM     77  O   UNL A   1      53.056  26.118  26.776  1.00  0.00    -0.237 OA
ATOM     78  O   UNL A   1      52.310  28.149  27.980  1.00  0.00    -0.237 OA
ATOM     79  O   UNL A   1      51.544  25.921  28.711  1.00  0.00    -0.744 OA
ENDBRANCH  72  76
ENDBRANCH  55  69
BRANCH  56  80
ATOM     80  C   UNL A   1      39.172  29.078  29.927  1.00  0.00     0.023 A 
ATOM     81  C   UNL A   1      38.186  29.804  29.241  1.00  0.00     0.031 A 
ATOM     82  C   UNL A   1      38.895  28.670  31.244  1.00  0.00     0.131 A 
ATOM     83  C   UNL A   1      36.989  30.146  29.892  1.00  0.00     0.055 A 
ATOM     84  C   UNL A   1      37.683  28.968  31.870  1.00  0.00     0.041 A 
ATOM     85  F   UNL A   1      39.807  27.979  31.946  1.00  0.00    -0.206 F 
ATOM     86  C   UNL A   1      36.726  29.722  31.197  1.00  0.00     0.022 A 
BRANCH  83  87
ATOM     87  S   UNL A   1      35.812  31.230  29.036  1.00  0.00     0.124 S 
ATOM     88  O   UNL A   1      35.021  31.744  30.148  1.00  0.00    -0.237 OA
ATOM     89  O   UNL A   1      36.700  32.186  28.384  1.00  0.00    -0.237 OA
ATOM     90  O   UNL A   1      35.107  30.321  28.135  1.00  0.00    -0.744 OA
ENDBRANCH  83  87
ENDBRANCH  56  80
BRANCH  68  91
ATOM     91  C   UNL A   1      44.870  33.034  29.223  1.00  0.00     0.023 A 
ATOM     92  C   UNL A   1      44.759  34.064  28.272  1.00  0.00     0.031 A 
ATOM     93  C   UNL A   1      45.256  33.382  30.531  1.00  0.00     0.131 A 
ATOM     94  C   UNL A   1      45.079  35.383  28.629  1.00  0.00     0.055 A 
ATOM     95  C   UNL A   1      45.518  34.704  30.895  1.00  0.00     0.041 A 
ATOM     96  F   UNL A   1      45.377  32.440  31.481  1.00  0.00    -0.206 F 
ATOM     97  C   UNL A   1      45.442  35.712  29.939  1.00  0.00     0.022 A 
BRANCH  94  98
ATOM     98  S   UNL A   1      45.090  36.661  27.340  1.00  0.00     0.124 S 
ATOM     99  O   UNL A   1      46.276  37.436  27.692  1.00  0.00    -0.237 OA
ATOM    100  O   UNL A   1      45.184  35.871  26.118  1.00  0.00    -0.237 OA
ATOM    101  O   UNL A   1      43.817  37.354  27.533  1.00  0.00    -0.744 OA
ENDBRANCH  94  98
ENDBRANCH  68  91
ENDBRANCH  42  43
ENDBRANCH  35  37
ENDBRANCH  34  35
ENDBRANCH  33  34
ENDBRANCH  32  33
ENDBRANCH  31  32
ENDBRANCH  30  31
ENDBRANCH   1  30
TORSDOF 24
ENDMDL
MODEL 3
REMARK VINA RESULT:      -9.8      2.159      7.561
REMARK SMILES CNC(=O)c1cc(S(=O)(=O)N2CCC(C(=O)OCCOCCOCCOC(=O)c3ccc(-c4c5nc(c(-c6cc(S(=O)(=O)[O-])ccc6F)c6ccc([nH]6)c(-c6cc(S(=O)(=O)[O-])ccc6F)c6nc(c(-c7cc(S(=O)(=O)[O-])ccc7F)c7ccc4[nH]7)C=C6)C=C5)cc3)CC2)ccc1OC
REMARK SMILES IDX 21 1 20 2 19 3 18 4 17 5 15 6 16 7 14 8 11 9 12 10 93 11
REMARK SMILES IDX 13 12 92 13 8 14 9 15 10 16 7 17 5 18 6 19 96 20 95 21 94 22
REMARK SMILES IDX 3 23 1 24 2 25 4 27 97 28 98 29 22 30 23 31 24 32 25 33
REMARK SMILES IDX 26 34 27 35 28 36 29 37 30 38 91 39 31 40 90 41 32 42 33 43
REMARK SMILES IDX 34 44 84 45 35 46 89 47 83 48 85 49 36 50 88 51 82 52 81 53
REMARK SMILES IDX 37 55 69 56 49 57 68 58 50 59 53 60 67 61 86 62 51 63 52 64
REMARK SMILES IDX 66 66 87 67 54 68 38 69 39 70 47 71 40 72 46 73 48 74 45 75
REMARK SMILES IDX 41 76 42 77 43 78 44 79 70 80 71 81 79 82 72 83 78 84 80 85
REMARK SMILES IDX 77 86 73 87 74 88 75 89 76 90 55 91 56 92 64 93 57 94 63 95
REMARK SMILES IDX 65 96 62 97 58 98 59 99 60 100 61 101
REMARK H PARENT 2 26 85 54 53 65
REMARK Flexibility Score: inf
ROOT
ATOM      1  C   UNL A   1      35.933  21.494  24.881  1.00  0.00     0.188 C 
ENDROOT
BRANCH   1   2
ATOM      2  O   UNL A   1      35.966  22.215  26.107  1.00  0.00    -0.376 OA
BRANCH   2   3
ATOM      3  C   UNL A   1      35.001  21.856  27.094  1.00  0.00     0.202 C 
BRANCH   3   4
ATOM      4  C   UNL A   1      33.673  22.624  27.062  1.00  0.00     0.261 C 
BRANCH   4   5
ATOM      5  O   UNL A   1      32.516  21.797  26.825  1.00  0.00    -0.463 OA
BRANCH   5   6
ATOM      6  C   UNL A   1      32.143  21.688  25.524  1.00  0.00     0.309 C 
ATOM      7  O   UNL A   1      31.600  20.701  25.036  1.00  0.00    -0.252 OA
BRANCH   6   8
ATOM      8  C   UNL A   1      32.404  22.930  24.692  1.00  0.00     0.102 C 
ATOM      9  N   UNL A   1      32.312  24.804  22.492  1.00  0.00    -0.198 NA
ATOM     10  C   UNL A   1      33.610  24.188  22.869  1.00  0.00     0.103 C 
ATOM     11  C   UNL A   1      31.203  24.749  23.468  1.00  0.00     0.103 C 
ATOM     12  C   UNL A   1      33.436  22.835  23.571  1.00  0.00     0.032 C 
ATOM     13  C   UNL A   1      31.076  23.370  24.080  1.00  0.00     0.032 C 
BRANCH   9  14
ATOM     14  S   UNL A   1      32.366  26.214  21.520  1.00  0.00     0.243 S 
ATOM     15  O   UNL A   1      31.512  25.962  20.378  1.00  0.00    -0.207 OA
ATOM     16  O   UNL A   1      33.756  26.585  21.347  1.00  0.00    -0.207 OA
BRANCH  14  17
ATOM     17  C   UNL A   1      31.593  27.548  22.425  1.00  0.00     0.083 A 
ATOM     18  C   UNL A   1      31.674  29.001  24.378  1.00  0.00     0.083 A 
ATOM     19  C   UNL A   1      32.214  27.951  23.617  1.00  0.00     0.039 A 
ATOM     20  C   UNL A   1      30.557  29.699  23.908  1.00  0.00     0.131 A 
ATOM     21  C   UNL A   1      29.926  29.274  22.736  1.00  0.00     0.048 A 
ATOM     22  C   UNL A   1      30.438  28.202  21.997  1.00  0.00     0.025 A 
BRANCH  18  23
ATOM     23  C   UNL A   1      32.346  29.306  25.658  1.00  0.00     0.254 C 
ATOM     24  C   UNL A   1      31.385  27.279  26.854  1.00  0.00     0.143 C 
ATOM     25  N   UNL A   1      32.163  28.495  26.750  1.00  0.00    -0.355 N 
ATOM     26  H   UNL A   1      32.623  28.779  27.572  1.00  0.00     0.163 HD
ATOM     27  O   UNL A   1      33.099  30.274  25.724  1.00  0.00    -0.269 OA
ENDBRANCH  18  23
BRANCH  20  28
ATOM     28  O   UNL A   1      29.961  30.756  24.536  1.00  0.00    -0.496 OA
ATOM     29  C   UNL A   1      28.900  31.345  23.781  1.00  0.00     0.278 C 
ENDBRANCH  20  28
ENDBRANCH  14  17
ENDBRANCH   9  14
ENDBRANCH   6   8
ENDBRANCH   5   6
ENDBRANCH   4   5
ENDBRANCH   3   4
ENDBRANCH   2   3
ENDBRANCH   1   2
BRANCH   1  30
ATOM     30  C   UNL A   1      35.538  20.019  24.974  1.00  0.00     0.188 C 
BRANCH  30  31
ATOM     31  O   UNL A   1      36.628  19.103  24.944  1.00  0.00    -0.376 OA
BRANCH  31  32
ATOM     32  C   UNL A   1      37.911  19.686  24.683  1.00  0.00     0.202 C 
BRANCH  32  33
ATOM     33  C   UNL A   1      39.082  19.140  25.527  1.00  0.00     0.261 C 
BRANCH  33  34
ATOM     34  O   UNL A   1      39.946  20.158  26.073  1.00  0.00    -0.460 OA
BRANCH  34  35
ATOM     35  C   UNL A   1      41.255  19.837  26.218  1.00  0.00     0.338 C 
ATOM     36  O   UNL A   1      41.759  18.752  25.980  1.00  0.00    -0.246 OA
BRANCH  35  37
ATOM     37  C   UNL A   1      42.021  21.092  26.430  1.00  0.00     0.060 A 
ATOM     38  C   UNL A   1      42.436  21.398  27.734  1.00  0.00     0.016 A 
ATOM     39  C   UNL A   1      42.398  21.919  25.367  1.00  0.00     0.016 A 
ATOM     40  C   UNL A   1      43.199  22.542  27.982  1.00  0.00     0.010 A 
ATOM     41  C   UNL A   1      43.150  23.072  25.617  1.00  0.00     0.010 A 
ATOM     42  C   UNL A   1      43.531  23.406  26.929  1.00  0.00    -0.014 A 
BRANCH  42  43
ATOM     43  C   UNL A   1      44.081  24.754  27.221  1.00  0.00     0.031 A 
ATOM     44  C   UNL A   1      43.134  25.807  27.731  1.00  0.00     0.074 A 
ATOM     45  C   UNL A   1      45.385  25.046  27.057  1.00  0.00     0.049 A 
ATOM     46  N   UNL A   1      43.359  27.064  28.013  1.00  0.00    -0.248 NA
ATOM     47  C   UNL A   1      41.744  25.377  27.948  1.00  0.00     0.031 C 
ATOM     48  C   UNL A   1      46.415  24.111  26.613  1.00  0.00     0.029 A 
ATOM     49  N   UNL A   1      46.060  26.229  27.242  1.00  0.00    -0.354 N 
ATOM     50  C   UNL A   1      42.141  27.575  28.446  1.00  0.00     0.074 A 
ATOM     51  C   UNL A   1      41.175  26.501  28.350  1.00  0.00     0.031 C 
ATOM     52  C   UNL A   1      47.592  24.761  26.545  1.00  0.00     0.029 A 
ATOM     53  C   UNL A   1      47.393  26.164  26.906  1.00  0.00     0.049 A 
ATOM     54  H   UNL A   1      45.630  27.046  27.582  1.00  0.00     0.167 HD
ATOM     55  C   UNL A   1      41.851  28.822  28.892  1.00  0.00     0.034 A 
ATOM     56  C   UNL A   1      48.333  27.132  26.868  1.00  0.00     0.034 A 
ATOM     57  C   UNL A   1      42.807  29.898  28.958  1.00  0.00     0.049 A 
ATOM     58  C   UNL A   1      47.961  28.546  27.262  1.00  0.00     0.074 A 
ATOM     59  C   UNL A   1      42.614  31.196  29.398  1.00  0.00     0.029 A 
ATOM     60  N   UNL A   1      44.133  29.810  28.555  1.00  0.00    -0.354 N 
ATOM     61  N   UNL A   1      46.808  29.014  27.680  1.00  0.00    -0.248 NA
ATOM     62  C   UNL A   1      49.023  29.560  27.175  1.00  0.00     0.031 C 
ATOM     63  C   UNL A   1      43.801  31.909  29.196  1.00  0.00     0.029 A 
ATOM     64  C   UNL A   1      44.758  31.038  28.701  1.00  0.00     0.049 A 
ATOM     65  H   UNL A   1      44.566  28.994  28.215  1.00  0.00     0.167 HD
ATOM     66  C   UNL A   1      47.017  30.368  27.936  1.00  0.00     0.074 A 
ATOM     67  C   UNL A   1      48.407  30.639  27.635  1.00  0.00     0.031 C 
ATOM     68  C   UNL A   1      46.142  31.303  28.387  1.00  0.00     0.034 A 
BRANCH  55  69
ATOM     69  C   UNL A   1      40.421  29.090  29.286  1.00  0.00     0.023 A 
ATOM     70  C   UNL A   1      40.003  29.021  30.626  1.00  0.00     0.031 A 
ATOM     71  C   UNL A   1      39.455  29.372  28.305  1.00  0.00     0.131 A 
ATOM     72  C   UNL A   1      38.643  29.157  30.940  1.00  0.00     0.055 A 
ATOM     73  C   UNL A   1      38.116  29.585  28.633  1.00  0.00     0.041 A 
ATOM     74  F   UNL A   1      39.795  29.424  27.007  1.00  0.00    -0.206 F 
ATOM     75  C   UNL A   1      37.700  29.463  29.956  1.00  0.00     0.022 A 
BRANCH  72  76
ATOM     76  S   UNL A   1      38.105  28.783  32.631  1.00  0.00     0.124 S 
ATOM     77  O   UNL A   1      38.174  27.323  32.646  1.00  0.00    -0.237 OA
ATOM     78  O   UNL A   1      39.100  29.478  33.440  1.00  0.00    -0.237 OA
ATOM     79  O   UNL A   1      36.754  29.335  32.691  1.00  0.00    -0.744 OA
ENDBRANCH  72  76
ENDBRANCH  55  69
BRANCH  56  80
ATOM     80  C   UNL A   1      49.714  26.833  26.389  1.00  0.00     0.023 A 
ATOM     81  C   UNL A   1      50.137  27.209  25.104  1.00  0.00     0.031 A 
ATOM     82  C   UNL A   1      50.604  26.089  27.185  1.00  0.00     0.131 A 
ATOM     83  C   UNL A   1      51.394  26.796  24.633  1.00  0.00     0.055 A 
ATOM     84  C   UNL A   1      51.873  25.726  26.731  1.00  0.00     0.041 A 
ATOM     85  F   UNL A   1      50.246  25.699  28.419  1.00  0.00    -0.206 F 
ATOM     86  C   UNL A   1      52.269  26.068  25.442  1.00  0.00     0.022 A 
BRANCH  83  87
ATOM     87  S   UNL A   1      51.836  27.153  22.910  1.00  0.00     0.124 S 
ATOM     88  O   UNL A   1      50.527  27.172  22.267  1.00  0.00    -0.237 OA
ATOM     89  O   UNL A   1      52.511  28.441  23.031  1.00  0.00    -0.237 OA
ATOM     90  O   UNL A   1      52.698  26.033  22.541  1.00  0.00    -0.744 OA
ENDBRANCH  83  87
ENDBRANCH  56  80
BRANCH  68  91
ATOM     91  C   UNL A   1      46.675  32.695  28.627  1.00  0.00     0.023 A 
ATOM     92  C   UNL A   1      47.251  33.071  29.854  1.00  0.00     0.031 A 
ATOM     93  C   UNL A   1      46.607  33.662  27.607  1.00  0.00     0.131 A 
ATOM     94  C   UNL A   1      47.690  34.391  30.046  1.00  0.00     0.055 A 
ATOM     95  C   UNL A   1      47.096  34.957  27.785  1.00  0.00     0.041 A 
ATOM     96  F   UNL A   1      46.067  33.360  26.415  1.00  0.00    -0.206 F 
ATOM     97  C   UNL A   1      47.631  35.331  29.014  1.00  0.00     0.022 A 
BRANCH  94  98
ATOM     98  S   UNL A   1      48.272  34.889  31.691  1.00  0.00     0.124 S 
ATOM     99  O   UNL A   1      49.516  35.584  31.375  1.00  0.00    -0.237 OA
ATOM    100  O   UNL A   1      47.177  35.726  32.170  1.00  0.00    -0.237 OA
ATOM    101  O   UNL A   1      48.433  33.619  32.398  1.00  0.00    -0.744 OA
ENDBRANCH  94  98
ENDBRANCH  68  91
ENDBRANCH  42  43
ENDBRANCH  35  37
ENDBRANCH  34  35
ENDBRANCH  33  34
ENDBRANCH  32  33
ENDBRANCH  31  32
ENDBRANCH  30  31
ENDBRANCH   1  30
TORSDOF 24
ENDMDL
