MODEL 1
REMARK VINA RESULT:      -9.2      0.000      0.000
REMARK SMILES CC(C)(C)OC(=O)N1CCC[C@H]1C(=O)N1CCC[C@H]1C(=O)N1CCC[C@@H]1C(=O)OCCOCCOCCOC(=O)c1ccc(-c2c3nc(c(-c4cc(S(=O)(=O)[O-])ccc4F)c4ccc([nH]4)c(-c4cc(S(=O)(=O)[O-])ccc4F)c4nc(c(-c5cc(S(=O)(=O)[O-])ccc5F)c5ccc2[nH]5)C=C4)C=C3)cc1
REMARK SMILES IDX 31 1 30 2 29 3 27 4 28 5 26 6 22 7 23 8 24 9 25 10 20 11
REMARK SMILES IDX 21 12 19 13 15 14 16 15 17 16 18 17 13 18 14 19 12 20 8 21
REMARK SMILES IDX 9 22 10 23 11 24 6 25 7 26 5 27 2 28 1 29 3 30 4 31 32 32
REMARK SMILES IDX 33 33 34 34 35 35 36 36 37 37 38 38 39 39 40 40 41 41 42 42
REMARK SMILES IDX 103 43 43 44 102 45 44 46 45 47 46 48 96 49 47 50 101 51
REMARK SMILES IDX 95 52 97 53 48 54 100 55 94 56 93 57 49 59 81 60 61 61 80 62
REMARK SMILES IDX 62 63 65 64 79 65 98 66 63 67 64 68 78 70 99 71 66 72 50 73
REMARK SMILES IDX 51 74 59 75 52 76 58 77 60 78 57 79 53 80 54 81 55 82 56 83
REMARK SMILES IDX 82 84 83 85 91 86 84 87 90 88 92 89 89 90 85 91 86 92 87 93
REMARK SMILES IDX 88 94 67 95 68 96 76 97 69 98 75 99 77 100 74 101 70 102
REMARK SMILES IDX 71 103 72 104 73 105
REMARK H PARENT 97 58 65 69
REMARK Flexibility Score: inf
ROOT
ATOM      1  C   UNL A   1      36.044  22.791  25.220  1.00  0.00     0.202 C 
ENDROOT
BRANCH   1   2
ATOM      2  C   UNL A   1      35.428  22.235  23.925  1.00  0.00     0.261 C 
BRANCH   2   3
ATOM      3  O   UNL A   1      34.113  21.658  23.927  1.00  0.00    -0.462 OA
BRANCH   3   4
ATOM      4  C   UNL A   1      33.113  22.480  23.492  1.00  0.00     0.328 C 
ATOM      5  O   UNL A   1      33.053  22.886  22.334  1.00  0.00    -0.250 OA
BRANCH   4   6
ATOM      6  C   UNL A   1      32.121  22.942  24.588  1.00  0.00     0.195 C 
ATOM      7  N   UNL A   1      32.657  24.096  25.300  1.00  0.00    -0.327 N 
ATOM      8  C   UNL A   1      32.233  24.102  26.678  1.00  0.00     0.120 C 
ATOM      9  C   UNL A   1      32.111  22.638  27.026  1.00  0.00     0.024 C 
ATOM     10  C   UNL A   1      31.753  21.955  25.706  1.00  0.00     0.039 C 
BRANCH   7  11
ATOM     11  C   UNL A   1      32.973  25.269  24.644  1.00  0.00     0.246 C 
ATOM     12  O   UNL A   1      34.047  25.433  24.072  1.00  0.00    -0.272 OA
BRANCH  11  13
ATOM     13  C   UNL A   1      31.980  26.421  24.940  1.00  0.00     0.174 C 
ATOM     14  N   UNL A   1      32.423  27.578  24.150  1.00  0.00    -0.329 N 
ATOM     15  C   UNL A   1      31.855  27.457  22.823  1.00  0.00     0.120 C 
ATOM     16  C   UNL A   1      30.442  27.002  23.130  1.00  0.00     0.024 C 
ATOM     17  C   UNL A   1      30.579  26.129  24.385  1.00  0.00     0.037 C 
BRANCH  14  18
ATOM     18  C   UNL A   1      33.203  28.581  24.680  1.00  0.00     0.246 C 
ATOM     19  O   UNL A   1      33.617  29.498  23.963  1.00  0.00    -0.272 OA
BRANCH  18  20
ATOM     20  C   UNL A   1      33.575  28.531  26.191  1.00  0.00     0.178 C 
ATOM     21  N   UNL A   1      33.881  29.830  26.760  1.00  0.00    -0.296 N 
ATOM     22  C   UNL A   1      32.658  30.535  27.059  1.00  0.00     0.124 C 
ATOM     23  C   UNL A   1      31.701  29.418  27.474  1.00  0.00     0.024 C 
ATOM     24  C   UNL A   1      32.388  28.103  27.061  1.00  0.00     0.037 C 
BRANCH  21  25
ATOM     25  C   UNL A   1      35.132  30.137  27.225  1.00  0.00     0.410 C 
ATOM     26  O   UNL A   1      36.059  29.337  27.221  1.00  0.00    -0.224 OA
BRANCH  25  27
ATOM     27  O   UNL A   1      35.231  31.426  27.623  1.00  0.00    -0.444 OA
BRANCH  27  28
ATOM     28  C   UNL A   1      35.663  31.741  28.973  1.00  0.00     0.106 C 
ATOM     29  C   UNL A   1      37.010  32.450  28.790  1.00  0.00     0.056 C 
ATOM     30  C   UNL A   1      35.877  30.421  29.724  1.00  0.00     0.056 C 
ATOM     31  C   UNL A   1      34.731  32.671  29.762  1.00  0.00     0.056 C 
ENDBRANCH  27  28
ENDBRANCH  25  27
ENDBRANCH  21  25
ENDBRANCH  18  20
ENDBRANCH  14  18
ENDBRANCH  11  13
ENDBRANCH   7  11
ENDBRANCH   4   6
ENDBRANCH   3   4
ENDBRANCH   2   3
ENDBRANCH   1   2
BRANCH   1  32
ATOM     32  O   UNL A   1      37.110  23.718  25.286  1.00  0.00    -0.376 OA
BRANCH  32  33
ATOM     33  C   UNL A   1      38.214  23.421  26.108  1.00  0.00     0.188 C 
BRANCH  33  34
ATOM     34  C   UNL A   1      38.757  21.990  26.002  1.00  0.00     0.188 C 
BRANCH  34  35
ATOM     35  O   UNL A   1      40.143  21.771  25.849  1.00  0.00    -0.376 OA
BRANCH  35  36
ATOM     36  C   UNL A   1      40.737  20.525  26.180  1.00  0.00     0.202 C 
BRANCH  36  37
ATOM     37  C   UNL A   1      42.251  20.233  26.259  1.00  0.00     0.261 C 
BRANCH  37  38
ATOM     38  O   UNL A   1      43.048  20.564  25.127  1.00  0.00    -0.460 OA
BRANCH  38  39
ATOM     39  C   UNL A   1      44.385  20.362  25.277  1.00  0.00     0.338 C 
ATOM     40  O   UNL A   1      44.992  19.334  25.088  1.00  0.00    -0.246 OA
BRANCH  39  41
ATOM     41  C   UNL A   1      45.005  21.702  25.428  1.00  0.00     0.060 A 
ATOM     42  C   UNL A   1      45.355  22.114  26.721  1.00  0.00     0.016 A 
ATOM     43  C   UNL A   1      45.336  22.485  24.317  1.00  0.00     0.016 A 
ATOM     44  C   UNL A   1      46.022  23.321  26.910  1.00  0.00     0.010 A 
ATOM     45  C   UNL A   1      45.970  23.713  24.510  1.00  0.00     0.010 A 
ATOM     46  C   UNL A   1      46.285  24.147  25.809  1.00  0.00    -0.014 A 
BRANCH  46  47
ATOM     47  C   UNL A   1      46.604  25.570  26.062  1.00  0.00     0.031 A 
ATOM     48  C   UNL A   1      45.456  26.466  26.442  1.00  0.00     0.074 A 
ATOM     49  C   UNL A   1      47.860  26.043  26.008  1.00  0.00     0.049 A 
ATOM     50  N   UNL A   1      45.454  27.734  26.757  1.00  0.00    -0.248 NA
ATOM     51  C   UNL A   1      44.125  25.835  26.471  1.00  0.00     0.031 C 
ATOM     52  C   UNL A   1      49.051  25.258  25.687  1.00  0.00     0.029 A 
ATOM     53  N   UNL A   1      48.340  27.309  26.229  1.00  0.00    -0.354 N 
ATOM     54  C   UNL A   1      44.130  28.045  27.043  1.00  0.00     0.074 A 
ATOM     55  C   UNL A   1      43.352  26.848  26.818  1.00  0.00     0.031 C 
ATOM     56  C   UNL A   1      50.126  26.067  25.721  1.00  0.00     0.029 A 
ATOM     57  C   UNL A   1      49.697  27.426  26.048  1.00  0.00     0.049 A 
ATOM     58  H   UNL A   1      47.765  28.064  26.491  1.00  0.00     0.167 HD
ATOM     59  C   UNL A   1      43.609  29.222  27.466  1.00  0.00     0.034 A 
ATOM     60  C   UNL A   1      50.491  28.514  26.128  1.00  0.00     0.034 A 
ATOM     61  C   UNL A   1      44.388  30.420  27.634  1.00  0.00     0.049 A 
ATOM     62  C   UNL A   1      49.873  29.840  26.510  1.00  0.00     0.074 A 
ATOM     63  C   UNL A   1      43.966  31.678  28.026  1.00  0.00     0.029 A 
ATOM     64  N   UNL A   1      45.755  30.514  27.398  1.00  0.00    -0.354 N 
ATOM     65  N   UNL A   1      48.621  30.121  26.795  1.00  0.00    -0.248 NA
ATOM     66  C   UNL A   1      50.781  30.991  26.594  1.00  0.00     0.031 C 
ATOM     67  C   UNL A   1      45.063  32.544  27.966  1.00  0.00     0.029 A 
ATOM     68  C   UNL A   1      46.186  31.813  27.610  1.00  0.00     0.049 A 
ATOM     69  H   UNL A   1      46.331  29.766  27.119  1.00  0.00     0.167 HD
ATOM     70  C   UNL A   1      48.601  31.476  27.122  1.00  0.00     0.074 A 
ATOM     71  C   UNL A   1      49.967  31.947  27.016  1.00  0.00     0.031 C 
ATOM     72  C   UNL A   1      47.553  32.263  27.484  1.00  0.00     0.034 A 
BRANCH  59  73
ATOM     73  C   UNL A   1      42.120  29.256  27.702  1.00  0.00     0.023 A 
ATOM     74  C   UNL A   1      41.582  29.254  29.003  1.00  0.00     0.031 A 
ATOM     75  C   UNL A   1      41.229  29.212  26.618  1.00  0.00     0.131 A 
ATOM     76  C   UNL A   1      40.196  29.132  29.184  1.00  0.00     0.055 A 
ATOM     77  C   UNL A   1      39.847  29.169  26.805  1.00  0.00     0.041 A 
ATOM     78  F   UNL A   1      41.688  29.180  25.357  1.00  0.00    -0.206 F 
ATOM     79  C   UNL A   1      39.322  29.114  28.093  1.00  0.00     0.022 A 
BRANCH  76  80
ATOM     80  S   UNL A   1      39.562  28.847  30.860  1.00  0.00     0.124 S 
ATOM     81  O   UNL A   1      39.116  30.186  31.238  1.00  0.00    -0.237 OA
ATOM     82  O   UNL A   1      38.509  27.863  30.636  1.00  0.00    -0.237 OA
ATOM     83  O   UNL A   1      40.729  28.357  31.589  1.00  0.00    -0.744 OA
ENDBRANCH  76  80
ENDBRANCH  59  73
BRANCH  60  84
ATOM     84  C   UNL A   1      51.946  28.422  25.812  1.00  0.00     0.023 A 
ATOM     85  C   UNL A   1      52.407  28.402  24.486  1.00  0.00     0.031 A 
ATOM     86  C   UNL A   1      52.893  28.272  26.841  1.00  0.00     0.131 A 
ATOM     87  C   UNL A   1      53.769  28.184  24.220  1.00  0.00     0.055 A 
ATOM     88  C   UNL A   1      54.254  28.106  26.573  1.00  0.00     0.041 A 
ATOM     89  F   UNL A   1      52.507  28.278  28.126  1.00  0.00    -0.206 F 
ATOM     90  C   UNL A   1      54.697  28.047  25.256  1.00  0.00     0.022 A 
BRANCH  87  91
ATOM     91  S   UNL A   1      54.300  27.990  22.496  1.00  0.00     0.124 S 
ATOM     92  O   UNL A   1      53.343  28.836  21.793  1.00  0.00    -0.237 OA
ATOM     93  O   UNL A   1      55.674  28.479  22.544  1.00  0.00    -0.237 OA
ATOM     94  O   UNL A   1      54.159  26.555  22.256  1.00  0.00    -0.744 OA
ENDBRANCH  87  91
ENDBRANCH  60  84
BRANCH  72  95
ATOM     95  C   UNL A   1      47.865  33.699  27.829  1.00  0.00     0.023 A 
ATOM     96  C   UNL A   1      47.906  34.705  26.849  1.00  0.00     0.031 A 
ATOM     97  C   UNL A   1      48.147  34.059  29.160  1.00  0.00     0.131 A 
ATOM     98  C   UNL A   1      48.288  36.009  27.201  1.00  0.00     0.055 A 
ATOM     99  C   UNL A   1      48.467  35.369  29.514  1.00  0.00     0.041 A 
ATOM    100  F   UNL A   1      48.121  33.139  30.137  1.00  0.00    -0.206 F 
ATOM    101  C   UNL A   1      48.556  36.349  28.530  1.00  0.00     0.022 A 
BRANCH  98 102
ATOM    102  S   UNL A   1      48.543  37.227  25.883  1.00  0.00     0.124 S 
ATOM    103  O   UNL A   1      47.174  37.590  25.531  1.00  0.00    -0.237 OA
ATOM    104  O   UNL A   1      49.321  38.260  26.560  1.00  0.00    -0.237 OA
ATOM    105  O   UNL A   1      49.268  36.478  24.858  1.00  0.00    -0.744 OA
ENDBRANCH  98 102
ENDBRANCH  72  95
ENDBRANCH  46  47
ENDBRANCH  39  41
ENDBRANCH  38  39
ENDBRANCH  37  38
ENDBRANCH  36  37
ENDBRANCH  35  36
ENDBRANCH  34  35
ENDBRANCH  33  34
ENDBRANCH  32  33
ENDBRANCH   1  32
TORSDOF 27
ENDMDL
MODEL 2
REMARK VINA RESULT:      -8.9      5.078      9.511
REMARK SMILES CC(C)(C)OC(=O)N1CCC[C@H]1C(=O)N1CCC[C@H]1C(=O)N1CCC[C@@H]1C(=O)OCCOCCOCCOC(=O)c1ccc(-c2c3nc(c(-c4cc(S(=O)(=O)[O-])ccc4F)c4ccc([nH]4)c(-c4cc(S(=O)(=O)[O-])ccc4F)c4nc(c(-c5cc(S(=O)(=O)[O-])ccc5F)c5ccc2[nH]5)C=C4)C=C3)cc1
REMARK SMILES IDX 31 1 30 2 29 3 27 4 28 5 26 6 22 7 23 8 24 9 25 10 20 11
REMARK SMILES IDX 21 12 19 13 15 14 16 15 17 16 18 17 13 18 14 19 12 20 8 21
REMARK SMILES IDX 9 22 10 23 11 24 6 25 7 26 5 27 2 28 1 29 3 30 4 31 32 32
REMARK SMILES IDX 33 33 34 34 35 35 36 36 37 37 38 38 39 39 40 40 41 41 42 42
REMARK SMILES IDX 103 43 43 44 102 45 44 46 45 47 46 48 96 49 47 50 101 51
REMARK SMILES IDX 95 52 97 53 48 54 100 55 94 56 93 57 49 59 81 60 61 61 80 62
REMARK SMILES IDX 62 63 65 64 79 65 98 66 63 67 64 68 78 70 99 71 66 72 50 73
REMARK SMILES IDX 51 74 59 75 52 76 58 77 60 78 57 79 53 80 54 81 55 82 56 83
REMARK SMILES IDX 82 84 83 85 91 86 84 87 90 88 92 89 89 90 85 91 86 92 87 93
REMARK SMILES IDX 88 94 67 95 68 96 76 97 69 98 75 99 77 100 74 101 70 102
REMARK SMILES IDX 71 103 72 104 73 105
REMARK H PARENT 97 58 65 69
REMARK Flexibility Score: inf
ROOT
ATOM      1  C   UNL A   1      40.804  26.218  28.577  1.00  0.00     0.202 C 
ENDROOT
BRANCH   1   2
ATOM      2  C   UNL A   1      41.057  27.552  29.300  1.00  0.00     0.261 C 
BRANCH   2   3
ATOM      3  O   UNL A   1      40.687  27.722  30.678  1.00  0.00    -0.462 OA
BRANCH   3   4
ATOM      4  C   UNL A   1      39.764  28.699  30.919  1.00  0.00     0.328 C 
ATOM      5  O   UNL A   1      38.912  28.595  31.798  1.00  0.00    -0.250 OA
BRANCH   4   6
ATOM      6  C   UNL A   1      39.807  29.897  29.939  1.00  0.00     0.195 C 
ATOM      7  N   UNL A   1      40.044  31.137  30.668  1.00  0.00    -0.327 N 
ATOM      8  C   UNL A   1      39.390  32.251  30.027  1.00  0.00     0.120 C 
ATOM      9  C   UNL A   1      38.160  31.639  29.403  1.00  0.00     0.024 C 
ATOM     10  C   UNL A   1      38.560  30.196  29.093  1.00  0.00     0.039 C 
BRANCH   7  11
ATOM     11  C   UNL A   1      41.175  31.319  31.439  1.00  0.00     0.246 C 
ATOM     12  O   UNL A   1      42.145  30.569  31.369  1.00  0.00    -0.272 OA
BRANCH  11  13
ATOM     13  C   UNL A   1      40.983  32.361  32.569  1.00  0.00     0.174 C 
ATOM     14  N   UNL A   1      39.925  31.845  33.449  1.00  0.00    -0.329 N 
ATOM     15  C   UNL A   1      40.539  30.949  34.408  1.00  0.00     0.120 C 
ATOM     16  C   UNL A   1      41.798  31.707  34.780  1.00  0.00     0.024 C 
ATOM     17  C   UNL A   1      42.206  32.438  33.493  1.00  0.00     0.037 C 
BRANCH  14  18
ATOM     18  C   UNL A   1      38.612  32.241  33.337  1.00  0.00     0.246 C 
ATOM     19  O   UNL A   1      37.742  31.435  32.985  1.00  0.00    -0.272 OA
BRANCH  18  20
ATOM     20  C   UNL A   1      38.240  33.722  33.638  1.00  0.00     0.178 C 
ATOM     21  N   UNL A   1      36.930  33.885  34.241  1.00  0.00    -0.296 N 
ATOM     22  C   UNL A   1      36.999  33.590  35.651  1.00  0.00     0.124 C 
ATOM     23  C   UNL A   1      38.392  34.080  36.044  1.00  0.00     0.024 C 
ATOM     24  C   UNL A   1      39.138  34.332  34.720  1.00  0.00     0.037 C 
BRANCH  21  25
ATOM     25  C   UNL A   1      35.915  34.538  33.594  1.00  0.00     0.410 C 
ATOM     26  O   UNL A   1      34.978  35.062  34.182  1.00  0.00    -0.224 OA
BRANCH  25  27
ATOM     27  O   UNL A   1      36.104  34.584  32.255  1.00  0.00    -0.444 OA
BRANCH  27  28
ATOM     28  C   UNL A   1      35.109  34.024  31.358  1.00  0.00     0.106 C 
ATOM     29  C   UNL A   1      35.775  34.054  29.978  1.00  0.00     0.056 C 
ATOM     30  C   UNL A   1      33.891  34.954  31.359  1.00  0.00     0.056 C 
ATOM     31  C   UNL A   1      34.691  32.578  31.661  1.00  0.00     0.056 C 
ENDBRANCH  27  28
ENDBRANCH  25  27
ENDBRANCH  21  25
ENDBRANCH  18  20
ENDBRANCH  14  18
ENDBRANCH  11  13
ENDBRANCH   7  11
ENDBRANCH   4   6
ENDBRANCH   3   4
ENDBRANCH   2   3
ENDBRANCH   1   2
BRANCH   1  32
ATOM     32  O   UNL A   1      39.626  25.880  27.873  1.00  0.00    -0.376 OA
BRANCH  32  33
ATOM     33  C   UNL A   1      39.256  24.524  27.787  1.00  0.00     0.188 C 
BRANCH  33  34
ATOM     34  C   UNL A   1      40.407  23.531  27.587  1.00  0.00     0.188 C 
BRANCH  34  35
ATOM     35  O   UNL A   1      40.605  22.926  26.326  1.00  0.00    -0.376 OA
BRANCH  35  36
ATOM     36  C   UNL A   1      41.508  21.843  26.159  1.00  0.00     0.202 C 
BRANCH  36  37
ATOM     37  C   UNL A   1      42.926  21.928  25.554  1.00  0.00     0.261 C 
BRANCH  37  38
ATOM     38  O   UNL A   1      43.146  22.876  24.516  1.00  0.00    -0.460 OA
BRANCH  38  39
ATOM     39  C   UNL A   1      44.432  23.300  24.376  1.00  0.00     0.338 C 
ATOM     40  O   UNL A   1      45.212  22.987  23.507  1.00  0.00    -0.246 OA
BRANCH  39  41
ATOM     41  C   UNL A   1      44.608  24.439  25.310  1.00  0.00     0.060 A 
ATOM     42  C   UNL A   1      45.878  24.628  25.873  1.00  0.00     0.016 A 
ATOM     43  C   UNL A   1      43.585  25.365  25.538  1.00  0.00     0.016 A 
ATOM     44  C   UNL A   1      46.124  25.733  26.681  1.00  0.00     0.010 A 
ATOM     45  C   UNL A   1      43.820  26.452  26.381  1.00  0.00     0.010 A 
ATOM     46  C   UNL A   1      45.081  26.620  26.979  1.00  0.00    -0.014 A 
BRANCH  46  47
ATOM     47  C   UNL A   1      45.239  27.524  28.140  1.00  0.00     0.031 A 
ATOM     48  C   UNL A   1      45.787  28.897  27.862  1.00  0.00     0.074 A 
ATOM     49  C   UNL A   1      44.868  27.166  29.380  1.00  0.00     0.049 A 
ATOM     50  N   UNL A   1      45.988  29.898  28.678  1.00  0.00    -0.248 NA
ATOM     51  C   UNL A   1      46.156  29.176  26.464  1.00  0.00     0.031 C 
ATOM     52  C   UNL A   1      44.292  25.876  29.758  1.00  0.00     0.029 A 
ATOM     53  N   UNL A   1      44.921  27.870  30.557  1.00  0.00    -0.354 N 
ATOM     54  C   UNL A   1      46.484  30.929  27.888  1.00  0.00     0.074 A 
ATOM     55  C   UNL A   1      46.599  30.418  26.541  1.00  0.00     0.031 C 
ATOM     56  C   UNL A   1      44.055  25.878  31.083  1.00  0.00     0.029 A 
ATOM     57  C   UNL A   1      44.478  27.159  31.648  1.00  0.00     0.049 A 
ATOM     58  H   UNL A   1      45.247  28.796  30.616  1.00  0.00     0.167 HD
ATOM     59  C   UNL A   1      46.808  32.193  28.251  1.00  0.00     0.034 A 
ATOM     60  C   UNL A   1      44.435  27.508  32.950  1.00  0.00     0.034 A 
ATOM     61  C   UNL A   1      46.740  32.672  29.607  1.00  0.00     0.049 A 
ATOM     62  C   UNL A   1      44.890  28.894  33.348  1.00  0.00     0.074 A 
ATOM     63  C   UNL A   1      47.070  33.921  30.100  1.00  0.00     0.029 A 
ATOM     64  N   UNL A   1      46.329  31.909  30.694  1.00  0.00    -0.354 N 
ATOM     65  N   UNL A   1      45.342  29.869  32.591  1.00  0.00    -0.248 NA
ATOM     66  C   UNL A   1      44.813  29.229  34.775  1.00  0.00     0.031 C 
ATOM     67  C   UNL A   1      46.920  33.894  31.492  1.00  0.00     0.029 A 
ATOM     68  C   UNL A   1      46.423  32.653  31.859  1.00  0.00     0.049 A 
ATOM     69  H   UNL A   1      46.017  30.977  30.644  1.00  0.00     0.167 HD
ATOM     70  C   UNL A   1      45.573  30.942  33.451  1.00  0.00     0.074 A 
ATOM     71  C   UNL A   1      45.193  30.498  34.776  1.00  0.00     0.031 C 
ATOM     72  C   UNL A   1      46.051  32.184  33.174  1.00  0.00     0.034 A 
BRANCH  59  73
ATOM     73  C   UNL A   1      47.321  33.100  27.162  1.00  0.00     0.023 A 
ATOM     74  C   UNL A   1      48.684  33.132  26.812  1.00  0.00     0.031 A 
ATOM     75  C   UNL A   1      46.453  33.998  26.520  1.00  0.00     0.131 A 
ATOM     76  C   UNL A   1      49.150  34.093  25.903  1.00  0.00     0.055 A 
ATOM     77  C   UNL A   1      46.911  34.901  25.558  1.00  0.00     0.041 A 
ATOM     78  F   UNL A   1      45.150  34.034  26.836  1.00  0.00    -0.206 F 
ATOM     79  C   UNL A   1      48.269  34.963  25.256  1.00  0.00     0.022 A 
BRANCH  76  80
ATOM     80  S   UNL A   1      50.941  34.292  25.691  1.00  0.00     0.124 S 
ATOM     81  O   UNL A   1      51.161  33.633  24.407  1.00  0.00    -0.237 OA
ATOM     82  O   UNL A   1      51.101  35.742  25.701  1.00  0.00    -0.237 OA
ATOM     83  O   UNL A   1      51.502  33.595  26.847  1.00  0.00    -0.744 OA
ENDBRANCH  76  80
ENDBRANCH  59  73
BRANCH  60  84
ATOM     84  C   UNL A   1      43.981  26.536  33.986  1.00  0.00     0.023 A 
ATOM     85  C   UNL A   1      44.858  25.584  34.530  1.00  0.00     0.031 A 
ATOM     86  C   UNL A   1      42.634  26.496  34.388  1.00  0.00     0.131 A 
ATOM     87  C   UNL A   1      44.369  24.601  35.406  1.00  0.00     0.055 A 
ATOM     88  C   UNL A   1      42.162  25.547  35.298  1.00  0.00     0.041 A 
ATOM     89  F   UNL A   1      41.751  27.379  33.895  1.00  0.00    -0.206 F 
ATOM     90  C   UNL A   1      43.030  24.583  35.802  1.00  0.00     0.022 A 
BRANCH  87  91
ATOM     91  S   UNL A   1      45.492  23.283  35.952  1.00  0.00     0.124 S 
ATOM     92  O   UNL A   1      46.789  23.810  35.543  1.00  0.00    -0.237 OA
ATOM     93  O   UNL A   1      45.240  23.245  37.388  1.00  0.00    -0.237 OA
ATOM     94  O   UNL A   1      45.031  22.113  35.208  1.00  0.00    -0.744 OA
ENDBRANCH  87  91
ENDBRANCH  60  84
BRANCH  72  95
ATOM     95  C   UNL A   1      46.142  33.153  34.328  1.00  0.00     0.023 A 
ATOM     96  C   UNL A   1      45.139  34.105  34.578  1.00  0.00     0.031 A 
ATOM     97  C   UNL A   1      47.264  33.135  35.176  1.00  0.00     0.131 A 
ATOM     98  C   UNL A   1      45.308  35.044  35.607  1.00  0.00     0.055 A 
ATOM     99  C   UNL A   1      47.398  34.032  36.236  1.00  0.00     0.041 A 
ATOM    100  F   UNL A   1      48.252  32.246  34.985  1.00  0.00    -0.206 F 
ATOM    101  C   UNL A   1      46.425  35.004  36.446  1.00  0.00     0.022 A 
BRANCH  98 102
ATOM    102  S   UNL A   1      44.103  36.391  35.763  1.00  0.00     0.124 S 
ATOM    103  O   UNL A   1      44.342  37.158  34.544  1.00  0.00    -0.237 OA
ATOM    104  O   UNL A   1      42.836  35.669  35.823  1.00  0.00    -0.237 OA
ATOM    105  O   UNL A   1      44.495  37.060  37.002  1.00  0.00    -0.744 OA
ENDBRANCH  98 102
ENDBRANCH  72  95
ENDBRANCH  46  47
ENDBRANCH  39  41
ENDBRANCH  38  39
ENDBRANCH  37  38
ENDBRANCH  36  37
ENDBRANCH  35  36
ENDBRANCH  34  35
ENDBRANCH  33  34
ENDBRANCH  32  33
ENDBRANCH   1  32
TORSDOF 27
ENDMDL
MODEL 3
REMARK VINA RESULT:      -7.7      4.511     10.124
REMARK SMILES CC(C)(C)OC(=O)N1CCC[C@H]1C(=O)N1CCC[C@H]1C(=O)N1CCC[C@@H]1C(=O)OCCOCCOCCOC(=O)c1ccc(-c2c3nc(c(-c4cc(S(=O)(=O)[O-])ccc4F)c4ccc([nH]4)c(-c4cc(S(=O)(=O)[O-])ccc4F)c4nc(c(-c5cc(S(=O)(=O)[O-])ccc5F)c5ccc2[nH]5)C=C4)C=C3)cc1
REMARK SMILES IDX 31 1 30 2 29 3 27 4 28 5 26 6 22 7 23 8 24 9 25 10 20 11
REMARK SMILES IDX 21 12 19 13 15 14 16 15 17 16 18 17 13 18 14 19 12 20 8 21
REMARK SMILES IDX 9 22 10 23 11 24 6 25 7 26 5 27 2 28 1 29 3 30 4 31 32 32
REMARK SMILES IDX 33 33 34 34 35 35 36 36 37 37 38 38 39 39 40 40 41 41 42 42
REMARK SMILES IDX 103 43 43 44 102 45 44 46 45 47 46 48 96 49 47 50 101 51
REMARK SMILES IDX 95 52 97 53 48 54 100 55 94 56 93 57 49 59 81 60 61 61 80 62
REMARK SMILES IDX 62 63 65 64 79 65 98 66 63 67 64 68 78 70 99 71 66 72 50 73
REMARK SMILES IDX 51 74 59 75 52 76 58 77 60 78 57 79 53 80 54 81 55 82 56 83
REMARK SMILES IDX 82 84 83 85 91 86 84 87 90 88 92 89 89 90 85 91 86 92 87 93
REMARK SMILES IDX 88 94 67 95 68 96 76 97 69 98 75 99 77 100 74 101 70 102
REMARK SMILES IDX 71 103 72 104 73 105
REMARK H PARENT 97 58 65 69
REMARK Flexibility Score: inf
ROOT
ATOM      1  C   UNL A   1      35.535  24.127  26.371  1.00  0.00     0.202 C 
ENDROOT
BRANCH   1   2
ATOM      2  C   UNL A   1      36.885  23.848  25.690  1.00  0.00     0.261 C 
BRANCH   2   3
ATOM      3  O   UNL A   1      38.119  24.202  26.335  1.00  0.00    -0.462 OA
BRANCH   3   4
ATOM      4  C   UNL A   1      39.044  23.202  26.416  1.00  0.00     0.328 C 
ATOM      5  O   UNL A   1      38.965  22.177  25.744  1.00  0.00    -0.250 OA
BRANCH   4   6
ATOM      6  C   UNL A   1      40.142  23.410  27.490  1.00  0.00     0.195 C 
ATOM      7  N   UNL A   1      41.161  24.329  26.998  1.00  0.00    -0.327 N 
ATOM      8  C   UNL A   1      42.458  24.005  27.537  1.00  0.00     0.120 C 
ATOM      9  C   UNL A   1      42.415  22.506  27.709  1.00  0.00     0.024 C 
ATOM     10  C   UNL A   1      40.942  22.188  27.965  1.00  0.00     0.039 C 
BRANCH   7  11
ATOM     11  C   UNL A   1      40.848  25.617  26.612  1.00  0.00     0.246 C 
ATOM     12  O   UNL A   1      40.771  25.948  25.432  1.00  0.00    -0.272 OA
BRANCH  11  13
ATOM     13  C   UNL A   1      40.886  26.633  27.782  1.00  0.00     0.174 C 
ATOM     14  N   UNL A   1      41.585  27.826  27.286  1.00  0.00    -0.329 N 
ATOM     15  C   UNL A   1      40.615  28.666  26.615  1.00  0.00     0.120 C 
ATOM     16  C   UNL A   1      39.429  28.583  27.555  1.00  0.00     0.024 C 
ATOM     17  C   UNL A   1      39.488  27.161  28.130  1.00  0.00     0.037 C 
BRANCH  14  18
ATOM     18  C   UNL A   1      42.925  28.045  27.511  1.00  0.00     0.246 C 
ATOM     19  O   UNL A   1      43.377  28.036  28.663  1.00  0.00    -0.272 OA
BRANCH  18  20
ATOM     20  C   UNL A   1      43.861  28.328  26.300  1.00  0.00     0.178 C 
ATOM     21  N   UNL A   1      45.273  28.252  26.622  1.00  0.00    -0.296 N 
ATOM     22  C   UNL A   1      45.695  26.872  26.657  1.00  0.00     0.124 C 
ATOM     23  C   UNL A   1      44.839  26.215  25.574  1.00  0.00     0.024 C 
ATOM     24  C   UNL A   1      43.747  27.244  25.222  1.00  0.00     0.037 C 
BRANCH  21  25
ATOM     25  C   UNL A   1      46.088  29.351  26.556  1.00  0.00     0.410 C 
ATOM     26  O   UNL A   1      47.309  29.278  26.586  1.00  0.00    -0.224 OA
BRANCH  25  27
ATOM     27  O   UNL A   1      45.390  30.499  26.396  1.00  0.00    -0.444 OA
BRANCH  27  28
ATOM     28  C   UNL A   1      45.479  31.551  27.392  1.00  0.00     0.106 C 
ATOM     29  C   UNL A   1      44.182  32.352  27.222  1.00  0.00     0.056 C 
ATOM     30  C   UNL A   1      46.679  32.438  27.041  1.00  0.00     0.056 C 
ATOM     31  C   UNL A   1      45.562  31.072  28.849  1.00  0.00     0.056 C 
ENDBRANCH  27  28
ENDBRANCH  25  27
ENDBRANCH  21  25
ENDBRANCH  18  20
ENDBRANCH  14  18
ENDBRANCH  11  13
ENDBRANCH   7  11
ENDBRANCH   4   6
ENDBRANCH   3   4
ENDBRANCH   2   3
ENDBRANCH   1   2
BRANCH   1  32
ATOM     32  O   UNL A   1      34.271  24.054  25.741  1.00  0.00    -0.376 OA
BRANCH  32  33
ATOM     33  C   UNL A   1      34.059  24.798  24.565  1.00  0.00     0.188 C 
BRANCH  33  34
ATOM     34  C   UNL A   1      33.246  26.087  24.729  1.00  0.00     0.188 C 
BRANCH  34  35
ATOM     35  O   UNL A   1      33.333  26.829  25.928  1.00  0.00    -0.376 OA
BRANCH  35  36
ATOM     36  C   UNL A   1      34.321  27.833  26.106  1.00  0.00     0.202 C 
BRANCH  36  37
ATOM     37  C   UNL A   1      34.163  29.123  26.940  1.00  0.00     0.261 C 
BRANCH  37  38
ATOM     38  O   UNL A   1      35.316  29.625  27.605  1.00  0.00    -0.460 OA
BRANCH  38  39
ATOM     39  C   UNL A   1      35.170  30.850  28.180  1.00  0.00     0.338 C 
ATOM     40  O   UNL A   1      34.139  31.455  28.354  1.00  0.00    -0.246 OA
BRANCH  39  41
ATOM     41  C   UNL A   1      36.468  31.176  28.821  1.00  0.00     0.060 A 
ATOM     42  C   UNL A   1      37.008  32.448  28.585  1.00  0.00     0.016 A 
ATOM     43  C   UNL A   1      37.083  30.299  29.721  1.00  0.00     0.016 A 
ATOM     44  C   UNL A   1      38.175  32.841  29.233  1.00  0.00     0.010 A 
ATOM     45  C   UNL A   1      38.274  30.678  30.342  1.00  0.00     0.010 A 
ATOM     46  C   UNL A   1      38.838  31.937  30.074  1.00  0.00    -0.014 A 
BRANCH  46  47
ATOM     47  C   UNL A   1      40.253  32.206  30.414  1.00  0.00     0.031 A 
ATOM     48  C   UNL A   1      40.991  31.125  31.156  1.00  0.00     0.074 A 
ATOM     49  C   UNL A   1      40.877  33.335  30.039  1.00  0.00     0.049 A 
ATOM     50  N   UNL A   1      42.239  31.076  31.540  1.00  0.00    -0.248 NA
ATOM     51  C   UNL A   1      40.204  29.931  31.511  1.00  0.00     0.031 C 
ATOM     52  C   UNL A   1      40.271  34.432  29.286  1.00  0.00     0.029 A 
ATOM     53  N   UNL A   1      42.172  33.741  30.245  1.00  0.00    -0.354 N 
ATOM     54  C   UNL A   1      42.391  29.841  32.159  1.00  0.00     0.074 A 
ATOM     55  C   UNL A   1      41.099  29.193  32.143  1.00  0.00     0.031 C 
ATOM     56  C   UNL A   1      41.194  35.394  29.102  1.00  0.00     0.029 A 
ATOM     57  C   UNL A   1      42.447  34.989  29.739  1.00  0.00     0.049 A 
ATOM     58  H   UNL A   1      42.840  33.190  30.712  1.00  0.00     0.167 HD
ATOM     59  C   UNL A   1      43.510  29.290  32.687  1.00  0.00     0.034 A 
ATOM     60  C   UNL A   1      43.581  35.718  29.799  1.00  0.00     0.034 A 
ATOM     61  C   UNL A   1      44.777  29.969  32.745  1.00  0.00     0.049 A 
ATOM     62  C   UNL A   1      44.795  35.121  30.477  1.00  0.00     0.074 A 
ATOM     63  C   UNL A   1      45.972  29.526  33.282  1.00  0.00     0.029 A 
ATOM     64  N   UNL A   1      45.009  31.252  32.262  1.00  0.00    -0.354 N 
ATOM     65  N   UNL A   1      44.933  33.944  31.046  1.00  0.00    -0.248 NA
ATOM     66  C   UNL A   1      46.007  35.949  30.507  1.00  0.00     0.031 C 
ATOM     67  C   UNL A   1      46.907  30.562  33.182  1.00  0.00     0.029 A 
ATOM     68  C   UNL A   1      46.319  31.625  32.514  1.00  0.00     0.049 A 
ATOM     69  H   UNL A   1      44.340  31.813  31.809  1.00  0.00     0.167 HD
ATOM     70  C   UNL A   1      46.259  33.882  31.472  1.00  0.00     0.074 A 
ATOM     71  C   UNL A   1      46.878  35.131  31.078  1.00  0.00     0.031 C 
ATOM     72  C   UNL A   1      46.911  32.884  32.124  1.00  0.00     0.034 A 
BRANCH  59  73
ATOM     73  C   UNL A   1      43.367  27.917  33.292  1.00  0.00     0.023 A 
ATOM     74  C   UNL A   1      42.799  27.729  34.566  1.00  0.00     0.031 A 
ATOM     75  C   UNL A   1      43.877  26.791  32.624  1.00  0.00     0.131 A 
ATOM     76  C   UNL A   1      42.821  26.459  35.161  1.00  0.00     0.055 A 
ATOM     77  C   UNL A   1      43.826  25.516  33.190  1.00  0.00     0.041 A 
ATOM     78  F   UNL A   1      44.459  26.916  31.421  1.00  0.00    -0.206 F 
ATOM     79  C   UNL A   1      43.310  25.346  34.472  1.00  0.00     0.022 A 
BRANCH  76  80
ATOM     80  S   UNL A   1      42.342  26.309  36.904  1.00  0.00     0.124 S 
ATOM     81  O   UNL A   1      42.476  24.871  37.124  1.00  0.00    -0.237 OA
ATOM     82  O   UNL A   1      43.324  27.152  37.576  1.00  0.00    -0.237 OA
ATOM     83  O   UNL A   1      40.969  26.810  36.927  1.00  0.00    -0.744 OA
ENDBRANCH  76  80
ENDBRANCH  59  73
BRANCH  60  84
ATOM     84  C   UNL A   1      43.632  37.100  29.240  1.00  0.00     0.023 A 
ATOM     85  C   UNL A   1      43.439  38.226  30.056  1.00  0.00     0.031 A 
ATOM     86  C   UNL A   1      43.795  37.307  27.859  1.00  0.00     0.131 A 
ATOM     87  C   UNL A   1      43.363  39.505  29.479  1.00  0.00     0.055 A 
ATOM     88  C   UNL A   1      43.769  38.585  27.295  1.00  0.00     0.041 A 
ATOM     89  F   UNL A   1      43.977  36.265  27.032  1.00  0.00    -0.206 F 
ATOM     90  C   UNL A   1      43.538  39.692  28.106  1.00  0.00     0.022 A 
BRANCH  87  91
ATOM     91  S   UNL A   1      42.939  40.915  30.539  1.00  0.00     0.124 S 
ATOM     92  O   UNL A   1      44.124  41.755  30.404  1.00  0.00    -0.237 OA
ATOM     93  O   UNL A   1      41.724  41.416  29.907  1.00  0.00    -0.237 OA
ATOM     94  O   UNL A   1      42.752  40.308  31.855  1.00  0.00    -0.744 OA
ENDBRANCH  87  91
ENDBRANCH  60  84
BRANCH  72  95
ATOM     95  C   UNL A   1      48.379  33.099  32.407  1.00  0.00     0.023 A 
ATOM     96  C   UNL A   1      48.825  33.688  33.603  1.00  0.00     0.031 A 
ATOM     97  C   UNL A   1      49.343  32.727  31.453  1.00  0.00     0.131 A 
ATOM     98  C   UNL A   1      50.191  33.950  33.785  1.00  0.00     0.055 A 
ATOM     99  C   UNL A   1      50.706  32.934  31.665  1.00  0.00     0.041 A 
ATOM    100  F   UNL A   1      48.974  32.159  30.293  1.00  0.00    -0.206 F 
ATOM    101  C   UNL A   1      51.135  33.565  32.829  1.00  0.00     0.022 A 
BRANCH  98 102
ATOM    102  S   UNL A   1      50.708  34.907  35.237  1.00  0.00     0.124 S 
ATOM    103  O   UNL A   1      49.430  35.219  35.869  1.00  0.00    -0.237 OA
ATOM    104  O   UNL A   1      51.555  33.956  35.949  1.00  0.00    -0.237 OA
ATOM    105  O   UNL A   1      51.410  36.053  34.661  1.00  0.00    -0.744 OA
ENDBRANCH  98 102
ENDBRANCH  72  95
ENDBRANCH  46  47
ENDBRANCH  39  41
ENDBRANCH  38  39
ENDBRANCH  37  38
ENDBRANCH  36  37
ENDBRANCH  35  36
ENDBRANCH  34  35
ENDBRANCH  33  34
ENDBRANCH  32  33
ENDBRANCH   1  32
TORSDOF 27
ENDMDL
