MODEL 1
REMARK VINA RESULT:     -11.5      0.000      0.000
REMARK SMILES Cc1ccc(C)c(N2C(=O)S[C@H](CC(=O)Nc3ccc(C(=O)OCCOCCOCCOC(=O)c4ccc(-c5c6nc(c(-c7cc(S(=O)(=O)[O-])ccc7F)c7ccc([nH]7)c(-c7cc(S(=O)(=O)[O-])ccc7F)c7nc(c(-c8cc(S(=O)(=O)[O-])ccc8F)c8ccc5[nH]8)C=C7)C=C6)cc4)c(O)c3)C2=O)c1
REMARK SMILES IDX 27 1 26 2 25 3 24 4 23 5 21 6 22 7 20 8 17 9 18 10 100 11
REMARK SMILES IDX 19 12 98 13 16 14 14 15 15 16 13 18 12 19 8 20 9 21 101 22
REMARK SMILES IDX 10 23 11 24 102 25 7 26 1 27 2 28 3 29 103 30 4 31 5 32 6 33
REMARK SMILES IDX 99 34 28 36 29 37 30 38 31 39 32 40 33 41 34 42 35 43 36 44
REMARK SMILES IDX 97 45 37 46 96 47 38 48 39 49 40 50 90 51 41 52 95 53 89 54
REMARK SMILES IDX 91 55 42 56 94 57 88 58 87 59 43 61 75 62 55 63 74 64 56 65
REMARK SMILES IDX 59 66 73 67 92 68 57 69 58 70 72 72 93 73 60 74 44 75 45 76
REMARK SMILES IDX 53 77 46 78 52 79 54 80 51 81 47 82 48 83 49 84 50 85 76 86
REMARK SMILES IDX 77 87 85 88 78 89 84 90 86 91 83 92 79 93 80 94 81 95 82 96
REMARK SMILES IDX 61 97 62 98 70 99 63 100 69 101 71 102 68 103 64 104 65 105
REMARK SMILES IDX 66 106 67 107
REMARK H PARENT 16 17 99 35 91 60 59 71
REMARK Flexibility Score: inf
ROOT
ATOM      1  C   UNL A   1      34.979  22.201  26.125  1.00  0.00     0.188 C 
ENDROOT
BRANCH   1   2
ATOM      2  O   UNL A   1      34.750  21.924  27.502  1.00  0.00    -0.376 OA
BRANCH   2   3
ATOM      3  C   UNL A   1      33.406  22.100  27.965  1.00  0.00     0.202 C 
BRANCH   3   4
ATOM      4  C   UNL A   1      32.620  23.263  27.324  1.00  0.00     0.261 C 
BRANCH   4   5
ATOM      5  O   UNL A   1      31.192  23.238  27.588  1.00  0.00    -0.460 OA
BRANCH   5   6
ATOM      6  C   UNL A   1      30.442  22.579  26.667  1.00  0.00     0.341 C 
ATOM      7  O   UNL A   1      29.346  22.074  26.849  1.00  0.00    -0.246 OA
BRANCH   6   8
ATOM      8  C   UNL A   1      31.016  22.666  25.298  1.00  0.00     0.101 A 
ATOM      9  C   UNL A   1      32.141  23.183  22.762  1.00  0.00     0.044 A 
ATOM     10  C   UNL A   1      31.144  23.997  23.281  1.00  0.00     0.027 A 
ATOM     11  C   UNL A   1      32.409  21.982  23.399  1.00  0.00     0.073 A 
ATOM     12  C   UNL A   1      30.622  23.776  24.557  1.00  0.00     0.022 A 
ATOM     13  C   UNL A   1      31.817  21.717  24.649  1.00  0.00     0.132 A 
BRANCH   9  14
ATOM     14  N   UNL A   1      32.798  23.556  21.578  1.00  0.00    -0.326 N 
ATOM     15  C   UNL A   1      32.973  24.856  21.141  1.00  0.00     0.226 C 
ATOM     16  O   UNL A   1      33.031  25.124  19.942  1.00  0.00    -0.275 OA
ATOM     17  H   UNL A   1      33.163  22.836  21.015  1.00  0.00     0.169 HD
BRANCH  15  18
ATOM     18  C   UNL A   1      33.344  25.895  22.200  1.00  0.00     0.125 C 
BRANCH  18  19
ATOM     19  C   UNL A   1      32.751  27.293  22.048  1.00  0.00     0.156 C 
ATOM     20  N   UNL A   1      32.433  28.093  24.285  1.00  0.00    -0.240 N 
ATOM     21  C   UNL A   1      31.225  27.465  24.080  1.00  0.00     0.293 C 
ATOM     22  C   UNL A   1      33.262  28.187  23.178  1.00  0.00     0.248 C 
ATOM     23  O   UNL A   1      30.432  27.061  24.893  1.00  0.00    -0.261 OA
ATOM     24  S   UNL A   1      30.963  27.355  22.343  1.00  0.00    -0.050 SA
ATOM     25  O   UNL A   1      34.265  28.887  23.067  1.00  0.00    -0.273 OA
BRANCH  20  26
ATOM     26  C   UNL A   1      32.547  28.944  25.406  1.00  0.00     0.056 A 
ATOM     27  C   UNL A   1      31.324  32.385  26.554  1.00  0.00     0.044 C 
ATOM     28  C   UNL A   1      32.046  31.072  26.481  1.00  0.00    -0.049 A 
ATOM     29  C   UNL A   1      33.005  30.786  27.459  1.00  0.00     0.004 A 
ATOM     30  C   UNL A   1      31.819  30.146  25.449  1.00  0.00     0.030 A 
ATOM     31  C   UNL A   1      33.727  29.597  27.417  1.00  0.00     0.006 A 
ATOM     32  C   UNL A   1      33.517  28.666  26.393  1.00  0.00    -0.027 A 
ATOM     33  C   UNL A   1      34.387  27.438  26.396  1.00  0.00     0.046 C 
ENDBRANCH  20  26
ENDBRANCH  18  19
ENDBRANCH  15  18
ENDBRANCH   9  14
BRANCH  13  34
ATOM     34  O   UNL A   1      32.033  20.457  25.112  1.00  0.00    -0.507 OA
ATOM     35  H   UNL A   1      31.436  19.768  24.892  1.00  0.00     0.293 HD
ENDBRANCH  13  34
ENDBRANCH   6   8
ENDBRANCH   5   6
ENDBRANCH   4   5
ENDBRANCH   3   4
ENDBRANCH   2   3
ENDBRANCH   1   2
BRANCH   1  36
ATOM     36  C   UNL A   1      35.602  21.027  25.354  1.00  0.00     0.188 C 
BRANCH  36  37
ATOM     37  O   UNL A   1      36.969  21.272  25.086  1.00  0.00    -0.376 OA
BRANCH  37  38
ATOM     38  C   UNL A   1      37.457  22.561  25.381  1.00  0.00     0.202 C 
BRANCH  38  39
ATOM     39  C   UNL A   1      38.574  22.665  26.427  1.00  0.00     0.261 C 
BRANCH  39  40
ATOM     40  O   UNL A   1      39.976  22.443  26.103  1.00  0.00    -0.460 OA
BRANCH  40  41
ATOM     41  C   UNL A   1      41.118  22.798  26.734  1.00  0.00     0.338 C 
ATOM     42  O   UNL A   1      41.865  21.966  27.235  1.00  0.00    -0.246 OA
BRANCH  41  43
ATOM     43  C   UNL A   1      41.360  24.227  26.923  1.00  0.00     0.060 A 
ATOM     44  C   UNL A   1      42.042  24.559  28.079  1.00  0.00     0.016 A 
ATOM     45  C   UNL A   1      40.766  25.212  26.120  1.00  0.00     0.016 A 
ATOM     46  C   UNL A   1      41.892  25.846  28.548  1.00  0.00     0.010 A 
ATOM     47  C   UNL A   1      40.671  26.528  26.599  1.00  0.00     0.010 A 
ATOM     48  C   UNL A   1      41.162  26.823  27.870  1.00  0.00    -0.014 A 
BRANCH  48  49
ATOM     49  C   UNL A   1      41.182  28.144  28.519  1.00  0.00     0.031 A 
ATOM     50  C   UNL A   1      42.421  28.906  28.197  1.00  0.00     0.074 A 
ATOM     51  C   UNL A   1      40.270  28.643  29.384  1.00  0.00     0.049 A 
ATOM     52  N   UNL A   1      43.342  29.322  29.013  1.00  0.00    -0.248 NA
ATOM     53  C   UNL A   1      42.772  29.037  26.772  1.00  0.00     0.031 C 
ATOM     54  C   UNL A   1      38.978  28.059  29.742  1.00  0.00     0.029 A 
ATOM     55  N   UNL A   1      40.272  29.830  30.082  1.00  0.00    -0.354 N 
ATOM     56  C   UNL A   1      44.242  30.013  28.209  1.00  0.00     0.074 A 
ATOM     57  C   UNL A   1      43.964  29.625  26.850  1.00  0.00     0.031 C 
ATOM     58  C   UNL A   1      38.236  28.984  30.391  1.00  0.00     0.029 A 
ATOM     59  C   UNL A   1      39.015  30.202  30.565  1.00  0.00     0.049 A 
ATOM     60  H   UNL A   1      41.085  30.367  30.227  1.00  0.00     0.167 HD
ATOM     61  C   UNL A   1      44.994  31.046  28.666  1.00  0.00     0.034 A 
ATOM     62  C   UNL A   1      38.596  31.434  30.981  1.00  0.00     0.034 A 
ATOM     63  C   UNL A   1      45.207  31.004  30.084  1.00  0.00     0.049 A 
ATOM     64  C   UNL A   1      39.793  32.205  31.391  1.00  0.00     0.074 A 
ATOM     65  C   UNL A   1      45.775  30.095  30.957  1.00  0.00     0.029 A 
ATOM     66  N   UNL A   1      44.551  31.909  30.882  1.00  0.00    -0.354 N 
ATOM     67  N   UNL A   1      40.501  31.944  32.454  1.00  0.00    -0.248 NA
ATOM     68  C   UNL A   1      40.465  33.001  30.377  1.00  0.00     0.031 C 
ATOM     69  C   UNL A   1      45.043  30.227  32.172  1.00  0.00     0.029 A 
ATOM     70  C   UNL A   1      44.098  31.234  31.989  1.00  0.00     0.049 A 
ATOM     71  H   UNL A   1      44.428  32.868  30.695  1.00  0.00     0.167 HD
ATOM     72  C   UNL A   1      41.814  32.170  32.073  1.00  0.00     0.074 A 
ATOM     73  C   UNL A   1      41.723  32.887  30.805  1.00  0.00     0.031 C 
ATOM     74  C   UNL A   1      42.856  31.531  32.680  1.00  0.00     0.034 A 
BRANCH  61  75
ATOM     75  C   UNL A   1      45.248  32.250  27.798  1.00  0.00     0.023 A 
ATOM     76  C   UNL A   1      46.534  32.490  27.296  1.00  0.00     0.031 A 
ATOM     77  C   UNL A   1      44.309  33.302  27.636  1.00  0.00     0.131 A 
ATOM     78  C   UNL A   1      46.827  33.715  26.664  1.00  0.00     0.055 A 
ATOM     79  C   UNL A   1      44.574  34.465  26.922  1.00  0.00     0.041 A 
ATOM     80  F   UNL A   1      43.119  33.300  28.254  1.00  0.00    -0.206 F 
ATOM     81  C   UNL A   1      45.848  34.685  26.440  1.00  0.00     0.022 A 
BRANCH  78  82
ATOM     82  S   UNL A   1      48.555  34.116  26.300  1.00  0.00     0.124 S 
ATOM     83  O   UNL A   1      48.959  34.812  27.516  1.00  0.00    -0.237 OA
ATOM     84  O   UNL A   1      49.132  32.795  26.088  1.00  0.00    -0.237 OA
ATOM     85  O   UNL A   1      48.462  34.955  25.106  1.00  0.00    -0.744 OA
ENDBRANCH  78  82
ENDBRANCH  61  75
BRANCH  62  86
ATOM     86  C   UNL A   1      37.264  32.077  30.716  1.00  0.00     0.023 A 
ATOM     87  C   UNL A   1      36.499  32.749  31.703  1.00  0.00     0.031 A 
ATOM     88  C   UNL A   1      36.828  32.239  29.380  1.00  0.00     0.131 A 
ATOM     89  C   UNL A   1      35.360  33.514  31.332  1.00  0.00     0.055 A 
ATOM     90  C   UNL A   1      35.699  32.979  29.025  1.00  0.00     0.041 A 
ATOM     91  F   UNL A   1      37.535  31.758  28.348  1.00  0.00    -0.206 F 
ATOM     92  C   UNL A   1      34.963  33.626  29.998  1.00  0.00     0.022 A 
BRANCH  89  93
ATOM     93  S   UNL A   1      34.412  34.475  32.566  1.00  0.00     0.124 S 
ATOM     94  O   UNL A   1      34.191  33.492  33.621  1.00  0.00    -0.237 OA
ATOM     95  O   UNL A   1      35.318  35.573  32.877  1.00  0.00    -0.237 OA
ATOM     96  O   UNL A   1      33.205  34.871  31.836  1.00  0.00    -0.744 OA
ENDBRANCH  89  93
ENDBRANCH  62  86
BRANCH  74  97
ATOM     97  C   UNL A   1      42.653  30.912  34.047  1.00  0.00     0.023 A 
ATOM     98  C   UNL A   1      42.375  29.552  34.300  1.00  0.00     0.031 A 
ATOM     99  C   UNL A   1      42.844  31.753  35.160  1.00  0.00     0.131 A 
ATOM    100  C   UNL A   1      42.292  29.084  35.628  1.00  0.00     0.055 A 
ATOM    101  C   UNL A   1      42.784  31.283  36.472  1.00  0.00     0.041 A 
ATOM    102  F   UNL A   1      43.115  33.058  34.989  1.00  0.00    -0.206 F 
ATOM    103  C   UNL A   1      42.504  29.944  36.711  1.00  0.00     0.022 A 
BRANCH 100 104
ATOM    104  S   UNL A   1      41.895  27.341  35.969  1.00  0.00     0.124 S 
ATOM    105  O   UNL A   1      41.077  27.411  37.174  1.00  0.00    -0.237 OA
ATOM    106  O   UNL A   1      41.200  26.938  34.750  1.00  0.00    -0.237 OA
ATOM    107  O   UNL A   1      43.207  26.720  36.159  1.00  0.00    -0.744 OA
ENDBRANCH 100 104
ENDBRANCH  74  97
ENDBRANCH  48  49
ENDBRANCH  41  43
ENDBRANCH  40  41
ENDBRANCH  39  40
ENDBRANCH  38  39
ENDBRANCH  37  38
ENDBRANCH  36  37
ENDBRANCH   1  36
TORSDOF 25
ENDMDL
MODEL 2
REMARK VINA RESULT:     -11.4      3.065      9.400
REMARK SMILES Cc1ccc(C)c(N2C(=O)S[C@H](CC(=O)Nc3ccc(C(=O)OCCOCCOCCOC(=O)c4ccc(-c5c6nc(c(-c7cc(S(=O)(=O)[O-])ccc7F)c7ccc([nH]7)c(-c7cc(S(=O)(=O)[O-])ccc7F)c7nc(c(-c8cc(S(=O)(=O)[O-])ccc8F)c8ccc5[nH]8)C=C7)C=C6)cc4)c(O)c3)C2=O)c1
REMARK SMILES IDX 27 1 26 2 25 3 24 4 23 5 21 6 22 7 20 8 17 9 18 10 100 11
REMARK SMILES IDX 19 12 98 13 16 14 14 15 15 16 13 18 12 19 8 20 9 21 101 22
REMARK SMILES IDX 10 23 11 24 102 25 7 26 1 27 2 28 3 29 103 30 4 31 5 32 6 33
REMARK SMILES IDX 99 34 28 36 29 37 30 38 31 39 32 40 33 41 34 42 35 43 36 44
REMARK SMILES IDX 97 45 37 46 96 47 38 48 39 49 40 50 90 51 41 52 95 53 89 54
REMARK SMILES IDX 91 55 42 56 94 57 88 58 87 59 43 61 75 62 55 63 74 64 56 65
REMARK SMILES IDX 59 66 73 67 92 68 57 69 58 70 72 72 93 73 60 74 44 75 45 76
REMARK SMILES IDX 53 77 46 78 52 79 54 80 51 81 47 82 48 83 49 84 50 85 76 86
REMARK SMILES IDX 77 87 85 88 78 89 84 90 86 91 83 92 79 93 80 94 81 95 82 96
REMARK SMILES IDX 61 97 62 98 70 99 63 100 69 101 71 102 68 103 64 104 65 105
REMARK SMILES IDX 66 106 67 107
REMARK H PARENT 16 17 99 35 91 60 59 71
REMARK Flexibility Score: inf
ROOT
ATOM      1  C   UNL A   1      31.618  29.661  25.053  1.00  0.00     0.188 C 
ENDROOT
BRANCH   1   2
ATOM      2  O   UNL A   1      32.534  29.158  24.087  1.00  0.00    -0.376 OA
BRANCH   2   3
ATOM      3  C   UNL A   1      32.179  29.363  22.715  1.00  0.00     0.202 C 
BRANCH   3   4
ATOM      4  C   UNL A   1      30.667  29.387  22.408  1.00  0.00     0.261 C 
BRANCH   4   5
ATOM      5  O   UNL A   1      30.141  28.135  21.891  1.00  0.00    -0.460 OA
BRANCH   5   6
ATOM      6  C   UNL A   1      29.875  27.187  22.826  1.00  0.00     0.341 C 
ATOM      7  O   UNL A   1      28.899  27.141  23.558  1.00  0.00    -0.246 OA
BRANCH   6   8
ATOM      8  C   UNL A   1      30.835  26.053  22.777  1.00  0.00     0.101 A 
ATOM      9  C   UNL A   1      32.906  24.144  22.587  1.00  0.00     0.044 A 
ATOM     10  C   UNL A   1      32.729  25.107  21.603  1.00  0.00     0.027 A 
ATOM     11  C   UNL A   1      31.912  23.986  23.539  1.00  0.00     0.073 A 
ATOM     12  C   UNL A   1      31.739  26.085  21.719  1.00  0.00     0.022 A 
ATOM     13  C   UNL A   1      30.864  24.924  23.605  1.00  0.00     0.132 A 
BRANCH   9  14
ATOM     14  N   UNL A   1      34.039  23.316  22.554  1.00  0.00    -0.326 N 
ATOM     15  C   UNL A   1      35.126  23.420  23.402  1.00  0.00     0.226 C 
ATOM     16  O   UNL A   1      36.256  23.100  23.035  1.00  0.00    -0.275 OA
ATOM     17  H   UNL A   1      34.063  22.605  21.873  1.00  0.00     0.169 HD
BRANCH  15  18
ATOM     18  C   UNL A   1      34.826  23.703  24.875  1.00  0.00     0.125 C 
BRANCH  18  19
ATOM     19  C   UNL A   1      34.982  22.545  25.856  1.00  0.00     0.156 C 
ATOM     20  N   UNL A   1      33.610  20.785  24.980  1.00  0.00    -0.240 N 
ATOM     21  C   UNL A   1      32.689  21.440  25.766  1.00  0.00     0.293 C 
ATOM     22  C   UNL A   1      34.921  21.221  25.093  1.00  0.00     0.248 C 
ATOM     23  O   UNL A   1      31.485  21.416  25.705  1.00  0.00    -0.261 OA
ATOM     24  S   UNL A   1      33.572  22.357  26.981  1.00  0.00    -0.050 SA
ATOM     25  O   UNL A   1      35.924  20.653  24.672  1.00  0.00    -0.273 OA
BRANCH  20  26
ATOM     26  C   UNL A   1      33.264  19.505  24.494  1.00  0.00     0.056 A 
ATOM     27  C   UNL A   1      34.033  15.830  25.238  1.00  0.00     0.044 C 
ATOM     28  C   UNL A   1      33.526  17.085  24.592  1.00  0.00    -0.049 A 
ATOM     29  C   UNL A   1      32.861  16.979  23.366  1.00  0.00     0.004 A 
ATOM     30  C   UNL A   1      33.729  18.356  25.156  1.00  0.00     0.030 A 
ATOM     31  C   UNL A   1      32.400  18.116  22.709  1.00  0.00     0.006 A 
ATOM     32  C   UNL A   1      32.600  19.390  23.254  1.00  0.00    -0.027 A 
ATOM     33  C   UNL A   1      32.122  20.564  22.443  1.00  0.00     0.046 C 
ENDBRANCH  20  26
ENDBRANCH  18  19
ENDBRANCH  15  18
ENDBRANCH   9  14
BRANCH  13  34
ATOM     34  O   UNL A   1      29.874  24.592  24.476  1.00  0.00    -0.507 OA
ATOM     35  H   UNL A   1      29.177  24.027  24.202  1.00  0.00     0.293 HD
ENDBRANCH  13  34
ENDBRANCH   6   8
ENDBRANCH   5   6
ENDBRANCH   4   5
ENDBRANCH   3   4
ENDBRANCH   2   3
ENDBRANCH   1   2
BRANCH   1  36
ATOM     36  C   UNL A   1      32.097  29.498  26.504  1.00  0.00     0.188 C 
BRANCH  36  37
ATOM     37  O   UNL A   1      32.440  30.750  27.064  1.00  0.00    -0.376 OA
BRANCH  37  38
ATOM     38  C   UNL A   1      33.731  30.871  27.617  1.00  0.00     0.202 C 
BRANCH  38  39
ATOM     39  C   UNL A   1      34.190  32.278  28.022  1.00  0.00     0.261 C 
BRANCH  39  40
ATOM     40  O   UNL A   1      34.490  32.639  29.401  1.00  0.00    -0.460 OA
BRANCH  40  41
ATOM     41  C   UNL A   1      35.241  32.038  30.350  1.00  0.00     0.338 C 
ATOM     42  O   UNL A   1      34.945  32.090  31.538  1.00  0.00    -0.246 OA
BRANCH  41  43
ATOM     43  C   UNL A   1      36.504  31.439  29.922  1.00  0.00     0.060 A 
ATOM     44  C   UNL A   1      36.543  30.057  29.969  1.00  0.00     0.016 A 
ATOM     45  C   UNL A   1      37.664  32.192  29.691  1.00  0.00     0.016 A 
ATOM     46  C   UNL A   1      37.787  29.468  30.043  1.00  0.00     0.010 A 
ATOM     47  C   UNL A   1      38.916  31.559  29.721  1.00  0.00     0.010 A 
ATOM     48  C   UNL A   1      38.978  30.193  29.991  1.00  0.00    -0.014 A 
BRANCH  48  49
ATOM     49  C   UNL A   1      40.190  29.358  30.027  1.00  0.00     0.031 A 
ATOM     50  C   UNL A   1      40.773  29.278  31.396  1.00  0.00     0.074 A 
ATOM     51  C   UNL A   1      40.809  28.773  28.977  1.00  0.00     0.049 A 
ATOM     52  N   UNL A   1      41.942  29.678  31.794  1.00  0.00    -0.248 NA
ATOM     53  C   UNL A   1      39.860  28.896  32.488  1.00  0.00     0.031 C 
ATOM     54  C   UNL A   1      40.330  28.694  27.599  1.00  0.00     0.029 A 
ATOM     55  N   UNL A   1      41.981  28.050  28.935  1.00  0.00    -0.354 N 
ATOM     56  C   UNL A   1      41.998  29.327  33.138  1.00  0.00     0.074 A 
ATOM     57  C   UNL A   1      40.645  29.059  33.551  1.00  0.00     0.031 C 
ATOM     58  C   UNL A   1      41.068  27.786  26.921  1.00  0.00     0.029 A 
ATOM     59  C   UNL A   1      42.119  27.267  27.786  1.00  0.00     0.049 A 
ATOM     60  H   UNL A   1      42.659  28.082  29.649  1.00  0.00     0.167 HD
ATOM     61  C   UNL A   1      43.160  29.034  33.775  1.00  0.00     0.034 A 
ATOM     62  C   UNL A   1      42.951  26.204  27.578  1.00  0.00     0.034 A 
ATOM     63  C   UNL A   1      44.309  29.630  33.156  1.00  0.00     0.049 A 
ATOM     64  C   UNL A   1      44.091  26.331  28.517  1.00  0.00     0.074 A 
ATOM     65  C   UNL A   1      44.697  30.926  32.869  1.00  0.00     0.029 A 
ATOM     66  N   UNL A   1      45.180  28.830  32.460  1.00  0.00    -0.354 N 
ATOM     67  N   UNL A   1      45.019  27.241  28.420  1.00  0.00    -0.248 NA
ATOM     68  C   UNL A   1      43.960  25.712  29.826  1.00  0.00     0.031 C 
ATOM     69  C   UNL A   1      45.455  30.838  31.665  1.00  0.00     0.029 A 
ATOM     70  C   UNL A   1      45.522  29.493  31.306  1.00  0.00     0.049 A 
ATOM     71  H   UNL A   1      45.503  27.942  32.738  1.00  0.00     0.167 HD
ATOM     72  C   UNL A   1      45.296  27.608  29.727  1.00  0.00     0.074 A 
ATOM     73  C   UNL A   1      44.665  26.582  30.551  1.00  0.00     0.031 C 
ATOM     74  C   UNL A   1      45.786  28.844  30.035  1.00  0.00     0.034 A 
BRANCH  61  75
ATOM     75  C   UNL A   1      43.216  27.923  34.791  1.00  0.00     0.023 A 
ATOM     76  C   UNL A   1      43.602  26.635  34.398  1.00  0.00     0.031 A 
ATOM     77  C   UNL A   1      42.675  28.040  36.098  1.00  0.00     0.131 A 
ATOM     78  C   UNL A   1      43.455  25.552  35.287  1.00  0.00     0.055 A 
ATOM     79  C   UNL A   1      42.629  26.989  37.007  1.00  0.00     0.041 A 
ATOM     80  F   UNL A   1      42.067  29.157  36.524  1.00  0.00    -0.206 F 
ATOM     81  C   UNL A   1      43.009  25.727  36.598  1.00  0.00     0.022 A 
BRANCH  78  82
ATOM     82  S   UNL A   1      43.676  23.870  34.655  1.00  0.00     0.124 S 
ATOM     83  O   UNL A   1      44.842  23.422  35.408  1.00  0.00    -0.237 OA
ATOM     84  O   UNL A   1      42.403  23.249  35.002  1.00  0.00    -0.237 OA
ATOM     85  O   UNL A   1      43.901  24.074  33.224  1.00  0.00    -0.744 OA
ENDBRANCH  78  82
ENDBRANCH  61  75
BRANCH  62  86
ATOM     86  C   UNL A   1      42.628  24.927  26.856  1.00  0.00     0.023 A 
ATOM     87  C   UNL A   1      43.561  24.204  26.069  1.00  0.00     0.031 A 
ATOM     88  C   UNL A   1      41.413  24.260  27.138  1.00  0.00     0.131 A 
ATOM     89  C   UNL A   1      43.248  22.901  25.596  1.00  0.00     0.055 A 
ATOM     90  C   UNL A   1      41.105  22.987  26.657  1.00  0.00     0.041 A 
ATOM     91  F   UNL A   1      40.503  24.785  27.971  1.00  0.00    -0.206 F 
ATOM     92  C   UNL A   1      42.023  22.298  25.890  1.00  0.00     0.022 A 
BRANCH  89  93
ATOM     93  S   UNL A   1      44.465  21.904  24.665  1.00  0.00     0.124 S 
ATOM     94  O   UNL A   1      44.310  22.412  23.307  1.00  0.00    -0.237 OA
ATOM     95  O   UNL A   1      45.717  22.222  25.341  1.00  0.00    -0.237 OA
ATOM     96  O   UNL A   1      44.001  20.529  24.861  1.00  0.00    -0.744 OA
ENDBRANCH  89  93
ENDBRANCH  62  86
BRANCH  74  97
ATOM     97  C   UNL A   1      46.445  29.674  28.952  1.00  0.00     0.023 A 
ATOM     98  C   UNL A   1      45.845  30.748  28.261  1.00  0.00     0.031 A 
ATOM     99  C   UNL A   1      47.798  29.400  28.677  1.00  0.00     0.131 A 
ATOM    100  C   UNL A   1      46.598  31.496  27.332  1.00  0.00     0.055 A 
ATOM    101  C   UNL A   1      48.546  30.156  27.775  1.00  0.00     0.041 A 
ATOM    102  F   UNL A   1      48.430  28.392  29.303  1.00  0.00    -0.206 F 
ATOM    103  C   UNL A   1      47.946  31.208  27.095  1.00  0.00     0.022 A 
BRANCH 100 104
ATOM    104  S   UNL A   1      45.826  32.859  26.405  1.00  0.00     0.124 S 
ATOM    105  O   UNL A   1      45.049  32.172  25.380  1.00  0.00    -0.237 OA
ATOM    106  O   UNL A   1      45.054  33.539  27.441  1.00  0.00    -0.237 OA
ATOM    107  O   UNL A   1      46.968  33.619  25.895  1.00  0.00    -0.744 OA
ENDBRANCH 100 104
ENDBRANCH  74  97
ENDBRANCH  48  49
ENDBRANCH  41  43
ENDBRANCH  40  41
ENDBRANCH  39  40
ENDBRANCH  38  39
ENDBRANCH  37  38
ENDBRANCH  36  37
ENDBRANCH   1  36
TORSDOF 25
ENDMDL
MODEL 3
REMARK VINA RESULT:     -11.3      3.611      9.920
REMARK SMILES Cc1ccc(C)c(N2C(=O)S[C@H](CC(=O)Nc3ccc(C(=O)OCCOCCOCCOC(=O)c4ccc(-c5c6nc(c(-c7cc(S(=O)(=O)[O-])ccc7F)c7ccc([nH]7)c(-c7cc(S(=O)(=O)[O-])ccc7F)c7nc(c(-c8cc(S(=O)(=O)[O-])ccc8F)c8ccc5[nH]8)C=C7)C=C6)cc4)c(O)c3)C2=O)c1
REMARK SMILES IDX 27 1 26 2 25 3 24 4 23 5 21 6 22 7 20 8 17 9 18 10 100 11
REMARK SMILES IDX 19 12 98 13 16 14 14 15 15 16 13 18 12 19 8 20 9 21 101 22
REMARK SMILES IDX 10 23 11 24 102 25 7 26 1 27 2 28 3 29 103 30 4 31 5 32 6 33
REMARK SMILES IDX 99 34 28 36 29 37 30 38 31 39 32 40 33 41 34 42 35 43 36 44
REMARK SMILES IDX 97 45 37 46 96 47 38 48 39 49 40 50 90 51 41 52 95 53 89 54
REMARK SMILES IDX 91 55 42 56 94 57 88 58 87 59 43 61 75 62 55 63 74 64 56 65
REMARK SMILES IDX 59 66 73 67 92 68 57 69 58 70 72 72 93 73 60 74 44 75 45 76
REMARK SMILES IDX 53 77 46 78 52 79 54 80 51 81 47 82 48 83 49 84 50 85 76 86
REMARK SMILES IDX 77 87 85 88 78 89 84 90 86 91 83 92 79 93 80 94 81 95 82 96
REMARK SMILES IDX 61 97 62 98 70 99 63 100 69 101 71 102 68 103 64 104 65 105
REMARK SMILES IDX 66 106 67 107
REMARK H PARENT 16 17 99 35 91 60 59 71
REMARK Flexibility Score: inf
ROOT
ATOM      1  C   UNL A   1      31.661  29.426  25.433  1.00  0.00     0.188 C 
ENDROOT
BRANCH   1   2
ATOM      2  O   UNL A   1      32.627  29.039  24.462  1.00  0.00    -0.376 OA
BRANCH   2   3
ATOM      3  C   UNL A   1      32.280  29.288  23.094  1.00  0.00     0.202 C 
BRANCH   3   4
ATOM      4  C   UNL A   1      30.778  29.498  22.809  1.00  0.00     0.261 C 
BRANCH   4   5
ATOM      5  O   UNL A   1      30.142  28.395  22.108  1.00  0.00    -0.460 OA
BRANCH   5   6
ATOM      6  C   UNL A   1      29.759  27.353  22.889  1.00  0.00     0.341 C 
ATOM      7  O   UNL A   1      28.682  27.220  23.448  1.00  0.00    -0.246 OA
BRANCH   6   8
ATOM      8  C   UNL A   1      30.748  26.243  22.882  1.00  0.00     0.101 A 
ATOM      9  C   UNL A   1      32.857  24.373  22.725  1.00  0.00     0.044 A 
ATOM     10  C   UNL A   1      32.571  25.218  21.663  1.00  0.00     0.027 A 
ATOM     11  C   UNL A   1      31.948  24.297  23.769  1.00  0.00     0.073 A 
ATOM     12  C   UNL A   1      31.563  26.179  21.755  1.00  0.00     0.022 A 
ATOM     13  C   UNL A   1      30.879  25.212  23.821  1.00  0.00     0.132 A 
BRANCH   9  14
ATOM     14  N   UNL A   1      34.010  23.572  22.687  1.00  0.00    -0.326 N 
ATOM     15  C   UNL A   1      35.058  23.643  23.586  1.00  0.00     0.226 C 
ATOM     16  O   UNL A   1      36.209  23.371  23.247  1.00  0.00    -0.275 OA
ATOM     17  H   UNL A   1      34.078  22.908  21.963  1.00  0.00     0.169 HD
BRANCH  15  18
ATOM     18  C   UNL A   1      34.691  23.821  25.060  1.00  0.00     0.125 C 
BRANCH  18  19
ATOM     19  C   UNL A   1      34.869  22.616  25.977  1.00  0.00     0.156 C 
ATOM     20  N   UNL A   1      33.471  20.904  25.049  1.00  0.00    -0.240 N 
ATOM     21  C   UNL A   1      32.572  21.518  25.890  1.00  0.00     0.293 C 
ATOM     22  C   UNL A   1      34.786  21.332  25.150  1.00  0.00     0.248 C 
ATOM     23  O   UNL A   1      31.367  21.499  25.859  1.00  0.00    -0.261 OA
ATOM     24  S   UNL A   1      33.488  22.373  27.127  1.00  0.00    -0.050 SA
ATOM     25  O   UNL A   1      35.776  20.784  24.675  1.00  0.00    -0.273 OA
BRANCH  20  26
ATOM     26  C   UNL A   1      33.110  19.650  24.508  1.00  0.00     0.056 A 
ATOM     27  C   UNL A   1      33.665  15.930  25.221  1.00  0.00     0.044 C 
ATOM     28  C   UNL A   1      33.262  17.219  24.568  1.00  0.00    -0.049 A 
ATOM     29  C   UNL A   1      32.688  17.167  23.293  1.00  0.00     0.004 A 
ATOM     30  C   UNL A   1      33.474  18.468  25.176  1.00  0.00     0.030 A 
ATOM     31  C   UNL A   1      32.327  18.337  22.630  1.00  0.00     0.006 A 
ATOM     32  C   UNL A   1      32.538  19.589  23.219  1.00  0.00    -0.027 A 
ATOM     33  C   UNL A   1      32.173  20.799  22.402  1.00  0.00     0.046 C 
ENDBRANCH  20  26
ENDBRANCH  18  19
ENDBRANCH  15  18
ENDBRANCH   9  14
BRANCH  13  34
ATOM     34  O   UNL A   1      29.973  24.955  24.802  1.00  0.00    -0.507 OA
ATOM     35  H   UNL A   1      29.633  25.657  25.322  1.00  0.00     0.293 HD
ENDBRANCH  13  34
ENDBRANCH   6   8
ENDBRANCH   5   6
ENDBRANCH   4   5
ENDBRANCH   3   4
ENDBRANCH   2   3
ENDBRANCH   1   2
BRANCH   1  36
ATOM     36  C   UNL A   1      32.170  29.339  26.880  1.00  0.00     0.188 C 
BRANCH  36  37
ATOM     37  O   UNL A   1      32.809  30.542  27.261  1.00  0.00    -0.376 OA
BRANCH  37  38
ATOM     38  C   UNL A   1      34.169  30.458  27.620  1.00  0.00     0.202 C 
BRANCH  38  39
ATOM     39  C   UNL A   1      34.889  31.771  27.951  1.00  0.00     0.261 C 
BRANCH  39  40
ATOM     40  O   UNL A   1      35.861  31.884  29.029  1.00  0.00    -0.460 OA
BRANCH  40  41
ATOM     41  C   UNL A   1      36.368  30.972  29.888  1.00  0.00     0.338 C 
ATOM     42  O   UNL A   1      36.049  30.950  31.071  1.00  0.00    -0.246 OA
BRANCH  41  43
ATOM     43  C   UNL A   1      37.425  30.095  29.385  1.00  0.00     0.060 A 
ATOM     44  C   UNL A   1      37.489  28.850  29.983  1.00  0.00     0.016 A 
ATOM     45  C   UNL A   1      38.437  30.541  28.522  1.00  0.00     0.016 A 
ATOM     46  C   UNL A   1      38.693  28.183  29.914  1.00  0.00     0.010 A 
ATOM     47  C   UNL A   1      39.634  29.815  28.429  1.00  0.00     0.010 A 
ATOM     48  C   UNL A   1      39.794  28.670  29.207  1.00  0.00    -0.014 A 
BRANCH  48  49
ATOM     49  C   UNL A   1      40.957  27.767  29.215  1.00  0.00     0.031 A 
ATOM     50  C   UNL A   1      41.837  28.001  30.394  1.00  0.00     0.074 A 
ATOM     51  C   UNL A   1      41.299  26.869  28.264  1.00  0.00     0.049 A 
ATOM     52  N   UNL A   1      43.078  28.384  30.404  1.00  0.00    -0.248 NA
ATOM     53  C   UNL A   1      41.191  28.007  31.718  1.00  0.00     0.031 C 
ATOM     54  C   UNL A   1      40.513  26.471  27.098  1.00  0.00     0.029 A 
ATOM     55  N   UNL A   1      42.409  26.057  28.175  1.00  0.00    -0.354 N 
ATOM     56  C   UNL A   1      43.432  28.399  31.749  1.00  0.00     0.074 A 
ATOM     57  C   UNL A   1      42.204  28.375  32.500  1.00  0.00     0.031 C 
ATOM     58  C   UNL A   1      41.049  25.352  26.560  1.00  0.00     0.029 A 
ATOM     59  C   UNL A   1      42.255  24.988  27.289  1.00  0.00     0.049 A 
ATOM     60  H   UNL A   1      43.234  26.216  28.689  1.00  0.00     0.167 HD
ATOM     61  C   UNL A   1      44.701  28.180  32.178  1.00  0.00     0.034 A 
ATOM     62  C   UNL A   1      42.986  23.836  27.214  1.00  0.00     0.034 A 
ATOM     63  C   UNL A   1      45.693  28.484  31.186  1.00  0.00     0.049 A 
ATOM     64  C   UNL A   1      44.315  24.103  27.813  1.00  0.00     0.074 A 
ATOM     65  C   UNL A   1      46.041  29.615  30.472  1.00  0.00     0.029 A 
ATOM     66  N   UNL A   1      46.357  27.451  30.572  1.00  0.00    -0.354 N 
ATOM     67  N   UNL A   1      45.221  24.867  27.269  1.00  0.00    -0.248 NA
ATOM     68  C   UNL A   1      44.473  23.870  29.239  1.00  0.00     0.031 C 
ATOM     69  C   UNL A   1      46.497  29.141  29.208  1.00  0.00     0.029 A 
ATOM     70  C   UNL A   1      46.442  27.749  29.234  1.00  0.00     0.049 A 
ATOM     71  H   UNL A   1      46.709  26.643  31.011  1.00  0.00     0.167 HD
ATOM     72  C   UNL A   1      45.803  25.541  28.330  1.00  0.00     0.074 A 
ATOM     73  C   UNL A   1      45.351  24.833  29.524  1.00  0.00     0.031 C 
ATOM     74  C   UNL A   1      46.386  26.765  28.169  1.00  0.00     0.034 A 
BRANCH  61  75
ATOM     75  C   UNL A   1      44.958  27.380  33.427  1.00  0.00     0.023 A 
ATOM     76  C   UNL A   1      44.037  26.406  33.835  1.00  0.00     0.031 A 
ATOM     77  C   UNL A   1      45.975  27.707  34.362  1.00  0.00     0.131 A 
ATOM     78  C   UNL A   1      44.161  25.805  35.103  1.00  0.00     0.055 A 
ATOM     79  C   UNL A   1      46.153  27.038  35.568  1.00  0.00     0.041 A 
ATOM     80  F   UNL A   1      46.783  28.764  34.200  1.00  0.00    -0.206 F 
ATOM     81  C   UNL A   1      45.232  26.086  35.954  1.00  0.00     0.022 A 
BRANCH  78  82
ATOM     82  S   UNL A   1      42.799  24.783  35.719  1.00  0.00     0.124 S 
ATOM     83  O   UNL A   1      43.123  23.482  35.143  1.00  0.00    -0.237 OA
ATOM     84  O   UNL A   1      42.957  24.909  37.163  1.00  0.00    -0.237 OA
ATOM     85  O   UNL A   1      41.612  25.431  35.162  1.00  0.00    -0.744 OA
ENDBRANCH  78  82
ENDBRANCH  61  75
BRANCH  62  86
ATOM     86  C   UNL A   1      42.469  22.448  26.964  1.00  0.00     0.023 A 
ATOM     87  C   UNL A   1      43.164  21.467  26.212  1.00  0.00     0.031 A 
ATOM     88  C   UNL A   1      41.346  21.987  27.691  1.00  0.00     0.131 A 
ATOM     89  C   UNL A   1      42.717  20.118  26.200  1.00  0.00     0.055 A 
ATOM     90  C   UNL A   1      40.903  20.664  27.662  1.00  0.00     0.041 A 
ATOM     91  F   UNL A   1      40.680  22.787  28.535  1.00  0.00    -0.206 F 
ATOM     92  C   UNL A   1      41.590  19.722  26.923  1.00  0.00     0.022 A 
BRANCH  89  93
ATOM     93  S   UNL A   1      43.647  18.811  25.323  1.00  0.00     0.124 S 
ATOM     94  O   UNL A   1      43.810  19.385  23.993  1.00  0.00    -0.237 OA
ATOM     95  O   UNL A   1      44.853  18.684  26.132  1.00  0.00    -0.237 OA
ATOM     96  O   UNL A   1      42.750  17.655  25.385  1.00  0.00    -0.744 OA
ENDBRANCH  89  93
ENDBRANCH  62  86
BRANCH  74  97
ATOM     97  C   UNL A   1      46.801  27.212  26.782  1.00  0.00     0.023 A 
ATOM     98  C   UNL A   1      48.073  27.020  26.203  1.00  0.00     0.031 A 
ATOM     99  C   UNL A   1      45.803  27.792  25.976  1.00  0.00     0.131 A 
ATOM    100  C   UNL A   1      48.306  27.409  24.868  1.00  0.00     0.055 A 
ATOM    101  C   UNL A   1      46.030  28.155  24.649  1.00  0.00     0.041 A 
ATOM    102  F   UNL A   1      44.568  28.000  26.466  1.00  0.00    -0.206 F 
ATOM    103  C   UNL A   1      47.287  27.967  24.089  1.00  0.00     0.022 A 
BRANCH 100 104
ATOM    104  S   UNL A   1      49.954  27.203  24.121  1.00  0.00     0.124 S 
ATOM    105  O   UNL A   1      49.658  26.682  22.792  1.00  0.00    -0.237 OA
ATOM    106  O   UNL A   1      50.487  28.561  24.169  1.00  0.00    -0.237 OA
ATOM    107  O   UNL A   1      50.619  26.253  25.014  1.00  0.00    -0.744 OA
ENDBRANCH 100 104
ENDBRANCH  74  97
ENDBRANCH  48  49
ENDBRANCH  41  43
ENDBRANCH  40  41
ENDBRANCH  39  40
ENDBRANCH  38  39
ENDBRANCH  37  38
ENDBRANCH  36  37
ENDBRANCH   1  36
TORSDOF 25
ENDMDL
