MODEL 1
REMARK VINA RESULT:      -9.5      0.000      0.000
REMARK SMILES CCc1ccccc1NC(=O)CCCC(=O)OCCOCCOCCOC(=O)c1ccc(-c2c3nc(c(-c4cc(S(=O)(=O)[O-])ccc4F)c4ccc([nH]4)c(-c4cc(S(=O)(=O)[O-])ccc4F)c4nc(c(-c5cc(S(=O)(=O)[O-])ccc5F)c5ccc2[nH]5)C=C4)C=C3)cc1
REMARK SMILES IDX 21 1 20 2 19 3 18 4 17 5 15 6 16 7 14 8 13 9 12 10 10 11
REMARK SMILES IDX 9 12 11 14 8 15 3 16 4 17 5 18 7 19 6 20 2 21 1 22 22 23
REMARK SMILES IDX 23 24 24 25 25 26 26 27 27 28 28 29 29 30 30 31 91 32 31 33
REMARK SMILES IDX 90 34 32 35 33 36 34 37 84 38 35 39 89 40 83 41 85 42 36 43
REMARK SMILES IDX 88 44 82 45 81 46 37 48 69 49 49 50 68 51 50 52 53 53 67 54
REMARK SMILES IDX 86 55 51 56 52 57 66 59 87 60 54 61 38 62 39 63 47 64 40 65
REMARK SMILES IDX 46 66 48 67 45 68 41 69 42 70 43 71 44 72 70 73 71 74 79 75
REMARK SMILES IDX 72 76 78 77 80 78 77 79 73 80 74 81 75 82 76 83 55 84 56 85
REMARK SMILES IDX 64 86 57 87 63 88 65 89 62 90 58 91 59 92 60 93 61 94
REMARK H PARENT 9 13 85 47 53 58
REMARK Flexibility Score: inf
ROOT
ATOM      1  C   UNL A   1      35.010  23.049  26.007  1.00  0.00     0.188 C 
ENDROOT
BRANCH   1   2
ATOM      2  O   UNL A   1      34.569  21.731  25.718  1.00  0.00    -0.376 OA
BRANCH   2   3
ATOM      3  C   UNL A   1      33.513  21.659  24.774  1.00  0.00     0.202 C 
BRANCH   3   4
ATOM      4  C   UNL A   1      32.148  21.467  25.411  1.00  0.00     0.261 C 
BRANCH   4   5
ATOM      5  O   UNL A   1      31.174  22.523  25.267  1.00  0.00    -0.463 OA
BRANCH   5   6
ATOM      6  C   UNL A   1      31.185  23.704  25.927  1.00  0.00     0.305 C 
ATOM      7  O   UNL A   1      30.763  23.874  27.061  1.00  0.00    -0.252 OA
BRANCH   6   8
ATOM      8  C   UNL A   1      31.794  24.816  25.077  1.00  0.00     0.123 C 
BRANCH   8   9
ATOM      9  C   UNL A   1      31.687  24.700  23.547  1.00  0.00     0.022 C 
BRANCH   9  10
ATOM     10  C   UNL A   1      32.964  24.843  22.709  1.00  0.00     0.101 C 
BRANCH  10  11
ATOM     11  C   UNL A   1      32.937  25.993  21.734  1.00  0.00     0.224 C 
ATOM     12  N   UNL A   1      32.866  27.298  22.105  1.00  0.00    -0.326 N 
ATOM     13  H   UNL A   1      33.037  27.910  21.353  1.00  0.00     0.169 HD
ATOM     14  O   UNL A   1      33.070  25.763  20.525  1.00  0.00    -0.275 OA
BRANCH  12  15
ATOM     15  C   UNL A   1      32.608  27.985  23.304  1.00  0.00     0.044 A 
ATOM     16  C   UNL A   1      31.315  28.488  23.530  1.00  0.00    -0.025 A 
ATOM     17  C   UNL A   1      31.118  29.495  24.492  1.00  0.00     0.006 A 
ATOM     18  C   UNL A   1      32.131  29.828  25.375  1.00  0.00     0.000 A 
ATOM     19  C   UNL A   1      33.544  28.178  24.306  1.00  0.00     0.026 A 
ATOM     20  C   UNL A   1      33.301  29.089  25.348  1.00  0.00     0.002 A 
BRANCH  16  21
ATOM     21  C   UNL A   1      30.096  27.889  22.871  1.00  0.00     0.034 C 
ATOM     22  C   UNL A   1      29.014  28.961  22.688  1.00  0.00     0.009 C 
ENDBRANCH  16  21
ENDBRANCH  12  15
ENDBRANCH  10  11
ENDBRANCH   9  10
ENDBRANCH   8   9
ENDBRANCH   6   8
ENDBRANCH   5   6
ENDBRANCH   4   5
ENDBRANCH   3   4
ENDBRANCH   2   3
ENDBRANCH   1   2
BRANCH   1  23
ATOM     23  C   UNL A   1      36.164  23.562  25.119  1.00  0.00     0.188 C 
BRANCH  23  24
ATOM     24  O   UNL A   1      37.245  22.716  24.773  1.00  0.00    -0.376 OA
BRANCH  24  25
ATOM     25  C   UNL A   1      37.794  21.897  25.792  1.00  0.00     0.202 C 
BRANCH  25  26
ATOM     26  C   UNL A   1      39.324  21.791  25.955  1.00  0.00     0.261 C 
BRANCH  26  27
ATOM     27  O   UNL A   1      39.807  20.649  26.691  1.00  0.00    -0.460 OA
BRANCH  27  28
ATOM     28  C   UNL A   1      41.072  20.235  26.400  1.00  0.00     0.338 C 
ATOM     29  O   UNL A   1      41.374  19.201  25.825  1.00  0.00    -0.246 OA
BRANCH  28  30
ATOM     30  C   UNL A   1      42.026  21.362  26.612  1.00  0.00     0.060 A 
ATOM     31  C   UNL A   1      42.338  21.733  27.935  1.00  0.00     0.016 A 
ATOM     32  C   UNL A   1      42.653  22.011  25.547  1.00  0.00     0.016 A 
ATOM     33  C   UNL A   1      43.249  22.758  28.197  1.00  0.00     0.010 A 
ATOM     34  C   UNL A   1      43.525  23.078  25.808  1.00  0.00     0.010 A 
ATOM     35  C   UNL A   1      43.794  23.483  27.132  1.00  0.00    -0.014 A 
BRANCH  35  36
ATOM     36  C   UNL A   1      44.326  24.848  27.390  1.00  0.00     0.031 A 
ATOM     37  C   UNL A   1      43.341  25.872  27.899  1.00  0.00     0.074 A 
ATOM     38  C   UNL A   1      45.618  25.184  27.220  1.00  0.00     0.049 A 
ATOM     39  N   UNL A   1      43.496  27.152  28.113  1.00  0.00    -0.248 NA
ATOM     40  C   UNL A   1      41.989  25.371  28.194  1.00  0.00     0.031 C 
ATOM     41  C   UNL A   1      46.690  24.276  26.822  1.00  0.00     0.029 A 
ATOM     42  N   UNL A   1      46.244  26.400  27.361  1.00  0.00    -0.354 N 
ATOM     43  C   UNL A   1      42.258  27.610  28.554  1.00  0.00     0.074 A 
ATOM     44  C   UNL A   1      41.357  26.478  28.540  1.00  0.00     0.031 C 
ATOM     45  C   UNL A   1      47.839  24.972  26.734  1.00  0.00     0.029 A 
ATOM     46  C   UNL A   1      47.578  26.382  27.027  1.00  0.00     0.049 A 
ATOM     47  H   UNL A   1      45.779  27.211  27.672  1.00  0.00     0.167 HD
ATOM     48  C   UNL A   1      41.900  28.858  28.938  1.00  0.00     0.034 A 
ATOM     49  C   UNL A   1      48.470  27.391  26.939  1.00  0.00     0.034 A 
ATOM     50  C   UNL A   1      42.799  29.984  28.930  1.00  0.00     0.049 A 
ATOM     51  C   UNL A   1      48.020  28.803  27.254  1.00  0.00     0.074 A 
ATOM     52  C   UNL A   1      42.542  31.292  29.295  1.00  0.00     0.029 A 
ATOM     53  N   UNL A   1      44.125  29.936  28.521  1.00  0.00    -0.354 N 
ATOM     54  N   UNL A   1      46.843  29.230  27.656  1.00  0.00    -0.248 NA
ATOM     55  C   UNL A   1      49.021  29.869  27.105  1.00  0.00     0.031 C 
ATOM     56  C   UNL A   1      43.688  32.050  29.031  1.00  0.00     0.029 A 
ATOM     57  C   UNL A   1      44.689  31.200  28.589  1.00  0.00     0.049 A 
ATOM     58  H   UNL A   1      44.596  29.123  28.226  1.00  0.00     0.167 HD
ATOM     59  C   UNL A   1      46.981  30.606  27.847  1.00  0.00     0.074 A 
ATOM     60  C   UNL A   1      48.353  30.933  27.523  1.00  0.00     0.031 C 
ATOM     61  C   UNL A   1      46.060  31.515  28.260  1.00  0.00     0.034 A 
BRANCH  48  62
ATOM     62  C   UNL A   1      40.454  29.069  29.324  1.00  0.00     0.023 A 
ATOM     63  C   UNL A   1      40.025  29.007  30.661  1.00  0.00     0.031 A 
ATOM     64  C   UNL A   1      39.482  29.269  28.329  1.00  0.00     0.131 A 
ATOM     65  C   UNL A   1      38.656  29.058  30.959  1.00  0.00     0.055 A 
ATOM     66  C   UNL A   1      38.128  29.411  28.640  1.00  0.00     0.041 A 
ATOM     67  F   UNL A   1      39.827  29.307  27.032  1.00  0.00    -0.206 F 
ATOM     68  C   UNL A   1      37.706  29.288  29.960  1.00  0.00     0.022 A 
BRANCH  65  69
ATOM     69  S   UNL A   1      38.120  28.650  32.643  1.00  0.00     0.124 S 
ATOM     70  O   UNL A   1      36.769  29.206  32.665  1.00  0.00    -0.237 OA
ATOM     71  O   UNL A   1      38.212  27.195  32.659  1.00  0.00    -0.237 OA
ATOM     72  O   UNL A   1      39.087  29.347  33.489  1.00  0.00    -0.744 OA
ENDBRANCH  65  69
ENDBRANCH  48  62
BRANCH  49  73
ATOM     73  C   UNL A   1      49.873  27.139  26.489  1.00  0.00     0.023 A 
ATOM     74  C   UNL A   1      50.923  27.018  27.415  1.00  0.00     0.031 A 
ATOM     75  C   UNL A   1      50.199  27.099  25.121  1.00  0.00     0.131 A 
ATOM     76  C   UNL A   1      52.249  26.913  26.964  1.00  0.00     0.055 A 
ATOM     77  C   UNL A   1      51.512  26.937  24.677  1.00  0.00     0.041 A 
ATOM     78  F   UNL A   1      49.239  27.222  24.190  1.00  0.00    -0.206 F 
ATOM     79  C   UNL A   1      52.550  26.856  25.601  1.00  0.00     0.022 A 
BRANCH  76  80
ATOM     80  S   UNL A   1      53.591  26.947  28.185  1.00  0.00     0.124 S 
ATOM     81  O   UNL A   1      54.290  25.701  27.893  1.00  0.00    -0.237 OA
ATOM     82  O   UNL A   1      54.293  28.176  27.829  1.00  0.00    -0.237 OA
ATOM     83  O   UNL A   1      52.887  26.983  29.465  1.00  0.00    -0.744 OA
ENDBRANCH  76  80
ENDBRANCH  49  73
BRANCH  61  84
ATOM     84  C   UNL A   1      46.526  32.940  28.449  1.00  0.00     0.023 A 
ATOM     85  C   UNL A   1      47.139  33.376  29.637  1.00  0.00     0.031 A 
ATOM     86  C   UNL A   1      46.350  33.880  27.416  1.00  0.00     0.131 A 
ATOM     87  C   UNL A   1      47.500  34.724  29.784  1.00  0.00     0.055 A 
ATOM     88  C   UNL A   1      46.772  35.204  27.543  1.00  0.00     0.041 A 
ATOM     89  F   UNL A   1      45.769  33.523  26.259  1.00  0.00    -0.206 F 
ATOM     90  C   UNL A   1      47.338  35.637  28.739  1.00  0.00     0.022 A 
BRANCH  87  91
ATOM     91  S   UNL A   1      48.096  35.298  31.399  1.00  0.00     0.124 S 
ATOM     92  O   UNL A   1      46.888  35.875  31.980  1.00  0.00    -0.237 OA
ATOM     93  O   UNL A   1      48.571  34.063  32.014  1.00  0.00    -0.237 OA
ATOM     94  O   UNL A   1      49.140  36.261  31.058  1.00  0.00    -0.744 OA
ENDBRANCH  87  91
ENDBRANCH  61  84
ENDBRANCH  35  36
ENDBRANCH  28  30
ENDBRANCH  27  28
ENDBRANCH  26  27
ENDBRANCH  25  26
ENDBRANCH  24  25
ENDBRANCH  23  24
ENDBRANCH   1  23
TORSDOF 25
ENDMDL
MODEL 2
REMARK VINA RESULT:      -9.2      2.249      7.838
REMARK SMILES CCc1ccccc1NC(=O)CCCC(=O)OCCOCCOCCOC(=O)c1ccc(-c2c3nc(c(-c4cc(S(=O)(=O)[O-])ccc4F)c4ccc([nH]4)c(-c4cc(S(=O)(=O)[O-])ccc4F)c4nc(c(-c5cc(S(=O)(=O)[O-])ccc5F)c5ccc2[nH]5)C=C4)C=C3)cc1
REMARK SMILES IDX 21 1 20 2 19 3 18 4 17 5 15 6 16 7 14 8 13 9 12 10 10 11
REMARK SMILES IDX 9 12 11 14 8 15 3 16 4 17 5 18 7 19 6 20 2 21 1 22 22 23
REMARK SMILES IDX 23 24 24 25 25 26 26 27 27 28 28 29 29 30 30 31 91 32 31 33
REMARK SMILES IDX 90 34 32 35 33 36 34 37 84 38 35 39 89 40 83 41 85 42 36 43
REMARK SMILES IDX 88 44 82 45 81 46 37 48 69 49 49 50 68 51 50 52 53 53 67 54
REMARK SMILES IDX 86 55 51 56 52 57 66 59 87 60 54 61 38 62 39 63 47 64 40 65
REMARK SMILES IDX 46 66 48 67 45 68 41 69 42 70 43 71 44 72 70 73 71 74 79 75
REMARK SMILES IDX 72 76 78 77 80 78 77 79 73 80 74 81 75 82 76 83 55 84 56 85
REMARK SMILES IDX 64 86 57 87 63 88 65 89 62 90 58 91 59 92 60 93 61 94
REMARK H PARENT 9 13 85 47 53 58
REMARK Flexibility Score: inf
ROOT
ATOM      1  C   UNL A   1      35.358  22.895  26.378  1.00  0.00     0.188 C 
ENDROOT
BRANCH   1   2
ATOM      2  O   UNL A   1      34.966  21.691  25.737  1.00  0.00    -0.376 OA
BRANCH   2   3
ATOM      3  C   UNL A   1      34.491  21.860  24.411  1.00  0.00     0.202 C 
BRANCH   3   4
ATOM      4  C   UNL A   1      33.004  21.589  24.266  1.00  0.00     0.261 C 
BRANCH   4   5
ATOM      5  O   UNL A   1      32.334  22.075  23.082  1.00  0.00    -0.463 OA
BRANCH   5   6
ATOM      6  C   UNL A   1      31.894  23.339  22.886  1.00  0.00     0.305 C 
ATOM      7  O   UNL A   1      30.842  23.787  23.317  1.00  0.00    -0.252 OA
BRANCH   6   8
ATOM      8  C   UNL A   1      32.879  24.153  22.052  1.00  0.00     0.123 C 
BRANCH   8   9
ATOM      9  C   UNL A   1      33.593  25.338  22.725  1.00  0.00     0.022 C 
BRANCH   9  10
ATOM     10  C   UNL A   1      33.194  26.762  22.317  1.00  0.00     0.101 C 
BRANCH  10  11
ATOM     11  C   UNL A   1      31.728  27.066  22.490  1.00  0.00     0.224 C 
ATOM     12  N   UNL A   1      31.223  27.805  23.512  1.00  0.00    -0.326 N 
ATOM     13  H   UNL A   1      30.280  28.047  23.369  1.00  0.00     0.169 HD
ATOM     14  O   UNL A   1      30.928  26.703  21.617  1.00  0.00    -0.275 OA
BRANCH  12  15
ATOM     15  C   UNL A   1      31.724  28.306  24.727  1.00  0.00     0.044 A 
ATOM     16  C   UNL A   1      31.402  27.634  25.919  1.00  0.00    -0.025 A 
ATOM     17  C   UNL A   1      31.536  28.300  27.151  1.00  0.00     0.006 A 
ATOM     18  C   UNL A   1      32.195  29.516  27.222  1.00  0.00     0.000 A 
ATOM     19  C   UNL A   1      32.549  29.413  24.829  1.00  0.00     0.026 A 
ATOM     20  C   UNL A   1      32.795  30.011  26.077  1.00  0.00     0.002 A 
BRANCH  16  21
ATOM     21  C   UNL A   1      31.046  26.168  25.941  1.00  0.00     0.034 C 
ATOM     22  C   UNL A   1      32.301  25.322  26.186  1.00  0.00     0.009 C 
ENDBRANCH  16  21
ENDBRANCH  12  15
ENDBRANCH  10  11
ENDBRANCH   9  10
ENDBRANCH   8   9
ENDBRANCH   6   8
ENDBRANCH   5   6
ENDBRANCH   4   5
ENDBRANCH   3   4
ENDBRANCH   2   3
ENDBRANCH   1   2
BRANCH   1  23
ATOM     23  C   UNL A   1      36.718  23.466  25.923  1.00  0.00     0.188 C 
BRANCH  23  24
ATOM     24  O   UNL A   1      37.594  22.699  25.114  1.00  0.00    -0.376 OA
BRANCH  24  25
ATOM     25  C   UNL A   1      38.058  21.463  25.634  1.00  0.00     0.202 C 
BRANCH  25  26
ATOM     26  C   UNL A   1      39.536  21.309  26.047  1.00  0.00     0.261 C 
BRANCH  26  27
ATOM     27  O   UNL A   1      40.034  19.959  26.128  1.00  0.00    -0.460 OA
BRANCH  27  28
ATOM     28  C   UNL A   1      41.388  19.819  26.202  1.00  0.00     0.338 C 
ATOM     29  O   UNL A   1      42.026  18.828  25.884  1.00  0.00    -0.246 OA
BRANCH  28  30
ATOM     30  C   UNL A   1      42.014  21.152  26.443  1.00  0.00     0.060 A 
ATOM     31  C   UNL A   1      42.212  21.566  27.775  1.00  0.00     0.016 A 
ATOM     32  C   UNL A   1      42.455  21.962  25.396  1.00  0.00     0.016 A 
ATOM     33  C   UNL A   1      42.822  22.788  28.064  1.00  0.00     0.010 A 
ATOM     34  C   UNL A   1      43.017  23.215  25.684  1.00  0.00     0.010 A 
ATOM     35  C   UNL A   1      43.164  23.650  27.017  1.00  0.00    -0.014 A 
BRANCH  35  36
ATOM     36  C   UNL A   1      43.321  25.102  27.304  1.00  0.00     0.031 A 
ATOM     37  C   UNL A   1      44.680  25.700  27.040  1.00  0.00     0.074 A 
ATOM     38  C   UNL A   1      42.318  25.881  27.750  1.00  0.00     0.049 A 
ATOM     39  N   UNL A   1      45.133  26.901  27.290  1.00  0.00    -0.248 NA
ATOM     40  C   UNL A   1      45.666  24.803  26.415  1.00  0.00     0.031 C 
ATOM     41  C   UNL A   1      40.937  25.455  27.961  1.00  0.00     0.029 A 
ATOM     42  N   UNL A   1      42.319  27.208  28.109  1.00  0.00    -0.354 N 
ATOM     43  C   UNL A   1      46.458  26.897  26.865  1.00  0.00     0.074 A 
ATOM     44  C   UNL A   1      46.744  25.565  26.378  1.00  0.00     0.031 C 
ATOM     45  C   UNL A   1      40.228  26.499  28.431  1.00  0.00     0.029 A 
ATOM     46  C   UNL A   1      41.112  27.654  28.594  1.00  0.00     0.049 A 
ATOM     47  H   UNL A   1      43.112  27.786  28.028  1.00  0.00     0.167 HD
ATOM     48  C   UNL A   1      47.358  27.909  26.876  1.00  0.00     0.034 A 
ATOM     49  C   UNL A   1      40.774  28.844  29.134  1.00  0.00     0.034 A 
ATOM     50  C   UNL A   1      47.069  29.227  27.381  1.00  0.00     0.049 A 
ATOM     51  C   UNL A   1      41.828  29.926  29.252  1.00  0.00     0.074 A 
ATOM     52  C   UNL A   1      47.906  30.326  27.445  1.00  0.00     0.029 A 
ATOM     53  N   UNL A   1      45.854  29.619  27.925  1.00  0.00    -0.354 N 
ATOM     54  N   UNL A   1      43.084  29.910  28.862  1.00  0.00    -0.248 NA
ATOM     55  C   UNL A   1      41.416  31.189  29.883  1.00  0.00     0.031 C 
ATOM     56  C   UNL A   1      47.222  31.356  28.098  1.00  0.00     0.029 A 
ATOM     57  C   UNL A   1      45.929  30.932  28.361  1.00  0.00     0.049 A 
ATOM     58  H   UNL A   1      45.054  29.047  27.992  1.00  0.00     0.167 HD
ATOM     59  C   UNL A   1      43.593  31.174  29.163  1.00  0.00     0.074 A 
ATOM     60  C   UNL A   1      42.510  31.926  29.759  1.00  0.00     0.031 C 
ATOM     61  C   UNL A   1      44.841  31.672  28.958  1.00  0.00     0.034 A 
BRANCH  48  62
ATOM     62  C   UNL A   1      48.753  27.591  26.393  1.00  0.00     0.023 A 
ATOM     63  C   UNL A   1      49.150  27.822  25.064  1.00  0.00     0.031 A 
ATOM     64  C   UNL A   1      49.679  26.987  27.260  1.00  0.00     0.131 A 
ATOM     65  C   UNL A   1      50.403  27.374  24.620  1.00  0.00     0.055 A 
ATOM     66  C   UNL A   1      50.959  26.626  26.836  1.00  0.00     0.041 A 
ATOM     67  F   UNL A   1      49.348  26.714  28.533  1.00  0.00    -0.206 F 
ATOM     68  C   UNL A   1      51.321  26.802  25.504  1.00  0.00     0.022 A 
BRANCH  65  69
ATOM     69  S   UNL A   1      50.749  27.392  22.839  1.00  0.00     0.124 S 
ATOM     70  O   UNL A   1      50.747  28.824  22.554  1.00  0.00    -0.237 OA
ATOM     71  O   UNL A   1      52.044  26.726  22.764  1.00  0.00    -0.237 OA
ATOM     72  O   UNL A   1      49.629  26.647  22.265  1.00  0.00    -0.744 OA
ENDBRANCH  65  69
ENDBRANCH  48  62
BRANCH  49  73
ATOM     73  C   UNL A   1      39.396  29.086  29.659  1.00  0.00     0.023 A 
ATOM     74  C   UNL A   1      38.457  29.826  28.920  1.00  0.00     0.031 A 
ATOM     75  C   UNL A   1      39.023  28.652  30.944  1.00  0.00     0.131 A 
ATOM     76  C   UNL A   1      37.214  30.152  29.489  1.00  0.00     0.055 A 
ATOM     77  C   UNL A   1      37.765  28.929  31.483  1.00  0.00     0.041 A 
ATOM     78  F   UNL A   1      39.883  27.952  31.700  1.00  0.00    -0.206 F 
ATOM     79  C   UNL A   1      36.856  29.695  30.759  1.00  0.00     0.022 A 
BRANCH  76  80
ATOM     80  S   UNL A   1      36.103  31.263  28.581  1.00  0.00     0.124 S 
ATOM     81  O   UNL A   1      34.967  31.355  29.491  1.00  0.00    -0.237 OA
ATOM     82  O   UNL A   1      36.920  32.466  28.450  1.00  0.00    -0.237 OA
ATOM     83  O   UNL A   1      35.849  30.548  27.333  1.00  0.00    -0.744 OA
ENDBRANCH  76  80
ENDBRANCH  49  73
BRANCH  61  84
ATOM     84  C   UNL A   1      45.082  33.119  29.321  1.00  0.00     0.023 A 
ATOM     85  C   UNL A   1      45.642  33.498  30.553  1.00  0.00     0.031 A 
ATOM     86  C   UNL A   1      44.741  34.138  28.412  1.00  0.00     0.131 A 
ATOM     87  C   UNL A   1      45.791  34.858  30.865  1.00  0.00     0.055 A 
ATOM     88  C   UNL A   1      44.953  35.486  28.700  1.00  0.00     0.041 A 
ATOM     89  F   UNL A   1      44.200  33.837  27.219  1.00  0.00    -0.206 F 
ATOM     90  C   UNL A   1      45.468  35.854  29.940  1.00  0.00     0.022 A 
BRANCH  87  91
ATOM     91  S   UNL A   1      46.322  35.317  32.538  1.00  0.00     0.124 S 
ATOM     92  O   UNL A   1      46.190  36.771  32.510  1.00  0.00    -0.237 OA
ATOM     93  O   UNL A   1      45.363  34.606  33.377  1.00  0.00    -0.237 OA
ATOM     94  O   UNL A   1      47.695  34.823  32.611  1.00  0.00    -0.744 OA
ENDBRANCH  87  91
ENDBRANCH  61  84
ENDBRANCH  35  36
ENDBRANCH  28  30
ENDBRANCH  27  28
ENDBRANCH  26  27
ENDBRANCH  25  26
ENDBRANCH  24  25
ENDBRANCH  23  24
ENDBRANCH   1  23
TORSDOF 25
ENDMDL
MODEL 3
REMARK VINA RESULT:      -9.0      2.662      3.278
REMARK SMILES CCc1ccccc1NC(=O)CCCC(=O)OCCOCCOCCOC(=O)c1ccc(-c2c3nc(c(-c4cc(S(=O)(=O)[O-])ccc4F)c4ccc([nH]4)c(-c4cc(S(=O)(=O)[O-])ccc4F)c4nc(c(-c5cc(S(=O)(=O)[O-])ccc5F)c5ccc2[nH]5)C=C4)C=C3)cc1
REMARK SMILES IDX 21 1 20 2 19 3 18 4 17 5 15 6 16 7 14 8 13 9 12 10 10 11
REMARK SMILES IDX 9 12 11 14 8 15 3 16 4 17 5 18 7 19 6 20 2 21 1 22 22 23
REMARK SMILES IDX 23 24 24 25 25 26 26 27 27 28 28 29 29 30 30 31 91 32 31 33
REMARK SMILES IDX 90 34 32 35 33 36 34 37 84 38 35 39 89 40 83 41 85 42 36 43
REMARK SMILES IDX 88 44 82 45 81 46 37 48 69 49 49 50 68 51 50 52 53 53 67 54
REMARK SMILES IDX 86 55 51 56 52 57 66 59 87 60 54 61 38 62 39 63 47 64 40 65
REMARK SMILES IDX 46 66 48 67 45 68 41 69 42 70 43 71 44 72 70 73 71 74 79 75
REMARK SMILES IDX 72 76 78 77 80 78 77 79 73 80 74 81 75 82 76 83 55 84 56 85
REMARK SMILES IDX 64 86 57 87 63 88 65 89 62 90 58 91 59 92 60 93 61 94
REMARK H PARENT 9 13 85 47 53 58
REMARK Flexibility Score: inf
ROOT
ATOM      1  C   UNL A   1      35.331  21.825  26.096  1.00  0.00     0.188 C 
ENDROOT
BRANCH   1   2
ATOM      2  O   UNL A   1      34.572  20.849  25.400  1.00  0.00    -0.376 OA
BRANCH   2   3
ATOM      3  C   UNL A   1      34.102  21.266  24.129  1.00  0.00     0.202 C 
BRANCH   3   4
ATOM      4  C   UNL A   1      32.589  21.227  24.003  1.00  0.00     0.261 C 
BRANCH   4   5
ATOM      5  O   UNL A   1      31.960  22.122  23.060  1.00  0.00    -0.463 OA
BRANCH   5   6
ATOM      6  C   UNL A   1      31.727  23.440  23.258  1.00  0.00     0.305 C 
ATOM      7  O   UNL A   1      30.761  23.897  23.852  1.00  0.00    -0.252 OA
BRANCH   6   8
ATOM      8  C   UNL A   1      32.825  24.303  22.643  1.00  0.00     0.123 C 
BRANCH   8   9
ATOM      9  C   UNL A   1      34.009  24.713  23.535  1.00  0.00     0.022 C 
BRANCH   9  10
ATOM     10  C   UNL A   1      33.901  26.010  24.347  1.00  0.00     0.101 C 
BRANCH  10  11
ATOM     11  C   UNL A   1      32.782  26.016  25.356  1.00  0.00     0.224 C 
ATOM     12  N   UNL A   1      31.606  26.674  25.179  1.00  0.00    -0.326 N 
ATOM     13  H   UNL A   1      30.932  26.424  25.851  1.00  0.00     0.169 HD
ATOM     14  O   UNL A   1      32.883  25.321  26.375  1.00  0.00    -0.275 OA
BRANCH  12  15
ATOM     15  C   UNL A   1      31.120  27.627  24.265  1.00  0.00     0.044 A 
ATOM     16  C   UNL A   1      31.007  28.964  24.681  1.00  0.00    -0.025 A 
ATOM     17  C   UNL A   1      30.178  29.847  23.965  1.00  0.00     0.006 A 
ATOM     18  C   UNL A   1      29.661  29.480  22.734  1.00  0.00     0.000 A 
ATOM     19  C   UNL A   1      30.770  27.340  22.957  1.00  0.00     0.026 A 
ATOM     20  C   UNL A   1      30.052  28.271  22.187  1.00  0.00     0.002 A 
BRANCH  16  21
ATOM     21  C   UNL A   1      31.853  29.532  25.794  1.00  0.00     0.034 C 
ATOM     22  C   UNL A   1      33.305  29.692  25.326  1.00  0.00     0.009 C 
ENDBRANCH  16  21
ENDBRANCH  12  15
ENDBRANCH  10  11
ENDBRANCH   9  10
ENDBRANCH   8   9
ENDBRANCH   6   8
ENDBRANCH   5   6
ENDBRANCH   4   5
ENDBRANCH   3   4
ENDBRANCH   2   3
ENDBRANCH   1   2
BRANCH   1  23
ATOM     23  C   UNL A   1      36.681  22.191  25.442  1.00  0.00     0.188 C 
BRANCH  23  24
ATOM     24  O   UNL A   1      37.333  21.286  24.568  1.00  0.00    -0.376 OA
BRANCH  24  25
ATOM     25  C   UNL A   1      38.020  20.189  25.148  1.00  0.00     0.202 C 
BRANCH  25  26
ATOM     26  C   UNL A   1      39.400  20.404  25.804  1.00  0.00     0.261 C 
BRANCH  26  27
ATOM     27  O   UNL A   1      40.305  19.283  25.761  1.00  0.00    -0.460 OA
BRANCH  27  28
ATOM     28  C   UNL A   1      41.584  19.525  26.164  1.00  0.00     0.338 C 
ATOM     29  O   UNL A   1      42.537  18.776  26.017  1.00  0.00    -0.246 OA
BRANCH  28  30
ATOM     30  C   UNL A   1      41.723  20.961  26.543  1.00  0.00     0.060 A 
ATOM     31  C   UNL A   1      41.866  21.913  25.513  1.00  0.00     0.016 A 
ATOM     32  C   UNL A   1      41.658  21.386  27.870  1.00  0.00     0.016 A 
ATOM     33  C   UNL A   1      41.967  23.275  25.804  1.00  0.00     0.010 A 
ATOM     34  C   UNL A   1      41.816  22.748  28.166  1.00  0.00     0.010 A 
ATOM     35  C   UNL A   1      42.013  23.692  27.138  1.00  0.00    -0.014 A 
BRANCH  35  36
ATOM     36  C   UNL A   1      42.621  25.012  27.456  1.00  0.00     0.031 A 
ATOM     37  C   UNL A   1      41.732  26.014  28.152  1.00  0.00     0.074 A 
ATOM     38  C   UNL A   1      43.900  25.324  27.182  1.00  0.00     0.049 A 
ATOM     39  N   UNL A   1      41.957  27.265  28.458  1.00  0.00    -0.248 NA
ATOM     40  C   UNL A   1      40.398  25.528  28.542  1.00  0.00     0.031 C 
ATOM     41  C   UNL A   1      44.891  24.425  26.596  1.00  0.00     0.029 A 
ATOM     42  N   UNL A   1      44.583  26.504  27.361  1.00  0.00    -0.354 N 
ATOM     43  C   UNL A   1      40.788  27.717  29.064  1.00  0.00     0.074 A 
ATOM     44  C   UNL A   1      39.848  26.618  29.046  1.00  0.00     0.031 C 
ATOM     45  C   UNL A   1      46.051  25.092  26.449  1.00  0.00     0.029 A 
ATOM     46  C   UNL A   1      45.875  26.477  26.889  1.00  0.00     0.049 A 
ATOM     47  H   UNL A   1      44.184  27.296  27.788  1.00  0.00     0.167 HD
ATOM     48  C   UNL A   1      40.519  28.935  29.591  1.00  0.00     0.034 A 
ATOM     49  C   UNL A   1      46.791  27.464  26.796  1.00  0.00     0.034 A 
ATOM     50  C   UNL A   1      41.455  30.030  29.586  1.00  0.00     0.049 A 
ATOM     51  C   UNL A   1      46.429  28.854  27.278  1.00  0.00     0.074 A 
ATOM     52  C   UNL A   1      41.287  31.308  30.087  1.00  0.00     0.029 A 
ATOM     53  N   UNL A   1      42.730  29.981  29.038  1.00  0.00    -0.354 N 
ATOM     54  N   UNL A   1      45.317  29.278  27.836  1.00  0.00    -0.248 NA
ATOM     55  C   UNL A   1      47.451  29.899  27.117  1.00  0.00     0.031 C 
ATOM     56  C   UNL A   1      42.428  32.053  29.772  1.00  0.00     0.029 A 
ATOM     57  C   UNL A   1      43.346  31.217  29.156  1.00  0.00     0.049 A 
ATOM     58  H   UNL A   1      43.137  29.185  28.626  1.00  0.00     0.167 HD
ATOM     59  C   UNL A   1      45.527  30.626  28.129  1.00  0.00     0.074 A 
ATOM     60  C   UNL A   1      46.870  30.940  27.693  1.00  0.00     0.031 C 
ATOM     61  C   UNL A   1      44.688  31.521  28.714  1.00  0.00     0.034 A 
BRANCH  48  62
ATOM     62  C   UNL A   1      39.129  29.152  30.142  1.00  0.00     0.023 A 
ATOM     63  C   UNL A   1      38.146  29.856  29.424  1.00  0.00     0.031 A 
ATOM     64  C   UNL A   1      38.805  28.704  31.434  1.00  0.00     0.131 A 
ATOM     65  C   UNL A   1      36.922  30.164  30.033  1.00  0.00     0.055 A 
ATOM     66  C   UNL A   1      37.550  28.935  32.001  1.00  0.00     0.041 A 
ATOM     67  F   UNL A   1      39.712  28.053  32.180  1.00  0.00    -0.206 F 
ATOM     68  C   UNL A   1      36.606  29.684  31.307  1.00  0.00     0.022 A 
BRANCH  65  69
ATOM     69  S   UNL A   1      35.816  31.343  29.208  1.00  0.00     0.124 S 
ATOM     70  O   UNL A   1      35.099  30.473  28.279  1.00  0.00    -0.237 OA
ATOM     71  O   UNL A   1      35.035  31.872  30.320  1.00  0.00    -0.237 OA
ATOM     72  O   UNL A   1      36.734  32.293  28.581  1.00  0.00    -0.744 OA
ENDBRANCH  65  69
ENDBRANCH  48  62
BRANCH  49  73
ATOM     73  C   UNL A   1      48.130  27.213  26.182  1.00  0.00     0.023 A 
ATOM     74  C   UNL A   1      48.354  27.430  24.812  1.00  0.00     0.031 A 
ATOM     75  C   UNL A   1      49.185  26.672  26.940  1.00  0.00     0.131 A 
ATOM     76  C   UNL A   1      49.580  27.063  24.233  1.00  0.00     0.055 A 
ATOM     77  C   UNL A   1      50.422  26.362  26.372  1.00  0.00     0.041 A 
ATOM     78  F   UNL A   1      49.025  26.432  28.251  1.00  0.00    -0.206 F 
ATOM     79  C   UNL A   1      50.621  26.544  25.006  1.00  0.00     0.022 A 
BRANCH  76  80
ATOM     80  S   UNL A   1      49.766  27.184  22.432  1.00  0.00     0.124 S 
ATOM     81  O   UNL A   1      48.768  26.229  21.966  1.00  0.00    -0.237 OA
ATOM     82  O   UNL A   1      49.469  28.592  22.191  1.00  0.00    -0.237 OA
ATOM     83  O   UNL A   1      51.157  26.796  22.205  1.00  0.00    -0.744 OA
ENDBRANCH  76  80
ENDBRANCH  49  73
BRANCH  61  84
ATOM     84  C   UNL A   1      45.224  32.909  28.976  1.00  0.00     0.023 A 
ATOM     85  C   UNL A   1      45.018  33.972  28.080  1.00  0.00     0.031 A 
ATOM     86  C   UNL A   1      45.956  33.170  30.150  1.00  0.00     0.131 A 
ATOM     87  C   UNL A   1      45.587  35.228  28.342  1.00  0.00     0.055 A 
ATOM     88  C   UNL A   1      46.463  34.437  30.438  1.00  0.00     0.041 A 
ATOM     89  F   UNL A   1      46.186  32.193  31.043  1.00  0.00    -0.206 F 
ATOM     90  C   UNL A   1      46.292  35.473  29.524  1.00  0.00     0.022 A 
BRANCH  87  91
ATOM     91  S   UNL A   1      45.480  36.518  27.071  1.00  0.00     0.124 S 
ATOM     92  O   UNL A   1      45.530  37.737  27.871  1.00  0.00    -0.237 OA
ATOM     93  O   UNL A   1      46.656  36.246  26.250  1.00  0.00    -0.237 OA
ATOM     94  O   UNL A   1      44.198  36.256  26.422  1.00  0.00    -0.744 OA
ENDBRANCH  87  91
ENDBRANCH  61  84
ENDBRANCH  35  36
ENDBRANCH  28  30
ENDBRANCH  27  28
ENDBRANCH  26  27
ENDBRANCH  25  26
ENDBRANCH  24  25
ENDBRANCH  23  24
ENDBRANCH   1  23
TORSDOF 25
ENDMDL
