MODEL 1
REMARK VINA RESULT:     -11.5      0.000      0.000
REMARK SMILES O=C(OCCOCCOCCOC(=O)c1nccnc1C(=O)Nc1n[nH]c2ncccc12)c1ccc(-c2c3nc(c(-c4cc(S(=O)(=O)[O-])ccc4F)c4ccc([nH]4)c(-c4cc(S(=O)(=O)[O-])ccc4F)c4nc(c(-c5cc(S(=O)(=O)[O-])ccc5F)c5ccc2[nH]5)C=C4)C=C3)cc1
REMARK SMILES IDX 7 1 6 2 5 3 4 4 3 5 2 6 1 7 33 8 34 9 95 10 35 11 94 12
REMARK SMILES IDX 36 13 37 14 38 15 88 16 39 17 93 18 87 19 89 20 40 21 92 22
REMARK SMILES IDX 86 23 85 24 41 26 73 27 53 28 72 29 54 30 57 31 71 32 90 33
REMARK SMILES IDX 55 34 56 35 70 37 91 38 58 39 42 40 43 41 51 42 44 43 50 44
REMARK SMILES IDX 52 45 49 46 45 47 46 48 47 49 48 50 74 51 75 52 83 53 76 54
REMARK SMILES IDX 82 55 84 56 81 57 77 58 78 59 79 60 80 61 59 62 60 63 68 64
REMARK SMILES IDX 61 65 67 66 69 67 66 68 62 69 63 70 64 71 65 72 8 73 9 74
REMARK SMILES IDX 10 75 11 76 12 77 13 78 14 79 15 80 16 81 20 82 17 83 19 84
REMARK SMILES IDX 18 85 21 86 22 87 23 88 24 90 25 91 32 92 26 93 27 94 31 95
REMARK SMILES IDX 28 97 30 98 29 99
REMARK H PARENT 89 25 57 36 23 89 26 96
REMARK Flexibility Score: inf
ROOT
ATOM      1  C   UNL A   1      34.978  29.707  27.629  1.00  0.00     0.188 C 
ENDROOT
BRANCH   1   2
ATOM      2  O   UNL A   1      34.621  31.023  27.197  1.00  0.00    -0.376 OA
BRANCH   2   3
ATOM      3  C   UNL A   1      33.522  31.600  27.898  1.00  0.00     0.202 C 
BRANCH   3   4
ATOM      4  C   UNL A   1      32.776  32.725  27.162  1.00  0.00     0.261 C 
BRANCH   4   5
ATOM      5  O   UNL A   1      32.350  33.809  28.000  1.00  0.00    -0.460 OA
BRANCH   5   6
ATOM      6  C   UNL A   1      33.085  34.641  28.780  1.00  0.00     0.338 C 
ATOM      7  O   UNL A   1      32.670  35.791  28.927  1.00  0.00    -0.246 OA
BRANCH   6   8
ATOM      8  C   UNL A   1      34.404  34.289  29.413  1.00  0.00     0.060 A 
ATOM      9  C   UNL A   1      35.663  34.510  28.857  1.00  0.00     0.016 A 
ATOM     10  C   UNL A   1      34.357  33.654  30.674  1.00  0.00     0.016 A 
ATOM     11  C   UNL A   1      36.826  34.081  29.492  1.00  0.00     0.010 A 
ATOM     12  C   UNL A   1      35.521  33.205  31.316  1.00  0.00     0.010 A 
ATOM     13  C   UNL A   1      36.757  33.385  30.697  1.00  0.00    -0.014 A 
BRANCH  13  14
ATOM     14  C   UNL A   1      37.986  32.679  31.110  1.00  0.00     0.031 A 
ATOM     15  C   UNL A   1      38.495  32.941  32.497  1.00  0.00     0.074 A 
ATOM     16  C   UNL A   1      38.472  31.668  30.370  1.00  0.00     0.049 A 
ATOM     17  N   UNL A   1      39.378  32.278  33.193  1.00  0.00    -0.248 NA
ATOM     18  C   UNL A   1      37.880  34.071  33.215  1.00  0.00     0.031 C 
ATOM     19  C   UNL A   1      37.957  31.267  29.064  1.00  0.00     0.029 A 
ATOM     20  N   UNL A   1      39.468  30.765  30.630  1.00  0.00    -0.354 N 
ATOM     21  C   UNL A   1      39.378  32.868  34.451  1.00  0.00     0.074 A 
ATOM     22  C   UNL A   1      38.447  33.974  34.406  1.00  0.00     0.031 C 
ATOM     23  C   UNL A   1      38.630  30.183  28.643  1.00  0.00     0.029 A 
ATOM     24  C   UNL A   1      39.652  29.843  29.627  1.00  0.00     0.049 A 
ATOM     25  H   UNL A   1      40.001  30.775  31.457  1.00  0.00     0.167 HD
ATOM     26  C   UNL A   1      40.083  32.507  35.549  1.00  0.00     0.034 A 
ATOM     27  C   UNL A   1      40.554  28.848  29.516  1.00  0.00     0.034 A 
ATOM     28  C   UNL A   1      41.080  31.470  35.540  1.00  0.00     0.049 A 
ATOM     29  C   UNL A   1      41.469  28.591  30.687  1.00  0.00     0.074 A 
ATOM     30  C   UNL A   1      41.964  31.105  36.538  1.00  0.00     0.029 A 
ATOM     31  N   UNL A   1      41.344  30.643  34.452  1.00  0.00    -0.354 N 
ATOM     32  N   UNL A   1      41.484  29.178  31.864  1.00  0.00    -0.248 NA
ATOM     33  C   UNL A   1      42.469  27.529  30.529  1.00  0.00     0.031 C 
ATOM     34  C   UNL A   1      42.803  30.104  36.033  1.00  0.00     0.029 A 
ATOM     35  C   UNL A   1      42.395  29.791  34.745  1.00  0.00     0.049 A 
ATOM     36  H   UNL A   1      40.853  30.661  33.599  1.00  0.00     0.167 HD
ATOM     37  C   UNL A   1      42.482  28.540  32.593  1.00  0.00     0.074 A 
ATOM     38  C   UNL A   1      43.021  27.504  31.732  1.00  0.00     0.031 C 
ATOM     39  C   UNL A   1      42.921  28.782  33.856  1.00  0.00     0.034 A 
BRANCH  26  40
ATOM     40  C   UNL A   1      39.838  33.313  36.797  1.00  0.00     0.023 A 
ATOM     41  C   UNL A   1      40.722  34.334  37.193  1.00  0.00     0.031 A 
ATOM     42  C   UNL A   1      38.768  32.998  37.651  1.00  0.00     0.131 A 
ATOM     43  C   UNL A   1      40.560  34.957  38.439  1.00  0.00     0.055 A 
ATOM     44  C   UNL A   1      38.571  33.669  38.859  1.00  0.00     0.041 A 
ATOM     45  F   UNL A   1      37.915  32.009  37.340  1.00  0.00    -0.206 F 
ATOM     46  C   UNL A   1      39.477  34.645  39.267  1.00  0.00     0.022 A 
BRANCH  43  47
ATOM     47  S   UNL A   1      41.860  36.077  39.029  1.00  0.00     0.124 S 
ATOM     48  O   UNL A   1      41.898  37.076  37.964  1.00  0.00    -0.237 OA
ATOM     49  O   UNL A   1      41.330  36.531  40.309  1.00  0.00    -0.237 OA
ATOM     50  O   UNL A   1      43.040  35.219  39.112  1.00  0.00    -0.744 OA
ENDBRANCH  43  47
ENDBRANCH  26  40
BRANCH  27  51
ATOM     51  C   UNL A   1      40.689  28.074  28.245  1.00  0.00     0.023 A 
ATOM     52  C   UNL A   1      40.118  26.802  28.088  1.00  0.00     0.031 A 
ATOM     53  C   UNL A   1      41.479  28.571  27.191  1.00  0.00     0.131 A 
ATOM     54  C   UNL A   1      40.391  26.051  26.931  1.00  0.00     0.055 A 
ATOM     55  C   UNL A   1      41.696  27.848  26.018  1.00  0.00     0.041 A 
ATOM     56  F   UNL A   1      42.060  29.778  27.290  1.00  0.00    -0.206 F 
ATOM     57  C   UNL A   1      41.163  26.570  25.891  1.00  0.00     0.022 A 
BRANCH  54  58
ATOM     58  S   UNL A   1      39.819  24.330  26.858  1.00  0.00     0.124 S 
ATOM     59  O   UNL A   1      38.699  24.429  25.927  1.00  0.00    -0.237 OA
ATOM     60  O   UNL A   1      41.005  23.639  26.362  1.00  0.00    -0.237 OA
ATOM     61  O   UNL A   1      39.455  24.033  28.241  1.00  0.00    -0.744 OA
ENDBRANCH  54  58
ENDBRANCH  27  51
BRANCH  39  62
ATOM     62  C   UNL A   1      44.022  27.891  34.369  1.00  0.00     0.023 A 
ATOM     63  C   UNL A   1      43.745  26.643  34.951  1.00  0.00     0.031 A 
ATOM     64  C   UNL A   1      45.364  28.306  34.293  1.00  0.00     0.131 A 
ATOM     65  C   UNL A   1      44.787  25.881  35.497  1.00  0.00     0.055 A 
ATOM     66  C   UNL A   1      46.404  27.514  34.780  1.00  0.00     0.041 A 
ATOM     67  F   UNL A   1      45.684  29.489  33.746  1.00  0.00    -0.206 F 
ATOM     68  C   UNL A   1      46.116  26.300  35.401  1.00  0.00     0.022 A 
BRANCH  65  69
ATOM     69  S   UNL A   1      44.368  24.382  36.428  1.00  0.00     0.124 S 
ATOM     70  O   UNL A   1      44.140  24.913  37.769  1.00  0.00    -0.237 OA
ATOM     71  O   UNL A   1      43.184  23.900  35.724  1.00  0.00    -0.237 OA
ATOM     72  O   UNL A   1      45.558  23.547  36.285  1.00  0.00    -0.744 OA
ENDBRANCH  65  69
ENDBRANCH  39  62
ENDBRANCH  13  14
ENDBRANCH   6   8
ENDBRANCH   5   6
ENDBRANCH   4   5
ENDBRANCH   3   4
ENDBRANCH   2   3
ENDBRANCH   1   2
BRANCH   1  73
ATOM     73  C   UNL A   1      34.093  28.610  27.035  1.00  0.00     0.188 C 
BRANCH  73  74
ATOM     74  O   UNL A   1      33.346  28.972  25.885  1.00  0.00    -0.376 OA
BRANCH  74  75
ATOM     75  C   UNL A   1      31.939  28.768  25.872  1.00  0.00     0.202 C 
BRANCH  75  76
ATOM     76  C   UNL A   1      31.217  27.608  26.838  1.00  0.00     0.261 C 
BRANCH  76  77
ATOM     77  O   UNL A   1      31.185  25.581  26.677  1.00  0.00    -0.458 OA
BRANCH  77  78
ATOM     78  C   UNL A   1      31.449  24.185  26.659  1.00  0.00     0.359 C 
ATOM     79  O   UNL A   1      30.713  23.410  27.274  1.00  0.00    -0.244 OA
BRANCH  78  80
ATOM     80  C   UNL A   1      32.605  23.571  25.910  1.00  0.00     0.179 A 
ATOM     81  N   UNL A   1      33.621  23.322  26.813  1.00  0.00    -0.245 NA
ATOM     82  C   UNL A   1      32.745  23.224  24.554  1.00  0.00     0.161 A 
ATOM     83  C   UNL A   1      34.753  22.753  26.355  1.00  0.00     0.132 A 
ATOM     84  N   UNL A   1      33.959  22.717  24.126  1.00  0.00    -0.247 NA
ATOM     85  C   UNL A   1      34.933  22.485  25.026  1.00  0.00     0.132 A 
BRANCH  82  86
ATOM     86  C   UNL A   1      31.794  23.193  23.349  1.00  0.00     0.278 C 
ATOM     87  O   UNL A   1      31.607  22.112  22.770  1.00  0.00    -0.267 OA
ATOM     88  N   UNL A   1      31.005  24.212  22.894  1.00  0.00    -0.303 N 
ATOM     89  H   UNL A   1      30.139  23.942  22.511  1.00  0.00     0.172 HD
BRANCH  88  90
ATOM     90  C   UNL A   1      31.253  25.541  22.899  1.00  0.00     0.164 A 
ATOM     91  N   UNL A   1      32.335  26.011  22.257  1.00  0.00    -0.155 NA
ATOM     92  C   UNL A   1      30.376  26.510  23.405  1.00  0.00     0.063 A 
ATOM     93  N   UNL A   1      32.074  27.303  21.885  1.00  0.00    -0.259 N 
ATOM     94  C   UNL A   1      30.907  27.819  22.362  1.00  0.00     0.157 A 
ATOM     95  C   UNL A   1      28.687  26.557  24.068  1.00  0.00     0.017 A 
ATOM     96  H   UNL A   1      32.686  27.821  21.314  1.00  0.00     0.192 HD
ATOM     97  N   UNL A   1      29.915  29.133  21.881  1.00  0.00    -0.237 NA
ATOM     98  C   UNL A   1      27.587  27.870  23.526  1.00  0.00     0.021 A 
ATOM     99  C   UNL A   1      28.237  29.082  22.436  1.00  0.00     0.113 A 
ENDBRANCH  88  90
ENDBRANCH  82  86
ENDBRANCH  78  80
ENDBRANCH  77  78
ENDBRANCH  76  77
ENDBRANCH  75  76
ENDBRANCH  74  75
ENDBRANCH  73  74
ENDBRANCH   1  73
TORSDOF 22
ENDMDL
MODEL 2
REMARK VINA RESULT:     -11.3      1.757      2.090
REMARK SMILES O=C(OCCOCCOCCOC(=O)c1nccnc1C(=O)Nc1n[nH]c2ncccc12)c1ccc(-c2c3nc(c(-c4cc(S(=O)(=O)[O-])ccc4F)c4ccc([nH]4)c(-c4cc(S(=O)(=O)[O-])ccc4F)c4nc(c(-c5cc(S(=O)(=O)[O-])ccc5F)c5ccc2[nH]5)C=C4)C=C3)cc1
REMARK SMILES IDX 7 1 6 2 5 3 4 4 3 5 2 6 1 7 33 8 34 9 95 10 35 11 94 12
REMARK SMILES IDX 36 13 37 14 38 15 88 16 39 17 93 18 87 19 89 20 40 21 92 22
REMARK SMILES IDX 86 23 85 24 41 26 73 27 53 28 72 29 54 30 57 31 71 32 90 33
REMARK SMILES IDX 55 34 56 35 70 37 91 38 58 39 42 40 43 41 51 42 44 43 50 44
REMARK SMILES IDX 52 45 49 46 45 47 46 48 47 49 48 50 74 51 75 52 83 53 76 54
REMARK SMILES IDX 82 55 84 56 81 57 77 58 78 59 79 60 80 61 59 62 60 63 68 64
REMARK SMILES IDX 61 65 67 66 69 67 66 68 62 69 63 70 64 71 65 72 8 73 9 74
REMARK SMILES IDX 10 75 11 76 12 77 13 78 14 79 15 80 16 81 20 82 17 83 19 84
REMARK SMILES IDX 18 85 21 86 22 87 23 88 24 90 25 91 32 92 26 93 27 94 31 95
REMARK SMILES IDX 28 97 30 98 29 99
REMARK H PARENT 89 25 57 36 23 89 26 96
REMARK Flexibility Score: inf
ROOT
ATOM      1  C   UNL A   1      34.830  29.866  27.655  1.00  0.00     0.188 C 
ENDROOT
BRANCH   1   2
ATOM      2  O   UNL A   1      34.405  31.114  27.101  1.00  0.00    -0.376 OA
BRANCH   2   3
ATOM      3  C   UNL A   1      33.620  31.917  27.980  1.00  0.00     0.202 C 
BRANCH   3   4
ATOM      4  C   UNL A   1      33.630  33.428  27.694  1.00  0.00     0.261 C 
BRANCH   4   5
ATOM      5  O   UNL A   1      32.971  34.229  28.684  1.00  0.00    -0.460 OA
BRANCH   5   6
ATOM      6  C   UNL A   1      33.369  34.557  29.939  1.00  0.00     0.338 C 
ATOM      7  O   UNL A   1      32.614  35.268  30.604  1.00  0.00    -0.246 OA
BRANCH   6   8
ATOM      8  C   UNL A   1      34.694  34.184  30.548  1.00  0.00     0.060 A 
ATOM      9  C   UNL A   1      35.948  34.573  30.079  1.00  0.00     0.016 A 
ATOM     10  C   UNL A   1      34.660  33.343  31.682  1.00  0.00     0.016 A 
ATOM     11  C   UNL A   1      37.121  34.116  30.672  1.00  0.00     0.010 A 
ATOM     12  C   UNL A   1      35.836  32.864  32.279  1.00  0.00     0.010 A 
ATOM     13  C   UNL A   1      37.071  33.222  31.741  1.00  0.00    -0.014 A 
BRANCH  13  14
ATOM     14  C   UNL A   1      38.335  32.533  32.071  1.00  0.00     0.031 A 
ATOM     15  C   UNL A   1      38.977  32.868  33.385  1.00  0.00     0.074 A 
ATOM     16  C   UNL A   1      38.746  31.480  31.343  1.00  0.00     0.049 A 
ATOM     17  N   UNL A   1      39.923  32.239  34.027  1.00  0.00    -0.248 NA
ATOM     18  C   UNL A   1      38.435  34.039  34.096  1.00  0.00     0.031 C 
ATOM     19  C   UNL A   1      38.106  31.011  30.118  1.00  0.00     0.029 A 
ATOM     20  N   UNL A   1      39.763  30.587  31.555  1.00  0.00    -0.354 N 
ATOM     21  C   UNL A   1      40.046  32.897  35.244  1.00  0.00     0.074 A 
ATOM     22  C   UNL A   1      39.115  34.004  35.229  1.00  0.00     0.031 C 
ATOM     23  C   UNL A   1      38.735  29.902  29.694  1.00  0.00     0.029 A 
ATOM     24  C   UNL A   1      39.848  29.611  30.591  1.00  0.00     0.049 A 
ATOM     25  H   UNL A   1      40.374  30.640  32.324  1.00  0.00     0.167 HD
ATOM     26  C   UNL A   1      40.854  32.593  36.287  1.00  0.00     0.034 A 
ATOM     27  C   UNL A   1      40.735  28.606  30.448  1.00  0.00     0.034 A 
ATOM     28  C   UNL A   1      41.845  31.552  36.238  1.00  0.00     0.049 A 
ATOM     29  C   UNL A   1      41.759  28.409  31.537  1.00  0.00     0.074 A 
ATOM     30  C   UNL A   1      42.823  31.238  37.165  1.00  0.00     0.029 A 
ATOM     31  N   UNL A   1      42.002  30.665  35.178  1.00  0.00    -0.354 N 
ATOM     32  N   UNL A   1      41.890  29.059  32.672  1.00  0.00    -0.248 NA
ATOM     33  C   UNL A   1      42.739  27.335  31.341  1.00  0.00     0.031 C 
ATOM     34  C   UNL A   1      43.608  30.206  36.636  1.00  0.00     0.029 A 
ATOM     35  C   UNL A   1      43.077  29.825  35.413  1.00  0.00     0.049 A 
ATOM     36  H   UNL A   1      41.430  30.639  34.376  1.00  0.00     0.167 HD
ATOM     37  C   UNL A   1      42.954  28.457  33.335  1.00  0.00     0.074 A 
ATOM     38  C   UNL A   1      43.406  27.372  32.485  1.00  0.00     0.031 C 
ATOM     39  C   UNL A   1      43.513  28.765  34.534  1.00  0.00     0.034 A 
BRANCH  26  40
ATOM     40  C   UNL A   1      40.732  33.468  37.507  1.00  0.00     0.023 A 
ATOM     41  C   UNL A   1      39.857  33.138  38.558  1.00  0.00     0.031 A 
ATOM     42  C   UNL A   1      41.422  34.690  37.580  1.00  0.00     0.131 A 
ATOM     43  C   UNL A   1      39.642  34.049  39.603  1.00  0.00     0.055 A 
ATOM     44  C   UNL A   1      41.256  35.562  38.657  1.00  0.00     0.041 A 
ATOM     45  F   UNL A   1      42.242  35.071  36.589  1.00  0.00    -0.206 F 
ATOM     46  C   UNL A   1      40.352  35.251  39.670  1.00  0.00     0.022 A 
BRANCH  43  47
ATOM     47  S   UNL A   1      38.320  33.708  40.798  1.00  0.00     0.124 S 
ATOM     48  O   UNL A   1      37.293  33.116  39.944  1.00  0.00    -0.237 OA
ATOM     49  O   UNL A   1      38.968  32.801  41.738  1.00  0.00    -0.237 OA
ATOM     50  O   UNL A   1      37.990  35.028  41.332  1.00  0.00    -0.744 OA
ENDBRANCH  43  47
ENDBRANCH  26  40
BRANCH  27  51
ATOM     51  C   UNL A   1      40.745  27.762  29.215  1.00  0.00     0.023 A 
ATOM     52  C   UNL A   1      41.644  27.996  28.163  1.00  0.00     0.031 A 
ATOM     53  C   UNL A   1      39.780  26.753  29.038  1.00  0.00     0.131 A 
ATOM     54  C   UNL A   1      41.523  27.270  26.965  1.00  0.00     0.055 A 
ATOM     55  C   UNL A   1      39.703  25.992  27.871  1.00  0.00     0.041 A 
ATOM     56  F   UNL A   1      38.886  26.491  30.007  1.00  0.00    -0.206 F 
ATOM     57  C   UNL A   1      40.569  26.262  26.818  1.00  0.00     0.022 A 
BRANCH  54  58
ATOM     58  S   UNL A   1      42.556  27.749  25.552  1.00  0.00     0.124 S 
ATOM     59  O   UNL A   1      41.892  28.966  25.098  1.00  0.00    -0.237 OA
ATOM     60  O   UNL A   1      43.861  27.927  26.180  1.00  0.00    -0.237 OA
ATOM     61  O   UNL A   1      42.449  26.605  24.649  1.00  0.00    -0.744 OA
ENDBRANCH  54  58
ENDBRANCH  27  51
BRANCH  39  62
ATOM     62  C   UNL A   1      44.659  27.898  34.986  1.00  0.00     0.023 A 
ATOM     63  C   UNL A   1      44.447  26.755  35.776  1.00  0.00     0.031 A 
ATOM     64  C   UNL A   1      45.981  28.231  34.640  1.00  0.00     0.131 A 
ATOM     65  C   UNL A   1      45.544  26.023  36.251  1.00  0.00     0.055 A 
ATOM     66  C   UNL A   1      47.065  27.461  35.062  1.00  0.00     0.041 A 
ATOM     67  F   UNL A   1      46.239  29.312  33.887  1.00  0.00    -0.206 F 
ATOM     68  C   UNL A   1      46.850  26.358  35.886  1.00  0.00     0.022 A 
BRANCH  65  69
ATOM     69  S   UNL A   1      45.243  24.687  37.440  1.00  0.00     0.124 S 
ATOM     70  O   UNL A   1      45.210  23.513  36.573  1.00  0.00    -0.237 OA
ATOM     71  O   UNL A   1      46.397  24.794  38.325  1.00  0.00    -0.237 OA
ATOM     72  O   UNL A   1      43.962  25.048  38.043  1.00  0.00    -0.744 OA
ENDBRANCH  65  69
ENDBRANCH  39  62
ENDBRANCH  13  14
ENDBRANCH   6   8
ENDBRANCH   5   6
ENDBRANCH   4   5
ENDBRANCH   3   4
ENDBRANCH   2   3
ENDBRANCH   1   2
BRANCH   1  73
ATOM     73  C   UNL A   1      34.329  28.651  26.874  1.00  0.00     0.188 C 
BRANCH  73  74
ATOM     74  O   UNL A   1      33.524  28.932  25.740  1.00  0.00    -0.376 OA
BRANCH  74  75
ATOM     75  C   UNL A   1      32.111  28.808  25.836  1.00  0.00     0.202 C 
BRANCH  75  76
ATOM     76  C   UNL A   1      31.403  27.657  26.823  1.00  0.00     0.261 C 
BRANCH  76  77
ATOM     77  O   UNL A   1      31.343  25.631  26.667  1.00  0.00    -0.458 OA
BRANCH  77  78
ATOM     78  C   UNL A   1      31.583  24.231  26.664  1.00  0.00     0.359 C 
ATOM     79  O   UNL A   1      30.857  23.479  27.318  1.00  0.00    -0.244 OA
BRANCH  78  80
ATOM     80  C   UNL A   1      32.703  23.585  25.886  1.00  0.00     0.179 A 
ATOM     81  N   UNL A   1      33.740  23.322  26.760  1.00  0.00    -0.245 NA
ATOM     82  C   UNL A   1      32.793  23.223  24.530  1.00  0.00     0.161 A 
ATOM     83  C   UNL A   1      34.845  22.724  26.273  1.00  0.00     0.132 A 
ATOM     84  N   UNL A   1      33.982  22.685  24.070  1.00  0.00    -0.247 NA
ATOM     85  C   UNL A   1      34.979  22.440  24.942  1.00  0.00     0.132 A 
BRANCH  82  86
ATOM     86  C   UNL A   1      31.805  23.201  23.355  1.00  0.00     0.278 C 
ATOM     87  O   UNL A   1      31.594  22.124  22.778  1.00  0.00    -0.267 OA
ATOM     88  N   UNL A   1      31.008  24.226  22.928  1.00  0.00    -0.303 N 
ATOM     89  H   UNL A   1      30.129  23.962  22.572  1.00  0.00     0.172 HD
BRANCH  88  90
ATOM     90  C   UNL A   1      31.264  25.553  22.930  1.00  0.00     0.164 A 
ATOM     91  N   UNL A   1      32.356  26.015  22.301  1.00  0.00    -0.155 NA
ATOM     92  C   UNL A   1      30.385  26.530  23.420  1.00  0.00     0.063 A 
ATOM     93  N   UNL A   1      32.108  27.306  21.919  1.00  0.00    -0.259 N 
ATOM     94  C   UNL A   1      30.937  27.831  22.378  1.00  0.00     0.157 A 
ATOM     95  C   UNL A   1      28.688  26.590  24.059  1.00  0.00     0.017 A 
ATOM     96  H   UNL A   1      32.730  27.818  21.354  1.00  0.00     0.192 HD
ATOM     97  N   UNL A   1      29.959  29.148  21.877  1.00  0.00    -0.237 NA
ATOM     98  C   UNL A   1      27.602  27.907  23.497  1.00  0.00     0.021 A 
ATOM     99  C   UNL A   1      28.274  29.109  22.410  1.00  0.00     0.113 A 
ENDBRANCH  88  90
ENDBRANCH  82  86
ENDBRANCH  78  80
ENDBRANCH  77  78
ENDBRANCH  76  77
ENDBRANCH  75  76
ENDBRANCH  74  75
ENDBRANCH  73  74
ENDBRANCH   1  73
TORSDOF 22
ENDMDL
MODEL 3
REMARK VINA RESULT:     -11.1      1.619      7.467
REMARK SMILES O=C(OCCOCCOCCOC(=O)c1nccnc1C(=O)Nc1n[nH]c2ncccc12)c1ccc(-c2c3nc(c(-c4cc(S(=O)(=O)[O-])ccc4F)c4ccc([nH]4)c(-c4cc(S(=O)(=O)[O-])ccc4F)c4nc(c(-c5cc(S(=O)(=O)[O-])ccc5F)c5ccc2[nH]5)C=C4)C=C3)cc1
REMARK SMILES IDX 7 1 6 2 5 3 4 4 3 5 2 6 1 7 33 8 34 9 95 10 35 11 94 12
REMARK SMILES IDX 36 13 37 14 38 15 88 16 39 17 93 18 87 19 89 20 40 21 92 22
REMARK SMILES IDX 86 23 85 24 41 26 73 27 53 28 72 29 54 30 57 31 71 32 90 33
REMARK SMILES IDX 55 34 56 35 70 37 91 38 58 39 42 40 43 41 51 42 44 43 50 44
REMARK SMILES IDX 52 45 49 46 45 47 46 48 47 49 48 50 74 51 75 52 83 53 76 54
REMARK SMILES IDX 82 55 84 56 81 57 77 58 78 59 79 60 80 61 59 62 60 63 68 64
REMARK SMILES IDX 61 65 67 66 69 67 66 68 62 69 63 70 64 71 65 72 8 73 9 74
REMARK SMILES IDX 10 75 11 76 12 77 13 78 14 79 15 80 16 81 20 82 17 83 19 84
REMARK SMILES IDX 18 85 21 86 22 87 23 88 24 90 25 91 32 92 26 93 27 94 31 95
REMARK SMILES IDX 28 97 30 98 29 99
REMARK H PARENT 89 25 57 36 23 89 26 96
REMARK Flexibility Score: inf
ROOT
ATOM      1  C   UNL A   1      34.414  30.165  27.785  1.00  0.00     0.188 C 
ENDROOT
BRANCH   1   2
ATOM      2  O   UNL A   1      34.090  31.411  27.162  1.00  0.00    -0.376 OA
BRANCH   2   3
ATOM      3  C   UNL A   1      32.876  32.004  27.618  1.00  0.00     0.202 C 
BRANCH   3   4
ATOM      4  C   UNL A   1      32.698  33.497  27.294  1.00  0.00     0.261 C 
BRANCH   4   5
ATOM      5  O   UNL A   1      32.604  34.351  28.442  1.00  0.00    -0.460 OA
BRANCH   5   6
ATOM      6  C   UNL A   1      33.548  34.676  29.361  1.00  0.00     0.338 C 
ATOM      7  O   UNL A   1      33.575  35.842  29.756  1.00  0.00    -0.246 OA
BRANCH   6   8
ATOM      8  C   UNL A   1      34.610  33.741  29.873  1.00  0.00     0.060 A 
ATOM      9  C   UNL A   1      34.406  32.662  30.732  1.00  0.00     0.016 A 
ATOM     10  C   UNL A   1      35.937  33.999  29.464  1.00  0.00     0.016 A 
ATOM     11  C   UNL A   1      35.467  31.897  31.207  1.00  0.00     0.010 A 
ATOM     12  C   UNL A   1      37.017  33.244  29.948  1.00  0.00     0.010 A 
ATOM     13  C   UNL A   1      36.779  32.215  30.858  1.00  0.00    -0.014 A 
BRANCH  13  14
ATOM     14  C   UNL A   1      37.839  31.584  31.670  1.00  0.00     0.031 A 
ATOM     15  C   UNL A   1      38.702  30.559  30.994  1.00  0.00     0.074 A 
ATOM     16  C   UNL A   1      38.166  32.088  32.872  1.00  0.00     0.049 A 
ATOM     17  N   UNL A   1      39.840  30.052  31.382  1.00  0.00    -0.248 NA
ATOM     18  C   UNL A   1      38.245  30.088  29.676  1.00  0.00     0.031 C 
ATOM     19  C   UNL A   1      37.454  33.168  33.546  1.00  0.00     0.029 A 
ATOM     20  N   UNL A   1      39.208  31.796  33.712  1.00  0.00    -0.354 N 
ATOM     21  C   UNL A   1      40.268  29.253  30.330  1.00  0.00     0.074 A 
ATOM     22  C   UNL A   1      39.243  29.301  29.310  1.00  0.00     0.031 C 
ATOM     23  C   UNL A   1      38.091  33.463  34.692  1.00  0.00     0.029 A 
ATOM     24  C   UNL A   1      39.228  32.562  34.853  1.00  0.00     0.049 A 
ATOM     25  H   UNL A   1      39.879  31.103  33.516  1.00  0.00     0.167 HD
ATOM     26  C   UNL A   1      41.423  28.554  30.219  1.00  0.00     0.034 A 
ATOM     27  C   UNL A   1      40.063  32.526  35.909  1.00  0.00     0.034 A 
ATOM     28  C   UNL A   1      42.378  28.437  31.288  1.00  0.00     0.049 A 
ATOM     29  C   UNL A   1      41.242  31.588  35.845  1.00  0.00     0.074 A 
ATOM     30  C   UNL A   1      43.510  27.645  31.360  1.00  0.00     0.029 A 
ATOM     31  N   UNL A   1      42.293  29.121  32.497  1.00  0.00    -0.354 N 
ATOM     32  N   UNL A   1      41.621  30.809  34.856  1.00  0.00    -0.248 NA
ATOM     33  C   UNL A   1      42.115  31.537  37.023  1.00  0.00     0.031 C 
ATOM     34  C   UNL A   1      44.070  27.802  32.634  1.00  0.00     0.029 A 
ATOM     35  C   UNL A   1      43.332  28.747  33.331  1.00  0.00     0.049 A 
ATOM     36  H   UNL A   1      41.594  29.775  32.725  1.00  0.00     0.167 HD
ATOM     37  C   UNL A   1      42.791  30.191  35.286  1.00  0.00     0.074 A 
ATOM     38  C   UNL A   1      43.068  30.715  36.610  1.00  0.00     0.031 C 
ATOM     39  C   UNL A   1      43.569  29.275  34.654  1.00  0.00     0.034 A 
BRANCH  26  40
ATOM     40  C   UNL A   1      41.635  27.810  28.926  1.00  0.00     0.023 A 
ATOM     41  C   UNL A   1      41.245  26.466  28.785  1.00  0.00     0.031 A 
ATOM     42  C   UNL A   1      42.318  28.417  27.859  1.00  0.00     0.131 A 
ATOM     43  C   UNL A   1      41.600  25.752  27.630  1.00  0.00     0.055 A 
ATOM     44  C   UNL A   1      42.609  27.721  26.685  1.00  0.00     0.041 A 
ATOM     45  F   UNL A   1      42.744  29.686  27.955  1.00  0.00    -0.206 F 
ATOM     46  C   UNL A   1      42.263  26.377  26.570  1.00  0.00     0.022 A 
BRANCH  43  47
ATOM     47  S   UNL A   1      41.313  23.961  27.592  1.00  0.00     0.124 S 
ATOM     48  O   UNL A   1      41.966  23.581  26.341  1.00  0.00    -0.237 OA
ATOM     49  O   UNL A   1      41.967  23.508  28.814  1.00  0.00    -0.237 OA
ATOM     50  O   UNL A   1      39.856  23.846  27.586  1.00  0.00    -0.744 OA
ENDBRANCH  43  47
ENDBRANCH  26  40
BRANCH  27  51
ATOM     51  C   UNL A   1      39.788  33.340  37.132  1.00  0.00     0.023 A 
ATOM     52  C   UNL A   1      39.123  32.804  38.245  1.00  0.00     0.031 A 
ATOM     53  C   UNL A   1      40.116  34.709  37.162  1.00  0.00     0.131 A 
ATOM     54  C   UNL A   1      38.759  33.643  39.313  1.00  0.00     0.055 A 
ATOM     55  C   UNL A   1      39.808  35.524  38.252  1.00  0.00     0.041 A 
ATOM     56  F   UNL A   1      40.743  35.279  36.120  1.00  0.00    -0.206 F 
ATOM     57  C   UNL A   1      39.109  34.994  39.330  1.00  0.00     0.022 A 
BRANCH  54  58
ATOM     58  S   UNL A   1      37.711  32.965  40.631  1.00  0.00     0.124 S 
ATOM     59  O   UNL A   1      36.403  32.938  39.984  1.00  0.00    -0.237 OA
ATOM     60  O   UNL A   1      38.333  31.668  40.874  1.00  0.00    -0.237 OA
ATOM     61  O   UNL A   1      37.852  33.938  41.712  1.00  0.00    -0.744 OA
ENDBRANCH  54  58
ENDBRANCH  27  51
BRANCH  39  62
ATOM     62  C   UNL A   1      44.796  28.808  35.394  1.00  0.00     0.023 A 
ATOM     63  C   UNL A   1      44.725  27.795  36.364  1.00  0.00     0.031 A 
ATOM     64  C   UNL A   1      46.046  29.399  35.139  1.00  0.00     0.131 A 
ATOM     65  C   UNL A   1      45.870  27.448  37.095  1.00  0.00     0.055 A 
ATOM     66  C   UNL A   1      47.196  29.004  35.824  1.00  0.00     0.041 A 
ATOM     67  F   UNL A   1      46.169  30.371  34.222  1.00  0.00    -0.206 F 
ATOM     68  C   UNL A   1      47.108  28.034  36.820  1.00  0.00     0.022 A 
BRANCH  65  69
ATOM     69  S   UNL A   1      45.695  26.293  38.482  1.00  0.00     0.124 S 
ATOM     70  O   UNL A   1      45.548  25.014  37.794  1.00  0.00    -0.237 OA
ATOM     71  O   UNL A   1      46.946  26.488  39.207  1.00  0.00    -0.237 OA
ATOM     72  O   UNL A   1      44.497  26.768  39.172  1.00  0.00    -0.744 OA
ENDBRANCH  65  69
ENDBRANCH  39  62
ENDBRANCH  13  14
ENDBRANCH   6   8
ENDBRANCH   5   6
ENDBRANCH   4   5
ENDBRANCH   3   4
ENDBRANCH   2   3
ENDBRANCH   1   2
BRANCH   1  73
ATOM     73  C   UNL A   1      34.297  28.965  26.845  1.00  0.00     0.188 C 
BRANCH  73  74
ATOM     74  O   UNL A   1      33.460  29.144  25.713  1.00  0.00    -0.376 OA
BRANCH  74  75
ATOM     75  C   UNL A   1      32.068  28.876  25.822  1.00  0.00     0.202 C 
BRANCH  75  76
ATOM     76  C   UNL A   1      31.480  27.756  26.917  1.00  0.00     0.261 C 
BRANCH  76  77
ATOM     77  O   UNL A   1      31.374  25.728  26.814  1.00  0.00    -0.458 OA
BRANCH  77  78
ATOM     78  C   UNL A   1      31.598  24.330  26.696  1.00  0.00     0.359 C 
ATOM     79  O   UNL A   1      30.855  23.536  27.277  1.00  0.00    -0.244 OA
BRANCH  78  80
ATOM     80  C   UNL A   1      32.719  23.738  25.879  1.00  0.00     0.179 A 
ATOM     81  N   UNL A   1      33.785  23.491  26.722  1.00  0.00    -0.245 NA
ATOM     82  C   UNL A   1      32.787  23.406  24.513  1.00  0.00     0.161 A 
ATOM     83  C   UNL A   1      34.896  22.941  26.197  1.00  0.00     0.132 A 
ATOM     84  N   UNL A   1      33.981  22.917  24.014  1.00  0.00    -0.247 NA
ATOM     85  C   UNL A   1      35.007  22.688  24.857  1.00  0.00     0.132 A 
BRANCH  82  86
ATOM     86  C   UNL A   1      31.771  23.375  23.362  1.00  0.00     0.278 C 
ATOM     87  O   UNL A   1      31.564  22.297  22.784  1.00  0.00    -0.267 OA
ATOM     88  N   UNL A   1      30.948  24.389  22.961  1.00  0.00    -0.303 N 
ATOM     89  H   UNL A   1      30.066  24.113  22.623  1.00  0.00     0.172 HD
BRANCH  88  90
ATOM     90  C   UNL A   1      31.183  25.721  22.965  1.00  0.00     0.164 A 
ATOM     91  N   UNL A   1      32.289  26.197  22.371  1.00  0.00    -0.155 NA
ATOM     92  C   UNL A   1      30.273  26.686  23.419  1.00  0.00     0.063 A 
ATOM     93  N   UNL A   1      32.033  27.482  21.974  1.00  0.00    -0.259 N 
ATOM     94  C   UNL A   1      30.840  27.990  22.390  1.00  0.00     0.157 A 
ATOM     95  C   UNL A   1      28.554  26.721  24.001  1.00  0.00     0.017 A 
ATOM     96  H   UNL A   1      32.666  28.001  21.428  1.00  0.00     0.192 HD
ATOM     97  N   UNL A   1      29.858  29.289  21.850  1.00  0.00    -0.237 NA
ATOM     98  C   UNL A   1      27.467  28.017  23.395  1.00  0.00     0.021 A 
ATOM     99  C   UNL A   1      28.157  29.226  22.326  1.00  0.00     0.113 A 
ENDBRANCH  88  90
ENDBRANCH  82  86
ENDBRANCH  78  80
ENDBRANCH  77  78
ENDBRANCH  76  77
ENDBRANCH  75  76
ENDBRANCH  74  75
ENDBRANCH  73  74
ENDBRANCH   1  73
TORSDOF 22
ENDMDL
