MODEL 1
REMARK VINA RESULT:      -9.5      0.000      0.000
REMARK SMILES COC(=O)[C@@H]([NH2+]CC(C)(C)C(=O)OCCOCCOCCOC(=O)c1ccc(-c2c3nc(c(-c4cc(S(=O)(=O)[O-])ccc4F)c4ccc([nH]4)c(-c4cc(S(=O)(=O)[O-])ccc4F)c4nc(c(-c5cc(S(=O)(=O)[O-])ccc5F)c5ccc2[nH]5)C=C4)C=C3)cc1)c1ccccc1
REMARK SMILES IDX 17 1 16 2 15 3 14 4 13 5 11 6 12 7 8 8 9 9 10 10 7 11 6 12
REMARK SMILES IDX 5 15 3 16 4 17 2 18 1 19 88 20 89 21 93 22 90 23 92 24 91 25
REMARK SMILES IDX 18 26 19 27 20 28 21 29 22 30 23 31 24 32 25 33 26 34 87 35
REMARK SMILES IDX 27 36 86 37 28 38 29 39 30 40 80 41 31 42 85 43 79 44 81 45
REMARK SMILES IDX 32 46 84 47 78 48 77 49 33 51 65 52 45 53 64 54 46 55 49 56
REMARK SMILES IDX 63 57 82 58 47 59 48 60 62 62 83 63 50 64 34 65 35 66 43 67
REMARK SMILES IDX 36 68 42 69 44 70 41 71 37 72 38 73 39 74 40 75 66 76 67 77
REMARK SMILES IDX 75 78 68 79 74 80 76 81 73 82 69 83 70 84 71 85 72 86 51 87
REMARK SMILES IDX 52 88 60 89 53 90 59 91 61 92 58 93 54 94 55 95 56 96 57 97
REMARK H PARENT 6 13 6 14 81 50 49 61
REMARK Flexibility Score: inf
ROOT
ATOM      1  C   UNL A   1      35.543  21.578  25.417  1.00  0.00     0.188 C 
ENDROOT
BRANCH   1   2
ATOM      2  O   UNL A   1      34.188  21.470  25.846  1.00  0.00    -0.376 OA
BRANCH   2   3
ATOM      3  C   UNL A   1      33.679  22.613  26.524  1.00  0.00     0.202 C 
BRANCH   3   4
ATOM      4  C   UNL A   1      33.378  23.760  25.565  1.00  0.00     0.261 C 
BRANCH   4   5
ATOM      5  O   UNL A   1      33.315  25.002  26.288  1.00  0.00    -0.463 OA
BRANCH   5   6
ATOM      6  C   UNL A   1      32.113  25.596  26.471  1.00  0.00     0.317 C 
ATOM      7  O   UNL A   1      31.090  24.991  26.764  1.00  0.00    -0.251 OA
BRANCH   6   8
ATOM      8  C   UNL A   1      32.213  27.117  26.305  1.00  0.00     0.111 C 
ATOM      9  C   UNL A   1      33.622  27.458  25.797  1.00  0.00     0.029 C 
ATOM     10  C   UNL A   1      32.042  27.823  27.683  1.00  0.00     0.029 C 
BRANCH   8  11
ATOM     11  C   UNL A   1      31.107  27.637  25.341  1.00  0.00     0.279 C 
BRANCH  11  12
ATOM     12  N   UNL A   1      30.551  26.777  24.291  1.00  0.00    -0.330 N 
ATOM     13  H   UNL A   1      31.111  25.925  24.265  1.00  0.00     0.347 HD
ATOM     14  H   UNL A   1      29.573  26.648  24.551  1.00  0.00     0.347 HD
BRANCH  12  15
ATOM     15  C   UNL A   1      30.507  27.323  22.910  1.00  0.00     0.324 C 
BRANCH  15  16
ATOM     16  C   UNL A   1      31.950  27.632  22.442  1.00  0.00     0.369 C 
ATOM     17  O   UNL A   1      32.552  28.654  22.758  1.00  0.00    -0.245 OA
BRANCH  16  18
ATOM     18  O   UNL A   1      32.464  26.632  21.673  1.00  0.00    -0.464 OA
ATOM     19  C   UNL A   1      33.307  25.716  22.371  1.00  0.00     0.282 C 
ENDBRANCH  16  18
ENDBRANCH  15  16
BRANCH  15  20
ATOM     20  C   UNL A   1      29.605  28.531  22.655  1.00  0.00     0.021 A 
ATOM     21  C   UNL A   1      30.031  29.691  22.009  1.00  0.00     0.010 A 
ATOM     22  C   UNL A   1      28.264  28.486  23.098  1.00  0.00     0.010 A 
ATOM     23  C   UNL A   1      29.166  30.782  21.872  1.00  0.00     0.001 A 
ATOM     24  C   UNL A   1      27.394  29.565  22.915  1.00  0.00     0.001 A 
ATOM     25  C   UNL A   1      27.852  30.724  22.311  1.00  0.00     0.000 A 
ENDBRANCH  15  20
ENDBRANCH  12  15
ENDBRANCH  11  12
ENDBRANCH   8  11
ENDBRANCH   6   8
ENDBRANCH   5   6
ENDBRANCH   4   5
ENDBRANCH   3   4
ENDBRANCH   2   3
ENDBRANCH   1   2
BRANCH   1  26
ATOM     26  C   UNL A   1      36.227  20.244  25.075  1.00  0.00     0.188 C 
BRANCH  26  27
ATOM     27  O   UNL A   1      37.537  20.215  24.525  1.00  0.00    -0.376 OA
BRANCH  27  28
ATOM     28  C   UNL A   1      38.563  19.573  25.257  1.00  0.00     0.202 C 
BRANCH  28  29
ATOM     29  C   UNL A   1      39.487  20.454  26.105  1.00  0.00     0.261 C 
BRANCH  29  30
ATOM     30  O   UNL A   1      40.525  19.763  26.820  1.00  0.00    -0.460 OA
BRANCH  30  31
ATOM     31  C   UNL A   1      41.777  20.278  26.657  1.00  0.00     0.338 C 
ATOM     32  O   UNL A   1      42.749  19.700  26.227  1.00  0.00    -0.246 OA
BRANCH  31  33
ATOM     33  C   UNL A   1      41.759  21.732  26.968  1.00  0.00     0.060 A 
ATOM     34  C   UNL A   1      41.699  22.646  25.905  1.00  0.00     0.016 A 
ATOM     35  C   UNL A   1      41.858  22.196  28.280  1.00  0.00     0.016 A 
ATOM     36  C   UNL A   1      41.743  24.026  26.148  1.00  0.00     0.010 A 
ATOM     37  C   UNL A   1      41.924  23.577  28.521  1.00  0.00     0.010 A 
ATOM     38  C   UNL A   1      41.877  24.505  27.458  1.00  0.00    -0.014 A 
BRANCH  38  39
ATOM     39  C   UNL A   1      42.155  25.944  27.733  1.00  0.00     0.031 A 
ATOM     40  C   UNL A   1      43.555  26.437  27.505  1.00  0.00     0.074 A 
ATOM     41  C   UNL A   1      41.228  26.799  28.209  1.00  0.00     0.049 A 
ATOM     42  N   UNL A   1      44.074  27.610  27.754  1.00  0.00    -0.248 NA
ATOM     43  C   UNL A   1      44.490  25.469  26.911  1.00  0.00     0.031 C 
ATOM     44  C   UNL A   1      39.818  26.496  28.397  1.00  0.00     0.029 A 
ATOM     45  N   UNL A   1      41.336  28.097  28.651  1.00  0.00    -0.354 N 
ATOM     46  C   UNL A   1      45.391  27.531  27.323  1.00  0.00     0.074 A 
ATOM     47  C   UNL A   1      45.608  26.173  26.871  1.00  0.00     0.031 C 
ATOM     48  C   UNL A   1      39.204  27.529  28.995  1.00  0.00     0.029 A 
ATOM     49  C   UNL A   1      40.177  28.593  29.211  1.00  0.00     0.049 A 
ATOM     50  H   UNL A   1      42.165  28.624  28.574  1.00  0.00     0.167 HD
ATOM     51  C   UNL A   1      46.327  28.511  27.277  1.00  0.00     0.034 A 
ATOM     52  C   UNL A   1      39.926  29.766  29.829  1.00  0.00     0.034 A 
ATOM     53  C   UNL A   1      46.117  29.848  27.766  1.00  0.00     0.049 A 
ATOM     54  C   UNL A   1      41.025  30.796  29.904  1.00  0.00     0.074 A 
ATOM     55  C   UNL A   1      47.001  30.913  27.773  1.00  0.00     0.029 A 
ATOM     56  N   UNL A   1      44.945  30.302  28.360  1.00  0.00    -0.354 N 
ATOM     57  N   UNL A   1      42.257  30.722  29.456  1.00  0.00    -0.248 NA
ATOM     58  C   UNL A   1      40.692  32.079  30.539  1.00  0.00     0.031 C 
ATOM     59  C   UNL A   1      46.391  31.985  28.432  1.00  0.00     0.029 A 
ATOM     60  C   UNL A   1      45.097  31.619  28.769  1.00  0.00     0.049 A 
ATOM     61  H   UNL A   1      44.127  29.767  28.473  1.00  0.00     0.167 HD
ATOM     62  C   UNL A   1      42.826  31.968  29.705  1.00  0.00     0.074 A 
ATOM     63  C   UNL A   1      41.806  32.770  30.346  1.00  0.00     0.031 C 
ATOM     64  C   UNL A   1      44.075  32.412  29.411  1.00  0.00     0.034 A 
BRANCH  51  65
ATOM     65  C   UNL A   1      47.669  28.125  26.711  1.00  0.00     0.023 A 
ATOM     66  C   UNL A   1      47.889  28.087  25.321  1.00  0.00     0.031 A 
ATOM     67  C   UNL A   1      48.707  27.704  27.557  1.00  0.00     0.131 A 
ATOM     68  C   UNL A   1      49.079  27.545  24.819  1.00  0.00     0.055 A 
ATOM     69  C   UNL A   1      49.926  27.250  27.050  1.00  0.00     0.041 A 
ATOM     70  F   UNL A   1      48.542  27.694  28.888  1.00  0.00    -0.206 F 
ATOM     71  C   UNL A   1      50.110  27.149  25.674  1.00  0.00     0.022 A 
BRANCH  68  72
ATOM     72  S   UNL A   1      49.186  27.201  23.040  1.00  0.00     0.124 S 
ATOM     73  O   UNL A   1      50.632  27.171  22.834  1.00  0.00    -0.237 OA
ATOM     74  O   UNL A   1      48.497  25.922  22.924  1.00  0.00    -0.237 OA
ATOM     75  O   UNL A   1      48.500  28.339  22.432  1.00  0.00    -0.744 OA
ENDBRANCH  68  72
ENDBRANCH  51  65
BRANCH  52  76
ATOM     76  C   UNL A   1      38.590  30.043  30.437  1.00  0.00     0.023 A 
ATOM     77  C   UNL A   1      37.626  30.808  29.759  1.00  0.00     0.031 A 
ATOM     78  C   UNL A   1      38.291  29.614  31.742  1.00  0.00     0.131 A 
ATOM     79  C   UNL A   1      36.433  31.168  30.409  1.00  0.00     0.055 A 
ATOM     80  C   UNL A   1      37.083  29.935  32.367  1.00  0.00     0.041 A 
ATOM     81  F   UNL A   1      39.176  28.883  32.438  1.00  0.00    -0.206 F 
ATOM     82  C   UNL A   1      36.152  30.730  31.704  1.00  0.00     0.022 A 
BRANCH  79  83
ATOM     83  S   UNL A   1      35.293  32.303  29.569  1.00  0.00     0.124 S 
ATOM     84  O   UNL A   1      34.699  31.434  28.559  1.00  0.00    -0.237 OA
ATOM     85  O   UNL A   1      34.416  32.713  30.660  1.00  0.00    -0.237 OA
ATOM     86  O   UNL A   1      36.173  33.349  29.053  1.00  0.00    -0.744 OA
ENDBRANCH  79  83
ENDBRANCH  52  76
BRANCH  64  87
ATOM     87  C   UNL A   1      44.386  33.853  29.728  1.00  0.00     0.023 A 
ATOM     88  C   UNL A   1      45.063  34.230  30.900  1.00  0.00     0.031 A 
ATOM     89  C   UNL A   1      43.993  34.868  28.835  1.00  0.00     0.131 A 
ATOM     90  C   UNL A   1      45.283  35.589  31.173  1.00  0.00     0.055 A 
ATOM     91  C   UNL A   1      44.269  36.213  29.083  1.00  0.00     0.041 A 
ATOM     92  F   UNL A   1      43.340  34.567  27.702  1.00  0.00    -0.206 F 
ATOM     93  C   UNL A   1      44.907  36.581  30.264  1.00  0.00     0.022 A 
BRANCH  90  94
ATOM     94  S   UNL A   1      45.998  36.051  32.775  1.00  0.00     0.124 S 
ATOM     95  O   UNL A   1      47.390  35.639  32.618  1.00  0.00    -0.237 OA
ATOM     96  O   UNL A   1      45.761  37.490  32.820  1.00  0.00    -0.237 OA
ATOM     97  O   UNL A   1      45.224  35.266  33.735  1.00  0.00    -0.744 OA
ENDBRANCH  90  94
ENDBRANCH  64  87
ENDBRANCH  38  39
ENDBRANCH  31  33
ENDBRANCH  30  31
ENDBRANCH  29  30
ENDBRANCH  28  29
ENDBRANCH  27  28
ENDBRANCH  26  27
ENDBRANCH   1  26
TORSDOF 26
ENDMDL
MODEL 2
REMARK VINA RESULT:      -9.4      1.984      7.873
REMARK SMILES COC(=O)[C@@H]([NH2+]CC(C)(C)C(=O)OCCOCCOCCOC(=O)c1ccc(-c2c3nc(c(-c4cc(S(=O)(=O)[O-])ccc4F)c4ccc([nH]4)c(-c4cc(S(=O)(=O)[O-])ccc4F)c4nc(c(-c5cc(S(=O)(=O)[O-])ccc5F)c5ccc2[nH]5)C=C4)C=C3)cc1)c1ccccc1
REMARK SMILES IDX 17 1 16 2 15 3 14 4 13 5 11 6 12 7 8 8 9 9 10 10 7 11 6 12
REMARK SMILES IDX 5 15 3 16 4 17 2 18 1 19 88 20 89 21 93 22 90 23 92 24 91 25
REMARK SMILES IDX 18 26 19 27 20 28 21 29 22 30 23 31 24 32 25 33 26 34 87 35
REMARK SMILES IDX 27 36 86 37 28 38 29 39 30 40 80 41 31 42 85 43 79 44 81 45
REMARK SMILES IDX 32 46 84 47 78 48 77 49 33 51 65 52 45 53 64 54 46 55 49 56
REMARK SMILES IDX 63 57 82 58 47 59 48 60 62 62 83 63 50 64 34 65 35 66 43 67
REMARK SMILES IDX 36 68 42 69 44 70 41 71 37 72 38 73 39 74 40 75 66 76 67 77
REMARK SMILES IDX 75 78 68 79 74 80 76 81 73 82 69 83 70 84 71 85 72 86 51 87
REMARK SMILES IDX 52 88 60 89 53 90 59 91 61 92 58 93 54 94 55 95 56 96 57 97
REMARK H PARENT 6 13 6 14 81 50 49 61
REMARK Flexibility Score: inf
ROOT
ATOM      1  C   UNL A   1      34.913  21.721  25.863  1.00  0.00     0.188 C 
ENDROOT
BRANCH   1   2
ATOM      2  O   UNL A   1      33.504  21.510  25.846  1.00  0.00    -0.376 OA
BRANCH   2   3
ATOM      3  C   UNL A   1      32.728  22.590  26.355  1.00  0.00     0.202 C 
BRANCH   3   4
ATOM      4  C   UNL A   1      32.098  23.417  25.239  1.00  0.00     0.261 C 
BRANCH   4   5
ATOM      5  O   UNL A   1      33.113  23.847  24.314  1.00  0.00    -0.463 OA
BRANCH   5   6
ATOM      6  C   UNL A   1      33.291  25.171  24.103  1.00  0.00     0.317 C 
ATOM      7  O   UNL A   1      33.846  25.921  24.896  1.00  0.00    -0.251 OA
BRANCH   6   8
ATOM      8  C   UNL A   1      32.747  25.594  22.733  1.00  0.00     0.111 C 
ATOM      9  C   UNL A   1      32.929  24.422  21.756  1.00  0.00     0.029 C 
ATOM     10  C   UNL A   1      33.572  26.789  22.170  1.00  0.00     0.029 C 
BRANCH   8  11
ATOM     11  C   UNL A   1      31.257  26.029  22.844  1.00  0.00     0.279 C 
BRANCH  11  12
ATOM     12  N   UNL A   1      30.852  27.417  22.597  1.00  0.00    -0.330 N 
ATOM     13  H   UNL A   1      31.673  27.921  22.262  1.00  0.00     0.347 HD
ATOM     14  H   UNL A   1      30.081  27.350  21.932  1.00  0.00     0.347 HD
BRANCH  12  15
ATOM     15  C   UNL A   1      30.297  28.184  23.743  1.00  0.00     0.324 C 
BRANCH  15  16
ATOM     16  C   UNL A   1      29.763  29.544  23.231  1.00  0.00     0.369 C 
ATOM     17  O   UNL A   1      29.752  30.561  23.916  1.00  0.00    -0.245 OA
BRANCH  16  18
ATOM     18  O   UNL A   1      29.339  29.472  21.938  1.00  0.00    -0.464 OA
ATOM     19  C   UNL A   1      28.048  30.033  21.702  1.00  0.00     0.282 C 
ENDBRANCH  16  18
ENDBRANCH  15  16
BRANCH  15  20
ATOM     20  C   UNL A   1      31.207  28.402  24.953  1.00  0.00     0.021 A 
ATOM     21  C   UNL A   1      31.006  27.794  26.191  1.00  0.00     0.010 A 
ATOM     22  C   UNL A   1      32.314  29.270  24.824  1.00  0.00     0.010 A 
ATOM     23  C   UNL A   1      31.842  28.095  27.271  1.00  0.00     0.001 A 
ATOM     24  C   UNL A   1      33.173  29.528  25.897  1.00  0.00     0.001 A 
ATOM     25  C   UNL A   1      32.927  28.948  27.131  1.00  0.00     0.000 A 
ENDBRANCH  15  20
ENDBRANCH  12  15
ENDBRANCH  11  12
ENDBRANCH   8  11
ENDBRANCH   6   8
ENDBRANCH   5   6
ENDBRANCH   4   5
ENDBRANCH   3   4
ENDBRANCH   2   3
ENDBRANCH   1   2
BRANCH   1  26
ATOM     26  C   UNL A   1      35.743  20.640  25.151  1.00  0.00     0.188 C 
BRANCH  26  27
ATOM     27  O   UNL A   1      37.014  20.944  24.592  1.00  0.00    -0.376 OA
BRANCH  27  28
ATOM     28  C   UNL A   1      38.137  20.201  25.024  1.00  0.00     0.202 C 
BRANCH  28  29
ATOM     29  C   UNL A   1      39.154  20.911  25.925  1.00  0.00     0.261 C 
BRANCH  29  30
ATOM     30  O   UNL A   1      40.000  20.052  26.709  1.00  0.00    -0.460 OA
BRANCH  30  31
ATOM     31  C   UNL A   1      41.279  19.932  26.253  1.00  0.00     0.338 C 
ATOM     32  O   UNL A   1      41.737  19.014  25.613  1.00  0.00    -0.246 OA
BRANCH  31  33
ATOM     33  C   UNL A   1      42.029  21.182  26.545  1.00  0.00     0.060 A 
ATOM     34  C   UNL A   1      42.301  21.507  27.883  1.00  0.00     0.016 A 
ATOM     35  C   UNL A   1      42.410  22.056  25.526  1.00  0.00     0.016 A 
ATOM     36  C   UNL A   1      42.951  22.705  28.208  1.00  0.00     0.010 A 
ATOM     37  C   UNL A   1      43.041  23.266  25.853  1.00  0.00     0.010 A 
ATOM     38  C   UNL A   1      43.309  23.607  27.197  1.00  0.00    -0.014 A 
BRANCH  38  39
ATOM     39  C   UNL A   1      43.789  24.982  27.519  1.00  0.00     0.031 A 
ATOM     40  C   UNL A   1      42.788  25.957  28.068  1.00  0.00     0.074 A 
ATOM     41  C   UNL A   1      45.055  25.393  27.303  1.00  0.00     0.049 A 
ATOM     42  N   UNL A   1      42.927  27.228  28.339  1.00  0.00    -0.248 NA
ATOM     43  C   UNL A   1      41.449  25.416  28.350  1.00  0.00     0.031 C 
ATOM     44  C   UNL A   1      46.152  24.547  26.862  1.00  0.00     0.029 A 
ATOM     45  N   UNL A   1      45.631  26.639  27.399  1.00  0.00    -0.354 N 
ATOM     46  C   UNL A   1      41.702  27.634  28.850  1.00  0.00     0.074 A 
ATOM     47  C   UNL A   1      40.813  26.494  28.775  1.00  0.00     0.031 C 
ATOM     48  C   UNL A   1      47.244  25.296  26.636  1.00  0.00     0.029 A 
ATOM     49  C   UNL A   1      46.932  26.686  26.946  1.00  0.00     0.049 A 
ATOM     50  H   UNL A   1      45.157  27.423  27.761  1.00  0.00     0.167 HD
ATOM     51  C   UNL A   1      41.357  28.840  29.365  1.00  0.00     0.034 A 
ATOM     52  C   UNL A   1      47.778  27.727  26.794  1.00  0.00     0.034 A 
ATOM     53  C   UNL A   1      42.234  29.981  29.397  1.00  0.00     0.049 A 
ATOM     54  C   UNL A   1      47.326  29.097  27.234  1.00  0.00     0.074 A 
ATOM     55  C   UNL A   1      41.980  31.249  29.890  1.00  0.00     0.029 A 
ATOM     56  N   UNL A   1      43.529  30.003  28.895  1.00  0.00    -0.354 N 
ATOM     57  N   UNL A   1      46.176  29.460  27.753  1.00  0.00    -0.248 NA
ATOM     58  C   UNL A   1      48.298  30.192  27.100  1.00  0.00     0.031 C 
ATOM     59  C   UNL A   1      43.093  32.054  29.624  1.00  0.00     0.029 A 
ATOM     60  C   UNL A   1      44.073  31.271  29.034  1.00  0.00     0.049 A 
ATOM     61  H   UNL A   1      43.993  29.230  28.500  1.00  0.00     0.167 HD
ATOM     62  C   UNL A   1      46.308  30.813  28.057  1.00  0.00     0.074 A 
ATOM     63  C   UNL A   1      47.645  31.200  27.660  1.00  0.00     0.031 C 
ATOM     64  C   UNL A   1      45.408  31.651  28.632  1.00  0.00     0.034 A 
BRANCH  51  65
ATOM     65  C   UNL A   1      39.949  28.964  29.886  1.00  0.00     0.023 A 
ATOM     66  C   UNL A   1      38.949  29.607  29.132  1.00  0.00     0.031 A 
ATOM     67  C   UNL A   1      39.623  28.522  31.177  1.00  0.00     0.131 A 
ATOM     68  C   UNL A   1      37.703  29.877  29.714  1.00  0.00     0.055 A 
ATOM     69  C   UNL A   1      38.350  28.715  31.717  1.00  0.00     0.041 A 
ATOM     70  F   UNL A   1      40.545  27.927  31.949  1.00  0.00    -0.206 F 
ATOM     71  C   UNL A   1      37.388  29.413  30.993  1.00  0.00     0.022 A 
BRANCH  68  72
ATOM     72  S   UNL A   1      36.570  30.995  28.844  1.00  0.00     0.124 S 
ATOM     73  O   UNL A   1      36.215  30.198  27.671  1.00  0.00    -0.237 OA
ATOM     74  O   UNL A   1      35.511  31.198  29.824  1.00  0.00    -0.237 OA
ATOM     75  O   UNL A   1      37.397  32.167  28.563  1.00  0.00    -0.744 OA
ENDBRANCH  68  72
ENDBRANCH  51  65
BRANCH  52  76
ATOM     76  C   UNL A   1      49.132  27.536  26.194  1.00  0.00     0.023 A 
ATOM     77  C   UNL A   1      49.368  27.789  24.833  1.00  0.00     0.031 A 
ATOM     78  C   UNL A   1      50.191  27.018  26.961  1.00  0.00     0.131 A 
ATOM     79  C   UNL A   1      50.614  27.470  24.266  1.00  0.00     0.055 A 
ATOM     80  C   UNL A   1      51.443  26.747  26.403  1.00  0.00     0.041 A 
ATOM     81  F   UNL A   1      50.021  26.754  28.265  1.00  0.00    -0.206 F 
ATOM     82  C   UNL A   1      51.655  26.959  25.043  1.00  0.00     0.022 A 
BRANCH  79  83
ATOM     83  S   UNL A   1      50.823  27.644  22.471  1.00  0.00     0.124 S 
ATOM     84  O   UNL A   1      50.102  28.882  22.206  1.00  0.00    -0.237 OA
ATOM     85  O   UNL A   1      52.275  27.705  22.342  1.00  0.00    -0.237 OA
ATOM     86  O   UNL A   1      50.204  26.432  21.938  1.00  0.00    -0.744 OA
ENDBRANCH  79  83
ENDBRANCH  52  76
BRANCH  64  87
ATOM     87  C   UNL A   1      45.865  33.059  28.920  1.00  0.00     0.023 A 
ATOM     88  C   UNL A   1      45.669  34.109  28.006  1.00  0.00     0.031 A 
ATOM     89  C   UNL A   1      46.510  33.352  30.135  1.00  0.00     0.131 A 
ATOM     90  C   UNL A   1      46.158  35.391  28.299  1.00  0.00     0.055 A 
ATOM     91  C   UNL A   1      46.941  34.643  30.447  1.00  0.00     0.041 A 
ATOM     92  F   UNL A   1      46.727  32.388  31.044  1.00  0.00    -0.206 F 
ATOM     93  C   UNL A   1      46.776  35.668  29.521  1.00  0.00     0.022 A 
BRANCH  90  94
ATOM     94  S   UNL A   1      46.049  36.678  27.026  1.00  0.00     0.124 S 
ATOM     95  O   UNL A   1      44.618  36.971  27.012  1.00  0.00    -0.237 OA
ATOM     96  O   UNL A   1      46.908  37.726  27.565  1.00  0.00    -0.237 OA
ATOM     97  O   UNL A   1      46.558  36.017  25.826  1.00  0.00    -0.744 OA
ENDBRANCH  90  94
ENDBRANCH  64  87
ENDBRANCH  38  39
ENDBRANCH  31  33
ENDBRANCH  30  31
ENDBRANCH  29  30
ENDBRANCH  28  29
ENDBRANCH  27  28
ENDBRANCH  26  27
ENDBRANCH   1  26
TORSDOF 26
ENDMDL
MODEL 3
REMARK VINA RESULT:      -9.0      1.304      7.448
REMARK SMILES COC(=O)[C@@H]([NH2+]CC(C)(C)C(=O)OCCOCCOCCOC(=O)c1ccc(-c2c3nc(c(-c4cc(S(=O)(=O)[O-])ccc4F)c4ccc([nH]4)c(-c4cc(S(=O)(=O)[O-])ccc4F)c4nc(c(-c5cc(S(=O)(=O)[O-])ccc5F)c5ccc2[nH]5)C=C4)C=C3)cc1)c1ccccc1
REMARK SMILES IDX 17 1 16 2 15 3 14 4 13 5 11 6 12 7 8 8 9 9 10 10 7 11 6 12
REMARK SMILES IDX 5 15 3 16 4 17 2 18 1 19 88 20 89 21 93 22 90 23 92 24 91 25
REMARK SMILES IDX 18 26 19 27 20 28 21 29 22 30 23 31 24 32 25 33 26 34 87 35
REMARK SMILES IDX 27 36 86 37 28 38 29 39 30 40 80 41 31 42 85 43 79 44 81 45
REMARK SMILES IDX 32 46 84 47 78 48 77 49 33 51 65 52 45 53 64 54 46 55 49 56
REMARK SMILES IDX 63 57 82 58 47 59 48 60 62 62 83 63 50 64 34 65 35 66 43 67
REMARK SMILES IDX 36 68 42 69 44 70 41 71 37 72 38 73 39 74 40 75 66 76 67 77
REMARK SMILES IDX 75 78 68 79 74 80 76 81 73 82 69 83 70 84 71 85 72 86 51 87
REMARK SMILES IDX 52 88 60 89 53 90 59 91 61 92 58 93 54 94 55 95 56 96 57 97
REMARK H PARENT 6 13 6 14 81 50 49 61
REMARK Flexibility Score: inf
ROOT
ATOM      1  C   UNL A   1      35.169  21.551  25.979  1.00  0.00     0.188 C 
ENDROOT
BRANCH   1   2
ATOM      2  O   UNL A   1      33.811  21.239  26.274  1.00  0.00    -0.376 OA
BRANCH   2   3
ATOM      3  C   UNL A   1      33.326  21.765  27.505  1.00  0.00     0.202 C 
BRANCH   3   4
ATOM      4  C   UNL A   1      32.256  22.830  27.291  1.00  0.00     0.261 C 
BRANCH   4   5
ATOM      5  O   UNL A   1      32.484  23.511  26.044  1.00  0.00    -0.463 OA
BRANCH   5   6
ATOM      6  C   UNL A   1      32.426  24.862  26.013  1.00  0.00     0.317 C 
ATOM      7  O   UNL A   1      33.313  25.594  26.431  1.00  0.00    -0.251 OA
BRANCH   6   8
ATOM      8  C   UNL A   1      31.130  25.348  25.352  1.00  0.00     0.111 C 
ATOM      9  C   UNL A   1      29.992  25.240  26.380  1.00  0.00     0.029 C 
ATOM     10  C   UNL A   1      30.754  24.424  24.156  1.00  0.00     0.029 C 
BRANCH   8  11
ATOM     11  C   UNL A   1      31.296  26.803  24.822  1.00  0.00     0.279 C 
BRANCH  11  12
ATOM     12  N   UNL A   1      30.129  27.650  24.553  1.00  0.00    -0.330 N 
ATOM     13  H   UNL A   1      29.303  27.140  24.867  1.00  0.00     0.347 HD
ATOM     14  H   UNL A   1      30.319  28.520  25.050  1.00  0.00     0.347 HD
BRANCH  12  15
ATOM     15  C   UNL A   1      29.891  28.061  23.145  1.00  0.00     0.324 C 
BRANCH  15  16
ATOM     16  C   UNL A   1      31.194  27.859  22.332  1.00  0.00     0.369 C 
ATOM     17  O   UNL A   1      32.200  28.541  22.499  1.00  0.00    -0.245 OA
BRANCH  16  18
ATOM     18  O   UNL A   1      31.089  26.830  21.446  1.00  0.00    -0.464 OA
ATOM     19  C   UNL A   1      32.252  26.009  21.344  1.00  0.00     0.282 C 
ENDBRANCH  16  18
ENDBRANCH  15  16
BRANCH  15  20
ATOM     20  C   UNL A   1      29.337  29.465  22.903  1.00  0.00     0.021 A 
ATOM     21  C   UNL A   1      29.521  30.531  23.782  1.00  0.00     0.010 A 
ATOM     22  C   UNL A   1      28.591  29.710  21.729  1.00  0.00     0.010 A 
ATOM     23  C   UNL A   1      28.927  31.770  23.525  1.00  0.00     0.001 A 
ATOM     24  C   UNL A   1      28.039  30.966  21.458  1.00  0.00     0.001 A 
ATOM     25  C   UNL A   1      28.197  31.998  22.368  1.00  0.00     0.000 A 
ENDBRANCH  15  20
ENDBRANCH  12  15
ENDBRANCH  11  12
ENDBRANCH   8  11
ENDBRANCH   6   8
ENDBRANCH   5   6
ENDBRANCH   4   5
ENDBRANCH   3   4
ENDBRANCH   2   3
ENDBRANCH   1   2
BRANCH   1  26
ATOM     26  C   UNL A   1      35.886  20.546  25.062  1.00  0.00     0.188 C 
BRANCH  26  27
ATOM     27  O   UNL A   1      37.167  20.835  24.521  1.00  0.00    -0.376 OA
BRANCH  27  28
ATOM     28  C   UNL A   1      38.282  20.108  25.001  1.00  0.00     0.202 C 
BRANCH  28  29
ATOM     29  C   UNL A   1      39.305  20.862  25.859  1.00  0.00     0.261 C 
BRANCH  29  30
ATOM     30  O   UNL A   1      40.227  20.042  26.595  1.00  0.00    -0.460 OA
BRANCH  30  31
ATOM     31  C   UNL A   1      41.503  20.038  26.115  1.00  0.00     0.338 C 
ATOM     32  O   UNL A   1      42.010  19.197  25.408  1.00  0.00    -0.246 OA
BRANCH  31  33
ATOM     33  C   UNL A   1      42.175  21.312  26.482  1.00  0.00     0.060 A 
ATOM     34  C   UNL A   1      42.358  21.609  27.842  1.00  0.00     0.016 A 
ATOM     35  C   UNL A   1      42.568  22.233  25.511  1.00  0.00     0.016 A 
ATOM     36  C   UNL A   1      42.930  22.827  28.235  1.00  0.00     0.010 A 
ATOM     37  C   UNL A   1      43.121  23.461  25.905  1.00  0.00     0.010 A 
ATOM     38  C   UNL A   1      43.299  23.774  27.270  1.00  0.00    -0.014 A 
BRANCH  38  39
ATOM     39  C   UNL A   1      43.693  25.160  27.656  1.00  0.00     0.031 A 
ATOM     40  C   UNL A   1      42.606  26.093  28.104  1.00  0.00     0.074 A 
ATOM     41  C   UNL A   1      44.960  25.616  27.582  1.00  0.00     0.049 A 
ATOM     42  N   UNL A   1      42.671  27.364  28.401  1.00  0.00    -0.248 NA
ATOM     43  C   UNL A   1      41.265  25.503  28.235  1.00  0.00     0.031 C 
ATOM     44  C   UNL A   1      46.127  24.814  27.252  1.00  0.00     0.029 A 
ATOM     45  N   UNL A   1      45.478  26.879  27.752  1.00  0.00    -0.354 N 
ATOM     46  C   UNL A   1      41.385  27.722  28.782  1.00  0.00     0.074 A 
ATOM     47  C   UNL A   1      40.549  26.554  28.600  1.00  0.00     0.031 C 
ATOM     48  C   UNL A   1      47.210  25.602  27.152  1.00  0.00     0.029 A 
ATOM     49  C   UNL A   1      46.818  26.976  27.441  1.00  0.00     0.049 A 
ATOM     50  H   UNL A   1      44.942  27.642  28.068  1.00  0.00     0.167 HD
ATOM     51  C   UNL A   1      40.945  28.908  29.269  1.00  0.00     0.034 A 
ATOM     52  C   UNL A   1      47.639  28.047  27.391  1.00  0.00     0.034 A 
ATOM     53  C   UNL A   1      41.773  30.078  29.407  1.00  0.00     0.049 A 
ATOM     54  C   UNL A   1      47.095  29.395  27.794  1.00  0.00     0.074 A 
ATOM     55  C   UNL A   1      41.424  31.330  29.882  1.00  0.00     0.029 A 
ATOM     56  N   UNL A   1      43.113  30.150  29.047  1.00  0.00    -0.354 N 
ATOM     57  N   UNL A   1      45.884  29.712  28.190  1.00  0.00    -0.248 NA
ATOM     58  C   UNL A   1      48.037  30.523  27.776  1.00  0.00     0.031 C 
ATOM     59  C   UNL A   1      42.530  32.175  29.745  1.00  0.00     0.029 A 
ATOM     60  C   UNL A   1      43.595  31.434  29.255  1.00  0.00     0.049 A 
ATOM     61  H   UNL A   1      43.643  29.399  28.695  1.00  0.00     0.167 HD
ATOM     62  C   UNL A   1      45.935  31.064  28.520  1.00  0.00     0.074 A 
ATOM     63  C   UNL A   1      47.293  31.501  28.273  1.00  0.00     0.031 C 
ATOM     64  C   UNL A   1      44.950  31.863  29.003  1.00  0.00     0.034 A 
BRANCH  51  65
ATOM     65  C   UNL A   1      39.486  28.978  29.636  1.00  0.00     0.023 A 
ATOM     66  C   UNL A   1      38.542  29.551  28.763  1.00  0.00     0.031 A 
ATOM     67  C   UNL A   1      39.047  28.555  30.901  1.00  0.00     0.131 A 
ATOM     68  C   UNL A   1      37.231  29.776  29.204  1.00  0.00     0.055 A 
ATOM     69  C   UNL A   1      37.717  28.701  31.300  1.00  0.00     0.041 A 
ATOM     70  F   UNL A   1      39.908  28.027  31.783  1.00  0.00    -0.206 F 
ATOM     71  C   UNL A   1      36.805  29.332  30.458  1.00  0.00     0.022 A 
BRANCH  68  72
ATOM     72  S   UNL A   1      36.146  30.814  28.186  1.00  0.00     0.124 S 
ATOM     73  O   UNL A   1      36.860  32.089  28.204  1.00  0.00    -0.237 OA
ATOM     74  O   UNL A   1      36.135  30.105  26.912  1.00  0.00    -0.237 OA
ATOM     75  O   UNL A   1      34.882  30.806  28.918  1.00  0.00    -0.744 OA
ENDBRANCH  68  72
ENDBRANCH  51  65
BRANCH  52  76
ATOM     76  C   UNL A   1      49.055  27.909  26.938  1.00  0.00     0.023 A 
ATOM     77  C   UNL A   1      49.421  28.157  25.604  1.00  0.00     0.031 A 
ATOM     78  C   UNL A   1      50.050  27.448  27.819  1.00  0.00     0.131 A 
ATOM     79  C   UNL A   1      50.732  27.888  25.176  1.00  0.00     0.055 A 
ATOM     80  C   UNL A   1      51.364  27.228  27.398  1.00  0.00     0.041 A 
ATOM     81  F   UNL A   1      49.756  27.193  29.103  1.00  0.00    -0.206 F 
ATOM     82  C   UNL A   1      51.707  27.433  26.065  1.00  0.00     0.022 A 
BRANCH  79  83
ATOM     83  S   UNL A   1      51.120  28.050  23.410  1.00  0.00     0.124 S 
ATOM     84  O   UNL A   1      51.837  29.319  23.378  1.00  0.00    -0.237 OA
ATOM     85  O   UNL A   1      51.919  26.854  23.166  1.00  0.00    -0.237 OA
ATOM     86  O   UNL A   1      49.805  28.058  22.772  1.00  0.00    -0.744 OA
ENDBRANCH  79  83
ENDBRANCH  52  76
BRANCH  64  87
ATOM     87  C   UNL A   1      45.325  33.282  29.353  1.00  0.00     0.023 A 
ATOM     88  C   UNL A   1      45.855  33.626  30.607  1.00  0.00     0.031 A 
ATOM     89  C   UNL A   1      45.143  34.308  28.407  1.00  0.00     0.131 A 
ATOM     90  C   UNL A   1      46.140  34.969  30.901  1.00  0.00     0.055 A 
ATOM     91  C   UNL A   1      45.484  35.633  28.684  1.00  0.00     0.041 A 
ATOM     92  F   UNL A   1      44.636  34.039  27.194  1.00  0.00    -0.206 F 
ATOM     93  C   UNL A   1      45.975  35.971  29.942  1.00  0.00     0.022 A 
BRANCH  90  94
ATOM     94  S   UNL A   1      46.653  35.403  32.586  1.00  0.00     0.124 S 
ATOM     95  O   UNL A   1      48.108  35.421  32.465  1.00  0.00    -0.237 OA
ATOM     96  O   UNL A   1      46.014  36.699  32.785  1.00  0.00    -0.237 OA
ATOM     97  O   UNL A   1      46.113  34.315  33.400  1.00  0.00    -0.744 OA
ENDBRANCH  90  94
ENDBRANCH  64  87
ENDBRANCH  38  39
ENDBRANCH  31  33
ENDBRANCH  30  31
ENDBRANCH  29  30
ENDBRANCH  28  29
ENDBRANCH  27  28
ENDBRANCH  26  27
ENDBRANCH   1  26
TORSDOF 26
ENDMDL
