MODEL 1
REMARK VINA RESULT:      -9.4      0.000      0.000
REMARK SMILES C[C@@H]1[C@@H](C(=O)OCCOCCOCCOC(=O)c2ccc(-c3c4nc(c(-c5cc(S(=O)(=O)[O-])ccc5F)c5ccc([nH]5)c(-c5cc(S(=O)(=O)[O-])ccc5F)c5nc(c(-c6cc(S(=O)(=O)[O-])ccc6F)c6ccc3[nH]6)C=C5)C=C4)cc2)CCN1C(=O)CC[C@@H]1CCCC[NH2+]1
REMARK SMILES IDX 10 1 9 2 8 3 7 4 6 5 4 6 5 7 3 8 1 9 2 10 83 11 81 12 82 13
REMARK SMILES IDX 84 14 85 15 86 16 87 17 88 18 89 19 93 20 90 21 92 22 91 25
REMARK SMILES IDX 11 26 12 27 13 28 14 29 15 30 16 31 17 32 18 33 19 34 80 35
REMARK SMILES IDX 20 36 79 37 21 38 22 39 23 40 73 41 24 42 78 43 72 44 74 45
REMARK SMILES IDX 25 46 77 47 71 48 70 49 26 51 58 52 38 53 57 54 39 55 42 56
REMARK SMILES IDX 56 57 75 58 40 59 41 60 55 62 76 63 43 64 27 65 28 66 36 67
REMARK SMILES IDX 29 68 35 69 37 70 34 71 30 72 31 73 32 74 33 75 59 76 60 77
REMARK SMILES IDX 68 78 61 79 67 80 69 81 66 82 62 83 63 84 64 85 65 86 44 87
REMARK SMILES IDX 45 88 53 89 46 90 52 91 54 92 51 93 47 94 48 95 49 96 50 97
REMARK H PARENT 93 23 93 24 74 50 42 61
REMARK Flexibility Score: inf
ROOT
ATOM      1  C   UNL A   1      34.992  32.320  28.916  1.00  0.00     0.188 C 
ENDROOT
BRANCH   1   2
ATOM      2  O   UNL A   1      34.717  31.738  27.653  1.00  0.00    -0.376 OA
BRANCH   2   3
ATOM      3  C   UNL A   1      33.448  31.141  27.467  1.00  0.00     0.202 C 
BRANCH   3   4
ATOM      4  C   UNL A   1      33.513  29.633  27.214  1.00  0.00     0.261 C 
BRANCH   4   5
ATOM      5  O   UNL A   1      32.265  29.074  26.759  1.00  0.00    -0.463 OA
BRANCH   5   6
ATOM      6  C   UNL A   1      32.363  27.949  26.004  1.00  0.00     0.311 C 
ATOM      7  O   UNL A   1      33.240  27.107  26.146  1.00  0.00    -0.252 OA
BRANCH   6   8
ATOM      8  C   UNL A   1      31.213  27.879  25.001  1.00  0.00     0.123 C 
ATOM      9  C   UNL A   1      29.799  26.088  23.859  1.00  0.00     0.032 C 
ATOM     10  C   UNL A   1      31.197  26.510  24.305  1.00  0.00     0.096 C 
ATOM     11  N   UNL A   1      32.133  26.653  23.184  1.00  0.00    -0.339 N 
ATOM     12  C   UNL A   1      31.438  28.835  23.847  1.00  0.00     0.039 C 
ATOM     13  C   UNL A   1      32.409  28.068  22.955  1.00  0.00     0.121 C 
BRANCH  11  14
ATOM     14  C   UNL A   1      32.982  25.713  22.610  1.00  0.00     0.223 C 
ATOM     15  O   UNL A   1      33.756  26.051  21.706  1.00  0.00    -0.275 OA
BRANCH  14  16
ATOM     16  C   UNL A   1      32.896  24.229  22.983  1.00  0.00     0.106 C 
BRANCH  16  17
ATOM     17  C   UNL A   1      34.215  23.431  22.993  1.00  0.00     0.075 C 
BRANCH  17  18
ATOM     18  C   UNL A   1      34.332  22.621  24.279  1.00  0.00     0.182 C 
ATOM     19  C   UNL A   1      33.012  22.508  25.046  1.00  0.00     0.065 C 
ATOM     20  N   UNL A   1      35.410  22.966  25.200  1.00  0.00    -0.344 N 
ATOM     21  C   UNL A   1      33.126  21.497  26.185  1.00  0.00     0.012 C 
ATOM     22  C   UNL A   1      35.610  21.809  26.084  1.00  0.00     0.260 C 
ATOM     23  H   UNL A   1      35.151  23.785  25.750  1.00  0.00     0.346 HD
ATOM     24  H   UNL A   1      36.265  23.185  24.691  1.00  0.00     0.346 HD
ATOM     25  C   UNL A   1      34.399  21.666  27.002  1.00  0.00     0.062 C 
ENDBRANCH  17  18
ENDBRANCH  16  17
ENDBRANCH  14  16
ENDBRANCH  11  14
ENDBRANCH   6   8
ENDBRANCH   5   6
ENDBRANCH   4   5
ENDBRANCH   3   4
ENDBRANCH   2   3
ENDBRANCH   1   2
BRANCH   1  26
ATOM     26  C   UNL A   1      35.704  33.679  28.825  1.00  0.00     0.188 C 
BRANCH  26  27
ATOM     27  O   UNL A   1      34.963  34.887  28.929  1.00  0.00    -0.376 OA
BRANCH  27  28
ATOM     28  C   UNL A   1      33.546  34.852  28.867  1.00  0.00     0.202 C 
BRANCH  28  29
ATOM     29  C   UNL A   1      32.749  35.972  29.550  1.00  0.00     0.261 C 
BRANCH  29  30
ATOM     30  O   UNL A   1      33.225  36.417  30.836  1.00  0.00    -0.460 OA
BRANCH  30  31
ATOM     31  C   UNL A   1      32.826  35.667  31.896  1.00  0.00     0.338 C 
ATOM     32  O   UNL A   1      31.672  35.446  32.227  1.00  0.00    -0.246 OA
BRANCH  31  33
ATOM     33  C   UNL A   1      33.979  35.032  32.585  1.00  0.00     0.060 A 
ATOM     34  C   UNL A   1      35.240  35.626  32.456  1.00  0.00     0.016 A 
ATOM     35  C   UNL A   1      33.862  33.799  33.236  1.00  0.00     0.016 A 
ATOM     36  C   UNL A   1      36.381  34.976  32.952  1.00  0.00     0.010 A 
ATOM     37  C   UNL A   1      35.012  33.144  33.720  1.00  0.00     0.010 A 
ATOM     38  C   UNL A   1      36.286  33.713  33.568  1.00  0.00    -0.014 A 
BRANCH  38  39
ATOM     39  C   UNL A   1      37.534  32.944  33.881  1.00  0.00     0.031 A 
ATOM     40  C   UNL A   1      38.222  33.193  35.192  1.00  0.00     0.074 A 
ATOM     41  C   UNL A   1      38.053  32.015  33.052  1.00  0.00     0.049 A 
ATOM     42  N   UNL A   1      39.306  32.643  35.671  1.00  0.00    -0.248 NA
ATOM     43  C   UNL A   1      37.644  34.243  36.042  1.00  0.00     0.031 C 
ATOM     44  C   UNL A   1      37.566  31.742  31.714  1.00  0.00     0.029 A 
ATOM     45  N   UNL A   1      39.063  31.093  33.214  1.00  0.00    -0.354 N 
ATOM     46  C   UNL A   1      39.570  33.306  36.863  1.00  0.00     0.074 A 
ATOM     47  C   UNL A   1      38.523  34.295  37.030  1.00  0.00     0.031 C 
ATOM     48  C   UNL A   1      38.120  30.612  31.251  1.00  0.00     0.029 A 
ATOM     49  C   UNL A   1      39.157  30.180  32.179  1.00  0.00     0.049 A 
ATOM     50  H   UNL A   1      39.664  31.085  33.994  1.00  0.00     0.167 HD
ATOM     51  C   UNL A   1      40.608  33.129  37.716  1.00  0.00     0.034 A 
ATOM     52  C   UNL A   1      40.007  29.148  31.973  1.00  0.00     0.034 A 
ATOM     53  C   UNL A   1      41.671  32.174  37.513  1.00  0.00     0.049 A 
ATOM     54  C   UNL A   1      41.155  28.977  32.942  1.00  0.00     0.074 A 
ATOM     55  C   UNL A   1      42.782  31.944  38.306  1.00  0.00     0.029 A 
ATOM     56  N   UNL A   1      41.766  31.298  36.439  1.00  0.00    -0.354 N 
ATOM     57  N   UNL A   1      41.404  29.632  34.053  1.00  0.00    -0.248 NA
ATOM     58  C   UNL A   1      42.171  27.971  32.600  1.00  0.00     0.031 C 
ATOM     59  C   UNL A   1      43.579  30.978  37.680  1.00  0.00     0.029 A 
ATOM     60  C   UNL A   1      42.925  30.541  36.541  1.00  0.00     0.049 A 
ATOM     61  H   UNL A   1      41.107  31.224  35.711  1.00  0.00     0.167 HD
ATOM     62  C   UNL A   1      42.606  29.121  34.533  1.00  0.00     0.074 A 
ATOM     63  C   UNL A   1      43.007  28.071  33.622  1.00  0.00     0.031 C 
ATOM     64  C   UNL A   1      43.324  29.501  35.622  1.00  0.00     0.034 A 
BRANCH  51  65
ATOM     65  C   UNL A   1      40.676  34.057  38.902  1.00  0.00     0.023 A 
ATOM     66  C   UNL A   1      39.839  33.883  40.018  1.00  0.00     0.031 A 
ATOM     67  C   UNL A   1      41.546  35.161  38.894  1.00  0.00     0.131 A 
ATOM     68  C   UNL A   1      39.835  34.841  41.041  1.00  0.00     0.055 A 
ATOM     69  C   UNL A   1      41.599  36.062  39.957  1.00  0.00     0.041 A 
ATOM     70  F   UNL A   1      42.346  35.393  37.842  1.00  0.00    -0.206 F 
ATOM     71  C   UNL A   1      40.728  35.915  41.032  1.00  0.00     0.022 A 
BRANCH  68  72
ATOM     72  S   UNL A   1      38.534  34.748  42.300  1.00  0.00     0.124 S 
ATOM     73  O   UNL A   1      38.771  33.423  42.869  1.00  0.00    -0.237 OA
ATOM     74  O   UNL A   1      38.848  35.880  43.164  1.00  0.00    -0.237 OA
ATOM     75  O   UNL A   1      37.300  34.875  41.528  1.00  0.00    -0.744 OA
ENDBRANCH  68  72
ENDBRANCH  51  65
BRANCH  52  76
ATOM     76  C   UNL A   1      39.906  28.258  30.768  1.00  0.00     0.023 A 
ATOM     77  C   UNL A   1      40.596  28.564  29.579  1.00  0.00     0.031 A 
ATOM     78  C   UNL A   1      39.046  27.145  30.743  1.00  0.00     0.131 A 
ATOM     79  C   UNL A   1      40.377  27.803  28.416  1.00  0.00     0.055 A 
ATOM     80  C   UNL A   1      38.900  26.339  29.613  1.00  0.00     0.041 A 
ATOM     81  F   UNL A   1      38.318  26.822  31.825  1.00  0.00    -0.206 F 
ATOM     82  C   UNL A   1      39.555  26.676  28.434  1.00  0.00     0.022 A 
BRANCH  79  83
ATOM     83  S   UNL A   1      41.070  28.384  26.841  1.00  0.00     0.124 S 
ATOM     84  O   UNL A   1      40.023  29.287  26.374  1.00  0.00    -0.237 OA
ATOM     85  O   UNL A   1      42.315  29.013  27.268  1.00  0.00    -0.237 OA
ATOM     86  O   UNL A   1      41.226  27.157  26.063  1.00  0.00    -0.744 OA
ENDBRANCH  79  83
ENDBRANCH  52  76
BRANCH  64  87
ATOM     87  C   UNL A   1      44.595  28.738  35.906  1.00  0.00     0.023 A 
ATOM     88  C   UNL A   1      44.609  27.584  36.713  1.00  0.00     0.031 A 
ATOM     89  C   UNL A   1      45.816  29.183  35.371  1.00  0.00     0.131 A 
ATOM     90  C   UNL A   1      45.827  26.949  37.003  1.00  0.00     0.055 A 
ATOM     91  C   UNL A   1      47.014  28.512  35.613  1.00  0.00     0.041 A 
ATOM     92  F   UNL A   1      45.863  30.281  34.599  1.00  0.00    -0.206 F 
ATOM     93  C   UNL A   1      47.027  27.396  36.443  1.00  0.00     0.022 A 
BRANCH  90  94
ATOM     94  S   UNL A   1      45.839  25.584  38.198  1.00  0.00     0.124 S 
ATOM     95  O   UNL A   1      45.964  24.419  37.328  1.00  0.00    -0.237 OA
ATOM     96  O   UNL A   1      47.006  25.896  39.016  1.00  0.00    -0.237 OA
ATOM     97  O   UNL A   1      44.552  25.713  38.880  1.00  0.00    -0.744 OA
ENDBRANCH  90  94
ENDBRANCH  64  87
ENDBRANCH  38  39
ENDBRANCH  31  33
ENDBRANCH  30  31
ENDBRANCH  29  30
ENDBRANCH  28  29
ENDBRANCH  27  28
ENDBRANCH  26  27
ENDBRANCH   1  26
TORSDOF 24
ENDMDL
MODEL 2
REMARK VINA RESULT:      -9.0      4.044      9.953
REMARK SMILES C[C@@H]1[C@@H](C(=O)OCCOCCOCCOC(=O)c2ccc(-c3c4nc(c(-c5cc(S(=O)(=O)[O-])ccc5F)c5ccc([nH]5)c(-c5cc(S(=O)(=O)[O-])ccc5F)c5nc(c(-c6cc(S(=O)(=O)[O-])ccc6F)c6ccc3[nH]6)C=C5)C=C4)cc2)CCN1C(=O)CC[C@@H]1CCCC[NH2+]1
REMARK SMILES IDX 10 1 9 2 8 3 7 4 6 5 4 6 5 7 3 8 1 9 2 10 83 11 81 12 82 13
REMARK SMILES IDX 84 14 85 15 86 16 87 17 88 18 89 19 93 20 90 21 92 22 91 25
REMARK SMILES IDX 11 26 12 27 13 28 14 29 15 30 16 31 17 32 18 33 19 34 80 35
REMARK SMILES IDX 20 36 79 37 21 38 22 39 23 40 73 41 24 42 78 43 72 44 74 45
REMARK SMILES IDX 25 46 77 47 71 48 70 49 26 51 58 52 38 53 57 54 39 55 42 56
REMARK SMILES IDX 56 57 75 58 40 59 41 60 55 62 76 63 43 64 27 65 28 66 36 67
REMARK SMILES IDX 29 68 35 69 37 70 34 71 30 72 31 73 32 74 33 75 59 76 60 77
REMARK SMILES IDX 68 78 61 79 67 80 69 81 66 82 62 83 63 84 64 85 65 86 44 87
REMARK SMILES IDX 45 88 53 89 46 90 52 91 54 92 51 93 47 94 48 95 49 96 50 97
REMARK H PARENT 93 23 93 24 74 50 42 61
REMARK Flexibility Score: inf
ROOT
ATOM      1  C   UNL A   1      41.115  19.172  26.123  1.00  0.00     0.188 C 
ENDROOT
BRANCH   1   2
ATOM      2  O   UNL A   1      40.036  20.044  25.835  1.00  0.00    -0.376 OA
BRANCH   2   3
ATOM      3  C   UNL A   1      40.052  21.329  26.431  1.00  0.00     0.202 C 
BRANCH   3   4
ATOM      4  C   UNL A   1      38.802  22.158  26.127  1.00  0.00     0.261 C 
BRANCH   4   5
ATOM      5  O   UNL A   1      38.048  21.666  25.002  1.00  0.00    -0.463 OA
BRANCH   5   6
ATOM      6  C   UNL A   1      36.753  21.341  25.256  1.00  0.00     0.311 C 
ATOM      7  O   UNL A   1      36.263  20.249  25.003  1.00  0.00    -0.252 OA
BRANCH   6   8
ATOM      8  C   UNL A   1      36.034  22.509  25.928  1.00  0.00     0.123 C 
ATOM      9  C   UNL A   1      34.007  22.873  27.435  1.00  0.00     0.032 C 
ATOM     10  C   UNL A   1      34.574  22.133  26.226  1.00  0.00     0.096 C 
ATOM     11  N   UNL A   1      33.853  22.436  24.984  1.00  0.00    -0.339 N 
ATOM     12  C   UNL A   1      35.887  23.679  24.976  1.00  0.00     0.039 C 
ATOM     13  C   UNL A   1      34.683  23.279  24.129  1.00  0.00     0.121 C 
BRANCH  11  14
ATOM     14  C   UNL A   1      32.755  21.797  24.418  1.00  0.00     0.223 C 
ATOM     15  O   UNL A   1      31.936  22.448  23.756  1.00  0.00    -0.275 OA
BRANCH  14  16
ATOM     16  C   UNL A   1      32.459  20.320  24.698  1.00  0.00     0.106 C 
BRANCH  16  17
ATOM     17  C   UNL A   1      33.159  19.282  23.799  1.00  0.00     0.075 C 
BRANCH  17  18
ATOM     18  C   UNL A   1      33.323  17.962  24.546  1.00  0.00     0.182 C 
ATOM     19  C   UNL A   1      34.527  17.145  24.074  1.00  0.00     0.065 C 
ATOM     20  N   UNL A   1      32.152  17.098  24.655  1.00  0.00    -0.344 N 
ATOM     21  C   UNL A   1      34.784  15.962  25.006  1.00  0.00     0.012 C 
ATOM     22  C   UNL A   1      32.404  16.166  25.763  1.00  0.00     0.260 C 
ATOM     23  H   UNL A   1      32.017  16.580  23.786  1.00  0.00     0.346 HD
ATOM     24  H   UNL A   1      31.310  17.647  24.828  1.00  0.00     0.346 HD
ATOM     25  C   UNL A   1      33.515  15.200  25.360  1.00  0.00     0.062 C 
ENDBRANCH  17  18
ENDBRANCH  16  17
ENDBRANCH  14  16
ENDBRANCH  11  14
ENDBRANCH   6   8
ENDBRANCH   5   6
ENDBRANCH   4   5
ENDBRANCH   3   4
ENDBRANCH   2   3
ENDBRANCH   1   2
BRANCH   1  26
ATOM     26  C   UNL A   1      42.486  19.866  26.117  1.00  0.00     0.188 C 
BRANCH  26  27
ATOM     27  O   UNL A   1      43.358  19.725  25.005  1.00  0.00    -0.376 OA
BRANCH  27  28
ATOM     28  C   UNL A   1      44.703  20.167  25.102  1.00  0.00     0.202 C 
BRANCH  28  29
ATOM     29  C   UNL A   1      45.013  21.649  24.850  1.00  0.00     0.261 C 
BRANCH  29  30
ATOM     30  O   UNL A   1      44.563  22.587  25.849  1.00  0.00    -0.460 OA
BRANCH  30  31
ATOM     31  C   UNL A   1      43.410  23.242  25.553  1.00  0.00     0.338 C 
ATOM     32  O   UNL A   1      42.658  22.991  24.625  1.00  0.00    -0.246 OA
BRANCH  31  33
ATOM     33  C   UNL A   1      43.089  24.275  26.571  1.00  0.00     0.060 A 
ATOM     34  C   UNL A   1      43.791  25.486  26.535  1.00  0.00     0.016 A 
ATOM     35  C   UNL A   1      42.213  24.019  27.631  1.00  0.00     0.016 A 
ATOM     36  C   UNL A   1      43.638  26.423  27.569  1.00  0.00     0.010 A 
ATOM     37  C   UNL A   1      42.073  24.956  28.675  1.00  0.00     0.010 A 
ATOM     38  C   UNL A   1      42.796  26.159  28.667  1.00  0.00    -0.014 A 
BRANCH  38  39
ATOM     39  C   UNL A   1      42.825  27.068  29.859  1.00  0.00     0.031 A 
ATOM     40  C   UNL A   1      43.802  26.776  30.961  1.00  0.00     0.074 A 
ATOM     41  C   UNL A   1      42.036  28.156  29.974  1.00  0.00     0.049 A 
ATOM     42  N   UNL A   1      44.004  27.427  32.076  1.00  0.00    -0.248 NA
ATOM     43  C   UNL A   1      44.611  25.559  30.810  1.00  0.00     0.031 C 
ATOM     44  C   UNL A   1      40.976  28.505  29.049  1.00  0.00     0.029 A 
ATOM     45  N   UNL A   1      42.021  29.196  30.876  1.00  0.00    -0.354 N 
ATOM     46  C   UNL A   1      44.933  26.677  32.787  1.00  0.00     0.074 A 
ATOM     47  C   UNL A   1      45.256  25.528  31.965  1.00  0.00     0.031 C 
ATOM     48  C   UNL A   1      40.550  29.752  29.296  1.00  0.00     0.029 A 
ATOM     49  C   UNL A   1      41.167  30.227  30.527  1.00  0.00     0.049 A 
ATOM     50  H   UNL A   1      42.568  29.205  31.695  1.00  0.00     0.167 HD
ATOM     51  C   UNL A   1      45.439  26.910  34.022  1.00  0.00     0.034 A 
ATOM     52  C   UNL A   1      40.876  31.393  31.147  1.00  0.00     0.034 A 
ATOM     53  C   UNL A   1      45.072  28.034  34.850  1.00  0.00     0.049 A 
ATOM     54  C   UNL A   1      41.456  31.624  32.523  1.00  0.00     0.074 A 
ATOM     55  C   UNL A   1      45.508  28.337  36.129  1.00  0.00     0.029 A 
ATOM     56  N   UNL A   1      44.176  29.033  34.493  1.00  0.00    -0.354 N 
ATOM     57  N   UNL A   1      42.316  30.890  33.192  1.00  0.00    -0.248 NA
ATOM     58  C   UNL A   1      40.981  32.806  33.257  1.00  0.00     0.031 C 
ATOM     59  C   UNL A   1      44.829  29.479  36.568  1.00  0.00     0.029 A 
ATOM     60  C   UNL A   1      44.033  29.941  35.534  1.00  0.00     0.049 A 
ATOM     61  H   UNL A   1      43.709  29.089  33.628  1.00  0.00     0.167 HD
ATOM     62  C   UNL A   1      42.476  31.519  34.423  1.00  0.00     0.074 A 
ATOM     63  C   UNL A   1      41.664  32.716  34.388  1.00  0.00     0.031 C 
ATOM     64  C   UNL A   1      43.213  31.130  35.494  1.00  0.00     0.034 A 
BRANCH  51  65
ATOM     65  C   UNL A   1      46.383  25.872  34.573  1.00  0.00     0.023 A 
ATOM     66  C   UNL A   1      47.754  25.890  34.265  1.00  0.00     0.031 A 
ATOM     67  C   UNL A   1      45.897  24.821  35.371  1.00  0.00     0.131 A 
ATOM     68  C   UNL A   1      48.575  24.834  34.685  1.00  0.00     0.055 A 
ATOM     69  C   UNL A   1      46.738  23.821  35.859  1.00  0.00     0.041 A 
ATOM     70  F   UNL A   1      44.592  24.738  35.672  1.00  0.00    -0.206 F 
ATOM     71  C   UNL A   1      48.083  23.814  35.503  1.00  0.00     0.022 A 
BRANCH  68  72
ATOM     72  S   UNL A   1      50.255  24.732  34.012  1.00  0.00     0.124 S 
ATOM     73  O   UNL A   1      50.855  23.715  34.873  1.00  0.00    -0.237 OA
ATOM     74  O   UNL A   1      50.019  24.338  32.628  1.00  0.00    -0.237 OA
ATOM     75  O   UNL A   1      50.780  26.083  34.197  1.00  0.00    -0.744 OA
ENDBRANCH  68  72
ENDBRANCH  51  65
BRANCH  52  76
ATOM     76  C   UNL A   1      39.919  32.391  30.561  1.00  0.00     0.023 A 
ATOM     77  C   UNL A   1      38.541  32.112  30.474  1.00  0.00     0.031 A 
ATOM     78  C   UNL A   1      40.368  33.595  29.988  1.00  0.00     0.131 A 
ATOM     79  C   UNL A   1      37.682  32.993  29.792  1.00  0.00     0.055 A 
ATOM     80  C   UNL A   1      39.497  34.508  29.392  1.00  0.00     0.041 A 
ATOM     81  F   UNL A   1      41.675  33.904  29.989  1.00  0.00    -0.206 F 
ATOM     82  C   UNL A   1      38.147  34.203  29.276  1.00  0.00     0.022 A 
BRANCH  79  83
ATOM     83  S   UNL A   1      35.971  32.475  29.466  1.00  0.00     0.124 S 
ATOM     84  O   UNL A   1      35.894  31.224  30.212  1.00  0.00    -0.237 OA
ATOM     85  O   UNL A   1      35.205  33.593  30.007  1.00  0.00    -0.237 OA
ATOM     86  O   UNL A   1      35.928  32.337  28.012  1.00  0.00    -0.744 OA
ENDBRANCH  79  83
ENDBRANCH  52  76
BRANCH  64  87
ATOM     87  C   UNL A   1      43.208  32.039  36.699  1.00  0.00     0.023 A 
ATOM     88  C   UNL A   1      42.278  31.889  37.745  1.00  0.00     0.031 A 
ATOM     89  C   UNL A   1      44.143  33.085  36.793  1.00  0.00     0.131 A 
ATOM     90  C   UNL A   1      42.271  32.802  38.810  1.00  0.00     0.055 A 
ATOM     91  C   UNL A   1      44.171  33.952  37.885  1.00  0.00     0.041 A 
ATOM     92  F   UNL A   1      45.051  33.278  35.823  1.00  0.00    -0.206 F 
ATOM     93  C   UNL A   1      43.223  33.822  38.896  1.00  0.00     0.022 A 
BRANCH  90  94
ATOM     94  S   UNL A   1      40.942  32.701  40.042  1.00  0.00     0.124 S 
ATOM     95  O   UNL A   1      41.378  31.579  40.868  1.00  0.00    -0.237 OA
ATOM     96  O   UNL A   1      40.997  34.015  40.671  1.00  0.00    -0.237 OA
ATOM     97  O   UNL A   1      39.747  32.449  39.237  1.00  0.00    -0.744 OA
ENDBRANCH  90  94
ENDBRANCH  64  87
ENDBRANCH  38  39
ENDBRANCH  31  33
ENDBRANCH  30  31
ENDBRANCH  29  30
ENDBRANCH  28  29
ENDBRANCH  27  28
ENDBRANCH  26  27
ENDBRANCH   1  26
TORSDOF 24
ENDMDL
MODEL 3
REMARK VINA RESULT:      -8.9      2.021      2.360
REMARK SMILES C[C@@H]1[C@@H](C(=O)OCCOCCOCCOC(=O)c2ccc(-c3c4nc(c(-c5cc(S(=O)(=O)[O-])ccc5F)c5ccc([nH]5)c(-c5cc(S(=O)(=O)[O-])ccc5F)c5nc(c(-c6cc(S(=O)(=O)[O-])ccc6F)c6ccc3[nH]6)C=C5)C=C4)cc2)CCN1C(=O)CC[C@@H]1CCCC[NH2+]1
REMARK SMILES IDX 10 1 9 2 8 3 7 4 6 5 4 6 5 7 3 8 1 9 2 10 83 11 81 12 82 13
REMARK SMILES IDX 84 14 85 15 86 16 87 17 88 18 89 19 93 20 90 21 92 22 91 25
REMARK SMILES IDX 11 26 12 27 13 28 14 29 15 30 16 31 17 32 18 33 19 34 80 35
REMARK SMILES IDX 20 36 79 37 21 38 22 39 23 40 73 41 24 42 78 43 72 44 74 45
REMARK SMILES IDX 25 46 77 47 71 48 70 49 26 51 58 52 38 53 57 54 39 55 42 56
REMARK SMILES IDX 56 57 75 58 40 59 41 60 55 62 76 63 43 64 27 65 28 66 36 67
REMARK SMILES IDX 29 68 35 69 37 70 34 71 30 72 31 73 32 74 33 75 59 76 60 77
REMARK SMILES IDX 68 78 61 79 67 80 69 81 66 82 62 83 63 84 64 85 65 86 44 87
REMARK SMILES IDX 45 88 53 89 46 90 52 91 54 92 51 93 47 94 48 95 49 96 50 97
REMARK H PARENT 93 23 93 24 74 50 42 61
REMARK Flexibility Score: inf
ROOT
ATOM      1  C   UNL A   1      35.244  30.590  28.068  1.00  0.00     0.188 C 
ENDROOT
BRANCH   1   2
ATOM      2  O   UNL A   1      34.764  29.989  26.879  1.00  0.00    -0.376 OA
BRANCH   2   3
ATOM      3  C   UNL A   1      33.373  29.743  26.781  1.00  0.00     0.202 C 
BRANCH   3   4
ATOM      4  C   UNL A   1      32.875  28.663  27.744  1.00  0.00     0.261 C 
BRANCH   4   5
ATOM      5  O   UNL A   1      31.777  27.891  27.219  1.00  0.00    -0.463 OA
BRANCH   5   6
ATOM      6  C   UNL A   1      32.090  27.027  26.218  1.00  0.00     0.311 C 
ATOM      7  O   UNL A   1      33.094  26.326  26.212  1.00  0.00    -0.252 OA
BRANCH   6   8
ATOM      8  C   UNL A   1      31.000  27.035  25.147  1.00  0.00     0.123 C 
ATOM      9  C   UNL A   1      29.874  25.370  23.575  1.00  0.00     0.032 C 
ATOM     10  C   UNL A   1      31.187  25.848  24.190  1.00  0.00     0.096 C 
ATOM     11  N   UNL A   1      32.143  26.330  23.185  1.00  0.00    -0.339 N 
ATOM     12  C   UNL A   1      31.150  28.230  24.227  1.00  0.00     0.039 C 
ATOM     13  C   UNL A   1      32.248  27.783  23.266  1.00  0.00     0.121 C 
BRANCH  11  14
ATOM     14  C   UNL A   1      33.128  25.633  22.492  1.00  0.00     0.223 C 
ATOM     15  O   UNL A   1      33.776  26.201  21.604  1.00  0.00    -0.275 OA
BRANCH  14  16
ATOM     16  C   UNL A   1      33.348  24.132  22.712  1.00  0.00     0.106 C 
BRANCH  16  17
ATOM     17  C   UNL A   1      34.763  23.685  23.128  1.00  0.00     0.075 C 
BRANCH  17  18
ATOM     18  C   UNL A   1      34.747  23.141  24.552  1.00  0.00     0.182 C 
ATOM     19  C   UNL A   1      35.349  21.739  24.672  1.00  0.00     0.065 C 
ATOM     20  N   UNL A   1      33.486  23.201  25.285  1.00  0.00    -0.344 N 
ATOM     21  C   UNL A   1      35.528  21.344  26.136  1.00  0.00     0.012 C 
ATOM     22  C   UNL A   1      33.809  23.074  26.712  1.00  0.00     0.260 C 
ATOM     23  H   UNL A   1      32.876  22.437  24.995  1.00  0.00     0.346 HD
ATOM     24  H   UNL A   1      33.001  24.078  25.100  1.00  0.00     0.346 HD
ATOM     25  C   UNL A   1      34.306  21.657  26.989  1.00  0.00     0.062 C 
ENDBRANCH  17  18
ENDBRANCH  16  17
ENDBRANCH  14  16
ENDBRANCH  11  14
ENDBRANCH   6   8
ENDBRANCH   5   6
ENDBRANCH   4   5
ENDBRANCH   3   4
ENDBRANCH   2   3
ENDBRANCH   1   2
BRANCH   1  26
ATOM     26  C   UNL A   1      35.780  32.017  27.864  1.00  0.00     0.188 C 
BRANCH  26  27
ATOM     27  O   UNL A   1      35.132  33.123  28.476  1.00  0.00    -0.376 OA
BRANCH  27  28
ATOM     28  C   UNL A   1      33.805  33.458  28.101  1.00  0.00     0.202 C 
BRANCH  28  29
ATOM     29  C   UNL A   1      33.149  34.693  28.734  1.00  0.00     0.261 C 
BRANCH  29  30
ATOM     30  O   UNL A   1      33.900  35.376  29.758  1.00  0.00    -0.460 OA
BRANCH  30  31
ATOM     31  C   UNL A   1      33.616  35.005  31.034  1.00  0.00     0.338 C 
ATOM     32  O   UNL A   1      32.546  35.149  31.602  1.00  0.00    -0.246 OA
BRANCH  31  33
ATOM     33  C   UNL A   1      34.754  34.286  31.662  1.00  0.00     0.060 A 
ATOM     34  C   UNL A   1      35.971  34.963  31.806  1.00  0.00     0.016 A 
ATOM     35  C   UNL A   1      34.680  32.927  31.985  1.00  0.00     0.016 A 
ATOM     36  C   UNL A   1      37.114  34.277  32.244  1.00  0.00     0.010 A 
ATOM     37  C   UNL A   1      35.833  32.238  32.412  1.00  0.00     0.010 A 
ATOM     38  C   UNL A   1      37.067  32.898  32.528  1.00  0.00    -0.014 A 
BRANCH  38  39
ATOM     39  C   UNL A   1      38.341  32.147  32.771  1.00  0.00     0.031 A 
ATOM     40  C   UNL A   1      39.043  32.329  34.085  1.00  0.00     0.074 A 
ATOM     41  C   UNL A   1      38.872  31.288  31.875  1.00  0.00     0.049 A 
ATOM     42  N   UNL A   1      40.150  31.780  34.512  1.00  0.00    -0.248 NA
ATOM     43  C   UNL A   1      38.450  33.304  35.011  1.00  0.00     0.031 C 
ATOM     44  C   UNL A   1      38.371  31.090  30.530  1.00  0.00     0.029 A 
ATOM     45  N   UNL A   1      39.910  30.388  31.961  1.00  0.00    -0.354 N 
ATOM     46  C   UNL A   1      40.415  32.371  35.740  1.00  0.00     0.074 A 
ATOM     47  C   UNL A   1      39.344  33.316  35.987  1.00  0.00     0.031 C 
ATOM     48  C   UNL A   1      38.949  30.009  29.985  1.00  0.00     0.029 A 
ATOM     49  C   UNL A   1      40.013  29.548  30.867  1.00  0.00     0.049 A 
ATOM     50  H   UNL A   1      40.523  30.346  32.731  1.00  0.00     0.167 HD
ATOM     51  C   UNL A   1      41.472  32.169  36.564  1.00  0.00     0.034 A 
ATOM     52  C   UNL A   1      40.888  28.556  30.582  1.00  0.00     0.034 A 
ATOM     53  C   UNL A   1      42.557  31.260  36.284  1.00  0.00     0.049 A 
ATOM     54  C   UNL A   1      42.055  28.355  31.520  1.00  0.00     0.074 A 
ATOM     55  C   UNL A   1      43.687  31.011  37.044  1.00  0.00     0.029 A 
ATOM     56  N   UNL A   1      42.659  30.459  35.153  1.00  0.00    -0.354 N 
ATOM     57  N   UNL A   1      42.304  28.943  32.668  1.00  0.00    -0.248 NA
ATOM     58  C   UNL A   1      43.093  27.403  31.098  1.00  0.00     0.031 C 
ATOM     59  C   UNL A   1      44.500  30.112  36.344  1.00  0.00     0.029 A 
ATOM     60  C   UNL A   1      43.840  29.731  35.188  1.00  0.00     0.049 A 
ATOM     61  H   UNL A   1      41.990  30.414  34.432  1.00  0.00     0.167 HD
ATOM     62  C   UNL A   1      43.528  28.437  33.096  1.00  0.00     0.074 A 
ATOM     63  C   UNL A   1      43.943  27.461  32.112  1.00  0.00     0.031 C 
ATOM     64  C   UNL A   1      44.252  28.765  34.197  1.00  0.00     0.034 A 
BRANCH  51  65
ATOM     65  C   UNL A   1      41.533  33.019  37.808  1.00  0.00     0.023 A 
ATOM     66  C   UNL A   1      40.825  32.669  38.971  1.00  0.00     0.031 A 
ATOM     67  C   UNL A   1      42.260  34.222  37.813  1.00  0.00     0.131 A 
ATOM     68  C   UNL A   1      40.797  33.551  40.061  1.00  0.00     0.055 A 
ATOM     69  C   UNL A   1      42.300  35.051  38.934  1.00  0.00     0.041 A 
ATOM     70  F   UNL A   1      42.930  34.621  36.721  1.00  0.00    -0.206 F 
ATOM     71  C   UNL A   1      41.551  34.726  40.061  1.00  0.00     0.022 A 
BRANCH  68  72
ATOM     72  S   UNL A   1      39.634  33.213  41.409  1.00  0.00     0.124 S 
ATOM     73  O   UNL A   1      39.653  31.752  41.454  1.00  0.00    -0.237 OA
ATOM     74  O   UNL A   1      40.254  33.894  42.540  1.00  0.00    -0.237 OA
ATOM     75  O   UNL A   1      38.382  33.798  40.936  1.00  0.00    -0.744 OA
ENDBRANCH  68  72
ENDBRANCH  51  65
BRANCH  52  76
ATOM     76  C   UNL A   1      40.792  27.744  29.322  1.00  0.00     0.023 A 
ATOM     77  C   UNL A   1      41.688  27.949  28.256  1.00  0.00     0.031 A 
ATOM     78  C   UNL A   1      39.749  26.823  29.117  1.00  0.00     0.131 A 
ATOM     79  C   UNL A   1      41.496  27.285  27.030  1.00  0.00     0.055 A 
ATOM     80  C   UNL A   1      39.615  26.100  27.930  1.00  0.00     0.041 A 
ATOM     81  F   UNL A   1      38.827  26.613  30.071  1.00  0.00    -0.206 F 
ATOM     82  C   UNL A   1      40.481  26.341  26.871  1.00  0.00     0.022 A 
BRANCH  79  83
ATOM     83  S   UNL A   1      42.502  27.772  25.599  1.00  0.00     0.124 S 
ATOM     84  O   UNL A   1      42.539  26.534  24.829  1.00  0.00    -0.237 OA
ATOM     85  O   UNL A   1      41.715  28.860  25.027  1.00  0.00    -0.237 OA
ATOM     86  O   UNL A   1      43.775  28.172  26.196  1.00  0.00    -0.744 OA
ENDBRANCH  79  83
ENDBRANCH  52  76
BRANCH  64  87
ATOM     87  C   UNL A   1      45.549  28.022  34.412  1.00  0.00     0.023 A 
ATOM     88  C   UNL A   1      46.771  28.486  33.891  1.00  0.00     0.031 A 
ATOM     89  C   UNL A   1      45.556  26.820  35.141  1.00  0.00     0.131 A 
ATOM     90  C   UNL A   1      47.937  27.725  34.061  1.00  0.00     0.055 A 
ATOM     91  C   UNL A   1      46.730  26.099  35.359  1.00  0.00     0.041 A 
ATOM     92  F   UNL A   1      44.419  26.327  35.657  1.00  0.00    -0.206 F 
ATOM     93  C   UNL A   1      47.928  26.542  34.807  1.00  0.00     0.022 A 
BRANCH  90  94
ATOM     94  S   UNL A   1      49.456  28.247  33.216  1.00  0.00     0.124 S 
ATOM     95  O   UNL A   1      50.004  26.974  32.761  1.00  0.00    -0.237 OA
ATOM     96  O   UNL A   1      48.945  29.131  32.174  1.00  0.00    -0.237 OA
ATOM     97  O   UNL A   1      50.223  28.911  34.268  1.00  0.00    -0.744 OA
ENDBRANCH  90  94
ENDBRANCH  64  87
ENDBRANCH  38  39
ENDBRANCH  31  33
ENDBRANCH  30  31
ENDBRANCH  29  30
ENDBRANCH  28  29
ENDBRANCH  27  28
ENDBRANCH  26  27
ENDBRANCH   1  26
TORSDOF 24
ENDMDL
