MODEL 1
REMARK VINA RESULT:     -10.9      0.000      0.000
REMARK SMILES Nc1c(Cl)ccc2c1C=C(C(=O)OCCOCCOCCOC(=O)c1ccc(-c3c4nc(c(-c5cc(S(=O)(=O)[O-])ccc5F)c5ccc([nH]5)c(-c5cc(S(=O)(=O)[O-])ccc5F)c5nc(c(-c6cc(S(=O)(=O)[O-])ccc6F)c6ccc3[nH]6)C=C5)C=C4)cc1)[C@@H](C(F)(F)F)O2
REMARK SMILES IDX 18 1 17 2 16 3 15 4 14 5 13 6 11 7 12 8 10 9 2 10 3 11 8 12
REMARK SMILES IDX 4 13 5 14 7 15 9 16 6 17 93 18 88 19 1 20 89 23 90 24 91 25
REMARK SMILES IDX 92 26 19 27 20 28 21 29 22 30 23 31 24 32 25 33 26 34 87 35
REMARK SMILES IDX 27 36 86 37 28 38 29 39 30 40 80 41 31 42 85 43 79 44 81 45
REMARK SMILES IDX 32 46 84 47 78 48 77 49 33 51 65 52 45 53 64 54 46 55 49 56
REMARK SMILES IDX 63 57 82 58 47 59 48 60 62 62 83 63 50 64 34 65 35 66 43 67
REMARK SMILES IDX 36 68 42 69 44 70 41 71 37 72 38 73 39 74 40 75 66 76 67 77
REMARK SMILES IDX 75 78 68 79 74 80 76 81 73 82 69 83 70 84 71 85 72 86 51 87
REMARK SMILES IDX 52 88 60 89 53 90 59 91 61 92 58 93 54 94 55 95 56 96 57 97
REMARK H PARENT 1 21 1 22 81 50 49 61
REMARK Flexibility Score: inf
ROOT
ATOM      1  C   UNL A   1      31.797  29.289  26.532  1.00  0.00     0.188 C 
ENDROOT
BRANCH   1   2
ATOM      2  C   UNL A   1      32.043  28.048  25.649  1.00  0.00     0.188 C 
BRANCH   2   3
ATOM      3  O   UNL A   1      31.189  28.013  24.519  1.00  0.00    -0.376 OA
BRANCH   3   4
ATOM      4  C   UNL A   1      31.140  26.805  23.782  1.00  0.00     0.202 C 
BRANCH   4   5
ATOM      5  C   UNL A   1      32.198  25.745  24.115  1.00  0.00     0.261 C 
BRANCH   5   6
ATOM      6  O   UNL A   1      31.916  24.419  23.639  1.00  0.00    -0.460 OA
BRANCH   6   7
ATOM      7  C   UNL A   1      31.547  23.492  24.549  1.00  0.00     0.338 C 
ATOM      8  O   UNL A   1      30.498  23.462  25.169  1.00  0.00    -0.246 OA
BRANCH   7   9
ATOM      9  C   UNL A   1      32.598  22.449  24.606  1.00  0.00     0.088 C 
ATOM     10  C   UNL A   1      33.052  18.852  23.763  1.00  0.00     0.061 A 
ATOM     11  C   UNL A   1      34.034  17.868  24.015  1.00  0.00     0.064 A 
ATOM     12  C   UNL A   1      33.303  20.175  24.202  1.00  0.00     0.042 A 
ATOM     13  Cl  UNL A   1      33.752  16.207  23.609  1.00  0.00    -0.082 Cl
ATOM     14  C   UNL A   1      35.264  18.193  24.588  1.00  0.00     0.026 A 
ATOM     15  C   UNL A   1      34.557  20.496  24.746  1.00  0.00     0.130 A 
ATOM     16  C   UNL A   1      32.285  21.228  24.156  1.00  0.00     0.029 C 
ATOM     17  C   UNL A   1      35.533  19.512  24.929  1.00  0.00     0.049 A 
ATOM     18  O   UNL A   1      34.933  21.749  25.137  1.00  0.00    -0.475 OA
ATOM     19  C   UNL A   1      33.960  22.823  25.127  1.00  0.00     0.316 C 
BRANCH  10  20
ATOM     20  N   UNL A   1      31.823  18.479  23.207  1.00  0.00    -0.397 N 
ATOM     21  H   UNL A   1      31.243  19.160  22.792  1.00  0.00     0.156 HD
ATOM     22  H   UNL A   1      31.536  17.538  23.232  1.00  0.00     0.156 HD
ENDBRANCH  10  20
BRANCH  19  23
ATOM     23  C   UNL A   1      33.904  23.426  26.537  1.00  0.00     0.430 C 
ATOM     24  F   UNL A   1      35.012  23.104  27.253  1.00  0.00    -0.167 F 
ATOM     25  F   UNL A   1      33.846  24.778  26.512  1.00  0.00    -0.167 F 
ATOM     26  F   UNL A   1      32.833  22.989  27.238  1.00  0.00    -0.167 F 
ENDBRANCH  19  23
ENDBRANCH   7   9
ENDBRANCH   6   7
ENDBRANCH   5   6
ENDBRANCH   4   5
ENDBRANCH   3   4
ENDBRANCH   2   3
ENDBRANCH   1   2
BRANCH   1  27
ATOM     27  O   UNL A   1      32.031  30.589  25.999  1.00  0.00    -0.376 OA
BRANCH  27  28
ATOM     28  C   UNL A   1      31.214  31.665  26.448  1.00  0.00     0.202 C 
BRANCH  28  29
ATOM     29  C   UNL A   1      31.848  33.053  26.621  1.00  0.00     0.261 C 
BRANCH  29  30
ATOM     30  O   UNL A   1      32.325  33.335  27.947  1.00  0.00    -0.460 OA
BRANCH  30  31
ATOM     31  C   UNL A   1      33.432  34.118  28.013  1.00  0.00     0.338 C 
ATOM     32  O   UNL A   1      33.479  35.335  27.976  1.00  0.00    -0.246 OA
BRANCH  31  33
ATOM     33  C   UNL A   1      34.606  33.283  28.330  1.00  0.00     0.060 A 
ATOM     34  C   UNL A   1      34.389  31.989  28.827  1.00  0.00     0.016 A 
ATOM     35  C   UNL A   1      35.900  33.791  28.212  1.00  0.00     0.016 A 
ATOM     36  C   UNL A   1      35.468  31.200  29.218  1.00  0.00     0.010 A 
ATOM     37  C   UNL A   1      36.979  33.014  28.645  1.00  0.00     0.010 A 
ATOM     38  C   UNL A   1      36.763  31.730  29.174  1.00  0.00    -0.014 A 
BRANCH  38  39
ATOM     39  C   UNL A   1      37.860  31.018  29.867  1.00  0.00     0.031 A 
ATOM     40  C   UNL A   1      38.152  31.377  31.296  1.00  0.00     0.074 A 
ATOM     41  C   UNL A   1      38.585  30.076  29.241  1.00  0.00     0.049 A 
ATOM     42  N   UNL A   1      39.064  30.896  32.097  1.00  0.00    -0.248 NA
ATOM     43  C   UNL A   1      37.299  32.413  31.903  1.00  0.00     0.031 C 
ATOM     44  C   UNL A   1      38.375  29.630  27.867  1.00  0.00     0.029 A 
ATOM     45  N   UNL A   1      39.658  29.341  29.680  1.00  0.00    -0.354 N 
ATOM     46  C   UNL A   1      38.901  31.571  33.300  1.00  0.00     0.074 A 
ATOM     47  C   UNL A   1      37.813  32.506  33.120  1.00  0.00     0.031 C 
ATOM     48  C   UNL A   1      39.311  28.714  27.563  1.00  0.00     0.029 A 
ATOM     49  C   UNL A   1      40.200  28.531  28.713  1.00  0.00     0.049 A 
ATOM     50  H   UNL A   1      40.005  29.389  30.600  1.00  0.00     0.167 HD
ATOM     51  C   UNL A   1      39.599  31.425  34.449  1.00  0.00     0.034 A 
ATOM     52  C   UNL A   1      41.301  27.749  28.742  1.00  0.00     0.034 A 
ATOM     53  C   UNL A   1      40.693  30.507  34.613  1.00  0.00     0.049 A 
ATOM     54  C   UNL A   1      42.099  27.639  30.016  1.00  0.00     0.074 A 
ATOM     55  C   UNL A   1      41.431  30.259  35.756  1.00  0.00     0.029 A 
ATOM     56  N   UNL A   1      41.220  29.709  33.611  1.00  0.00    -0.354 N 
ATOM     57  N   UNL A   1      41.883  28.218  31.175  1.00  0.00    -0.248 NA
ATOM     58  C   UNL A   1      43.285  26.769  29.998  1.00  0.00     0.031 C 
ATOM     59  C   UNL A   1      42.446  29.359  35.428  1.00  0.00     0.029 A 
ATOM     60  C   UNL A   1      42.301  28.993  34.098  1.00  0.00     0.049 A 
ATOM     61  H   UNL A   1      40.879  29.658  32.688  1.00  0.00     0.167 HD
ATOM     62  C   UNL A   1      42.888  27.765  32.028  1.00  0.00     0.074 A 
ATOM     63  C   UNL A   1      43.707  26.855  31.254  1.00  0.00     0.031 C 
ATOM     64  C   UNL A   1      43.106  28.076  33.330  1.00  0.00     0.034 A 
BRANCH  51  65
ATOM     65  C   UNL A   1      39.223  32.284  35.623  1.00  0.00     0.023 A 
ATOM     66  C   UNL A   1      39.766  33.576  35.743  1.00  0.00     0.031 A 
ATOM     67  C   UNL A   1      38.420  31.793  36.666  1.00  0.00     0.131 A 
ATOM     68  C   UNL A   1      39.521  34.325  36.898  1.00  0.00     0.055 A 
ATOM     69  C   UNL A   1      38.152  32.557  37.802  1.00  0.00     0.041 A 
ATOM     70  F   UNL A   1      37.875  30.568  36.589  1.00  0.00    -0.206 F 
ATOM     71  C   UNL A   1      38.712  33.826  37.925  1.00  0.00     0.022 A 
BRANCH  68  72
ATOM     72  S   UNL A   1      40.270  35.959  37.127  1.00  0.00     0.124 S 
ATOM     73  O   UNL A   1      39.768  36.687  35.962  1.00  0.00    -0.237 OA
ATOM     74  O   UNL A   1      39.711  36.372  38.410  1.00  0.00    -0.237 OA
ATOM     75  O   UNL A   1      41.705  35.692  37.116  1.00  0.00    -0.744 OA
ENDBRANCH  68  72
ENDBRANCH  51  65
BRANCH  52  76
ATOM     76  C   UNL A   1      41.675  26.995  27.514  1.00  0.00     0.023 A 
ATOM     77  C   UNL A   1      41.492  25.602  27.444  1.00  0.00     0.031 A 
ATOM     78  C   UNL A   1      42.320  27.636  26.444  1.00  0.00     0.131 A 
ATOM     79  C   UNL A   1      42.010  24.887  26.356  1.00  0.00     0.055 A 
ATOM     80  C   UNL A   1      42.781  26.926  25.333  1.00  0.00     0.041 A 
ATOM     81  F   UNL A   1      42.522  28.962  26.474  1.00  0.00    -0.206 F 
ATOM     82  C   UNL A   1      42.639  25.541  25.293  1.00  0.00     0.022 A 
BRANCH  79  83
ATOM     83  S   UNL A   1      41.966  23.074  26.336  1.00  0.00     0.124 S 
ATOM     84  O   UNL A   1      42.661  22.732  27.575  1.00  0.00    -0.237 OA
ATOM     85  O   UNL A   1      40.529  22.817  26.327  1.00  0.00    -0.237 OA
ATOM     86  O   UNL A   1      42.671  22.727  25.107  1.00  0.00    -0.744 OA
ENDBRANCH  79  83
ENDBRANCH  52  76
BRANCH  64  87
ATOM     87  C   UNL A   1      44.268  27.437  34.051  1.00  0.00     0.023 A 
ATOM     88  C   UNL A   1      44.092  26.202  34.704  1.00  0.00     0.031 A 
ATOM     89  C   UNL A   1      45.475  28.128  34.245  1.00  0.00     0.131 A 
ATOM     90  C   UNL A   1      45.087  25.720  35.563  1.00  0.00     0.055 A 
ATOM     91  C   UNL A   1      46.483  27.622  35.068  1.00  0.00     0.041 A 
ATOM     92  F   UNL A   1      45.684  29.315  33.652  1.00  0.00    -0.206 F 
ATOM     93  C   UNL A   1      46.284  26.420  35.744  1.00  0.00     0.022 A 
BRANCH  90  94
ATOM     94  S   UNL A   1      44.831  24.212  36.538  1.00  0.00     0.124 S 
ATOM     95  O   UNL A   1      44.381  24.750  37.819  1.00  0.00    -0.237 OA
ATOM     96  O   UNL A   1      43.810  23.515  35.761  1.00  0.00    -0.237 OA
ATOM     97  O   UNL A   1      46.145  23.579  36.560  1.00  0.00    -0.744 OA
ENDBRANCH  90  94
ENDBRANCH  64  87
ENDBRANCH  38  39
ENDBRANCH  31  33
ENDBRANCH  30  31
ENDBRANCH  29  30
ENDBRANCH  28  29
ENDBRANCH  27  28
ENDBRANCH   1  27
TORSDOF 22
ENDMDL
MODEL 2
REMARK VINA RESULT:     -10.7      1.644      2.090
REMARK SMILES Nc1c(Cl)ccc2c1C=C(C(=O)OCCOCCOCCOC(=O)c1ccc(-c3c4nc(c(-c5cc(S(=O)(=O)[O-])ccc5F)c5ccc([nH]5)c(-c5cc(S(=O)(=O)[O-])ccc5F)c5nc(c(-c6cc(S(=O)(=O)[O-])ccc6F)c6ccc3[nH]6)C=C5)C=C4)cc1)[C@@H](C(F)(F)F)O2
REMARK SMILES IDX 18 1 17 2 16 3 15 4 14 5 13 6 11 7 12 8 10 9 2 10 3 11 8 12
REMARK SMILES IDX 4 13 5 14 7 15 9 16 6 17 93 18 88 19 1 20 89 23 90 24 91 25
REMARK SMILES IDX 92 26 19 27 20 28 21 29 22 30 23 31 24 32 25 33 26 34 87 35
REMARK SMILES IDX 27 36 86 37 28 38 29 39 30 40 80 41 31 42 85 43 79 44 81 45
REMARK SMILES IDX 32 46 84 47 78 48 77 49 33 51 65 52 45 53 64 54 46 55 49 56
REMARK SMILES IDX 63 57 82 58 47 59 48 60 62 62 83 63 50 64 34 65 35 66 43 67
REMARK SMILES IDX 36 68 42 69 44 70 41 71 37 72 38 73 39 74 40 75 66 76 67 77
REMARK SMILES IDX 75 78 68 79 74 80 76 81 73 82 69 83 70 84 71 85 72 86 51 87
REMARK SMILES IDX 52 88 60 89 53 90 59 91 61 92 58 93 54 94 55 95 56 96 57 97
REMARK H PARENT 1 21 1 22 81 50 49 61
REMARK Flexibility Score: inf
ROOT
ATOM      1  C   UNL A   1      31.832  29.374  26.259  1.00  0.00     0.188 C 
ENDROOT
BRANCH   1   2
ATOM      2  C   UNL A   1      31.603  28.180  25.309  1.00  0.00     0.188 C 
BRANCH   2   3
ATOM      3  O   UNL A   1      31.082  28.583  24.055  1.00  0.00    -0.376 OA
BRANCH   3   4
ATOM      4  C   UNL A   1      31.980  28.618  22.960  1.00  0.00     0.202 C 
BRANCH   4   5
ATOM      5  C   UNL A   1      33.322  27.895  23.141  1.00  0.00     0.261 C 
BRANCH   5   6
ATOM      6  O   UNL A   1      33.677  26.979  22.093  1.00  0.00    -0.460 OA
BRANCH   6   7
ATOM      7  C   UNL A   1      32.953  25.845  21.982  1.00  0.00     0.338 C 
ATOM      8  O   UNL A   1      32.164  25.571  21.094  1.00  0.00    -0.246 OA
BRANCH   7   9
ATOM      9  C   UNL A   1      33.347  24.931  23.080  1.00  0.00     0.088 C 
ATOM     10  C   UNL A   1      36.111  22.596  23.953  1.00  0.00     0.061 A 
ATOM     11  C   UNL A   1      36.332  21.612  24.943  1.00  0.00     0.064 A 
ATOM     12  C   UNL A   1      34.915  23.352  24.017  1.00  0.00     0.042 A 
ATOM     13  Cl  UNL A   1      37.716  20.572  24.867  1.00  0.00    -0.082 Cl
ATOM     14  C   UNL A   1      35.458  21.447  26.017  1.00  0.00     0.026 A 
ATOM     15  C   UNL A   1      34.061  23.199  25.121  1.00  0.00     0.130 A 
ATOM     16  C   UNL A   1      34.501  24.265  22.949  1.00  0.00     0.029 C 
ATOM     17  C   UNL A   1      34.336  22.259  26.117  1.00  0.00     0.049 A 
ATOM     18  O   UNL A   1      32.920  23.923  25.322  1.00  0.00    -0.475 OA
ATOM     19  C   UNL A   1      32.456  24.828  24.290  1.00  0.00     0.316 C 
BRANCH  10  20
ATOM     20  N   UNL A   1      37.002  22.714  22.880  1.00  0.00    -0.397 N 
ATOM     21  H   UNL A   1      37.739  23.367  22.920  1.00  0.00     0.156 HD
ATOM     22  H   UNL A   1      36.893  22.145  22.084  1.00  0.00     0.156 HD
ENDBRANCH  10  20
BRANCH  19  23
ATOM     23  C   UNL A   1      31.017  24.438  23.928  1.00  0.00     0.430 C 
ATOM     24  F   UNL A   1      30.363  23.924  25.001  1.00  0.00    -0.167 F 
ATOM     25  F   UNL A   1      30.289  25.500  23.511  1.00  0.00    -0.167 F 
ATOM     26  F   UNL A   1      30.971  23.507  22.947  1.00  0.00    -0.167 F 
ENDBRANCH  19  23
ENDBRANCH   7   9
ENDBRANCH   6   7
ENDBRANCH   5   6
ENDBRANCH   4   5
ENDBRANCH   3   4
ENDBRANCH   2   3
ENDBRANCH   1   2
BRANCH   1  27
ATOM     27  O   UNL A   1      31.876  30.695  25.731  1.00  0.00    -0.376 OA
BRANCH  27  28
ATOM     28  C   UNL A   1      31.060  31.696  26.332  1.00  0.00     0.202 C 
BRANCH  28  29
ATOM     29  C   UNL A   1      31.693  33.047  26.695  1.00  0.00     0.261 C 
BRANCH  29  30
ATOM     30  O   UNL A   1      32.441  33.049  27.922  1.00  0.00    -0.460 OA
BRANCH  30  31
ATOM     31  C   UNL A   1      33.515  33.880  27.948  1.00  0.00     0.338 C 
ATOM     32  O   UNL A   1      33.509  35.096  27.880  1.00  0.00    -0.246 OA
BRANCH  31  33
ATOM     33  C   UNL A   1      34.729  33.103  28.264  1.00  0.00     0.060 A 
ATOM     34  C   UNL A   1      34.580  31.769  28.672  1.00  0.00     0.016 A 
ATOM     35  C   UNL A   1      35.990  33.700  28.234  1.00  0.00     0.016 A 
ATOM     36  C   UNL A   1      35.693  31.028  29.061  1.00  0.00     0.010 A 
ATOM     37  C   UNL A   1      37.100  32.969  28.665  1.00  0.00     0.010 A 
ATOM     38  C   UNL A   1      36.951  31.642  29.105  1.00  0.00    -0.014 A 
BRANCH  38  39
ATOM     39  C   UNL A   1      38.064  30.959  29.801  1.00  0.00     0.031 A 
ATOM     40  C   UNL A   1      38.359  31.344  31.223  1.00  0.00     0.074 A 
ATOM     41  C   UNL A   1      38.802  30.022  29.183  1.00  0.00     0.049 A 
ATOM     42  N   UNL A   1      39.285  30.890  32.024  1.00  0.00    -0.248 NA
ATOM     43  C   UNL A   1      37.492  32.374  31.821  1.00  0.00     0.031 C 
ATOM     44  C   UNL A   1      38.591  29.553  27.817  1.00  0.00     0.029 A 
ATOM     45  N   UNL A   1      39.890  29.312  29.625  1.00  0.00    -0.354 N 
ATOM     46  C   UNL A   1      39.118  31.580  33.218  1.00  0.00     0.074 A 
ATOM     47  C   UNL A   1      38.013  32.493  33.033  1.00  0.00     0.031 C 
ATOM     48  C   UNL A   1      39.541  28.650  27.520  1.00  0.00     0.029 A 
ATOM     49  C   UNL A   1      40.441  28.498  28.666  1.00  0.00     0.049 A 
ATOM     50  H   UNL A   1      40.242  29.379  30.542  1.00  0.00     0.167 HD
ATOM     51  C   UNL A   1      39.825  31.463  34.365  1.00  0.00     0.034 A 
ATOM     52  C   UNL A   1      41.555  27.737  28.698  1.00  0.00     0.034 A 
ATOM     53  C   UNL A   1      40.938  30.567  34.534  1.00  0.00     0.049 A 
ATOM     54  C   UNL A   1      42.364  27.659  29.969  1.00  0.00     0.074 A 
ATOM     55  C   UNL A   1      41.687  30.348  35.675  1.00  0.00     0.029 A 
ATOM     56  N   UNL A   1      41.472  29.764  33.539  1.00  0.00    -0.354 N 
ATOM     57  N   UNL A   1      42.145  28.250  31.121  1.00  0.00    -0.248 NA
ATOM     58  C   UNL A   1      43.564  26.810  29.954  1.00  0.00     0.031 C 
ATOM     59  C   UNL A   1      42.715  29.461  35.353  1.00  0.00     0.029 A 
ATOM     60  C   UNL A   1      42.568  29.074  34.030  1.00  0.00     0.049 A 
ATOM     61  H   UNL A   1      41.125  29.693  32.620  1.00  0.00     0.167 HD
ATOM     62  C   UNL A   1      43.163  27.827  31.973  1.00  0.00     0.074 A 
ATOM     63  C   UNL A   1      43.994  26.921  31.206  1.00  0.00     0.031 C 
ATOM     64  C   UNL A   1      43.385  28.160  33.269  1.00  0.00     0.034 A 
BRANCH  51  65
ATOM     65  C   UNL A   1      39.443  32.332  35.529  1.00  0.00     0.023 A 
ATOM     66  C   UNL A   1      39.891  33.663  35.582  1.00  0.00     0.031 A 
ATOM     67  C   UNL A   1      38.729  31.819  36.626  1.00  0.00     0.131 A 
ATOM     68  C   UNL A   1      39.646  34.432  36.724  1.00  0.00     0.055 A 
ATOM     69  C   UNL A   1      38.459  32.600  37.749  1.00  0.00     0.041 A 
ATOM     70  F   UNL A   1      38.275  30.554  36.613  1.00  0.00    -0.206 F 
ATOM     71  C   UNL A   1      38.926  33.909  37.806  1.00  0.00     0.022 A 
BRANCH  68  72
ATOM     72  S   UNL A   1      40.279  36.124  36.865  1.00  0.00     0.124 S 
ATOM     73  O   UNL A   1      39.620  36.593  38.083  1.00  0.00    -0.237 OA
ATOM     74  O   UNL A   1      41.717  35.901  36.979  1.00  0.00    -0.237 OA
ATOM     75  O   UNL A   1      39.833  36.768  35.634  1.00  0.00    -0.744 OA
ENDBRANCH  68  72
ENDBRANCH  51  65
BRANCH  52  76
ATOM     76  C   UNL A   1      41.935  26.971  27.479  1.00  0.00     0.023 A 
ATOM     77  C   UNL A   1      41.671  25.594  27.385  1.00  0.00     0.031 A 
ATOM     78  C   UNL A   1      42.663  27.581  26.444  1.00  0.00     0.131 A 
ATOM     79  C   UNL A   1      42.190  24.858  26.312  1.00  0.00     0.055 A 
ATOM     80  C   UNL A   1      43.126  26.854  25.346  1.00  0.00     0.041 A 
ATOM     81  F   UNL A   1      42.944  28.892  26.498  1.00  0.00    -0.206 F 
ATOM     82  C   UNL A   1      42.902  25.481  25.284  1.00  0.00     0.022 A 
BRANCH  79  83
ATOM     83  S   UNL A   1      42.036  23.051  26.269  1.00  0.00     0.124 S 
ATOM     84  O   UNL A   1      42.711  22.711  25.019  1.00  0.00    -0.237 OA
ATOM     85  O   UNL A   1      42.740  22.669  27.491  1.00  0.00    -0.237 OA
ATOM     86  O   UNL A   1      40.594  22.827  26.283  1.00  0.00    -0.744 OA
ENDBRANCH  79  83
ENDBRANCH  52  76
BRANCH  64  87
ATOM     87  C   UNL A   1      44.563  27.553  33.991  1.00  0.00     0.023 A 
ATOM     88  C   UNL A   1      44.449  26.268  34.557  1.00  0.00     0.031 A 
ATOM     89  C   UNL A   1      45.713  28.307  34.274  1.00  0.00     0.131 A 
ATOM     90  C   UNL A   1      45.445  25.796  35.421  1.00  0.00     0.055 A 
ATOM     91  C   UNL A   1      46.725  27.814  35.100  1.00  0.00     0.041 A 
ATOM     92  F   UNL A   1      45.861  29.541  33.767  1.00  0.00    -0.206 F 
ATOM     93  C   UNL A   1      46.586  26.559  35.690  1.00  0.00     0.022 A 
BRANCH  90  94
ATOM     94  S   UNL A   1      45.259  24.213  36.287  1.00  0.00     0.124 S 
ATOM     95  O   UNL A   1      43.854  24.248  36.686  1.00  0.00    -0.237 OA
ATOM     96  O   UNL A   1      45.587  23.251  35.239  1.00  0.00    -0.237 OA
ATOM     97  O   UNL A   1      46.217  24.298  37.385  1.00  0.00    -0.744 OA
ENDBRANCH  90  94
ENDBRANCH  64  87
ENDBRANCH  38  39
ENDBRANCH  31  33
ENDBRANCH  30  31
ENDBRANCH  29  30
ENDBRANCH  28  29
ENDBRANCH  27  28
ENDBRANCH   1  27
TORSDOF 22
ENDMDL
MODEL 3
REMARK VINA RESULT:     -10.6      3.451      4.561
REMARK SMILES Nc1c(Cl)ccc2c1C=C(C(=O)OCCOCCOCCOC(=O)c1ccc(-c3c4nc(c(-c5cc(S(=O)(=O)[O-])ccc5F)c5ccc([nH]5)c(-c5cc(S(=O)(=O)[O-])ccc5F)c5nc(c(-c6cc(S(=O)(=O)[O-])ccc6F)c6ccc3[nH]6)C=C5)C=C4)cc1)[C@@H](C(F)(F)F)O2
REMARK SMILES IDX 18 1 17 2 16 3 15 4 14 5 13 6 11 7 12 8 10 9 2 10 3 11 8 12
REMARK SMILES IDX 4 13 5 14 7 15 9 16 6 17 93 18 88 19 1 20 89 23 90 24 91 25
REMARK SMILES IDX 92 26 19 27 20 28 21 29 22 30 23 31 24 32 25 33 26 34 87 35
REMARK SMILES IDX 27 36 86 37 28 38 29 39 30 40 80 41 31 42 85 43 79 44 81 45
REMARK SMILES IDX 32 46 84 47 78 48 77 49 33 51 65 52 45 53 64 54 46 55 49 56
REMARK SMILES IDX 63 57 82 58 47 59 48 60 62 62 83 63 50 64 34 65 35 66 43 67
REMARK SMILES IDX 36 68 42 69 44 70 41 71 37 72 38 73 39 74 40 75 66 76 67 77
REMARK SMILES IDX 75 78 68 79 74 80 76 81 73 82 69 83 70 84 71 85 72 86 51 87
REMARK SMILES IDX 52 88 60 89 53 90 59 91 61 92 58 93 54 94 55 95 56 96 57 97
REMARK H PARENT 1 21 1 22 81 50 49 61
REMARK Flexibility Score: inf
ROOT
ATOM      1  C   UNL A   1      34.501  29.901  27.240  1.00  0.00     0.188 C 
ENDROOT
BRANCH   1   2
ATOM      2  C   UNL A   1      33.587  28.677  27.453  1.00  0.00     0.188 C 
BRANCH   2   3
ATOM      3  O   UNL A   1      33.641  27.769  26.367  1.00  0.00    -0.376 OA
BRANCH   3   4
ATOM      4  C   UNL A   1      33.913  28.307  25.086  1.00  0.00     0.202 C 
BRANCH   4   5
ATOM      5  C   UNL A   1      33.697  27.379  23.883  1.00  0.00     0.261 C 
BRANCH   5   6
ATOM      6  O   UNL A   1      33.077  26.117  24.179  1.00  0.00    -0.460 OA
BRANCH   6   7
ATOM      7  C   UNL A   1      32.248  25.594  23.250  1.00  0.00     0.338 C 
ATOM      8  O   UNL A   1      32.464  24.617  22.553  1.00  0.00    -0.246 OA
BRANCH   7   9
ATOM      9  C   UNL A   1      30.976  26.352  23.281  1.00  0.00     0.088 C 
ATOM     10  C   UNL A   1      29.583  29.579  22.056  1.00  0.00     0.061 A 
ATOM     11  C   UNL A   1      28.403  30.324  22.281  1.00  0.00     0.064 A 
ATOM     12  C   UNL A   1      29.699  28.310  22.675  1.00  0.00     0.042 A 
ATOM     13  Cl  UNL A   1      28.235  31.930  21.651  1.00  0.00    -0.082 Cl
ATOM     14  C   UNL A   1      27.333  29.798  23.005  1.00  0.00     0.026 A 
ATOM     15  C   UNL A   1      28.603  27.778  23.372  1.00  0.00     0.130 A 
ATOM     16  C   UNL A   1      30.944  27.537  22.659  1.00  0.00     0.029 C 
ATOM     17  C   UNL A   1      27.426  28.515  23.527  1.00  0.00     0.049 A 
ATOM     18  O   UNL A   1      28.578  26.539  23.946  1.00  0.00    -0.475 OA
ATOM     19  C   UNL A   1      29.786  25.739  23.972  1.00  0.00     0.316 C 
BRANCH  10  20
ATOM     20  N   UNL A   1      30.642  30.154  21.344  1.00  0.00    -0.397 N 
ATOM     21  H   UNL A   1      30.482  30.543  20.453  1.00  0.00     0.156 HD
ATOM     22  H   UNL A   1      31.546  30.168  21.731  1.00  0.00     0.156 HD
ENDBRANCH  10  20
BRANCH  19  23
ATOM     23  C   UNL A   1      30.081  25.373  25.433  1.00  0.00     0.430 C 
ATOM     24  F   UNL A   1      30.805  26.343  26.046  1.00  0.00    -0.167 F 
ATOM     25  F   UNL A   1      28.948  25.225  26.160  1.00  0.00    -0.167 F 
ATOM     26  F   UNL A   1      30.783  24.221  25.540  1.00  0.00    -0.167 F 
ENDBRANCH  19  23
ENDBRANCH   7   9
ENDBRANCH   6   7
ENDBRANCH   5   6
ENDBRANCH   4   5
ENDBRANCH   3   4
ENDBRANCH   2   3
ENDBRANCH   1   2
BRANCH   1  27
ATOM     27  O   UNL A   1      34.024  31.201  27.571  1.00  0.00    -0.376 OA
BRANCH  27  28
ATOM     28  C   UNL A   1      32.661  31.514  27.302  1.00  0.00     0.202 C 
BRANCH  28  29
ATOM     29  C   UNL A   1      32.216  32.983  27.350  1.00  0.00     0.261 C 
BRANCH  29  30
ATOM     30  O   UNL A   1      33.287  33.931  27.489  1.00  0.00    -0.460 OA
BRANCH  30  31
ATOM     31  C   UNL A   1      33.352  34.564  28.688  1.00  0.00     0.338 C 
ATOM     32  O   UNL A   1      32.552  35.360  29.148  1.00  0.00    -0.246 OA
BRANCH  31  33
ATOM     33  C   UNL A   1      34.468  34.008  29.477  1.00  0.00     0.060 A 
ATOM     34  C   UNL A   1      35.778  34.345  29.107  1.00  0.00     0.016 A 
ATOM     35  C   UNL A   1      34.232  33.108  30.517  1.00  0.00     0.016 A 
ATOM     36  C   UNL A   1      36.862  33.774  29.772  1.00  0.00     0.010 A 
ATOM     37  C   UNL A   1      35.320  32.504  31.154  1.00  0.00     0.010 A 
ATOM     38  C   UNL A   1      36.635  32.814  30.765  1.00  0.00    -0.014 A 
BRANCH  38  39
ATOM     39  C   UNL A   1      37.767  31.993  31.249  1.00  0.00     0.031 A 
ATOM     40  C   UNL A   1      38.319  32.275  32.617  1.00  0.00     0.074 A 
ATOM     41  C   UNL A   1      38.298  31.022  30.489  1.00  0.00     0.049 A 
ATOM     42  N   UNL A   1      39.306  31.694  33.244  1.00  0.00    -0.248 NA
ATOM     43  C   UNL A   1      37.666  33.352  33.382  1.00  0.00     0.031 C 
ATOM     44  C   UNL A   1      37.830  30.645  29.159  1.00  0.00     0.029 A 
ATOM     45  N   UNL A   1      39.364  30.189  30.725  1.00  0.00    -0.354 N 
ATOM     46  C   UNL A   1      39.400  32.335  34.472  1.00  0.00     0.074 A 
ATOM     47  C   UNL A   1      38.379  33.359  34.499  1.00  0.00     0.031 C 
ATOM     48  C   UNL A   1      38.623  29.670  28.682  1.00  0.00     0.029 A 
ATOM     49  C   UNL A   1      39.671  29.375  29.662  1.00  0.00     0.049 A 
ATOM     50  H   UNL A   1      39.859  30.175  31.575  1.00  0.00     0.167 HD
ATOM     51  C   UNL A   1      40.262  32.093  35.485  1.00  0.00     0.034 A 
ATOM     52  C   UNL A   1      40.692  28.509  29.489  1.00  0.00     0.034 A 
ATOM     53  C   UNL A   1      41.288  31.086  35.443  1.00  0.00     0.049 A 
ATOM     54  C   UNL A   1      41.676  28.290  30.610  1.00  0.00     0.074 A 
ATOM     55  C   UNL A   1      42.180  30.738  36.441  1.00  0.00     0.029 A 
ATOM     56  N   UNL A   1      41.575  30.287  34.348  1.00  0.00    -0.354 N 
ATOM     57  N   UNL A   1      41.702  28.840  31.802  1.00  0.00    -0.248 NA
ATOM     58  C   UNL A   1      42.766  27.330  30.374  1.00  0.00     0.031 C 
ATOM     59  C   UNL A   1      43.048  29.775  35.928  1.00  0.00     0.029 A 
ATOM     60  C   UNL A   1      42.657  29.471  34.632  1.00  0.00     0.049 A 
ATOM     61  H   UNL A   1      41.083  30.297  33.495  1.00  0.00     0.167 HD
ATOM     62  C   UNL A   1      42.792  28.278  32.464  1.00  0.00     0.074 A 
ATOM     63  C   UNL A   1      43.395  27.336  31.544  1.00  0.00     0.031 C 
ATOM     64  C   UNL A   1      43.246  28.522  33.719  1.00  0.00     0.034 A 
BRANCH  51  65
ATOM     65  C   UNL A   1      40.157  32.934  36.725  1.00  0.00     0.023 A 
ATOM     66  C   UNL A   1      39.325  32.520  37.780  1.00  0.00     0.031 A 
ATOM     67  C   UNL A   1      40.791  34.185  36.821  1.00  0.00     0.131 A 
ATOM     68  C   UNL A   1      39.126  33.365  38.877  1.00  0.00     0.055 A 
ATOM     69  C   UNL A   1      40.615  35.009  37.932  1.00  0.00     0.041 A 
ATOM     70  F   UNL A   1      41.601  34.616  35.839  1.00  0.00    -0.206 F 
ATOM     71  C   UNL A   1      39.771  34.604  38.962  1.00  0.00     0.022 A 
BRANCH  68  72
ATOM     72  S   UNL A   1      37.996  32.903  40.217  1.00  0.00     0.124 S 
ATOM     73  O   UNL A   1      38.359  31.506  40.449  1.00  0.00    -0.237 OA
ATOM     74  O   UNL A   1      38.384  33.832  41.274  1.00  0.00    -0.237 OA
ATOM     75  O   UNL A   1      36.670  33.110  39.645  1.00  0.00    -0.744 OA
ENDBRANCH  68  72
ENDBRANCH  51  65
BRANCH  52  76
ATOM     76  C   UNL A   1      40.795  27.773  28.198  1.00  0.00     0.023 A 
ATOM     77  C   UNL A   1      40.248  26.486  28.061  1.00  0.00     0.031 A 
ATOM     78  C   UNL A   1      41.536  28.300  27.127  1.00  0.00     0.131 A 
ATOM     79  C   UNL A   1      40.506  25.740  26.903  1.00  0.00     0.055 A 
ATOM     80  C   UNL A   1      41.740  27.577  25.951  1.00  0.00     0.041 A 
ATOM     81  F   UNL A   1      42.082  29.521  27.220  1.00  0.00    -0.206 F 
ATOM     82  C   UNL A   1      41.235  26.283  25.841  1.00  0.00     0.022 A 
BRANCH  79  83
ATOM     83  S   UNL A   1      39.984  24.008  26.782  1.00  0.00     0.124 S 
ATOM     84  O   UNL A   1      38.823  24.094  25.900  1.00  0.00    -0.237 OA
ATOM     85  O   UNL A   1      41.172  23.385  26.203  1.00  0.00    -0.237 OA
ATOM     86  O   UNL A   1      39.695  23.638  28.163  1.00  0.00    -0.744 OA
ENDBRANCH  79  83
ENDBRANCH  52  76
BRANCH  64  87
ATOM     87  C   UNL A   1      44.453  27.768  34.221  1.00  0.00     0.023 A 
ATOM     88  C   UNL A   1      44.281  26.554  34.915  1.00  0.00     0.031 A 
ATOM     89  C   UNL A   1      45.738  28.334  34.176  1.00  0.00     0.131 A 
ATOM     90  C   UNL A   1      45.366  25.973  35.581  1.00  0.00     0.055 A 
ATOM     91  C   UNL A   1      46.826  27.727  34.805  1.00  0.00     0.041 A 
ATOM     92  F   UNL A   1      45.949  29.496  33.537  1.00  0.00    -0.206 F 
ATOM     93  C   UNL A   1      46.639  26.548  35.525  1.00  0.00     0.022 A 
BRANCH  90  94
ATOM     94  S   UNL A   1      45.148  24.495  36.610  1.00  0.00     0.124 S 
ATOM     95  O   UNL A   1      46.526  24.046  36.794  1.00  0.00    -0.237 OA
ATOM     96  O   UNL A   1      44.506  25.043  37.802  1.00  0.00    -0.237 OA
ATOM     97  O   UNL A   1      44.315  23.617  35.795  1.00  0.00    -0.744 OA
ENDBRANCH  90  94
ENDBRANCH  64  87
ENDBRANCH  38  39
ENDBRANCH  31  33
ENDBRANCH  30  31
ENDBRANCH  29  30
ENDBRANCH  28  29
ENDBRANCH  27  28
ENDBRANCH   1  27
TORSDOF 22
ENDMDL
