MODEL 1
REMARK VINA RESULT:     -10.3      0.000      0.000
REMARK SMILES O=C(Cn1nc(C(=O)OCCOCCOCCOC(=O)c2ccc(-c3c4nc(c(-c5cc(S(=O)(=O)[O-])ccc5F)c5ccc([nH]5)c(-c5cc(S(=O)(=O)[O-])ccc5F)c5nc(c(-c6cc(S(=O)(=O)[O-])ccc6F)c6ccc3[nH]6)C=C5)C=C4)cc2)c2ccccc2c1=O)Nc1ccc2c(c1)C(=O)c1ccccc1C2=O
REMARK SMILES IDX 13 1 12 2 11 3 10 4 9 5 7 6 8 7 6 8 4 9 5 10 90 11 89 12
REMARK SMILES IDX 91 13 84 14 88 15 85 16 87 17 86 18 3 19 2 20 1 21 92 22
REMARK SMILES IDX 93 24 94 25 98 26 95 27 97 28 96 29 99 30 107 31 100 32
REMARK SMILES IDX 101 33 106 34 108 35 102 36 105 37 103 38 104 39 14 40 15 41
REMARK SMILES IDX 16 42 17 43 18 44 19 45 20 46 21 47 22 48 83 49 23 50 82 51
REMARK SMILES IDX 24 52 25 53 26 54 76 55 27 56 81 57 75 58 77 59 28 60 80 61
REMARK SMILES IDX 74 62 73 63 29 65 61 66 41 67 60 68 42 69 45 70 59 71 78 72
REMARK SMILES IDX 43 73 44 74 58 76 79 77 46 78 30 79 31 80 39 81 32 82 38 83
REMARK SMILES IDX 40 84 37 85 33 86 34 87 35 88 36 89 62 90 63 91 71 92 64 93
REMARK SMILES IDX 70 94 72 95 69 96 65 97 66 98 67 99 68 100 47 101 48 102
REMARK SMILES IDX 56 103 49 104 55 105 57 106 54 107 50 108 51 109 52 110
REMARK SMILES IDX 53 111
REMARK H PARENT 92 23 77 64 45 75
REMARK Flexibility Score: inf
ROOT
ATOM      1  C   UNL A   1      37.848  28.616  32.526  1.00  0.00     0.188 C 
ENDROOT
BRANCH   1   2
ATOM      2  O   UNL A   1      38.030  29.322  33.748  1.00  0.00    -0.376 OA
BRANCH   2   3
ATOM      3  C   UNL A   1      38.418  30.691  33.698  1.00  0.00     0.202 C 
BRANCH   3   4
ATOM      4  C   UNL A   1      37.308  31.697  33.983  1.00  0.00     0.261 C 
BRANCH   4   5
ATOM      5  O   UNL A   1      36.636  32.035  32.763  1.00  0.00    -0.458 OA
BRANCH   5   6
ATOM      6  C   UNL A   1      36.988  33.210  32.215  1.00  0.00     0.359 C 
ATOM      7  O   UNL A   1      38.023  33.831  32.369  1.00  0.00    -0.244 OA
BRANCH   6   8
ATOM      8  C   UNL A   1      35.910  33.657  31.244  1.00  0.00     0.176 A 
ATOM      9  N   UNL A   1      34.948  33.487  29.157  1.00  0.00    -0.219 N 
ATOM     10  N   UNL A   1      35.934  33.137  30.051  1.00  0.00    -0.161 NA
ATOM     11  C   UNL A   1      33.844  34.273  29.484  1.00  0.00     0.275 A 
ATOM     12  C   UNL A   1      33.872  34.928  30.806  1.00  0.00     0.051 A 
ATOM     13  O   UNL A   1      32.891  34.448  28.728  1.00  0.00    -0.267 OA
ATOM     14  C   UNL A   1      34.903  34.635  31.692  1.00  0.00     0.022 A 
ATOM     15  C   UNL A   1      32.872  35.842  31.164  1.00  0.00     0.014 A 
ATOM     16  C   UNL A   1      34.945  35.262  32.945  1.00  0.00     0.011 A 
ATOM     17  C   UNL A   1      32.914  36.466  32.411  1.00  0.00     0.001 A 
ATOM     18  C   UNL A   1      33.948  36.176  33.299  1.00  0.00     0.001 A 
BRANCH   9  19
ATOM     19  C   UNL A   1      35.020  32.888  27.825  1.00  0.00     0.248 C 
BRANCH  19  20
ATOM     20  C   UNL A   1      34.671  31.398  27.921  1.00  0.00     0.246 C 
ATOM     21  O   UNL A   1      35.480  30.568  28.328  1.00  0.00    -0.273 OA
ATOM     22  N   UNL A   1      33.412  31.096  27.416  1.00  0.00    -0.324 N 
ATOM     23  H   UNL A   1      32.717  31.787  27.505  1.00  0.00     0.169 HD
BRANCH  22  24
ATOM     24  C   UNL A   1      33.041  29.889  26.788  1.00  0.00     0.042 A 
ATOM     25  C   UNL A   1      32.357  28.942  27.570  1.00  0.00     0.027 A 
ATOM     26  C   UNL A   1      33.108  29.725  25.404  1.00  0.00     0.039 A 
ATOM     27  C   UNL A   1      31.627  27.914  26.969  1.00  0.00     0.015 A 
ATOM     28  C   UNL A   1      32.302  28.756  24.805  1.00  0.00     0.036 A 
ATOM     29  C   UNL A   1      31.531  27.890  25.580  1.00  0.00     0.034 A 
ATOM     30  C   UNL A   1      32.015  28.869  23.364  1.00  0.00     0.194 C 
ATOM     31  C   UNL A   1      30.394  27.191  24.949  1.00  0.00     0.194 C 
ATOM     32  O   UNL A   1      32.868  29.208  22.561  1.00  0.00    -0.289 OA
ATOM     33  C   UNL A   1      30.595  28.711  23.001  1.00  0.00     0.034 A 
ATOM     34  C   UNL A   1      29.785  27.899  23.800  1.00  0.00     0.034 A 
ATOM     35  O   UNL A   1      29.905  26.185  25.441  1.00  0.00    -0.289 OA
ATOM     36  C   UNL A   1      30.041  29.514  22.004  1.00  0.00     0.013 A 
ATOM     37  C   UNL A   1      28.402  27.901  23.626  1.00  0.00     0.013 A 
ATOM     38  C   UNL A   1      28.654  29.543  21.855  1.00  0.00     0.001 A 
ATOM     39  C   UNL A   1      27.839  28.747  22.666  1.00  0.00     0.001 A 
ENDBRANCH  22  24
ENDBRANCH  19  20
ENDBRANCH   9  19
ENDBRANCH   6   8
ENDBRANCH   5   6
ENDBRANCH   4   5
ENDBRANCH   3   4
ENDBRANCH   2   3
ENDBRANCH   1   2
BRANCH   1  40
ATOM     40  C   UNL A   1      38.620  29.050  31.261  1.00  0.00     0.188 C 
BRANCH  40  41
ATOM     41  O   UNL A   1      38.202  28.557  29.996  1.00  0.00    -0.376 OA
BRANCH  41  42
ATOM     42  C   UNL A   1      38.967  27.530  29.379  1.00  0.00     0.202 C 
BRANCH  42  43
ATOM     43  C   UNL A   1      39.618  27.887  28.046  1.00  0.00     0.261 C 
BRANCH  43  44
ATOM     44  O   UNL A   1      40.586  28.934  28.228  1.00  0.00    -0.460 OA
BRANCH  44  45
ATOM     45  C   UNL A   1      41.865  28.520  28.377  1.00  0.00     0.338 C 
ATOM     46  O   UNL A   1      42.259  27.372  28.496  1.00  0.00    -0.246 OA
BRANCH  45  47
ATOM     47  C   UNL A   1      42.764  29.674  28.201  1.00  0.00     0.060 A 
ATOM     48  C   UNL A   1      43.284  30.358  29.303  1.00  0.00     0.016 A 
ATOM     49  C   UNL A   1      43.112  30.049  26.898  1.00  0.00     0.016 A 
ATOM     50  C   UNL A   1      44.199  31.392  29.096  1.00  0.00     0.010 A 
ATOM     51  C   UNL A   1      44.016  31.091  26.693  1.00  0.00     0.010 A 
ATOM     52  C   UNL A   1      44.587  31.749  27.793  1.00  0.00    -0.014 A 
BRANCH  52  53
ATOM     53  C   UNL A   1      45.722  32.679  27.591  1.00  0.00     0.031 A 
ATOM     54  C   UNL A   1      45.531  34.161  27.554  1.00  0.00     0.074 A 
ATOM     55  C   UNL A   1      46.948  32.148  27.420  1.00  0.00     0.049 A 
ATOM     56  N   UNL A   1      46.435  35.100  27.451  1.00  0.00    -0.248 NA
ATOM     57  C   UNL A   1      44.150  34.656  27.626  1.00  0.00     0.031 C 
ATOM     58  C   UNL A   1      47.234  30.713  27.404  1.00  0.00     0.029 A 
ATOM     59  N   UNL A   1      48.170  32.738  27.231  1.00  0.00    -0.354 N 
ATOM     60  C   UNL A   1      45.739  36.303  27.469  1.00  0.00     0.074 A 
ATOM     61  C   UNL A   1      44.331  35.969  27.534  1.00  0.00     0.031 C 
ATOM     62  C   UNL A   1      48.552  30.534  27.231  1.00  0.00     0.029 A 
ATOM     63  C   UNL A   1      49.201  31.837  27.110  1.00  0.00     0.049 A 
ATOM     64  H   UNL A   1      48.297  33.714  27.187  1.00  0.00     0.167 HD
ATOM     65  C   UNL A   1      46.241  37.562  27.454  1.00  0.00     0.034 A 
ATOM     66  C   UNL A   1      50.524  32.034  26.935  1.00  0.00     0.034 A 
ATOM     67  C   UNL A   1      47.650  37.867  27.389  1.00  0.00     0.049 A 
ATOM     68  C   UNL A   1      51.055  33.442  26.920  1.00  0.00     0.074 A 
ATOM     69  C   UNL A   1      48.257  39.112  27.431  1.00  0.00     0.029 A 
ATOM     70  N   UNL A   1      48.670  36.934  27.268  1.00  0.00    -0.354 N 
ATOM     71  N   UNL A   1      50.397  34.571  27.043  1.00  0.00    -0.248 NA
ATOM     72  C   UNL A   1      52.507  33.609  26.765  1.00  0.00     0.031 C 
ATOM     73  C   UNL A   1      49.633  38.935  27.276  1.00  0.00     0.029 A 
ATOM     74  C   UNL A   1      49.898  37.577  27.204  1.00  0.00     0.049 A 
ATOM     75  H   UNL A   1      48.541  35.959  27.232  1.00  0.00     0.167 HD
ATOM     76  C   UNL A   1      51.355  35.580  27.004  1.00  0.00     0.074 A 
ATOM     77  C   UNL A   1      52.640  34.925  26.868  1.00  0.00     0.031 C 
ATOM     78  C   UNL A   1      51.179  36.924  27.073  1.00  0.00     0.034 A 
BRANCH  65  79
ATOM     79  C   UNL A   1      45.281  38.723  27.545  1.00  0.00     0.023 A 
ATOM     80  C   UNL A   1      45.013  39.511  26.410  1.00  0.00     0.031 A 
ATOM     81  C   UNL A   1      44.751  39.132  28.782  1.00  0.00     0.131 A 
ATOM     82  C   UNL A   1      44.260  40.686  26.543  1.00  0.00     0.055 A 
ATOM     83  C   UNL A   1      43.973  40.285  28.900  1.00  0.00     0.041 A 
ATOM     84  F   UNL A   1      44.984  38.416  29.894  1.00  0.00    -0.206 F 
ATOM     85  C   UNL A   1      43.735  41.074  27.780  1.00  0.00     0.022 A 
BRANCH  82  86
ATOM     86  S   UNL A   1      43.988  41.791  25.129  1.00  0.00     0.124 S 
ATOM     87  O   UNL A   1      42.652  41.390  24.693  1.00  0.00    -0.237 OA
ATOM     88  O   UNL A   1      44.074  43.109  25.751  1.00  0.00    -0.237 OA
ATOM     89  O   UNL A   1      45.069  41.455  24.209  1.00  0.00    -0.744 OA
ENDBRANCH  82  86
ENDBRANCH  65  79
BRANCH  66  90
ATOM     90  C   UNL A   1      51.419  30.846  26.859  1.00  0.00     0.023 A 
ATOM     91  C   UNL A   1      51.658  30.201  25.633  1.00  0.00     0.031 A 
ATOM     92  C   UNL A   1      51.933  30.261  28.028  1.00  0.00     0.131 A 
ATOM     93  C   UNL A   1      52.332  28.974  25.613  1.00  0.00     0.055 A 
ATOM     94  C   UNL A   1      52.659  29.071  27.997  1.00  0.00     0.041 A 
ATOM     95  F   UNL A   1      51.713  30.834  29.222  1.00  0.00    -0.206 F 
ATOM     96  C   UNL A   1      52.846  28.411  26.785  1.00  0.00     0.022 A 
BRANCH  93  97
ATOM     97  S   UNL A   1      52.441  28.001  24.086  1.00  0.00     0.124 S 
ATOM     98  O   UNL A   1      53.668  27.238  24.299  1.00  0.00    -0.237 OA
ATOM     99  O   UNL A   1      51.201  27.231  24.134  1.00  0.00    -0.237 OA
ATOM    100  O   UNL A   1      52.503  29.014  23.037  1.00  0.00    -0.744 OA
ENDBRANCH  93  97
ENDBRANCH  66  90
BRANCH  78 101
ATOM    101  C   UNL A   1      52.398  37.813  26.996  1.00  0.00     0.023 A 
ATOM    102  C   UNL A   1      52.852  38.284  25.749  1.00  0.00     0.031 A 
ATOM    103  C   UNL A   1      53.186  38.069  28.131  1.00  0.00     0.131 A 
ATOM    104  C   UNL A   1      54.078  38.955  25.662  1.00  0.00     0.055 A 
ATOM    105  C   UNL A   1      54.386  38.776  28.045  1.00  0.00     0.041 A 
ATOM    106  F   UNL A   1      52.801  37.632  29.341  1.00  0.00    -0.206 F 
ATOM    107  C   UNL A   1      54.844  39.210  26.804  1.00  0.00     0.022 A 
BRANCH 104 108
ATOM    108  S   UNL A   1      54.766  39.447  24.057  1.00  0.00     0.124 S 
ATOM    109  O   UNL A   1      56.197  39.243  24.267  1.00  0.00    -0.237 OA
ATOM    110  O   UNL A   1      54.128  38.501  23.145  1.00  0.00    -0.237 OA
ATOM    111  O   UNL A   1      54.352  40.839  23.908  1.00  0.00    -0.744 OA
ENDBRANCH 104 108
ENDBRANCH  78 101
ENDBRANCH  52  53
ENDBRANCH  45  47
ENDBRANCH  44  45
ENDBRANCH  43  44
ENDBRANCH  42  43
ENDBRANCH  41  42
ENDBRANCH  40  41
ENDBRANCH   1  40
TORSDOF 23
ENDMDL
MODEL 2
REMARK VINA RESULT:     -10.2      5.698      9.641
REMARK SMILES O=C(Cn1nc(C(=O)OCCOCCOCCOC(=O)c2ccc(-c3c4nc(c(-c5cc(S(=O)(=O)[O-])ccc5F)c5ccc([nH]5)c(-c5cc(S(=O)(=O)[O-])ccc5F)c5nc(c(-c6cc(S(=O)(=O)[O-])ccc6F)c6ccc3[nH]6)C=C5)C=C4)cc2)c2ccccc2c1=O)Nc1ccc2c(c1)C(=O)c1ccccc1C2=O
REMARK SMILES IDX 13 1 12 2 11 3 10 4 9 5 7 6 8 7 6 8 4 9 5 10 90 11 89 12
REMARK SMILES IDX 91 13 84 14 88 15 85 16 87 17 86 18 3 19 2 20 1 21 92 22
REMARK SMILES IDX 93 24 94 25 98 26 95 27 97 28 96 29 99 30 107 31 100 32
REMARK SMILES IDX 101 33 106 34 108 35 102 36 105 37 103 38 104 39 14 40 15 41
REMARK SMILES IDX 16 42 17 43 18 44 19 45 20 46 21 47 22 48 83 49 23 50 82 51
REMARK SMILES IDX 24 52 25 53 26 54 76 55 27 56 81 57 75 58 77 59 28 60 80 61
REMARK SMILES IDX 74 62 73 63 29 65 61 66 41 67 60 68 42 69 45 70 59 71 78 72
REMARK SMILES IDX 43 73 44 74 58 76 79 77 46 78 30 79 31 80 39 81 32 82 38 83
REMARK SMILES IDX 40 84 37 85 33 86 34 87 35 88 36 89 62 90 63 91 71 92 64 93
REMARK SMILES IDX 70 94 72 95 69 96 65 97 66 98 67 99 68 100 47 101 48 102
REMARK SMILES IDX 56 103 49 104 55 105 57 106 54 107 50 108 51 109 52 110
REMARK SMILES IDX 53 111
REMARK H PARENT 92 23 77 64 45 75
REMARK Flexibility Score: inf
ROOT
ATOM      1  C   UNL A   1      40.310  34.316  36.579  1.00  0.00     0.188 C 
ENDROOT
BRANCH   1   2
ATOM      2  O   UNL A   1      39.731  34.736  35.350  1.00  0.00    -0.376 OA
BRANCH   2   3
ATOM      3  C   UNL A   1      38.835  33.857  34.678  1.00  0.00     0.202 C 
BRANCH   3   4
ATOM      4  C   UNL A   1      38.153  34.435  33.443  1.00  0.00     0.261 C 
BRANCH   4   5
ATOM      5  O   UNL A   1      36.821  34.847  33.773  1.00  0.00    -0.458 OA
BRANCH   5   6
ATOM      6  C   UNL A   1      35.879  33.893  33.680  1.00  0.00     0.359 C 
ATOM      7  O   UNL A   1      35.290  33.328  34.582  1.00  0.00    -0.244 OA
BRANCH   6   8
ATOM      8  C   UNL A   1      35.550  33.651  32.218  1.00  0.00     0.176 A 
ATOM      9  N   UNL A   1      35.843  32.379  30.319  1.00  0.00    -0.219 N 
ATOM     10  N   UNL A   1      36.147  32.654  31.633  1.00  0.00    -0.161 NA
ATOM     11  C   UNL A   1      34.837  33.025  29.602  1.00  0.00     0.275 A 
ATOM     12  C   UNL A   1      34.229  34.208  30.241  1.00  0.00     0.051 A 
ATOM     13  O   UNL A   1      34.465  32.666  28.487  1.00  0.00    -0.267 OA
ATOM     14  C   UNL A   1      34.584  34.537  31.545  1.00  0.00     0.022 A 
ATOM     15  C   UNL A   1      33.310  34.998  29.538  1.00  0.00     0.014 A 
ATOM     16  C   UNL A   1      34.021  35.666  32.156  1.00  0.00     0.011 A 
ATOM     17  C   UNL A   1      32.751  36.122  30.147  1.00  0.00     0.001 A 
ATOM     18  C   UNL A   1      33.107  36.455  31.453  1.00  0.00     0.001 A 
BRANCH   9  19
ATOM     19  C   UNL A   1      36.545  31.257  29.698  1.00  0.00     0.248 C 
BRANCH  19  20
ATOM     20  C   UNL A   1      37.953  31.148  30.298  1.00  0.00     0.246 C 
ATOM     21  O   UNL A   1      38.535  32.122  30.768  1.00  0.00    -0.273 OA
ATOM     22  N   UNL A   1      38.511  29.883  30.159  1.00  0.00    -0.324 N 
ATOM     23  H   UNL A   1      37.893  29.117  30.171  1.00  0.00     0.169 HD
BRANCH  22  24
ATOM     24  C   UNL A   1      39.884  29.597  30.001  1.00  0.00     0.042 A 
ATOM     25  C   UNL A   1      40.225  28.539  29.143  1.00  0.00     0.027 A 
ATOM     26  C   UNL A   1      40.876  30.464  30.460  1.00  0.00     0.039 A 
ATOM     27  C   UNL A   1      41.520  28.425  28.630  1.00  0.00     0.015 A 
ATOM     28  C   UNL A   1      42.141  30.403  29.874  1.00  0.00     0.036 A 
ATOM     29  C   UNL A   1      42.444  29.421  28.932  1.00  0.00     0.034 A 
ATOM     30  C   UNL A   1      43.035  31.567  30.004  1.00  0.00     0.194 C 
ATOM     31  C   UNL A   1      43.597  29.630  28.032  1.00  0.00     0.194 C 
ATOM     32  O   UNL A   1      43.125  32.200  31.043  1.00  0.00    -0.289 OA
ATOM     33  C   UNL A   1      43.672  32.003  28.748  1.00  0.00     0.034 A 
ATOM     34  C   UNL A   1      43.928  31.047  27.760  1.00  0.00     0.034 A 
ATOM     35  O   UNL A   1      44.128  28.701  27.442  1.00  0.00    -0.289 OA
ATOM     36  C   UNL A   1      43.825  33.363  28.484  1.00  0.00     0.013 A 
ATOM     37  C   UNL A   1      44.317  31.448  26.483  1.00  0.00     0.013 A 
ATOM     38  C   UNL A   1      44.179  33.765  27.196  1.00  0.00     0.001 A 
ATOM     39  C   UNL A   1      44.417  32.812  26.199  1.00  0.00     0.001 A 
ENDBRANCH  22  24
ENDBRANCH  19  20
ENDBRANCH   9  19
ENDBRANCH   6   8
ENDBRANCH   5   6
ENDBRANCH   4   5
ENDBRANCH   3   4
ENDBRANCH   2   3
ENDBRANCH   1   2
BRANCH   1  40
ATOM     40  C   UNL A   1      41.502  33.335  36.577  1.00  0.00     0.188 C 
BRANCH  40  41
ATOM     41  O   UNL A   1      41.264  31.961  36.848  1.00  0.00    -0.376 OA
BRANCH  41  42
ATOM     42  C   UNL A   1      41.861  30.987  36.001  1.00  0.00     0.202 C 
BRANCH  42  43
ATOM     43  C   UNL A   1      41.192  29.616  35.979  1.00  0.00     0.261 C 
BRANCH  43  44
ATOM     44  O   UNL A   1      42.148  28.590  36.292  1.00  0.00    -0.460 OA
BRANCH  44  45
ATOM     45  C   UNL A   1      41.863  27.363  35.798  1.00  0.00     0.338 C 
ATOM     46  O   UNL A   1      41.086  26.545  36.260  1.00  0.00    -0.246 OA
BRANCH  45  47
ATOM     47  C   UNL A   1      42.517  27.212  34.487  1.00  0.00     0.060 A 
ATOM     48  C   UNL A   1      41.956  27.767  33.333  1.00  0.00     0.016 A 
ATOM     49  C   UNL A   1      43.736  26.525  34.430  1.00  0.00     0.016 A 
ATOM     50  C   UNL A   1      42.649  27.675  32.124  1.00  0.00     0.010 A 
ATOM     51  C   UNL A   1      44.419  26.423  33.218  1.00  0.00     0.010 A 
ATOM     52  C   UNL A   1      43.894  27.024  32.064  1.00  0.00    -0.014 A 
BRANCH  52  53
ATOM     53  C   UNL A   1      44.724  27.133  30.842  1.00  0.00     0.031 A 
ATOM     54  C   UNL A   1      45.652  28.284  30.619  1.00  0.00     0.074 A 
ATOM     55  C   UNL A   1      44.607  26.164  29.915  1.00  0.00     0.049 A 
ATOM     56  N   UNL A   1      46.487  28.481  29.633  1.00  0.00    -0.248 NA
ATOM     57  C   UNL A   1      45.632  29.358  31.620  1.00  0.00     0.031 C 
ATOM     58  C   UNL A   1      43.704  25.018  30.022  1.00  0.00     0.029 A 
ATOM     59  N   UNL A   1      45.241  25.983  28.713  1.00  0.00    -0.354 N 
ATOM     60  C   UNL A   1      47.114  29.692  29.900  1.00  0.00     0.074 A 
ATOM     61  C   UNL A   1      46.518  30.210  31.114  1.00  0.00     0.031 C 
ATOM     62  C   UNL A   1      43.852  24.244  28.937  1.00  0.00     0.029 A 
ATOM     63  C   UNL A   1      44.848  24.843  28.052  1.00  0.00     0.049 A 
ATOM     64  H   UNL A   1      45.913  26.610  28.357  1.00  0.00     0.167 HD
ATOM     65  C   UNL A   1      48.108  30.293  29.203  1.00  0.00     0.034 A 
ATOM     66  C   UNL A   1      45.252  24.327  26.874  1.00  0.00     0.034 A 
ATOM     67  C   UNL A   1      48.686  29.754  27.995  1.00  0.00     0.049 A 
ATOM     68  C   UNL A   1      46.357  25.016  26.117  1.00  0.00     0.074 A 
ATOM     69  C   UNL A   1      49.739  30.261  27.252  1.00  0.00     0.029 A 
ATOM     70  N   UNL A   1      48.268  28.598  27.350  1.00  0.00    -0.354 N 
ATOM     71  N   UNL A   1      47.015  26.107  26.435  1.00  0.00    -0.248 NA
ATOM     72  C   UNL A   1      46.792  24.399  24.858  1.00  0.00     0.031 C 
ATOM     73  C   UNL A   1      49.918  29.447  26.131  1.00  0.00     0.029 A 
ATOM     74  C   UNL A   1      49.022  28.392  26.205  1.00  0.00     0.049 A 
ATOM     75  H   UNL A   1      47.542  28.010  27.661  1.00  0.00     0.167 HD
ATOM     76  C   UNL A   1      47.956  26.293  25.427  1.00  0.00     0.074 A 
ATOM     77  C   UNL A   1      47.796  25.190  24.502  1.00  0.00     0.031 C 
ATOM     78  C   UNL A   1      48.866  27.290  25.285  1.00  0.00     0.034 A 
BRANCH  65  79
ATOM     79  C   UNL A   1      48.678  31.588  29.728  1.00  0.00     0.023 A 
ATOM     80  C   UNL A   1      49.669  31.571  30.728  1.00  0.00     0.031 A 
ATOM     81  C   UNL A   1      48.139  32.829  29.345  1.00  0.00     0.131 A 
ATOM     82  C   UNL A   1      50.067  32.772  31.332  1.00  0.00     0.055 A 
ATOM     83  C   UNL A   1      48.565  34.024  29.926  1.00  0.00     0.041 A 
ATOM     84  F   UNL A   1      47.189  32.896  28.399  1.00  0.00    -0.206 F 
ATOM     85  C   UNL A   1      49.524  33.997  30.933  1.00  0.00     0.022 A 
BRANCH  82  86
ATOM     86  S   UNL A   1      51.254  32.784  32.704  1.00  0.00     0.124 S 
ATOM     87  O   UNL A   1      52.490  32.392  32.029  1.00  0.00    -0.237 OA
ATOM     88  O   UNL A   1      51.197  34.174  33.146  1.00  0.00    -0.237 OA
ATOM     89  O   UNL A   1      50.719  31.801  33.639  1.00  0.00    -0.744 OA
ENDBRANCH  82  86
ENDBRANCH  65  79
BRANCH  66  90
ATOM     90  C   UNL A   1      44.655  23.042  26.414  1.00  0.00     0.023 A 
ATOM     91  C   UNL A   1      45.470  21.937  26.111  1.00  0.00     0.031 A 
ATOM     92  C   UNL A   1      43.281  22.949  26.140  1.00  0.00     0.131 A 
ATOM     93  C   UNL A   1      44.912  20.813  25.489  1.00  0.00     0.055 A 
ATOM     94  C   UNL A   1      42.719  21.803  25.580  1.00  0.00     0.041 A 
ATOM     95  F   UNL A   1      42.470  23.988  26.398  1.00  0.00    -0.206 F 
ATOM     96  C   UNL A   1      43.540  20.733  25.233  1.00  0.00     0.022 A 
BRANCH  93  97
ATOM     97  S   UNL A   1      45.971  19.479  24.865  1.00  0.00     0.124 S 
ATOM     98  O   UNL A   1      46.155  18.655  26.056  1.00  0.00    -0.237 OA
ATOM     99  O   UNL A   1      45.132  18.898  23.819  1.00  0.00    -0.237 OA
ATOM    100  O   UNL A   1      47.161  20.178  24.391  1.00  0.00    -0.744 OA
ENDBRANCH  93  97
ENDBRANCH  66  90
BRANCH  78 101
ATOM    101  C   UNL A   1      49.777  27.266  24.081  1.00  0.00     0.023 A 
ATOM    102  C   UNL A   1      51.148  26.981  24.237  1.00  0.00     0.031 A 
ATOM    103  C   UNL A   1      49.322  27.667  22.813  1.00  0.00     0.131 A 
ATOM    104  C   UNL A   1      52.020  27.136  23.152  1.00  0.00     0.055 A 
ATOM    105  C   UNL A   1      50.188  27.778  21.724  1.00  0.00     0.041 A 
ATOM    106  F   UNL A   1      48.026  27.960  22.616  1.00  0.00    -0.206 F 
ATOM    107  C   UNL A   1      51.546  27.526  21.895  1.00  0.00     0.022 A 
BRANCH 104 108
ATOM    108  S   UNL A   1      53.810  26.920  23.350  1.00  0.00     0.124 S 
ATOM    109  O   UNL A   1      54.194  26.379  22.049  1.00  0.00    -0.237 OA
ATOM    110  O   UNL A   1      54.257  28.286  23.614  1.00  0.00    -0.237 OA
ATOM    111  O   UNL A   1      53.932  25.992  24.470  1.00  0.00    -0.744 OA
ENDBRANCH 104 108
ENDBRANCH  78 101
ENDBRANCH  52  53
ENDBRANCH  45  47
ENDBRANCH  44  45
ENDBRANCH  43  44
ENDBRANCH  42  43
ENDBRANCH  41  42
ENDBRANCH  40  41
ENDBRANCH   1  40
TORSDOF 23
ENDMDL
MODEL 3
REMARK VINA RESULT:     -10.2      7.167     15.270
REMARK SMILES O=C(Cn1nc(C(=O)OCCOCCOCCOC(=O)c2ccc(-c3c4nc(c(-c5cc(S(=O)(=O)[O-])ccc5F)c5ccc([nH]5)c(-c5cc(S(=O)(=O)[O-])ccc5F)c5nc(c(-c6cc(S(=O)(=O)[O-])ccc6F)c6ccc3[nH]6)C=C5)C=C4)cc2)c2ccccc2c1=O)Nc1ccc2c(c1)C(=O)c1ccccc1C2=O
REMARK SMILES IDX 13 1 12 2 11 3 10 4 9 5 7 6 8 7 6 8 4 9 5 10 90 11 89 12
REMARK SMILES IDX 91 13 84 14 88 15 85 16 87 17 86 18 3 19 2 20 1 21 92 22
REMARK SMILES IDX 93 24 94 25 98 26 95 27 97 28 96 29 99 30 107 31 100 32
REMARK SMILES IDX 101 33 106 34 108 35 102 36 105 37 103 38 104 39 14 40 15 41
REMARK SMILES IDX 16 42 17 43 18 44 19 45 20 46 21 47 22 48 83 49 23 50 82 51
REMARK SMILES IDX 24 52 25 53 26 54 76 55 27 56 81 57 75 58 77 59 28 60 80 61
REMARK SMILES IDX 74 62 73 63 29 65 61 66 41 67 60 68 42 69 45 70 59 71 78 72
REMARK SMILES IDX 43 73 44 74 58 76 79 77 46 78 30 79 31 80 39 81 32 82 38 83
REMARK SMILES IDX 40 84 37 85 33 86 34 87 35 88 36 89 62 90 63 91 71 92 64 93
REMARK SMILES IDX 70 94 72 95 69 96 65 97 66 98 67 99 68 100 47 101 48 102
REMARK SMILES IDX 56 103 49 104 55 105 57 106 54 107 50 108 51 109 52 110
REMARK SMILES IDX 53 111
REMARK H PARENT 92 23 77 64 45 75
REMARK Flexibility Score: inf
ROOT
ATOM      1  C   UNL A   1      49.533  38.857  27.623  1.00  0.00     0.188 C 
ENDROOT
BRANCH   1   2
ATOM      2  O   UNL A   1      49.034  38.899  28.955  1.00  0.00    -0.376 OA
BRANCH   2   3
ATOM      3  C   UNL A   1      47.625  38.863  29.160  1.00  0.00     0.202 C 
BRANCH   3   4
ATOM      4  C   UNL A   1      47.003  40.161  29.664  1.00  0.00     0.261 C 
BRANCH   4   5
ATOM      5  O   UNL A   1      46.608  40.972  28.551  1.00  0.00    -0.458 OA
BRANCH   5   6
ATOM      6  C   UNL A   1      45.590  41.818  28.783  1.00  0.00     0.359 C 
ATOM      7  O   UNL A   1      45.446  42.581  29.719  1.00  0.00    -0.244 OA
BRANCH   6   8
ATOM      8  C   UNL A   1      44.621  41.772  27.615  1.00  0.00     0.176 A 
ATOM      9  N   UNL A   1      43.905  42.667  25.617  1.00  0.00    -0.219 N 
ATOM     10  N   UNL A   1      44.740  42.700  26.710  1.00  0.00    -0.161 NA
ATOM     11  C   UNL A   1      43.015  41.628  25.347  1.00  0.00     0.275 A 
ATOM     12  C   UNL A   1      42.825  40.631  26.418  1.00  0.00     0.051 A 
ATOM     13  O   UNL A   1      42.393  41.527  24.293  1.00  0.00    -0.267 OA
ATOM     14  C   UNL A   1      43.615  40.697  27.561  1.00  0.00     0.022 A 
ATOM     15  C   UNL A   1      41.852  39.631  26.290  1.00  0.00     0.014 A 
ATOM     16  C   UNL A   1      43.433  39.762  28.589  1.00  0.00     0.011 A 
ATOM     17  C   UNL A   1      41.670  38.701  27.314  1.00  0.00     0.001 A 
ATOM     18  C   UNL A   1      42.459  38.768  28.461  1.00  0.00     0.001 A 
BRANCH   9  19
ATOM     19  C   UNL A   1      44.065  43.734  24.630  1.00  0.00     0.248 C 
BRANCH  19  20
ATOM     20  C   UNL A   1      44.399  43.117  23.267  1.00  0.00     0.246 C 
ATOM     21  O   UNL A   1      45.492  42.605  23.037  1.00  0.00    -0.273 OA
ATOM     22  N   UNL A   1      43.393  43.290  22.325  1.00  0.00    -0.324 N 
ATOM     23  H   UNL A   1      42.467  43.314  22.658  1.00  0.00     0.169 HD
BRANCH  22  24
ATOM     24  C   UNL A   1      43.578  43.436  20.933  1.00  0.00     0.042 A 
ATOM     25  C   UNL A   1      42.610  42.861  20.093  1.00  0.00     0.027 A 
ATOM     26  C   UNL A   1      44.521  44.316  20.401  1.00  0.00     0.039 A 
ATOM     27  C   UNL A   1      42.491  43.263  18.761  1.00  0.00     0.015 A 
ATOM     28  C   UNL A   1      44.340  44.784  19.100  1.00  0.00     0.036 A 
ATOM     29  C   UNL A   1      43.304  44.297  18.304  1.00  0.00     0.034 A 
ATOM     30  C   UNL A   1      45.031  46.020  18.692  1.00  0.00     0.194 C 
ATOM     31  C   UNL A   1      42.873  45.087  17.133  1.00  0.00     0.194 C 
ATOM     32  O   UNL A   1      46.179  46.258  19.028  1.00  0.00    -0.289 OA
ATOM     33  C   UNL A   1      44.181  47.006  18.001  1.00  0.00     0.034 A 
ATOM     34  C   UNL A   1      43.097  46.547  17.248  1.00  0.00     0.034 A 
ATOM     35  O   UNL A   1      42.243  44.585  16.215  1.00  0.00    -0.289 OA
ATOM     36  C   UNL A   1      44.344  48.366  18.263  1.00  0.00     0.013 A 
ATOM     37  C   UNL A   1      42.145  47.445  16.770  1.00  0.00     0.013 A 
ATOM     38  C   UNL A   1      43.373  49.261  17.816  1.00  0.00     0.001 A 
ATOM     39  C   UNL A   1      42.275  48.802  17.079  1.00  0.00     0.001 A 
ENDBRANCH  22  24
ENDBRANCH  19  20
ENDBRANCH   9  19
ENDBRANCH   6   8
ENDBRANCH   5   6
ENDBRANCH   4   5
ENDBRANCH   3   4
ENDBRANCH   2   3
ENDBRANCH   1   2
BRANCH   1  40
ATOM     40  C   UNL A   1      48.588  38.501  26.455  1.00  0.00     0.188 C 
BRANCH  40  41
ATOM     41  O   UNL A   1      48.790  37.283  25.752  1.00  0.00    -0.376 OA
BRANCH  41  42
ATOM     42  C   UNL A   1      48.277  36.081  26.311  1.00  0.00     0.202 C 
BRANCH  42  43
ATOM     43  C   UNL A   1      47.977  34.957  25.324  1.00  0.00     0.261 C 
BRANCH  43  44
ATOM     44  O   UNL A   1      47.186  33.937  25.956  1.00  0.00    -0.460 OA
BRANCH  44  45
ATOM     45  C   UNL A   1      45.850  34.149  25.943  1.00  0.00     0.338 C 
ATOM     46  O   UNL A   1      45.084  33.971  25.011  1.00  0.00    -0.246 OA
BRANCH  45  47
ATOM     47  C   UNL A   1      45.405  34.476  27.309  1.00  0.00     0.060 A 
ATOM     48  C   UNL A   1      44.566  35.567  27.552  1.00  0.00     0.016 A 
ATOM     49  C   UNL A   1      45.818  33.645  28.357  1.00  0.00     0.016 A 
ATOM     50  C   UNL A   1      44.097  35.793  28.848  1.00  0.00     0.010 A 
ATOM     51  C   UNL A   1      45.360  33.882  29.653  1.00  0.00     0.010 A 
ATOM     52  C   UNL A   1      44.473  34.940  29.900  1.00  0.00    -0.014 A 
BRANCH  52  53
ATOM     53  C   UNL A   1      43.794  35.045  31.213  1.00  0.00     0.031 A 
ATOM     54  C   UNL A   1      42.475  34.392  31.473  1.00  0.00     0.074 A 
ATOM     55  C   UNL A   1      44.395  35.771  32.174  1.00  0.00     0.049 A 
ATOM     56  N   UNL A   1      41.793  34.342  32.588  1.00  0.00    -0.248 NA
ATOM     57  C   UNL A   1      41.828  33.722  30.338  1.00  0.00     0.031 C 
ATOM     58  C   UNL A   1      45.666  36.476  32.008  1.00  0.00     0.029 A 
ATOM     59  N   UNL A   1      44.029  36.035  33.469  1.00  0.00    -0.354 N 
ATOM     60  C   UNL A   1      40.645  33.616  32.300  1.00  0.00     0.074 A 
ATOM     61  C   UNL A   1      40.697  33.295  30.888  1.00  0.00     0.031 C 
ATOM     62  C   UNL A   1      45.983  37.081  33.162  1.00  0.00     0.029 A 
ATOM     63  C   UNL A   1      44.933  36.819  34.145  1.00  0.00     0.049 A 
ATOM     64  H   UNL A   1      43.198  35.695  33.875  1.00  0.00     0.167 HD
ATOM     65  C   UNL A   1      39.657  33.238  33.148  1.00  0.00     0.034 A 
ATOM     66  C   UNL A   1      44.929  37.267  35.417  1.00  0.00     0.034 A 
ATOM     67  C   UNL A   1      39.630  33.570  34.553  1.00  0.00     0.049 A 
ATOM     68  C   UNL A   1      43.819  36.835  36.338  1.00  0.00     0.074 A 
ATOM     69  C   UNL A   1      38.702  33.181  35.504  1.00  0.00     0.029 A 
ATOM     70  N   UNL A   1      40.559  34.365  35.209  1.00  0.00    -0.354 N 
ATOM     71  N   UNL A   1      42.791  36.060  36.080  1.00  0.00    -0.248 NA
ATOM     72  C   UNL A   1      43.874  37.315  37.725  1.00  0.00     0.031 C 
ATOM     73  C   UNL A   1      39.036  33.786  36.717  1.00  0.00     0.029 A 
ATOM     74  C   UNL A   1      40.210  34.501  36.544  1.00  0.00     0.049 A 
ATOM     75  H   UNL A   1      41.350  34.773  34.788  1.00  0.00     0.167 HD
ATOM     76  C   UNL A   1      42.092  35.941  37.277  1.00  0.00     0.074 A 
ATOM     77  C   UNL A   1      42.826  36.706  38.264  1.00  0.00     0.031 C 
ATOM     78  C   UNL A   1      40.945  35.261  37.529  1.00  0.00     0.034 A 
BRANCH  65  79
ATOM     79  C   UNL A   1      38.530  32.390  32.612  1.00  0.00     0.023 A 
ATOM     80  C   UNL A   1      37.390  32.997  32.053  1.00  0.00     0.031 A 
ATOM     81  C   UNL A   1      38.523  30.995  32.788  1.00  0.00     0.131 A 
ATOM     82  C   UNL A   1      36.278  32.212  31.718  1.00  0.00     0.055 A 
ATOM     83  C   UNL A   1      37.426  30.215  32.420  1.00  0.00     0.041 A 
ATOM     84  F   UNL A   1      39.585  30.369  33.322  1.00  0.00    -0.206 F 
ATOM     85  C   UNL A   1      36.292  30.825  31.894  1.00  0.00     0.022 A 
BRANCH  82  86
ATOM     86  S   UNL A   1      34.746  32.968  31.104  1.00  0.00     0.124 S 
ATOM     87  O   UNL A   1      33.820  32.692  32.201  1.00  0.00    -0.237 OA
ATOM     88  O   UNL A   1      35.136  34.367  30.952  1.00  0.00    -0.237 OA
ATOM     89  O   UNL A   1      34.474  32.249  29.865  1.00  0.00    -0.744 OA
ENDBRANCH  82  86
ENDBRANCH  65  79
BRANCH  66  90
ATOM     90  C   UNL A   1      46.075  38.095  35.887  1.00  0.00     0.023 A 
ATOM     91  C   UNL A   1      47.222  37.493  36.432  1.00  0.00     0.031 A 
ATOM     92  C   UNL A   1      45.978  39.495  35.924  1.00  0.00     0.131 A 
ATOM     93  C   UNL A   1      48.195  38.287  37.052  1.00  0.00     0.055 A 
ATOM     94  C   UNL A   1      46.980  40.287  36.485  1.00  0.00     0.041 A 
ATOM     95  F   UNL A   1      44.892  40.110  35.430  1.00  0.00    -0.206 F 
ATOM     96  C   UNL A   1      48.088  39.681  37.070  1.00  0.00     0.022 A 
BRANCH  93  97
ATOM     97  S   UNL A   1      49.559  37.529  37.977  1.00  0.00     0.124 S 
ATOM     98  O   UNL A   1      50.711  37.855  37.141  1.00  0.00    -0.237 OA
ATOM     99  O   UNL A   1      49.484  38.236  39.253  1.00  0.00    -0.237 OA
ATOM    100  O   UNL A   1      49.196  36.116  38.027  1.00  0.00    -0.744 OA
ENDBRANCH  93  97
ENDBRANCH  66  90
BRANCH  78 101
ATOM    101  C   UNL A   1      40.378  35.300  38.928  1.00  0.00     0.023 A 
ATOM    102  C   UNL A   1      40.642  34.248  39.828  1.00  0.00     0.031 A 
ATOM    103  C   UNL A   1      39.466  36.296  39.318  1.00  0.00     0.131 A 
ATOM    104  C   UNL A   1      39.971  34.198  41.056  1.00  0.00     0.055 A 
ATOM    105  C   UNL A   1      38.833  36.264  40.562  1.00  0.00     0.041 A 
ATOM    106  F   UNL A   1      39.174  37.313  38.492  1.00  0.00    -0.206 F 
ATOM    107  C   UNL A   1      39.074  35.203  41.431  1.00  0.00     0.022 A 
BRANCH 104 108
ATOM    108  S   UNL A   1      40.172  32.785  42.177  1.00  0.00     0.124 S 
ATOM    109  O   UNL A   1      39.675  31.680  41.363  1.00  0.00    -0.237 OA
ATOM    110  O   UNL A   1      41.614  32.785  42.416  1.00  0.00    -0.237 OA
ATOM    111  O   UNL A   1      39.345  33.130  43.329  1.00  0.00    -0.744 OA
ENDBRANCH 104 108
ENDBRANCH  78 101
ENDBRANCH  52  53
ENDBRANCH  45  47
ENDBRANCH  44  45
ENDBRANCH  43  44
ENDBRANCH  42  43
ENDBRANCH  41  42
ENDBRANCH  40  41
ENDBRANCH   1  40
TORSDOF 23
ENDMDL
