MODEL 1
REMARK VINA RESULT:     -11.3      0.000      0.000
REMARK SMILES CN1C(=O)C[C@@H](C(=O)OCCOCCOCCOC(=O)c2ccc(-c3c4nc(c(-c5cc(S(=O)(=O)[O-])ccc5F)c5ccc([nH]5)c(-c5cc(S(=O)(=O)[O-])ccc5F)c5nc(c(-c6cc(S(=O)(=O)[O-])ccc6F)c6ccc3[nH]6)C=C5)C=C4)cc2)C12CCN(C(=O)c1ccccc1-n1cccn1)CC2
REMARK SMILES IDX 14 1 13 2 12 3 11 4 10 5 9 6 7 7 8 8 6 9 1 10 2 11 3 12
REMARK SMILES IDX 84 13 4 14 5 15 85 16 102 17 86 18 101 19 87 20 88 21 89 22
REMARK SMILES IDX 90 23 91 24 95 25 92 26 94 27 93 28 96 29 97 30 100 31 98 32
REMARK SMILES IDX 99 33 15 34 16 35 17 36 18 37 19 38 20 39 21 40 22 41 83 42
REMARK SMILES IDX 23 43 82 44 24 45 25 46 26 47 76 48 27 49 81 50 75 51 77 52
REMARK SMILES IDX 28 53 80 54 74 55 73 56 29 58 61 59 41 60 60 61 42 62 45 63
REMARK SMILES IDX 59 64 78 65 43 66 44 67 58 69 79 70 46 71 30 72 31 73 39 74
REMARK SMILES IDX 32 75 38 76 40 77 37 78 33 79 34 80 35 81 36 82 62 83 63 84
REMARK SMILES IDX 71 85 64 86 70 87 72 88 69 89 65 90 66 91 67 92 68 93 47 94
REMARK SMILES IDX 48 95 56 96 49 97 55 98 57 99 54 100 50 101 51 102 52 103
REMARK SMILES IDX 53 104
REMARK H PARENT 77 57 45 68
REMARK Flexibility Score: inf
ROOT
ATOM      1  C   UNL A   1      34.725  32.863  29.233  1.00  0.00     0.188 C 
ENDROOT
BRANCH   1   2
ATOM      2  C   UNL A   1      35.891  32.537  28.310  1.00  0.00     0.188 C 
BRANCH   2   3
ATOM      3  O   UNL A   1      35.972  31.221  27.772  1.00  0.00    -0.376 OA
BRANCH   3   4
ATOM      4  C   UNL A   1      34.840  30.369  27.867  1.00  0.00     0.202 C 
BRANCH   4   5
ATOM      5  C   UNL A   1      34.830  29.151  26.930  1.00  0.00     0.261 C 
BRANCH   5   6
ATOM      6  O   UNL A   1      33.810  28.143  27.166  1.00  0.00    -0.463 OA
BRANCH   6   7
ATOM      7  C   UNL A   1      32.616  28.390  26.577  1.00  0.00     0.311 C 
ATOM      8  O   UNL A   1      31.577  28.569  27.208  1.00  0.00    -0.252 OA
BRANCH   7   9
ATOM      9  C   UNL A   1      32.561  28.253  25.062  1.00  0.00     0.134 C 
ATOM     10  C   UNL A   1      29.360  27.452  23.234  1.00  0.00     0.147 C 
ATOM     11  N   UNL A   1      30.493  27.975  23.977  1.00  0.00    -0.339 N 
ATOM     12  C   UNL A   1      30.649  29.345  24.132  1.00  0.00     0.223 C 
ATOM     13  C   UNL A   1      31.736  27.223  24.234  1.00  0.00     0.060 C 
ATOM     14  O   UNL A   1      29.814  30.202  23.884  1.00  0.00    -0.275 OA
ATOM     15  C   UNL A   1      32.059  29.620  24.567  1.00  0.00     0.118 C 
ATOM     16  C   UNL A   1      31.445  25.854  24.873  1.00  0.00     0.051 C 
ATOM     17  C   UNL A   1      32.462  26.958  22.873  1.00  0.00     0.051 C 
ATOM     18  C   UNL A   1      32.676  24.962  24.962  1.00  0.00     0.122 C 
ATOM     19  C   UNL A   1      33.646  25.989  22.963  1.00  0.00     0.122 C 
ATOM     20  N   UNL A   1      33.299  24.754  23.662  1.00  0.00    -0.338 N 
ATOM     21  C   UNL A   1      33.805  23.547  23.139  1.00  0.00     0.256 C 
ATOM     22  O   UNL A   1      34.440  23.519  22.084  1.00  0.00    -0.269 OA
BRANCH  21  23
ATOM     23  C   UNL A   1      33.642  22.233  23.825  1.00  0.00     0.065 A 
ATOM     24  C   UNL A   1      32.411  21.581  23.610  1.00  0.00     0.016 A 
ATOM     25  C   UNL A   1      34.581  21.622  24.667  1.00  0.00     0.077 A 
ATOM     26  C   UNL A   1      32.155  20.317  24.154  1.00  0.00     0.001 A 
ATOM     27  C   UNL A   1      34.339  20.330  25.178  1.00  0.00     0.029 A 
ATOM     28  C   UNL A   1      33.126  19.684  24.923  1.00  0.00     0.002 A 
BRANCH  25  29
ATOM     29  N   UNL A   1      35.761  22.277  25.079  1.00  0.00    -0.240 N 
ATOM     30  C   UNL A   1      37.056  22.008  24.696  1.00  0.00     0.115 A 
ATOM     31  N   UNL A   1      35.710  23.333  25.938  1.00  0.00    -0.177 NA
ATOM     32  C   UNL A   1      37.869  22.873  25.388  1.00  0.00     0.042 A 
ATOM     33  C   UNL A   1      36.987  23.646  26.154  1.00  0.00     0.135 A 
ENDBRANCH  25  29
ENDBRANCH  21  23
ENDBRANCH   7   9
ENDBRANCH   6   7
ENDBRANCH   5   6
ENDBRANCH   4   5
ENDBRANCH   3   4
ENDBRANCH   2   3
ENDBRANCH   1   2
BRANCH   1  34
ATOM     34  O   UNL A   1      33.736  33.658  28.591  1.00  0.00    -0.376 OA
BRANCH  34  35
ATOM     35  C   UNL A   1      34.104  35.031  28.512  1.00  0.00     0.202 C 
BRANCH  35  36
ATOM     36  C   UNL A   1      33.055  35.876  29.256  1.00  0.00     0.261 C 
BRANCH  36  37
ATOM     37  O   UNL A   1      32.446  35.237  30.407  1.00  0.00    -0.460 OA
BRANCH  37  38
ATOM     38  C   UNL A   1      32.747  35.839  31.578  1.00  0.00     0.338 C 
ATOM     39  O   UNL A   1      32.152  36.798  32.032  1.00  0.00    -0.246 OA
BRANCH  38  40
ATOM     40  C   UNL A   1      33.751  35.109  32.368  1.00  0.00     0.060 A 
ATOM     41  C   UNL A   1      35.061  35.597  32.361  1.00  0.00     0.016 A 
ATOM     42  C   UNL A   1      33.484  33.861  32.919  1.00  0.00     0.016 A 
ATOM     43  C   UNL A   1      36.117  34.836  32.845  1.00  0.00     0.010 A 
ATOM     44  C   UNL A   1      34.541  33.107  33.449  1.00  0.00     0.010 A 
ATOM     45  C   UNL A   1      35.868  33.579  33.398  1.00  0.00    -0.014 A 
BRANCH  45  46
ATOM     46  C   UNL A   1      37.001  32.743  33.877  1.00  0.00     0.031 A 
ATOM     47  C   UNL A   1      37.663  33.059  35.190  1.00  0.00     0.074 A 
ATOM     48  C   UNL A   1      37.423  31.691  33.151  1.00  0.00     0.049 A 
ATOM     49  N   UNL A   1      38.782  32.603  35.687  1.00  0.00    -0.248 NA
ATOM     50  C   UNL A   1      36.965  34.018  36.058  1.00  0.00     0.031 C 
ATOM     51  C   UNL A   1      36.798  31.207  31.918  1.00  0.00     0.029 A 
ATOM     52  N   UNL A   1      38.488  30.844  33.335  1.00  0.00    -0.354 N 
ATOM     53  C   UNL A   1      38.944  33.243  36.912  1.00  0.00     0.074 A 
ATOM     54  C   UNL A   1      37.804  34.123  37.078  1.00  0.00     0.031 C 
ATOM     55  C   UNL A   1      37.495  30.158  31.454  1.00  0.00     0.029 A 
ATOM     56  C   UNL A   1      38.667  29.957  32.300  1.00  0.00     0.049 A 
ATOM     57  H   UNL A   1      39.067  30.870  34.132  1.00  0.00     0.167 HD
ATOM     58  C   UNL A   1      39.958  33.115  37.803  1.00  0.00     0.034 A 
ATOM     59  C   UNL A   1      39.691  29.127  32.022  1.00  0.00     0.034 A 
ATOM     60  C   UNL A   1      41.086  32.234  37.610  1.00  0.00     0.049 A 
ATOM     61  C   UNL A   1      40.871  29.093  32.959  1.00  0.00     0.074 A 
ATOM     62  C   UNL A   1      42.185  32.045  38.430  1.00  0.00     0.029 A 
ATOM     63  N   UNL A   1      41.261  31.395  36.517  1.00  0.00    -0.354 N 
ATOM     64  N   UNL A   1      41.061  29.762  34.073  1.00  0.00    -0.248 NA
ATOM     65  C   UNL A   1      41.980  28.202  32.594  1.00  0.00     0.031 C 
ATOM     66  C   UNL A   1      43.058  31.151  37.799  1.00  0.00     0.029 A 
ATOM     67  C   UNL A   1      42.466  30.715  36.623  1.00  0.00     0.049 A 
ATOM     68  H   UNL A   1      40.624  31.298  35.773  1.00  0.00     0.167 HD
ATOM     69  C   UNL A   1      42.301  29.351  34.555  1.00  0.00     0.074 A 
ATOM     70  C   UNL A   1      42.805  28.368  33.617  1.00  0.00     0.031 C 
ATOM     71  C   UNL A   1      42.961  29.746  35.673  1.00  0.00     0.034 A 
BRANCH  58  72
ATOM     72  C   UNL A   1      39.935  34.017  39.015  1.00  0.00     0.023 A 
ATOM     73  C   UNL A   1      39.328  33.637  40.224  1.00  0.00     0.031 A 
ATOM     74  C   UNL A   1      40.508  35.301  38.942  1.00  0.00     0.131 A 
ATOM     75  C   UNL A   1      39.250  34.554  41.286  1.00  0.00     0.055 A 
ATOM     76  C   UNL A   1      40.495  36.179  40.026  1.00  0.00     0.041 A 
ATOM     77  F   UNL A   1      41.077  35.730  37.804  1.00  0.00    -0.206 F 
ATOM     78  C   UNL A   1      39.852  35.813  41.204  1.00  0.00     0.022 A 
BRANCH  75  79
ATOM     79  S   UNL A   1      38.229  34.137  42.727  1.00  0.00     0.124 S 
ATOM     80  O   UNL A   1      38.030  32.703  42.539  1.00  0.00    -0.237 OA
ATOM     81  O   UNL A   1      39.084  34.527  43.842  1.00  0.00    -0.237 OA
ATOM     82  O   UNL A   1      37.030  34.953  42.545  1.00  0.00    -0.744 OA
ENDBRANCH  75  79
ENDBRANCH  58  72
BRANCH  59  83
ATOM     83  C   UNL A   1      39.693  28.331  30.761  1.00  0.00     0.023 A 
ATOM     84  C   UNL A   1      40.431  28.743  29.642  1.00  0.00     0.031 A 
ATOM     85  C   UNL A   1      38.916  27.162  30.643  1.00  0.00     0.131 A 
ATOM     86  C   UNL A   1      40.350  28.015  28.444  1.00  0.00     0.055 A 
ATOM     87  C   UNL A   1      38.884  26.410  29.470  1.00  0.00     0.041 A 
ATOM     88  F   UNL A   1      38.183  26.727  31.682  1.00  0.00    -0.206 F 
ATOM     89  C   UNL A   1      39.596  26.843  28.355  1.00  0.00     0.022 A 
BRANCH  86  90
ATOM     90  S   UNL A   1      41.182  28.671  26.972  1.00  0.00     0.124 S 
ATOM     91  O   UNL A   1      41.699  27.455  26.356  1.00  0.00    -0.237 OA
ATOM     92  O   UNL A   1      40.084  29.329  26.272  1.00  0.00    -0.237 OA
ATOM     93  O   UNL A   1      42.193  29.570  27.527  1.00  0.00    -0.744 OA
ENDBRANCH  86  90
ENDBRANCH  59  83
BRANCH  71  94
ATOM     94  C   UNL A   1      44.276  29.067  35.964  1.00  0.00     0.023 A 
ATOM     95  C   UNL A   1      44.347  27.864  36.687  1.00  0.00     0.031 A 
ATOM     96  C   UNL A   1      45.481  29.647  35.525  1.00  0.00     0.131 A 
ATOM     97  C   UNL A   1      45.597  27.309  36.999  1.00  0.00     0.055 A 
ATOM     98  C   UNL A   1      46.718  29.060  35.787  1.00  0.00     0.041 A 
ATOM     99  F   UNL A   1      45.471  30.798  34.833  1.00  0.00    -0.206 F 
ATOM    100  C   UNL A   1      46.782  27.891  36.539  1.00  0.00     0.022 A 
BRANCH  97 101
ATOM    101  S   UNL A   1      45.662  25.865  38.094  1.00  0.00     0.124 S 
ATOM    102  O   UNL A   1      46.945  26.050  38.766  1.00  0.00    -0.237 OA
ATOM    103  O   UNL A   1      44.475  26.047  38.923  1.00  0.00    -0.237 OA
ATOM    104  O   UNL A   1      45.604  24.732  37.171  1.00  0.00    -0.744 OA
ENDBRANCH  97 101
ENDBRANCH  71  94
ENDBRANCH  45  46
ENDBRANCH  38  40
ENDBRANCH  37  38
ENDBRANCH  36  37
ENDBRANCH  35  36
ENDBRANCH  34  35
ENDBRANCH   1  34
TORSDOF 22
ENDMDL
MODEL 2
REMARK VINA RESULT:     -11.2      6.633     12.839
REMARK SMILES CN1C(=O)C[C@@H](C(=O)OCCOCCOCCOC(=O)c2ccc(-c3c4nc(c(-c5cc(S(=O)(=O)[O-])ccc5F)c5ccc([nH]5)c(-c5cc(S(=O)(=O)[O-])ccc5F)c5nc(c(-c6cc(S(=O)(=O)[O-])ccc6F)c6ccc3[nH]6)C=C5)C=C4)cc2)C12CCN(C(=O)c1ccccc1-n1cccn1)CC2
REMARK SMILES IDX 14 1 13 2 12 3 11 4 10 5 9 6 7 7 8 8 6 9 1 10 2 11 3 12
REMARK SMILES IDX 84 13 4 14 5 15 85 16 102 17 86 18 101 19 87 20 88 21 89 22
REMARK SMILES IDX 90 23 91 24 95 25 92 26 94 27 93 28 96 29 97 30 100 31 98 32
REMARK SMILES IDX 99 33 15 34 16 35 17 36 18 37 19 38 20 39 21 40 22 41 83 42
REMARK SMILES IDX 23 43 82 44 24 45 25 46 26 47 76 48 27 49 81 50 75 51 77 52
REMARK SMILES IDX 28 53 80 54 74 55 73 56 29 58 61 59 41 60 60 61 42 62 45 63
REMARK SMILES IDX 59 64 78 65 43 66 44 67 58 69 79 70 46 71 30 72 31 73 39 74
REMARK SMILES IDX 32 75 38 76 40 77 37 78 33 79 34 80 35 81 36 82 62 83 63 84
REMARK SMILES IDX 71 85 64 86 70 87 72 88 69 89 65 90 66 91 67 92 68 93 47 94
REMARK SMILES IDX 48 95 56 96 49 97 55 98 57 99 54 100 50 101 51 102 52 103
REMARK SMILES IDX 53 104
REMARK H PARENT 77 57 45 68
REMARK Flexibility Score: inf
ROOT
ATOM      1  C   UNL A   1      41.448  21.383  27.607  1.00  0.00     0.188 C 
ENDROOT
BRANCH   1   2
ATOM      2  C   UNL A   1      41.203  22.253  26.382  1.00  0.00     0.188 C 
BRANCH   2   3
ATOM      3  O   UNL A   1      40.124  23.181  26.424  1.00  0.00    -0.376 OA
BRANCH   3   4
ATOM      4  C   UNL A   1      38.793  22.691  26.358  1.00  0.00     0.202 C 
BRANCH   4   5
ATOM      5  C   UNL A   1      37.683  23.753  26.313  1.00  0.00     0.261 C 
BRANCH   5   6
ATOM      6  O   UNL A   1      37.045  23.987  25.029  1.00  0.00    -0.463 OA
BRANCH   6   7
ATOM      7  C   UNL A   1      36.378  22.924  24.520  1.00  0.00     0.311 C 
ATOM      8  O   UNL A   1      36.626  22.435  23.421  1.00  0.00    -0.252 OA
BRANCH   7   9
ATOM      9  C   UNL A   1      35.152  22.455  25.291  1.00  0.00     0.134 C 
ATOM     10  C   UNL A   1      32.356  20.534  23.642  1.00  0.00     0.147 C 
ATOM     11  N   UNL A   1      33.560  21.073  24.250  1.00  0.00    -0.339 N 
ATOM     12  C   UNL A   1      34.541  20.214  24.726  1.00  0.00     0.223 C 
ATOM     13  C   UNL A   1      33.674  22.436  24.800  1.00  0.00     0.060 C 
ATOM     14  O   UNL A   1      34.619  19.014  24.513  1.00  0.00    -0.275 OA
ATOM     15  C   UNL A   1      35.451  20.987  25.637  1.00  0.00     0.118 C 
ATOM     16  C   UNL A   1      33.243  23.497  23.771  1.00  0.00     0.051 C 
ATOM     17  C   UNL A   1      32.720  22.568  26.034  1.00  0.00     0.051 C 
ATOM     18  C   UNL A   1      33.145  24.897  24.363  1.00  0.00     0.122 C 
ATOM     19  C   UNL A   1      32.561  23.998  26.564  1.00  0.00     0.122 C 
ATOM     20  N   UNL A   1      32.240  24.950  25.503  1.00  0.00    -0.338 N 
ATOM     21  C   UNL A   1      31.281  25.942  25.789  1.00  0.00     0.256 C 
ATOM     22  O   UNL A   1      30.670  25.956  26.858  1.00  0.00    -0.269 OA
BRANCH  21  23
ATOM     23  C   UNL A   1      30.956  27.053  24.849  1.00  0.00     0.065 A 
ATOM     24  C   UNL A   1      30.037  26.740  23.829  1.00  0.00     0.016 A 
ATOM     25  C   UNL A   1      31.501  28.344  24.883  1.00  0.00     0.077 A 
ATOM     26  C   UNL A   1      29.609  27.711  22.915  1.00  0.00     0.001 A 
ATOM     27  C   UNL A   1      31.036  29.332  23.989  1.00  0.00     0.029 A 
ATOM     28  C   UNL A   1      30.095  29.011  23.007  1.00  0.00     0.002 A 
BRANCH  25  29
ATOM     29  N   UNL A   1      32.553  28.695  25.754  1.00  0.00    -0.240 N 
ATOM     30  C   UNL A   1      32.463  29.257  27.009  1.00  0.00     0.115 A 
ATOM     31  N   UNL A   1      33.851  28.462  25.411  1.00  0.00    -0.177 NA
ATOM     32  C   UNL A   1      33.747  29.459  27.454  1.00  0.00     0.042 A 
ATOM     33  C   UNL A   1      34.557  28.973  26.419  1.00  0.00     0.135 A 
ENDBRANCH  25  29
ENDBRANCH  21  23
ENDBRANCH   7   9
ENDBRANCH   6   7
ENDBRANCH   5   6
ENDBRANCH   4   5
ENDBRANCH   3   4
ENDBRANCH   2   3
ENDBRANCH   1   2
BRANCH   1  34
ATOM     34  O   UNL A   1      41.151  20.014  27.363  1.00  0.00    -0.376 OA
BRANCH  34  35
ATOM     35  C   UNL A   1      42.297  19.176  27.476  1.00  0.00     0.202 C 
BRANCH  35  36
ATOM     36  C   UNL A   1      42.594  18.545  26.105  1.00  0.00     0.261 C 
BRANCH  36  37
ATOM     37  O   UNL A   1      42.878  19.485  25.038  1.00  0.00    -0.460 OA
BRANCH  37  38
ATOM     38  C   UNL A   1      44.196  19.629  24.783  1.00  0.00     0.338 C 
ATOM     39  O   UNL A   1      44.912  18.750  24.338  1.00  0.00    -0.246 OA
BRANCH  38  40
ATOM     40  C   UNL A   1      44.667  21.017  24.910  1.00  0.00     0.060 A 
ATOM     41  C   UNL A   1      45.188  21.414  26.145  1.00  0.00     0.016 A 
ATOM     42  C   UNL A   1      44.406  21.971  23.934  1.00  0.00     0.016 A 
ATOM     43  C   UNL A   1      45.401  22.754  26.441  1.00  0.00     0.010 A 
ATOM     44  C   UNL A   1      44.661  23.322  24.213  1.00  0.00     0.010 A 
ATOM     45  C   UNL A   1      45.141  23.727  25.475  1.00  0.00    -0.014 A 
BRANCH  45  46
ATOM     46  C   UNL A   1      45.326  25.165  25.802  1.00  0.00     0.031 A 
ATOM     47  C   UNL A   1      46.686  25.794  25.674  1.00  0.00     0.074 A 
ATOM     48  C   UNL A   1      44.277  25.912  26.193  1.00  0.00     0.049 A 
ATOM     49  N   UNL A   1      47.109  26.954  26.103  1.00  0.00    -0.248 NA
ATOM     50  C   UNL A   1      47.704  25.008  24.963  1.00  0.00     0.031 C 
ATOM     51  C   UNL A   1      42.886  25.456  26.251  1.00  0.00     0.029 A 
ATOM     52  N   UNL A   1      44.217  27.213  26.631  1.00  0.00    -0.354 N 
ATOM     53  C   UNL A   1      48.452  27.026  25.746  1.00  0.00     0.074 A 
ATOM     54  C   UNL A   1      48.770  25.787  25.066  1.00  0.00     0.031 C 
ATOM     55  C   UNL A   1      42.115  26.456  26.707  1.00  0.00     0.029 A 
ATOM     56  C   UNL A   1      42.965  27.587  27.063  1.00  0.00     0.049 A 
ATOM     57  H   UNL A   1      44.994  27.817  26.636  1.00  0.00     0.167 HD
ATOM     58  C   UNL A   1      49.334  28.029  25.980  1.00  0.00     0.034 A 
ATOM     59  C   UNL A   1      42.559  28.682  27.734  1.00  0.00     0.034 A 
ATOM     60  C   UNL A   1      48.991  29.252  26.666  1.00  0.00     0.049 A 
ATOM     61  C   UNL A   1      43.581  29.728  28.099  1.00  0.00     0.074 A 
ATOM     62  C   UNL A   1      49.808  30.323  26.986  1.00  0.00     0.029 A 
ATOM     63  N   UNL A   1      47.725  29.568  27.143  1.00  0.00    -0.354 N 
ATOM     64  N   UNL A   1      44.867  29.755  27.836  1.00  0.00    -0.248 NA
ATOM     65  C   UNL A   1      43.098  30.885  28.864  1.00  0.00     0.031 C 
ATOM     66  C   UNL A   1      49.057  31.249  27.719  1.00  0.00     0.029 A 
ATOM     67  C   UNL A   1      47.747  30.798  27.785  1.00  0.00     0.049 A 
ATOM     68  H   UNL A   1      46.927  29.000  27.042  1.00  0.00     0.167 HD
ATOM     69  C   UNL A   1      45.341  30.945  28.380  1.00  0.00     0.074 A 
ATOM     70  C   UNL A   1      44.200  31.612  28.974  1.00  0.00     0.031 C 
ATOM     71  C   UNL A   1      46.603  31.445  28.385  1.00  0.00     0.034 A 
BRANCH  58  72
ATOM     72  C   UNL A   1      50.771  27.798  25.574  1.00  0.00     0.023 A 
ATOM     73  C   UNL A   1      51.216  27.974  24.252  1.00  0.00     0.031 A 
ATOM     74  C   UNL A   1      51.706  27.359  26.530  1.00  0.00     0.131 A 
ATOM     75  C   UNL A   1      52.540  27.649  23.912  1.00  0.00     0.055 A 
ATOM     76  C   UNL A   1      53.039  27.112  26.201  1.00  0.00     0.041 A 
ATOM     77  F   UNL A   1      51.333  27.146  27.802  1.00  0.00    -0.206 F 
ATOM     78  C   UNL A   1      53.461  27.244  24.882  1.00  0.00     0.022 A 
BRANCH  75  79
ATOM     79  S   UNL A   1      53.010  27.625  22.159  1.00  0.00     0.124 S 
ATOM     80  O   UNL A   1      53.750  26.369  22.072  1.00  0.00    -0.237 OA
ATOM     81  O   UNL A   1      51.717  27.657  21.486  1.00  0.00    -0.237 OA
ATOM     82  O   UNL A   1      53.823  28.830  22.006  1.00  0.00    -0.744 OA
ENDBRANCH  75  79
ENDBRANCH  58  72
BRANCH  59  83
ATOM     83  C   UNL A   1      41.144  28.805  28.187  1.00  0.00     0.023 A 
ATOM     84  C   UNL A   1      40.788  28.600  29.527  1.00  0.00     0.031 A 
ATOM     85  C   UNL A   1      40.114  29.089  27.268  1.00  0.00     0.131 A 
ATOM     86  C   UNL A   1      39.437  28.645  29.907  1.00  0.00     0.055 A 
ATOM     87  C   UNL A   1      38.780  29.191  27.660  1.00  0.00     0.041 A 
ATOM     88  F   UNL A   1      40.398  29.286  25.970  1.00  0.00    -0.206 F 
ATOM     89  C   UNL A   1      38.433  28.955  28.987  1.00  0.00     0.022 A 
BRANCH  86  90
ATOM     90  S   UNL A   1      39.000  28.207  31.612  1.00  0.00     0.124 S 
ATOM     91  O   UNL A   1      38.421  26.881  31.439  1.00  0.00    -0.237 OA
ATOM     92  O   UNL A   1      40.296  28.260  32.279  1.00  0.00    -0.237 OA
ATOM     93  O   UNL A   1      38.059  29.256  32.001  1.00  0.00    -0.744 OA
ENDBRANCH  86  90
ENDBRANCH  59  83
BRANCH  71  94
ATOM     94  C   UNL A   1      46.796  32.805  29.007  1.00  0.00     0.023 A 
ATOM     95  C   UNL A   1      46.661  33.989  28.262  1.00  0.00     0.031 A 
ATOM     96  C   UNL A   1      47.140  32.914  30.367  1.00  0.00     0.131 A 
ATOM     97  C   UNL A   1      46.925  35.228  28.866  1.00  0.00     0.055 A 
ATOM     98  C   UNL A   1      47.343  34.152  30.977  1.00  0.00     0.041 A 
ATOM     99  F   UNL A   1      47.285  31.815  31.125  1.00  0.00    -0.206 F 
ATOM    100  C   UNL A   1      47.248  35.317  30.223  1.00  0.00     0.022 A 
BRANCH  97 101
ATOM    101  S   UNL A   1      46.930  36.718  27.833  1.00  0.00     0.124 S 
ATOM    102  O   UNL A   1      47.583  37.690  28.705  1.00  0.00    -0.237 OA
ATOM    103  O   UNL A   1      47.698  36.289  26.669  1.00  0.00    -0.237 OA
ATOM    104  O   UNL A   1      45.511  36.966  27.580  1.00  0.00    -0.744 OA
ENDBRANCH  97 101
ENDBRANCH  71  94
ENDBRANCH  45  46
ENDBRANCH  38  40
ENDBRANCH  37  38
ENDBRANCH  36  37
ENDBRANCH  35  36
ENDBRANCH  34  35
ENDBRANCH   1  34
TORSDOF 22
ENDMDL
MODEL 3
REMARK VINA RESULT:     -10.7      6.809     12.470
REMARK SMILES CN1C(=O)C[C@@H](C(=O)OCCOCCOCCOC(=O)c2ccc(-c3c4nc(c(-c5cc(S(=O)(=O)[O-])ccc5F)c5ccc([nH]5)c(-c5cc(S(=O)(=O)[O-])ccc5F)c5nc(c(-c6cc(S(=O)(=O)[O-])ccc6F)c6ccc3[nH]6)C=C5)C=C4)cc2)C12CCN(C(=O)c1ccccc1-n1cccn1)CC2
REMARK SMILES IDX 14 1 13 2 12 3 11 4 10 5 9 6 7 7 8 8 6 9 1 10 2 11 3 12
REMARK SMILES IDX 84 13 4 14 5 15 85 16 102 17 86 18 101 19 87 20 88 21 89 22
REMARK SMILES IDX 90 23 91 24 95 25 92 26 94 27 93 28 96 29 97 30 100 31 98 32
REMARK SMILES IDX 99 33 15 34 16 35 17 36 18 37 19 38 20 39 21 40 22 41 83 42
REMARK SMILES IDX 23 43 82 44 24 45 25 46 26 47 76 48 27 49 81 50 75 51 77 52
REMARK SMILES IDX 28 53 80 54 74 55 73 56 29 58 61 59 41 60 60 61 42 62 45 63
REMARK SMILES IDX 59 64 78 65 43 66 44 67 58 69 79 70 46 71 30 72 31 73 39 74
REMARK SMILES IDX 32 75 38 76 40 77 37 78 33 79 34 80 35 81 36 82 62 83 63 84
REMARK SMILES IDX 71 85 64 86 70 87 72 88 69 89 65 90 66 91 67 92 68 93 47 94
REMARK SMILES IDX 48 95 56 96 49 97 55 98 57 99 54 100 50 101 51 102 52 103
REMARK SMILES IDX 53 104
REMARK H PARENT 77 57 45 68
REMARK Flexibility Score: inf
ROOT
ATOM      1  C   UNL A   1      40.429  21.353  26.868  1.00  0.00     0.188 C 
ENDROOT
BRANCH   1   2
ATOM      2  C   UNL A   1      40.317  22.793  27.347  1.00  0.00     0.188 C 
BRANCH   2   3
ATOM      3  O   UNL A   1      39.719  23.745  26.473  1.00  0.00    -0.376 OA
BRANCH   3   4
ATOM      4  C   UNL A   1      38.516  24.384  26.873  1.00  0.00     0.202 C 
BRANCH   4   5
ATOM      5  C   UNL A   1      37.234  23.913  26.167  1.00  0.00     0.261 C 
BRANCH   5   6
ATOM      6  O   UNL A   1      37.395  23.189  24.917  1.00  0.00    -0.463 OA
BRANCH   6   7
ATOM      7  C   UNL A   1      36.242  22.919  24.261  1.00  0.00     0.311 C 
ATOM      8  O   UNL A   1      36.072  23.161  23.068  1.00  0.00    -0.252 OA
BRANCH   7   9
ATOM      9  C   UNL A   1      35.063  22.466  25.111  1.00  0.00     0.134 C 
ATOM     10  C   UNL A   1      32.181  20.508  23.664  1.00  0.00     0.147 C 
ATOM     11  N   UNL A   1      33.417  21.061  24.191  1.00  0.00    -0.339 N 
ATOM     12  C   UNL A   1      34.425  20.214  24.629  1.00  0.00     0.223 C 
ATOM     13  C   UNL A   1      33.559  22.435  24.704  1.00  0.00     0.060 C 
ATOM     14  O   UNL A   1      34.492  19.008  24.439  1.00  0.00    -0.275 OA
ATOM     15  C   UNL A   1      35.383  21.006  25.471  1.00  0.00     0.118 C 
ATOM     16  C   UNL A   1      33.069  23.474  23.679  1.00  0.00     0.051 C 
ATOM     17  C   UNL A   1      32.676  22.595  25.987  1.00  0.00     0.051 C 
ATOM     18  C   UNL A   1      33.002  24.887  24.244  1.00  0.00     0.122 C 
ATOM     19  C   UNL A   1      32.546  24.035  26.494  1.00  0.00     0.122 C 
ATOM     20  N   UNL A   1      32.163  24.963  25.433  1.00  0.00    -0.338 N 
ATOM     21  C   UNL A   1      31.220  25.961  25.751  1.00  0.00     0.256 C 
ATOM     22  O   UNL A   1      30.670  25.999  26.852  1.00  0.00    -0.269 OA
BRANCH  21  23
ATOM     23  C   UNL A   1      30.841  27.052  24.807  1.00  0.00     0.065 A 
ATOM     24  C   UNL A   1      29.884  26.708  23.831  1.00  0.00     0.016 A 
ATOM     25  C   UNL A   1      31.368  28.350  24.796  1.00  0.00     0.077 A 
ATOM     26  C   UNL A   1      29.405  27.657  22.920  1.00  0.00     0.001 A 
ATOM     27  C   UNL A   1      30.852  29.316  23.907  1.00  0.00     0.029 A 
ATOM     28  C   UNL A   1      29.876  28.965  22.970  1.00  0.00     0.002 A 
BRANCH  25  29
ATOM     29  N   UNL A   1      32.450  28.730  25.617  1.00  0.00    -0.240 N 
ATOM     30  C   UNL A   1      33.797  28.639  25.340  1.00  0.00     0.115 A 
ATOM     31  N   UNL A   1      32.236  29.292  26.840  1.00  0.00    -0.177 NA
ATOM     32  C   UNL A   1      34.469  29.088  26.450  1.00  0.00     0.042 A 
ATOM     33  C   UNL A   1      33.457  29.453  27.349  1.00  0.00     0.135 A 
ENDBRANCH  25  29
ENDBRANCH  21  23
ENDBRANCH   7   9
ENDBRANCH   6   7
ENDBRANCH   5   6
ENDBRANCH   4   5
ENDBRANCH   3   4
ENDBRANCH   2   3
ENDBRANCH   1   2
BRANCH   1  34
ATOM     34  O   UNL A   1      41.718  20.803  27.111  1.00  0.00    -0.376 OA
BRANCH  34  35
ATOM     35  C   UNL A   1      41.689  19.388  27.265  1.00  0.00     0.202 C 
BRANCH  35  36
ATOM     36  C   UNL A   1      42.711  18.757  26.303  1.00  0.00     0.261 C 
BRANCH  36  37
ATOM     37  O   UNL A   1      42.907  19.467  25.053  1.00  0.00    -0.460 OA
BRANCH  37  38
ATOM     38  C   UNL A   1      44.207  19.612  24.715  1.00  0.00     0.338 C 
ATOM     39  O   UNL A   1      44.887  18.742  24.204  1.00  0.00    -0.246 OA
BRANCH  38  40
ATOM     40  C   UNL A   1      44.691  20.996  24.842  1.00  0.00     0.060 A 
ATOM     41  C   UNL A   1      45.242  21.381  26.068  1.00  0.00     0.016 A 
ATOM     42  C   UNL A   1      44.416  21.959  23.878  1.00  0.00     0.016 A 
ATOM     43  C   UNL A   1      45.472  22.716  26.368  1.00  0.00     0.010 A 
ATOM     44  C   UNL A   1      44.688  23.306  24.161  1.00  0.00     0.010 A 
ATOM     45  C   UNL A   1      45.199  23.698  25.415  1.00  0.00    -0.014 A 
BRANCH  45  46
ATOM     46  C   UNL A   1      45.403  25.132  25.748  1.00  0.00     0.031 A 
ATOM     47  C   UNL A   1      46.767  25.749  25.607  1.00  0.00     0.074 A 
ATOM     48  C   UNL A   1      44.366  25.888  26.157  1.00  0.00     0.049 A 
ATOM     49  N   UNL A   1      47.207  26.901  26.037  1.00  0.00    -0.248 NA
ATOM     50  C   UNL A   1      47.768  24.956  24.878  1.00  0.00     0.031 C 
ATOM     51  C   UNL A   1      42.971  25.446  26.230  1.00  0.00     0.029 A 
ATOM     52  N   UNL A   1      44.324  27.186  26.603  1.00  0.00    -0.354 N 
ATOM     53  C   UNL A   1      48.546  26.962  25.664  1.00  0.00     0.074 A 
ATOM     54  C   UNL A   1      48.843  25.724  24.973  1.00  0.00     0.031 C 
ATOM     55  C   UNL A   1      42.216  26.450  26.700  1.00  0.00     0.029 A 
ATOM     56  C   UNL A   1      43.082  27.570  27.052  1.00  0.00     0.049 A 
ATOM     57  H   UNL A   1      45.107  27.783  26.601  1.00  0.00     0.167 HD
ATOM     58  C   UNL A   1      49.441  27.955  25.893  1.00  0.00     0.034 A 
ATOM     59  C   UNL A   1      42.695  28.666  27.735  1.00  0.00     0.034 A 
ATOM     60  C   UNL A   1      49.119  29.178  26.590  1.00  0.00     0.049 A 
ATOM     61  C   UNL A   1      43.732  29.699  28.093  1.00  0.00     0.074 A 
ATOM     62  C   UNL A   1      49.951  30.238  26.905  1.00  0.00     0.029 A 
ATOM     63  N   UNL A   1      47.862  29.503  27.085  1.00  0.00    -0.354 N 
ATOM     64  N   UNL A   1      45.015  29.715  27.814  1.00  0.00    -0.248 NA
ATOM     65  C   UNL A   1      43.270  30.856  28.871  1.00  0.00     0.031 C 
ATOM     66  C   UNL A   1      49.217  31.167  27.653  1.00  0.00     0.029 A 
ATOM     67  C   UNL A   1      47.905  30.729  27.733  1.00  0.00     0.049 A 
ATOM     68  H   UNL A   1      47.057  28.944  26.990  1.00  0.00     0.167 HD
ATOM     69  C   UNL A   1      45.507  30.897  28.359  1.00  0.00     0.074 A 
ATOM     70  C   UNL A   1      44.381  31.572  28.971  1.00  0.00     0.031 C 
ATOM     71  C   UNL A   1      46.774  31.384  28.351  1.00  0.00     0.034 A 
BRANCH  58  72
ATOM     72  C   UNL A   1      50.870  27.712  25.467  1.00  0.00     0.023 A 
ATOM     73  C   UNL A   1      51.851  27.242  26.358  1.00  0.00     0.031 A 
ATOM     74  C   UNL A   1      51.263  27.993  24.145  1.00  0.00     0.131 A 
ATOM     75  C   UNL A   1      53.185  27.129  25.933  1.00  0.00     0.055 A 
ATOM     76  C   UNL A   1      52.575  27.805  23.708  1.00  0.00     0.041 A 
ATOM     77  F   UNL A   1      50.378  28.472  23.257  1.00  0.00    -0.206 F 
ATOM     78  C   UNL A   1      53.549  27.382  24.607  1.00  0.00     0.022 A 
BRANCH  75  79
ATOM     79  S   UNL A   1      54.468  26.782  27.168  1.00  0.00     0.124 S 
ATOM     80  O   UNL A   1      55.602  27.529  26.630  1.00  0.00    -0.237 OA
ATOM     81  O   UNL A   1      53.876  27.307  28.393  1.00  0.00    -0.237 OA
ATOM     82  O   UNL A   1      54.610  25.329  27.117  1.00  0.00    -0.744 OA
ENDBRANCH  75  79
ENDBRANCH  58  72
BRANCH  59  83
ATOM     83  C   UNL A   1      41.287  28.800  28.206  1.00  0.00     0.023 A 
ATOM     84  C   UNL A   1      40.954  28.640  29.558  1.00  0.00     0.031 A 
ATOM     85  C   UNL A   1      40.242  29.048  27.294  1.00  0.00     0.131 A 
ATOM     86  C   UNL A   1      39.609  28.695  29.958  1.00  0.00     0.055 A 
ATOM     87  C   UNL A   1      38.914  29.160  27.705  1.00  0.00     0.041 A 
ATOM     88  F   UNL A   1      40.504  29.201  25.986  1.00  0.00    -0.206 F 
ATOM     89  C   UNL A   1      38.589  28.970  29.044  1.00  0.00     0.022 A 
BRANCH  86  90
ATOM     90  S   UNL A   1      39.201  28.316  31.684  1.00  0.00     0.124 S 
ATOM     91  O   UNL A   1      38.531  29.540  32.106  1.00  0.00    -0.237 OA
ATOM     92  O   UNL A   1      38.355  27.136  31.543  1.00  0.00    -0.237 OA
ATOM     93  O   UNL A   1      40.507  28.074  32.295  1.00  0.00    -0.744 OA
ENDBRANCH  86  90
ENDBRANCH  59  83
BRANCH  71  94
ATOM     94  C   UNL A   1      46.989  32.738  28.979  1.00  0.00     0.023 A 
ATOM     95  C   UNL A   1      47.238  32.888  30.353  1.00  0.00     0.031 A 
ATOM     96  C   UNL A   1      46.921  33.900  28.187  1.00  0.00     0.131 A 
ATOM     97  C   UNL A   1      47.355  34.173  30.906  1.00  0.00     0.055 A 
ATOM     98  C   UNL A   1      47.097  35.172  28.732  1.00  0.00     0.041 A 
ATOM     99  F   UNL A   1      46.681  33.814  26.869  1.00  0.00    -0.206 F 
ATOM    100  C   UNL A   1      47.303  35.315  30.101  1.00  0.00     0.022 A 
BRANCH  97 101
ATOM    101  S   UNL A   1      47.486  34.340  32.707  1.00  0.00     0.124 S 
ATOM    102  O   UNL A   1      47.708  32.958  33.124  1.00  0.00    -0.237 OA
ATOM    103  O   UNL A   1      48.623  35.242  32.856  1.00  0.00    -0.237 OA
ATOM    104  O   UNL A   1      46.193  34.903  33.094  1.00  0.00    -0.744 OA
ENDBRANCH  97 101
ENDBRANCH  71  94
ENDBRANCH  45  46
ENDBRANCH  38  40
ENDBRANCH  37  38
ENDBRANCH  36  37
ENDBRANCH  35  36
ENDBRANCH  34  35
ENDBRANCH   1  34
TORSDOF 22
ENDMDL
