MODEL 1
REMARK VINA RESULT:     -10.4      0.000      0.000
REMARK SMILES O=C(Cc1ccn(-c2ccccc2F)c1)OCCOCCOCCOC(=O)c1ccc(-c2c3nc(c(-c4cc(S(=O)(=O)[O-])ccc4F)c4ccc([nH]4)c(-c4cc(S(=O)(=O)[O-])ccc4F)c4nc(c(-c5cc(S(=O)(=O)[O-])ccc5F)c5ccc2[nH]5)C=C4)C=C3)cc1
REMARK SMILES IDX 21 1 20 2 19 3 18 4 17 5 16 6 2 7 1 8 3 9 4 10 5 11 15 12
REMARK SMILES IDX 6 13 7 14 8 15 9 16 13 17 10 18 12 19 14 20 11 21 22 22
REMARK SMILES IDX 23 23 24 24 25 25 26 26 27 27 28 28 29 29 90 30 30 31 89 32
REMARK SMILES IDX 31 33 32 34 33 35 83 36 34 37 88 38 82 39 84 40 35 41 87 42
REMARK SMILES IDX 81 43 80 44 36 46 68 47 48 48 67 49 49 50 52 51 66 52 85 53
REMARK SMILES IDX 50 54 51 55 65 57 86 58 53 59 37 60 38 61 46 62 39 63 45 64
REMARK SMILES IDX 47 65 44 66 40 67 41 68 42 69 43 70 69 71 70 72 78 73 71 74
REMARK SMILES IDX 77 75 79 76 76 77 72 78 73 79 74 80 75 81 54 82 55 83 63 84
REMARK SMILES IDX 56 85 62 86 64 87 61 88 57 89 58 90 59 91 60 92
REMARK H PARENT 84 45 52 56
REMARK Flexibility Score: inf
ROOT
ATOM      1  C   UNL A   1      36.319  20.457  25.008  1.00  0.00     0.188 C 
ENDROOT
BRANCH   1   2
ATOM      2  C   UNL A   1      34.869  19.943  24.938  1.00  0.00     0.188 C 
BRANCH   2   3
ATOM      3  O   UNL A   1      33.863  20.880  25.283  1.00  0.00    -0.376 OA
BRANCH   3   4
ATOM      4  C   UNL A   1      32.614  20.740  24.627  1.00  0.00     0.202 C 
BRANCH   4   5
ATOM      5  C   UNL A   1      32.488  21.521  23.321  1.00  0.00     0.261 C 
BRANCH   5   6
ATOM      6  O   UNL A   1      33.374  22.651  23.146  1.00  0.00    -0.463 OA
BRANCH   6   7
ATOM      7  C   UNL A   1      33.130  23.880  22.650  1.00  0.00     0.310 C 
ATOM      8  O   UNL A   1      34.064  24.532  22.181  1.00  0.00    -0.252 OA
BRANCH   7   9
ATOM      9  C   UNL A   1      31.765  24.503  22.773  1.00  0.00     0.159 C 
BRANCH   9  10
ATOM     10  C   UNL A   1      31.571  25.444  23.911  1.00  0.00    -0.019 A 
ATOM     11  C   UNL A   1      30.511  25.484  24.850  1.00  0.00     0.024 A 
ATOM     12  C   UNL A   1      32.421  26.484  24.243  1.00  0.00     0.095 A 
ATOM     13  C   UNL A   1      30.810  26.465  25.769  1.00  0.00     0.091 A 
ATOM     14  N   UNL A   1      31.954  27.127  25.367  1.00  0.00    -0.321 N 
BRANCH  14  15
ATOM     15  C   UNL A   1      32.528  28.259  25.997  1.00  0.00     0.081 A 
ATOM     16  C   UNL A   1      33.641  28.105  26.834  1.00  0.00     0.030 A 
ATOM     17  C   UNL A   1      31.975  29.531  25.819  1.00  0.00     0.147 A 
ATOM     18  C   UNL A   1      34.182  29.218  27.485  1.00  0.00     0.002 A 
ATOM     19  C   UNL A   1      32.501  30.632  26.490  1.00  0.00     0.041 A 
ATOM     20  F   UNL A   1      30.881  29.726  25.070  1.00  0.00    -0.205 F 
ATOM     21  C   UNL A   1      33.605  30.477  27.324  1.00  0.00     0.003 A 
ENDBRANCH  14  15
ENDBRANCH   9  10
ENDBRANCH   7   9
ENDBRANCH   6   7
ENDBRANCH   5   6
ENDBRANCH   4   5
ENDBRANCH   3   4
ENDBRANCH   2   3
ENDBRANCH   1   2
BRANCH   1  22
ATOM     22  O   UNL A   1      36.709  21.625  25.725  1.00  0.00    -0.376 OA
BRANCH  22  23
ATOM     23  C   UNL A   1      38.041  22.104  25.736  1.00  0.00     0.202 C 
BRANCH  23  24
ATOM     24  C   UNL A   1      38.295  23.459  26.389  1.00  0.00     0.261 C 
BRANCH  24  25
ATOM     25  O   UNL A   1      39.634  23.933  26.289  1.00  0.00    -0.460 OA
BRANCH  25  26
ATOM     26  C   UNL A   1      40.148  24.309  27.475  1.00  0.00     0.338 C 
ATOM     27  O   UNL A   1      40.808  23.627  28.257  1.00  0.00    -0.246 OA
BRANCH  26  28
ATOM     28  C   UNL A   1      39.754  25.673  27.797  1.00  0.00     0.060 A 
ATOM     29  C   UNL A   1      40.031  26.669  26.853  1.00  0.00     0.016 A 
ATOM     30  C   UNL A   1      39.406  25.973  29.119  1.00  0.00     0.016 A 
ATOM     31  C   UNL A   1      40.095  27.982  27.270  1.00  0.00     0.010 A 
ATOM     32  C   UNL A   1      39.516  27.281  29.544  1.00  0.00     0.010 A 
ATOM     33  C   UNL A   1      39.909  28.267  28.627  1.00  0.00    -0.014 A 
BRANCH  33  34
ATOM     34  C   UNL A   1      40.129  29.641  29.098  1.00  0.00     0.031 A 
ATOM     35  C   UNL A   1      38.817  30.381  29.365  1.00  0.00     0.074 A 
ATOM     36  C   UNL A   1      41.442  30.008  29.227  1.00  0.00     0.049 A 
ATOM     37  N   UNL A   1      38.587  31.650  29.496  1.00  0.00    -0.248 NA
ATOM     38  C   UNL A   1      37.551  29.597  29.439  1.00  0.00     0.031 C 
ATOM     39  C   UNL A   1      42.603  29.145  28.894  1.00  0.00     0.029 A 
ATOM     40  N   UNL A   1      42.075  31.154  29.657  1.00  0.00    -0.354 N 
ATOM     41  C   UNL A   1      37.248  31.788  29.914  1.00  0.00     0.074 A 
ATOM     42  C   UNL A   1      36.628  30.513  29.729  1.00  0.00     0.031 C 
ATOM     43  C   UNL A   1      43.767  29.809  29.059  1.00  0.00     0.029 A 
ATOM     44  C   UNL A   1      43.491  31.142  29.555  1.00  0.00     0.049 A 
ATOM     45  H   UNL A   1      41.579  31.927  30.009  1.00  0.00     0.167 HD
ATOM     46  C   UNL A   1      36.763  32.906  30.522  1.00  0.00     0.034 A 
ATOM     47  C   UNL A   1      44.384  32.142  29.833  1.00  0.00     0.034 A 
ATOM     48  C   UNL A   1      37.755  33.929  30.553  1.00  0.00     0.049 A 
ATOM     49  C   UNL A   1      43.584  33.208  30.461  1.00  0.00     0.074 A 
ATOM     50  C   UNL A   1      38.307  34.724  29.584  1.00  0.00     0.029 A 
ATOM     51  N   UNL A   1      38.514  34.028  31.693  1.00  0.00    -0.354 N 
ATOM     52  N   UNL A   1      43.075  33.154  31.654  1.00  0.00    -0.248 NA
ATOM     53  C   UNL A   1      43.271  34.405  29.673  1.00  0.00     0.031 C 
ATOM     54  C   UNL A   1      39.625  34.951  30.036  1.00  0.00     0.029 A 
ATOM     55  C   UNL A   1      39.783  34.380  31.304  1.00  0.00     0.049 A 
ATOM     56  H   UNL A   1      38.206  33.876  32.617  1.00  0.00     0.167 HD
ATOM     57  C   UNL A   1      42.136  34.156  31.634  1.00  0.00     0.074 A 
ATOM     58  C   UNL A   1      42.501  35.042  30.551  1.00  0.00     0.031 C 
ATOM     59  C   UNL A   1      40.891  33.924  32.118  1.00  0.00     0.034 A 
BRANCH  46  60
ATOM     60  C   UNL A   1      35.498  33.140  31.300  1.00  0.00     0.023 A 
ATOM     61  C   UNL A   1      34.676  34.209  30.869  1.00  0.00     0.031 A 
ATOM     62  C   UNL A   1      35.211  32.600  32.562  1.00  0.00     0.131 A 
ATOM     63  C   UNL A   1      33.698  34.762  31.705  1.00  0.00     0.055 A 
ATOM     64  C   UNL A   1      34.190  33.116  33.373  1.00  0.00     0.041 A 
ATOM     65  F   UNL A   1      35.955  31.621  33.095  1.00  0.00    -0.206 F 
ATOM     66  C   UNL A   1      33.449  34.220  32.961  1.00  0.00     0.022 A 
BRANCH  63  67
ATOM     67  S   UNL A   1      32.877  36.291  31.173  1.00  0.00     0.124 S 
ATOM     68  O   UNL A   1      31.719  36.346  32.058  1.00  0.00    -0.237 OA
ATOM     69  O   UNL A   1      33.913  37.290  31.415  1.00  0.00    -0.237 OA
ATOM     70  O   UNL A   1      32.573  36.041  29.767  1.00  0.00    -0.744 OA
ENDBRANCH  63  67
ENDBRANCH  46  60
BRANCH  47  71
ATOM     71  C   UNL A   1      45.857  32.439  29.624  1.00  0.00     0.023 A 
ATOM     72  C   UNL A   1      46.513  32.558  28.386  1.00  0.00     0.031 A 
ATOM     73  C   UNL A   1      46.672  32.737  30.761  1.00  0.00     0.131 A 
ATOM     74  C   UNL A   1      47.858  33.016  28.326  1.00  0.00     0.055 A 
ATOM     75  C   UNL A   1      47.964  33.260  30.691  1.00  0.00     0.041 A 
ATOM     76  F   UNL A   1      46.238  32.551  32.015  1.00  0.00    -0.206 F 
ATOM     77  C   UNL A   1      48.561  33.416  29.464  1.00  0.00     0.022 A 
BRANCH  74  78
ATOM     78  S   UNL A   1      48.762  33.138  26.754  1.00  0.00     0.124 S 
ATOM     79  O   UNL A   1      47.745  33.695  25.867  1.00  0.00    -0.237 OA
ATOM     80  O   UNL A   1      49.880  34.018  27.072  1.00  0.00    -0.237 OA
ATOM     81  O   UNL A   1      49.125  31.746  26.488  1.00  0.00    -0.744 OA
ENDBRANCH  74  78
ENDBRANCH  47  71
BRANCH  59  82
ATOM     82  C   UNL A   1      40.818  32.843  33.182  1.00  0.00     0.023 A 
ATOM     83  C   UNL A   1      40.712  31.492  32.811  1.00  0.00     0.031 A 
ATOM     84  C   UNL A   1      40.751  33.123  34.558  1.00  0.00     0.131 A 
ATOM     85  C   UNL A   1      40.549  30.493  33.790  1.00  0.00     0.055 A 
ATOM     86  C   UNL A   1      40.605  32.133  35.534  1.00  0.00     0.041 A 
ATOM     87  F   UNL A   1      40.811  34.378  34.999  1.00  0.00    -0.206 F 
ATOM     88  C   UNL A   1      40.502  30.805  35.151  1.00  0.00     0.022 A 
BRANCH  85  89
ATOM     89  S   UNL A   1      40.436  28.758  33.278  1.00  0.00     0.124 S 
ATOM     90  O   UNL A   1      39.042  28.639  32.864  1.00  0.00    -0.237 OA
ATOM     91  O   UNL A   1      41.428  28.676  32.210  1.00  0.00    -0.237 OA
ATOM     92  O   UNL A   1      40.785  28.019  34.493  1.00  0.00    -0.744 OA
ENDBRANCH  85  89
ENDBRANCH  59  82
ENDBRANCH  33  34
ENDBRANCH  26  28
ENDBRANCH  25  26
ENDBRANCH  24  25
ENDBRANCH  23  24
ENDBRANCH  22  23
ENDBRANCH   1  22
TORSDOF 22
ENDMDL
MODEL 2
REMARK VINA RESULT:     -10.1      1.597      2.256
REMARK SMILES O=C(Cc1ccn(-c2ccccc2F)c1)OCCOCCOCCOC(=O)c1ccc(-c2c3nc(c(-c4cc(S(=O)(=O)[O-])ccc4F)c4ccc([nH]4)c(-c4cc(S(=O)(=O)[O-])ccc4F)c4nc(c(-c5cc(S(=O)(=O)[O-])ccc5F)c5ccc2[nH]5)C=C4)C=C3)cc1
REMARK SMILES IDX 21 1 20 2 19 3 18 4 17 5 16 6 2 7 1 8 3 9 4 10 5 11 15 12
REMARK SMILES IDX 6 13 7 14 8 15 9 16 13 17 10 18 12 19 14 20 11 21 22 22
REMARK SMILES IDX 23 23 24 24 25 25 26 26 27 27 28 28 29 29 90 30 30 31 89 32
REMARK SMILES IDX 31 33 32 34 33 35 83 36 34 37 88 38 82 39 84 40 35 41 87 42
REMARK SMILES IDX 81 43 80 44 36 46 68 47 48 48 67 49 49 50 52 51 66 52 85 53
REMARK SMILES IDX 50 54 51 55 65 57 86 58 53 59 37 60 38 61 46 62 39 63 45 64
REMARK SMILES IDX 47 65 44 66 40 67 41 68 42 69 43 70 69 71 70 72 78 73 71 74
REMARK SMILES IDX 77 75 79 76 76 77 72 78 73 79 74 80 75 81 54 82 55 83 63 84
REMARK SMILES IDX 56 85 62 86 64 87 61 88 57 89 58 90 59 91 60 92
REMARK H PARENT 84 45 52 56
REMARK Flexibility Score: inf
ROOT
ATOM      1  C   UNL A   1      36.155  22.599  23.743  1.00  0.00     0.188 C 
ENDROOT
BRANCH   1   2
ATOM      2  C   UNL A   1      34.744  23.215  23.698  1.00  0.00     0.188 C 
BRANCH   2   3
ATOM      3  O   UNL A   1      34.410  23.909  22.508  1.00  0.00    -0.376 OA
BRANCH   3   4
ATOM      4  C   UNL A   1      33.731  25.144  22.663  1.00  0.00     0.202 C 
BRANCH   4   5
ATOM      5  C   UNL A   1      32.745  25.475  21.547  1.00  0.00     0.261 C 
BRANCH   5   6
ATOM      6  O   UNL A   1      31.662  26.376  21.877  1.00  0.00    -0.463 OA
BRANCH   6   7
ATOM      7  C   UNL A   1      30.771  26.332  22.888  1.00  0.00     0.310 C 
ATOM      8  O   UNL A   1      30.354  25.238  23.271  1.00  0.00    -0.252 OA
BRANCH   7   9
ATOM      9  C   UNL A   1      30.197  27.599  23.464  1.00  0.00     0.159 C 
BRANCH   9  10
ATOM     10  C   UNL A   1      30.848  28.114  24.700  1.00  0.00    -0.019 A 
ATOM     11  C   UNL A   1      31.149  27.413  25.894  1.00  0.00     0.024 A 
ATOM     12  C   UNL A   1      31.270  29.416  24.900  1.00  0.00     0.095 A 
ATOM     13  C   UNL A   1      31.832  28.278  26.719  1.00  0.00     0.091 A 
ATOM     14  N   UNL A   1      31.856  29.531  26.140  1.00  0.00    -0.321 N 
BRANCH  14  15
ATOM     15  C   UNL A   1      32.382  30.711  26.723  1.00  0.00     0.081 A 
ATOM     16  C   UNL A   1      31.604  31.876  26.769  1.00  0.00     0.030 A 
ATOM     17  C   UNL A   1      33.686  30.738  27.228  1.00  0.00     0.147 A 
ATOM     18  C   UNL A   1      32.138  33.050  27.308  1.00  0.00     0.002 A 
ATOM     19  C   UNL A   1      34.223  31.915  27.741  1.00  0.00     0.041 A 
ATOM     20  F   UNL A   1      34.489  29.667  27.164  1.00  0.00    -0.205 F 
ATOM     21  C   UNL A   1      33.450  33.073  27.782  1.00  0.00     0.003 A 
ENDBRANCH  14  15
ENDBRANCH   9  10
ENDBRANCH   7   9
ENDBRANCH   6   7
ENDBRANCH   5   6
ENDBRANCH   4   5
ENDBRANCH   3   4
ENDBRANCH   2   3
ENDBRANCH   1   2
BRANCH   1  22
ATOM     22  O   UNL A   1      37.228  23.140  24.509  1.00  0.00    -0.376 OA
BRANCH  22  23
ATOM     23  C   UNL A   1      37.567  22.653  25.795  1.00  0.00     0.202 C 
BRANCH  23  24
ATOM     24  C   UNL A   1      39.012  22.827  26.252  1.00  0.00     0.261 C 
BRANCH  24  25
ATOM     25  O   UNL A   1      39.168  23.422  27.536  1.00  0.00    -0.460 OA
BRANCH  25  26
ATOM     26  C   UNL A   1      40.249  24.219  27.619  1.00  0.00     0.338 C 
ATOM     27  O   UNL A   1      41.432  23.891  27.548  1.00  0.00    -0.246 OA
BRANCH  26  28
ATOM     28  C   UNL A   1      39.854  25.594  27.897  1.00  0.00     0.060 A 
ATOM     29  C   UNL A   1      40.097  26.551  26.905  1.00  0.00     0.016 A 
ATOM     30  C   UNL A   1      39.543  25.945  29.214  1.00  0.00     0.016 A 
ATOM     31  C   UNL A   1      40.164  27.881  27.266  1.00  0.00     0.010 A 
ATOM     32  C   UNL A   1      39.655  27.270  29.583  1.00  0.00     0.010 A 
ATOM     33  C   UNL A   1      40.015  28.220  28.615  1.00  0.00    -0.014 A 
BRANCH  33  34
ATOM     34  C   UNL A   1      40.239  29.614  29.023  1.00  0.00     0.031 A 
ATOM     35  C   UNL A   1      38.933  30.343  29.341  1.00  0.00     0.074 A 
ATOM     36  C   UNL A   1      41.550  30.005  29.060  1.00  0.00     0.049 A 
ATOM     37  N   UNL A   1      38.688  31.612  29.440  1.00  0.00    -0.248 NA
ATOM     38  C   UNL A   1      37.686  29.543  29.518  1.00  0.00     0.031 C 
ATOM     39  C   UNL A   1      42.704  29.147  28.690  1.00  0.00     0.029 A 
ATOM     40  N   UNL A   1      42.188  31.175  29.411  1.00  0.00    -0.354 N 
ATOM     41  C   UNL A   1      37.375  31.745  29.932  1.00  0.00     0.074 A 
ATOM     42  C   UNL A   1      36.767  30.455  29.830  1.00  0.00     0.031 C 
ATOM     43  C   UNL A   1      43.865  29.835  28.761  1.00  0.00     0.029 A 
ATOM     44  C   UNL A   1      43.596  31.180  29.225  1.00  0.00     0.049 A 
ATOM     45  H   UNL A   1      41.701  31.953  29.764  1.00  0.00     0.167 HD
ATOM     46  C   UNL A   1      36.907  32.878  30.528  1.00  0.00     0.034 A 
ATOM     47  C   UNL A   1      44.486  32.203  29.413  1.00  0.00     0.034 A 
ATOM     48  C   UNL A   1      37.882  33.915  30.463  1.00  0.00     0.049 A 
ATOM     49  C   UNL A   1      43.707  33.280  30.050  1.00  0.00     0.074 A 
ATOM     50  C   UNL A   1      38.362  34.683  29.436  1.00  0.00     0.029 A 
ATOM     51  N   UNL A   1      38.705  34.068  31.552  1.00  0.00    -0.354 N 
ATOM     52  N   UNL A   1      43.270  33.261  31.272  1.00  0.00    -0.248 NA
ATOM     53  C   UNL A   1      43.327  34.442  29.240  1.00  0.00     0.031 C 
ATOM     54  C   UNL A   1      39.700  34.946  29.800  1.00  0.00     0.029 A 
ATOM     55  C   UNL A   1      39.943  34.424  31.076  1.00  0.00     0.049 A 
ATOM     56  H   UNL A   1      38.455  33.945  32.497  1.00  0.00     0.167 HD
ATOM     57  C   UNL A   1      42.314  34.248  31.272  1.00  0.00     0.074 A 
ATOM     58  C   UNL A   1      42.600  35.099  30.139  1.00  0.00     0.031 C 
ATOM     59  C   UNL A   1      41.104  34.015  31.838  1.00  0.00     0.034 A 
BRANCH  46  60
ATOM     60  C   UNL A   1      35.687  33.120  31.371  1.00  0.00     0.023 A 
ATOM     61  C   UNL A   1      34.822  34.161  30.953  1.00  0.00     0.031 A 
ATOM     62  C   UNL A   1      35.484  32.623  32.666  1.00  0.00     0.131 A 
ATOM     63  C   UNL A   1      33.886  34.729  31.825  1.00  0.00     0.055 A 
ATOM     64  C   UNL A   1      34.504  33.153  33.518  1.00  0.00     0.041 A 
ATOM     65  F   UNL A   1      36.275  31.675  33.188  1.00  0.00    -0.206 F 
ATOM     66  C   UNL A   1      33.721  34.230  33.112  1.00  0.00     0.022 A 
BRANCH  63  67
ATOM     67  S   UNL A   1      33.009  36.225  31.289  1.00  0.00     0.124 S 
ATOM     68  O   UNL A   1      32.928  36.038  29.845  1.00  0.00    -0.237 OA
ATOM     69  O   UNL A   1      31.748  36.114  32.018  1.00  0.00    -0.237 OA
ATOM     70  O   UNL A   1      33.885  37.308  31.728  1.00  0.00    -0.744 OA
ENDBRANCH  63  67
ENDBRANCH  46  60
BRANCH  47  71
ATOM     71  C   UNL A   1      45.939  32.514  29.107  1.00  0.00     0.023 A 
ATOM     72  C   UNL A   1      47.008  32.467  30.018  1.00  0.00     0.031 A 
ATOM     73  C   UNL A   1      46.320  32.783  27.754  1.00  0.00     0.131 A 
ATOM     74  C   UNL A   1      48.348  32.607  29.562  1.00  0.00     0.055 A 
ATOM     75  C   UNL A   1      47.639  32.841  27.302  1.00  0.00     0.041 A 
ATOM     76  F   UNL A   1      45.414  32.985  26.787  1.00  0.00    -0.206 F 
ATOM     77  C   UNL A   1      48.666  32.738  28.209  1.00  0.00     0.022 A 
BRANCH  74  78
ATOM     78  S   UNL A   1      49.759  32.603  30.708  1.00  0.00     0.124 S 
ATOM     79  O   UNL A   1      49.153  32.068  31.925  1.00  0.00    -0.237 OA
ATOM     80  O   UNL A   1      50.731  31.738  30.049  1.00  0.00    -0.237 OA
ATOM     81  O   UNL A   1      50.125  34.017  30.766  1.00  0.00    -0.744 OA
ENDBRANCH  74  78
ENDBRANCH  47  71
BRANCH  59  82
ATOM     82  C   UNL A   1      41.113  32.972  32.942  1.00  0.00     0.023 A 
ATOM     83  C   UNL A   1      40.844  31.626  32.645  1.00  0.00     0.031 A 
ATOM     84  C   UNL A   1      41.284  33.294  34.300  1.00  0.00     0.131 A 
ATOM     85  C   UNL A   1      40.757  30.670  33.676  1.00  0.00     0.055 A 
ATOM     86  C   UNL A   1      41.214  32.345  35.325  1.00  0.00     0.041 A 
ATOM     87  F   UNL A   1      41.510  34.550  34.678  1.00  0.00    -0.206 F 
ATOM     88  C   UNL A   1      40.948  31.021  35.015  1.00  0.00     0.022 A 
BRANCH  85  89
ATOM     89  S   UNL A   1      40.429  28.938  33.256  1.00  0.00     0.124 S 
ATOM     90  O   UNL A   1      40.633  28.258  34.530  1.00  0.00    -0.237 OA
ATOM     91  O   UNL A   1      39.053  28.983  32.770  1.00  0.00    -0.237 OA
ATOM     92  O   UNL A   1      41.429  28.639  32.229  1.00  0.00    -0.744 OA
ENDBRANCH  85  89
ENDBRANCH  59  82
ENDBRANCH  33  34
ENDBRANCH  26  28
ENDBRANCH  25  26
ENDBRANCH  24  25
ENDBRANCH  23  24
ENDBRANCH  22  23
ENDBRANCH   1  22
TORSDOF 22
ENDMDL
MODEL 3
REMARK VINA RESULT:     -10.1      4.244      8.516
REMARK SMILES O=C(Cc1ccn(-c2ccccc2F)c1)OCCOCCOCCOC(=O)c1ccc(-c2c3nc(c(-c4cc(S(=O)(=O)[O-])ccc4F)c4ccc([nH]4)c(-c4cc(S(=O)(=O)[O-])ccc4F)c4nc(c(-c5cc(S(=O)(=O)[O-])ccc5F)c5ccc2[nH]5)C=C4)C=C3)cc1
REMARK SMILES IDX 21 1 20 2 19 3 18 4 17 5 16 6 2 7 1 8 3 9 4 10 5 11 15 12
REMARK SMILES IDX 6 13 7 14 8 15 9 16 13 17 10 18 12 19 14 20 11 21 22 22
REMARK SMILES IDX 23 23 24 24 25 25 26 26 27 27 28 28 29 29 90 30 30 31 89 32
REMARK SMILES IDX 31 33 32 34 33 35 83 36 34 37 88 38 82 39 84 40 35 41 87 42
REMARK SMILES IDX 81 43 80 44 36 46 68 47 48 48 67 49 49 50 52 51 66 52 85 53
REMARK SMILES IDX 50 54 51 55 65 57 86 58 53 59 37 60 38 61 46 62 39 63 45 64
REMARK SMILES IDX 47 65 44 66 40 67 41 68 42 69 43 70 69 71 70 72 78 73 71 74
REMARK SMILES IDX 77 75 79 76 76 77 72 78 73 79 74 80 75 81 54 82 55 83 63 84
REMARK SMILES IDX 56 85 62 86 64 87 61 88 57 89 58 90 59 91 60 92
REMARK H PARENT 84 45 52 56
REMARK Flexibility Score: inf
ROOT
ATOM      1  C   UNL A   1      32.126  29.415  24.467  1.00  0.00     0.188 C 
ENDROOT
BRANCH   1   2
ATOM      2  C   UNL A   1      32.578  28.822  23.118  1.00  0.00     0.188 C 
BRANCH   2   3
ATOM      3  O   UNL A   1      31.599  28.083  22.408  1.00  0.00    -0.376 OA
BRANCH   3   4
ATOM      4  C   UNL A   1      30.585  27.465  23.183  1.00  0.00     0.202 C 
BRANCH   4   5
ATOM      5  C   UNL A   1      30.859  26.008  23.547  1.00  0.00     0.261 C 
BRANCH   5   6
ATOM      6  O   UNL A   1      31.004  25.702  24.954  1.00  0.00    -0.463 OA
BRANCH   6   7
ATOM      7  C   UNL A   1      30.559  24.647  25.665  1.00  0.00     0.310 C 
ATOM      8  O   UNL A   1      29.830  24.847  26.638  1.00  0.00    -0.252 OA
BRANCH   7   9
ATOM      9  C   UNL A   1      31.038  23.254  25.358  1.00  0.00     0.159 C 
BRANCH   9  10
ATOM     10  C   UNL A   1      32.343  22.859  25.957  1.00  0.00    -0.019 A 
ATOM     11  C   UNL A   1      32.681  22.736  27.328  1.00  0.00     0.024 A 
ATOM     12  C   UNL A   1      33.488  22.547  25.247  1.00  0.00     0.095 A 
ATOM     13  C   UNL A   1      33.970  22.256  27.393  1.00  0.00     0.091 A 
ATOM     14  N   UNL A   1      34.495  22.195  26.117  1.00  0.00    -0.321 N 
BRANCH  14  15
ATOM     15  C   UNL A   1      35.825  21.843  25.777  1.00  0.00     0.081 A 
ATOM     16  C   UNL A   1      36.098  20.579  25.238  1.00  0.00     0.030 A 
ATOM     17  C   UNL A   1      36.880  22.733  26.005  1.00  0.00     0.147 A 
ATOM     18  C   UNL A   1      37.416  20.218  24.940  1.00  0.00     0.002 A 
ATOM     19  C   UNL A   1      38.193  22.360  25.731  1.00  0.00     0.041 A 
ATOM     20  F   UNL A   1      36.680  23.934  26.565  1.00  0.00    -0.205 F 
ATOM     21  C   UNL A   1      38.462  21.102  25.198  1.00  0.00     0.003 A 
ENDBRANCH  14  15
ENDBRANCH   9  10
ENDBRANCH   7   9
ENDBRANCH   6   7
ENDBRANCH   5   6
ENDBRANCH   4   5
ENDBRANCH   3   4
ENDBRANCH   2   3
ENDBRANCH   1   2
BRANCH   1  22
ATOM     22  O   UNL A   1      32.513  28.885  25.731  1.00  0.00    -0.376 OA
BRANCH  22  23
ATOM     23  C   UNL A   1      33.697  29.287  26.396  1.00  0.00     0.202 C 
BRANCH  23  24
ATOM     24  C   UNL A   1      33.563  30.334  27.497  1.00  0.00     0.261 C 
BRANCH  24  25
ATOM     25  O   UNL A   1      34.672  31.218  27.624  1.00  0.00    -0.460 OA
BRANCH  25  26
ATOM     26  C   UNL A   1      35.297  31.110  28.811  1.00  0.00     0.338 C 
ATOM     27  O   UNL A   1      35.073  31.747  29.838  1.00  0.00    -0.246 OA
BRANCH  26  28
ATOM     28  C   UNL A   1      36.392  30.152  28.730  1.00  0.00     0.060 A 
ATOM     29  C   UNL A   1      36.836  29.573  29.925  1.00  0.00     0.016 A 
ATOM     30  C   UNL A   1      37.133  30.084  27.546  1.00  0.00     0.016 A 
ATOM     31  C   UNL A   1      38.106  29.034  29.971  1.00  0.00     0.010 A 
ATOM     32  C   UNL A   1      38.419  29.587  27.605  1.00  0.00     0.010 A 
ATOM     33  C   UNL A   1      38.912  29.113  28.830  1.00  0.00    -0.014 A 
BRANCH  33  34
ATOM     34  C   UNL A   1      40.313  28.680  28.923  1.00  0.00     0.031 A 
ATOM     35  C   UNL A   1      41.240  29.809  29.379  1.00  0.00     0.074 A 
ATOM     36  C   UNL A   1      40.538  27.368  28.607  1.00  0.00     0.049 A 
ATOM     37  N   UNL A   1      42.529  29.912  29.299  1.00  0.00    -0.248 NA
ATOM     38  C   UNL A   1      40.639  31.044  29.961  1.00  0.00     0.031 C 
ATOM     39  C   UNL A   1      39.497  26.411  28.157  1.00  0.00     0.029 A 
ATOM     40  N   UNL A   1      41.660  26.567  28.596  1.00  0.00    -0.354 N 
ATOM     41  C   UNL A   1      42.901  31.058  30.030  1.00  0.00     0.074 A 
ATOM     42  C   UNL A   1      41.696  31.783  30.294  1.00  0.00     0.031 C 
ATOM     43  C   UNL A   1      40.037  25.210  27.852  1.00  0.00     0.029 A 
ATOM     44  C   UNL A   1      41.461  25.247  28.114  1.00  0.00     0.049 A 
ATOM     45  H   UNL A   1      42.538  26.890  28.901  1.00  0.00     0.167 HD
ATOM     46  C   UNL A   1      44.161  31.275  30.500  1.00  0.00     0.034 A 
ATOM     47  C   UNL A   1      42.381  24.252  27.920  1.00  0.00     0.034 A 
ATOM     48  C   UNL A   1      45.046  30.256  30.041  1.00  0.00     0.049 A 
ATOM     49  C   UNL A   1      43.632  24.766  28.506  1.00  0.00     0.074 A 
ATOM     50  C   UNL A   1      45.579  29.964  28.814  1.00  0.00     0.029 A 
ATOM     51  N   UNL A   1      45.262  29.191  30.882  1.00  0.00    -0.354 N 
ATOM     52  N   UNL A   1      43.858  24.905  29.776  1.00  0.00    -0.248 NA
ATOM     53  C   UNL A   1      44.693  25.222  27.601  1.00  0.00     0.031 C 
ATOM     54  C   UNL A   1      45.727  28.561  28.829  1.00  0.00     0.029 A 
ATOM     55  C   UNL A   1      45.383  28.073  30.095  1.00  0.00     0.049 A 
ATOM     56  H   UNL A   1      45.320  29.224  31.865  1.00  0.00     0.167 HD
ATOM     57  C   UNL A   1      44.944  25.746  29.805  1.00  0.00     0.074 A 
ATOM     58  C   UNL A   1      45.567  25.660  28.503  1.00  0.00     0.031 C 
ATOM     59  C   UNL A   1      44.955  26.805  30.650  1.00  0.00     0.034 A 
BRANCH  46  60
ATOM     60  C   UNL A   1      44.682  32.239  31.528  1.00  0.00     0.023 A 
ATOM     61  C   UNL A   1      44.341  31.976  32.876  1.00  0.00     0.031 A 
ATOM     62  C   UNL A   1      45.210  33.509  31.254  1.00  0.00     0.131 A 
ATOM     63  C   UNL A   1      44.431  32.968  33.861  1.00  0.00     0.055 A 
ATOM     64  C   UNL A   1      45.357  34.482  32.253  1.00  0.00     0.041 A 
ATOM     65  F   UNL A   1      45.519  33.889  30.006  1.00  0.00    -0.206 F 
ATOM     66  C   UNL A   1      44.939  34.226  33.557  1.00  0.00     0.022 A 
BRANCH  63  67
ATOM     67  S   UNL A   1      43.728  32.621  35.498  1.00  0.00     0.124 S 
ATOM     68  O   UNL A   1      44.335  33.658  36.323  1.00  0.00    -0.237 OA
ATOM     69  O   UNL A   1      42.296  32.762  35.247  1.00  0.00    -0.237 OA
ATOM     70  O   UNL A   1      44.176  31.260  35.778  1.00  0.00    -0.744 OA
ENDBRANCH  63  67
ENDBRANCH  46  60
BRANCH  47  71
ATOM     71  C   UNL A   1      42.457  22.889  27.257  1.00  0.00     0.023 A 
ATOM     72  C   UNL A   1      43.404  22.483  26.300  1.00  0.00     0.031 A 
ATOM     73  C   UNL A   1      41.568  21.856  27.692  1.00  0.00     0.131 A 
ATOM     74  C   UNL A   1      43.475  21.123  25.891  1.00  0.00     0.055 A 
ATOM     75  C   UNL A   1      41.693  20.510  27.347  1.00  0.00     0.041 A 
ATOM     76  F   UNL A   1      40.532  22.106  28.504  1.00  0.00    -0.206 F 
ATOM     77  C   UNL A   1      42.663  20.133  26.449  1.00  0.00     0.022 A 
BRANCH  74  78
ATOM     78  S   UNL A   1      44.647  20.561  24.621  1.00  0.00     0.124 S 
ATOM     79  O   UNL A   1      45.856  20.341  25.409  1.00  0.00    -0.237 OA
ATOM     80  O   UNL A   1      44.014  19.364  24.080  1.00  0.00    -0.237 OA
ATOM     81  O   UNL A   1      44.698  21.702  23.709  1.00  0.00    -0.744 OA
ENDBRANCH  74  78
ENDBRANCH  47  71
BRANCH  59  82
ATOM     82  C   UNL A   1      44.104  26.630  31.895  1.00  0.00     0.023 A 
ATOM     83  C   UNL A   1      43.064  27.533  32.174  1.00  0.00     0.031 A 
ATOM     84  C   UNL A   1      44.358  25.646  32.867  1.00  0.00     0.131 A 
ATOM     85  C   UNL A   1      42.332  27.432  33.373  1.00  0.00     0.055 A 
ATOM     86  C   UNL A   1      43.623  25.533  34.051  1.00  0.00     0.041 A 
ATOM     87  F   UNL A   1      45.345  24.768  32.702  1.00  0.00    -0.206 F 
ATOM     88  C   UNL A   1      42.601  26.432  34.310  1.00  0.00     0.022 A 
BRANCH  85  89
ATOM     89  S   UNL A   1      40.984  28.601  33.691  1.00  0.00     0.124 S 
ATOM     90  O   UNL A   1      41.497  29.840  33.117  1.00  0.00    -0.237 OA
ATOM     91  O   UNL A   1      39.860  27.989  32.989  1.00  0.00    -0.237 OA
ATOM     92  O   UNL A   1      40.867  28.599  35.151  1.00  0.00    -0.744 OA
ENDBRANCH  85  89
ENDBRANCH  59  82
ENDBRANCH  33  34
ENDBRANCH  26  28
ENDBRANCH  25  26
ENDBRANCH  24  25
ENDBRANCH  23  24
ENDBRANCH  22  23
ENDBRANCH   1  22
TORSDOF 22
ENDMDL
