MODEL 1
REMARK VINA RESULT:     -12.9      0.000      0.000
REMARK SMILES Cc1ccc(S(=O)(=O)N2c3ccc(C(=O)OCCOCCOCCOC(=O)c4ccc(-c5c6nc(c(-c7cc(S(=O)(=O)[O-])ccc7F)c7ccc([nH]7)c(-c7cc(S(=O)(=O)[O-])ccc7F)c7nc(c(-c8cc(S(=O)(=O)[O-])ccc8F)c8ccc5[nH]8)C=C7)C=C6)cc4)cc3C[C@H]2C)cc1
REMARK SMILES IDX 21 1 20 2 19 3 18 4 17 5 16 6 14 7 15 8 13 9 9 10 10 11
REMARK SMILES IDX 94 12 11 13 92 14 93 15 95 16 12 17 91 18 6 19 7 20 8 21
REMARK SMILES IDX 5 22 1 23 2 24 3 25 97 26 4 27 96 28 22 29 23 30 24 31 25 32
REMARK SMILES IDX 26 33 27 34 28 35 29 36 90 37 30 38 89 39 31 40 32 41 33 42
REMARK SMILES IDX 83 43 34 44 88 45 82 46 84 47 35 48 87 49 81 50 80 51 36 53
REMARK SMILES IDX 68 54 48 55 67 56 49 57 52 58 66 59 85 60 50 61 51 62 65 64
REMARK SMILES IDX 86 65 53 66 37 67 38 68 46 69 39 70 45 71 47 72 44 73 40 74
REMARK SMILES IDX 41 75 42 76 43 77 69 78 70 79 78 80 71 81 77 82 79 83 76 84
REMARK SMILES IDX 72 85 73 86 74 87 75 88 54 89 55 90 63 91 56 92 62 93 64 94
REMARK SMILES IDX 61 95 57 96 58 97 59 98 60 99
REMARK H PARENT 84 52 52 63
REMARK Flexibility Score: inf
ROOT
ATOM      1  C   UNL A   1      40.837  19.603  26.269  1.00  0.00     0.188 C 
ENDROOT
BRANCH   1   2
ATOM      2  C   UNL A   1      40.719  21.123  26.384  1.00  0.00     0.188 C 
BRANCH   2   3
ATOM      3  O   UNL A   1      39.423  21.743  26.569  1.00  0.00    -0.376 OA
BRANCH   3   4
ATOM      4  C   UNL A   1      38.458  21.896  25.526  1.00  0.00     0.202 C 
BRANCH   4   5
ATOM      5  C   UNL A   1      36.837  21.742  25.841  1.00  0.00     0.261 C 
BRANCH   5   6
ATOM      6  O   UNL A   1      35.699  20.669  25.201  1.00  0.00    -0.460 OA
BRANCH   6   7
ATOM      7  C   UNL A   1      34.360  20.723  24.725  1.00  0.00     0.338 C 
ATOM      8  O   UNL A   1      33.427  19.964  24.959  1.00  0.00    -0.246 OA
BRANCH   7   9
ATOM      9  C   UNL A   1      33.722  21.766  23.868  1.00  0.00     0.060 A 
ATOM     10  N   UNL A   1      31.381  25.260  23.102  1.00  0.00    -0.263 N 
ATOM     11  C   UNL A   1      32.065  24.006  23.353  1.00  0.00     0.055 A 
ATOM     12  C   UNL A   1      32.526  26.255  22.887  1.00  0.00     0.101 C 
ATOM     13  C   UNL A   1      31.518  22.731  23.380  1.00  0.00     0.028 A 
ATOM     14  C   UNL A   1      33.409  24.206  23.623  1.00  0.00    -0.021 A 
ATOM     15  C   UNL A   1      33.722  25.676  23.683  1.00  0.00     0.063 C 
ATOM     16  C   UNL A   1      32.848  26.302  21.384  1.00  0.00     0.032 C 
ATOM     17  C   UNL A   1      32.344  21.617  23.645  1.00  0.00     0.018 A 
ATOM     18  C   UNL A   1      34.221  23.112  23.925  1.00  0.00     0.021 A 
BRANCH  10  19
ATOM     19  S   UNL A   1      30.316  25.710  24.404  1.00  0.00     0.264 S 
ATOM     20  O   UNL A   1      30.417  24.718  25.454  1.00  0.00    -0.201 OA
ATOM     21  O   UNL A   1      29.038  26.104  23.843  1.00  0.00    -0.201 OA
BRANCH  19  22
ATOM     22  C   UNL A   1      30.980  27.216  25.103  1.00  0.00     0.088 A 
ATOM     23  C   UNL A   1      32.611  30.706  27.036  1.00  0.00     0.044 C 
ATOM     24  C   UNL A   1      32.045  29.493  26.357  1.00  0.00    -0.051 A 
ATOM     25  C   UNL A   1      32.016  28.267  27.030  1.00  0.00     0.005 A 
ATOM     26  C   UNL A   1      31.510  29.573  25.064  1.00  0.00     0.005 A 
ATOM     27  C   UNL A   1      31.493  27.133  26.406  1.00  0.00     0.022 A 
ATOM     28  C   UNL A   1      30.973  28.440  24.439  1.00  0.00     0.022 A 
ENDBRANCH  19  22
ENDBRANCH  10  19
ENDBRANCH   7   9
ENDBRANCH   6   7
ENDBRANCH   5   6
ENDBRANCH   4   5
ENDBRANCH   3   4
ENDBRANCH   2   3
ENDBRANCH   1   2
BRANCH   1  29
ATOM     29  O   UNL A   1      42.138  19.216  26.679  1.00  0.00    -0.376 OA
BRANCH  29  30
ATOM     30  C   UNL A   1      42.689  18.089  26.038  1.00  0.00     0.202 C 
BRANCH  30  31
ATOM     31  C   UNL A   1      43.903  18.486  25.193  1.00  0.00     0.261 C 
BRANCH  31  32
ATOM     32  O   UNL A   1      44.308  19.843  25.510  1.00  0.00    -0.460 OA
BRANCH  32  33
ATOM     33  C   UNL A   1      44.662  20.651  24.452  1.00  0.00     0.338 C 
ATOM     34  O   UNL A   1      44.813  20.225  23.317  1.00  0.00    -0.246 OA
BRANCH  33  35
ATOM     35  C   UNL A   1      44.812  22.086  24.897  1.00  0.00     0.060 A 
ATOM     36  C   UNL A   1      45.864  22.657  25.629  1.00  0.00     0.016 A 
ATOM     37  C   UNL A   1      43.699  22.856  24.822  1.00  0.00     0.016 A 
ATOM     38  C   UNL A   1      45.716  23.937  26.352  1.00  0.00     0.010 A 
ATOM     39  C   UNL A   1      43.587  23.890  25.763  1.00  0.00     0.010 A 
ATOM     40  C   UNL A   1      44.499  24.621  26.498  1.00  0.00    -0.014 A 
BRANCH  40  41
ATOM     41  C   UNL A   1      44.040  25.728  27.568  1.00  0.00     0.031 A 
ATOM     42  C   UNL A   1      42.669  26.567  27.844  1.00  0.00     0.074 A 
ATOM     43  C   UNL A   1      45.013  26.161  28.404  1.00  0.00     0.049 A 
ATOM     44  N   UNL A   1      42.604  27.890  27.875  1.00  0.00    -0.248 NA
ATOM     45  C   UNL A   1      41.301  26.071  28.173  1.00  0.00     0.031 C 
ATOM     46  C   UNL A   1      44.892  27.091  29.524  1.00  0.00     0.029 A 
ATOM     47  N   UNL A   1      46.385  25.984  28.258  1.00  0.00    -0.354 N 
ATOM     48  C   UNL A   1      41.293  28.275  28.221  1.00  0.00     0.074 A 
ATOM     49  C   UNL A   1      40.498  27.119  28.212  1.00  0.00     0.031 C 
ATOM     50  C   UNL A   1      46.098  27.628  29.760  1.00  0.00     0.029 A 
ATOM     51  C   UNL A   1      47.009  27.132  28.744  1.00  0.00     0.049 A 
ATOM     52  H   UNL A   1      46.833  25.193  27.882  1.00  0.00     0.167 HD
ATOM     53  C   UNL A   1      40.870  29.453  28.749  1.00  0.00     0.034 A 
ATOM     54  C   UNL A   1      47.831  27.868  27.948  1.00  0.00     0.034 A 
ATOM     55  C   UNL A   1      41.997  30.193  29.209  1.00  0.00     0.049 A 
ATOM     56  C   UNL A   1      47.404  29.313  27.825  1.00  0.00     0.074 A 
ATOM     57  C   UNL A   1      42.623  30.259  30.439  1.00  0.00     0.029 A 
ATOM     58  N   UNL A   1      42.873  30.681  28.271  1.00  0.00    -0.354 N 
ATOM     59  N   UNL A   1      46.259  29.788  28.229  1.00  0.00    -0.248 NA
ATOM     60  C   UNL A   1      48.237  30.335  27.207  1.00  0.00     0.031 C 
ATOM     61  C   UNL A   1      43.907  30.816  30.227  1.00  0.00     0.029 A 
ATOM     62  C   UNL A   1      44.015  31.132  28.885  1.00  0.00     0.049 A 
ATOM     63  H   UNL A   1      42.707  30.704  27.300  1.00  0.00     0.167 HD
ATOM     64  C   UNL A   1      46.151  31.115  27.873  1.00  0.00     0.074 A 
ATOM     65  C   UNL A   1      47.436  31.412  27.270  1.00  0.00     0.031 C 
ATOM     66  C   UNL A   1      44.995  31.821  28.077  1.00  0.00     0.034 A 
BRANCH  53  67
ATOM     67  C   UNL A   1      39.424  29.665  29.174  1.00  0.00     0.023 A 
ATOM     68  C   UNL A   1      39.068  29.728  30.533  1.00  0.00     0.031 A 
ATOM     69  C   UNL A   1      38.352  29.739  28.252  1.00  0.00     0.131 A 
ATOM     70  C   UNL A   1      37.714  29.734  30.928  1.00  0.00     0.055 A 
ATOM     71  C   UNL A   1      37.005  29.691  28.645  1.00  0.00     0.041 A 
ATOM     72  F   UNL A   1      38.583  29.797  26.930  1.00  0.00    -0.206 F 
ATOM     73  C   UNL A   1      36.680  29.668  29.994  1.00  0.00     0.022 A 
BRANCH  70  74
ATOM     74  S   UNL A   1      37.312  29.826  32.697  1.00  0.00     0.124 S 
ATOM     75  O   UNL A   1      36.034  30.532  32.688  1.00  0.00    -0.237 OA
ATOM     76  O   UNL A   1      37.270  28.418  33.077  1.00  0.00    -0.237 OA
ATOM     77  O   UNL A   1      38.428  30.582  33.265  1.00  0.00    -0.744 OA
ENDBRANCH  70  74
ENDBRANCH  53  67
BRANCH  54  78
ATOM     78  C   UNL A   1      48.568  27.067  26.917  1.00  0.00     0.023 A 
ATOM     79  C   UNL A   1      48.117  27.159  25.578  1.00  0.00     0.031 A 
ATOM     80  C   UNL A   1      49.839  26.514  27.132  1.00  0.00     0.131 A 
ATOM     81  C   UNL A   1      48.970  26.850  24.509  1.00  0.00     0.055 A 
ATOM     82  C   UNL A   1      50.666  26.137  26.059  1.00  0.00     0.041 A 
ATOM     83  F   UNL A   1      50.359  26.452  28.365  1.00  0.00    -0.206 F 
ATOM     84  C   UNL A   1      50.245  26.334  24.741  1.00  0.00     0.022 A 
BRANCH  81  85
ATOM     85  S   UNL A   1      48.528  27.394  22.828  1.00  0.00     0.124 S 
ATOM     86  O   UNL A   1      48.500  26.133  22.096  1.00  0.00    -0.237 OA
ATOM     87  O   UNL A   1      47.236  28.053  23.012  1.00  0.00    -0.237 OA
ATOM     88  O   UNL A   1      49.618  28.304  22.487  1.00  0.00    -0.744 OA
ENDBRANCH  81  85
ENDBRANCH  54  78
BRANCH  66  89
ATOM     89  C   UNL A   1      44.607  33.200  27.554  1.00  0.00     0.023 A 
ATOM     90  C   UNL A   1      44.786  34.377  28.277  1.00  0.00     0.031 A 
ATOM     91  C   UNL A   1      44.056  33.381  26.250  1.00  0.00     0.131 A 
ATOM     92  C   UNL A   1      44.428  35.630  27.746  1.00  0.00     0.055 A 
ATOM     93  C   UNL A   1      43.766  34.630  25.694  1.00  0.00     0.041 A 
ATOM     94  F   UNL A   1      43.757  32.357  25.439  1.00  0.00    -0.206 F 
ATOM     95  C   UNL A   1      43.946  35.772  26.448  1.00  0.00     0.022 A 
BRANCH  92  96
ATOM     96  S   UNL A   1      44.530  37.065  28.841  1.00  0.00     0.124 S 
ATOM     97  O   UNL A   1      45.838  36.877  29.463  1.00  0.00    -0.237 OA
ATOM     98  O   UNL A   1      44.429  38.178  27.903  1.00  0.00    -0.237 OA
ATOM     99  O   UNL A   1      43.388  36.897  29.737  1.00  0.00    -0.744 OA
ENDBRANCH  92  96
ENDBRANCH  66  89
ENDBRANCH  40  41
ENDBRANCH  33  35
ENDBRANCH  32  33
ENDBRANCH  31  32
ENDBRANCH  30  31
ENDBRANCH  29  30
ENDBRANCH   1  29
TORSDOF 22
ENDMDL
MODEL 2
REMARK VINA RESULT:     -11.5      4.681      8.521
REMARK SMILES Cc1ccc(S(=O)(=O)N2c3ccc(C(=O)OCCOCCOCCOC(=O)c4ccc(-c5c6nc(c(-c7cc(S(=O)(=O)[O-])ccc7F)c7ccc([nH]7)c(-c7cc(S(=O)(=O)[O-])ccc7F)c7nc(c(-c8cc(S(=O)(=O)[O-])ccc8F)c8ccc5[nH]8)C=C7)C=C6)cc4)cc3C[C@H]2C)cc1
REMARK SMILES IDX 21 1 20 2 19 3 18 4 17 5 16 6 14 7 15 8 13 9 9 10 10 11
REMARK SMILES IDX 94 12 11 13 92 14 93 15 95 16 12 17 91 18 6 19 7 20 8 21
REMARK SMILES IDX 5 22 1 23 2 24 3 25 97 26 4 27 96 28 22 29 23 30 24 31 25 32
REMARK SMILES IDX 26 33 27 34 28 35 29 36 90 37 30 38 89 39 31 40 32 41 33 42
REMARK SMILES IDX 83 43 34 44 88 45 82 46 84 47 35 48 87 49 81 50 80 51 36 53
REMARK SMILES IDX 68 54 48 55 67 56 49 57 52 58 66 59 85 60 50 61 51 62 65 64
REMARK SMILES IDX 86 65 53 66 37 67 38 68 46 69 39 70 45 71 47 72 44 73 40 74
REMARK SMILES IDX 41 75 42 76 43 77 69 78 70 79 78 80 71 81 77 82 79 83 76 84
REMARK SMILES IDX 72 85 73 86 74 87 75 88 54 89 55 90 63 91 56 92 62 93 64 94
REMARK SMILES IDX 61 95 57 96 58 97 59 98 60 99
REMARK H PARENT 84 52 52 63
REMARK Flexibility Score: inf
ROOT
ATOM      1  C   UNL A   1      41.385  19.832  26.532  1.00  0.00     0.188 C 
ENDROOT
BRANCH   1   2
ATOM      2  C   UNL A   1      40.872  21.218  26.139  1.00  0.00     0.188 C 
BRANCH   2   3
ATOM      3  O   UNL A   1      39.517  21.614  26.466  1.00  0.00    -0.376 OA
BRANCH   3   4
ATOM      4  C   UNL A   1      38.487  21.805  25.493  1.00  0.00     0.202 C 
BRANCH   4   5
ATOM      5  C   UNL A   1      36.910  21.430  25.841  1.00  0.00     0.261 C 
BRANCH   5   6
ATOM      6  O   UNL A   1      35.718  20.725  24.874  1.00  0.00    -0.460 OA
BRANCH   6   7
ATOM      7  C   UNL A   1      34.306  20.813  24.721  1.00  0.00     0.338 C 
ATOM      8  O   UNL A   1      33.428  20.174  25.287  1.00  0.00    -0.246 OA
BRANCH   7   9
ATOM      9  C   UNL A   1      33.523  21.763  23.876  1.00  0.00     0.060 A 
ATOM     10  N   UNL A   1      31.384  25.373  23.059  1.00  0.00    -0.263 N 
ATOM     11  C   UNL A   1      31.998  24.097  23.376  1.00  0.00     0.055 A 
ATOM     12  C   UNL A   1      32.484  26.117  22.294  1.00  0.00     0.101 C 
ATOM     13  C   UNL A   1      31.376  22.952  23.854  1.00  0.00     0.028 A 
ATOM     14  C   UNL A   1      33.369  24.131  23.184  1.00  0.00    -0.021 A 
ATOM     15  C   UNL A   1      33.816  25.518  22.811  1.00  0.00     0.063 C 
ATOM     16  C   UNL A   1      32.307  25.829  20.794  1.00  0.00     0.032 C 
ATOM     17  C   UNL A   1      32.139  21.792  24.110  1.00  0.00     0.018 A 
ATOM     18  C   UNL A   1      34.133  22.999  23.474  1.00  0.00     0.021 A 
BRANCH  10  19
ATOM     19  S   UNL A   1      30.841  26.222  24.479  1.00  0.00     0.264 S 
ATOM     20  O   UNL A   1      31.995  26.721  25.195  1.00  0.00    -0.201 OA
ATOM     21  O   UNL A   1      29.819  25.427  25.131  1.00  0.00    -0.201 OA
BRANCH  19  22
ATOM     22  C   UNL A   1      29.973  27.675  23.898  1.00  0.00     0.088 A 
ATOM     23  C   UNL A   1      27.666  31.001  22.420  1.00  0.00     0.044 C 
ATOM     24  C   UNL A   1      28.473  29.847  22.939  1.00  0.00    -0.051 A 
ATOM     25  C   UNL A   1      27.910  28.566  22.981  1.00  0.00     0.005 A 
ATOM     26  C   UNL A   1      29.800  30.022  23.355  1.00  0.00     0.005 A 
ATOM     27  C   UNL A   1      28.653  27.487  23.463  1.00  0.00     0.022 A 
ATOM     28  C   UNL A   1      30.551  28.939  23.828  1.00  0.00     0.022 A 
ENDBRANCH  19  22
ENDBRANCH  10  19
ENDBRANCH   7   9
ENDBRANCH   6   7
ENDBRANCH   5   6
ENDBRANCH   4   5
ENDBRANCH   3   4
ENDBRANCH   2   3
ENDBRANCH   1   2
BRANCH   1  29
ATOM     29  O   UNL A   1      42.800  19.832  26.450  1.00  0.00    -0.376 OA
BRANCH  29  30
ATOM     30  C   UNL A   1      43.360  19.320  25.262  1.00  0.00     0.202 C 
BRANCH  30  31
ATOM     31  C   UNL A   1      44.502  20.214  24.773  1.00  0.00     0.261 C 
BRANCH  31  32
ATOM     32  O   UNL A   1      44.130  21.611  24.897  1.00  0.00    -0.460 OA
BRANCH  32  33
ATOM     33  C   UNL A   1      44.470  22.442  23.853  1.00  0.00     0.338 C 
ATOM     34  O   UNL A   1      44.173  22.201  22.693  1.00  0.00    -0.246 OA
BRANCH  33  35
ATOM     35  C   UNL A   1      45.222  23.652  24.352  1.00  0.00     0.060 A 
ATOM     36  C   UNL A   1      46.575  23.968  24.156  1.00  0.00     0.016 A 
ATOM     37  C   UNL A   1      44.609  24.384  25.313  1.00  0.00     0.016 A 
ATOM     38  C   UNL A   1      47.290  24.936  25.015  1.00  0.00     0.010 A 
ATOM     39  C   UNL A   1      45.443  25.049  26.224  1.00  0.00     0.010 A 
ATOM     40  C   UNL A   1      46.743  25.512  26.172  1.00  0.00    -0.014 A 
BRANCH  40  41
ATOM     41  C   UNL A   1      47.455  26.196  27.439  1.00  0.00     0.031 A 
ATOM     42  C   UNL A   1      48.504  25.695  28.583  1.00  0.00     0.074 A 
ATOM     43  C   UNL A   1      47.056  27.460  27.714  1.00  0.00     0.049 A 
ATOM     44  N   UNL A   1      48.269  25.761  29.885  1.00  0.00    -0.248 NA
ATOM     45  C   UNL A   1      49.889  25.159  28.434  1.00  0.00     0.031 C 
ATOM     46  C   UNL A   1      47.570  28.366  28.738  1.00  0.00     0.029 A 
ATOM     47  N   UNL A   1      45.927  28.109  27.224  1.00  0.00    -0.354 N 
ATOM     48  C   UNL A   1      49.414  25.324  30.580  1.00  0.00     0.074 A 
ATOM     49  C   UNL A   1      50.306  24.797  29.634  1.00  0.00     0.031 C 
ATOM     50  C   UNL A   1      46.623  29.277  29.011  1.00  0.00     0.029 A 
ATOM     51  C   UNL A   1      45.442  28.930  28.241  1.00  0.00     0.049 A 
ATOM     52  H   UNL A   1      45.542  28.007  26.324  1.00  0.00     0.167 HD
ATOM     53  C   UNL A   1      49.775  25.587  31.863  1.00  0.00     0.034 A 
ATOM     54  C   UNL A   1      44.171  28.786  28.706  1.00  0.00     0.034 A 
ATOM     55  C   UNL A   1      48.971  26.648  32.370  1.00  0.00     0.049 A 
ATOM     56  C   UNL A   1      44.107  28.528  30.194  1.00  0.00     0.074 A 
ATOM     57  C   UNL A   1      49.154  28.017  32.398  1.00  0.00     0.029 A 
ATOM     58  N   UNL A   1      47.635  26.403  32.569  1.00  0.00    -0.354 N 
ATOM     59  N   UNL A   1      45.133  28.238  30.945  1.00  0.00    -0.248 NA
ATOM     60  C   UNL A   1      42.863  28.553  30.949  1.00  0.00     0.031 C 
ATOM     61  C   UNL A   1      47.888  28.605  32.635  1.00  0.00     0.029 A 
ATOM     62  C   UNL A   1      46.972  27.583  32.805  1.00  0.00     0.049 A 
ATOM     63  H   UNL A   1      47.213  25.513  32.547  1.00  0.00     0.167 HD
ATOM     64  C   UNL A   1      44.712  27.963  32.227  1.00  0.00     0.074 A 
ATOM     65  C   UNL A   1      43.284  28.214  32.178  1.00  0.00     0.031 C 
ATOM     66  C   UNL A   1      45.580  27.516  33.187  1.00  0.00     0.034 A 
BRANCH  53  67
ATOM     67  C   UNL A   1      51.113  25.128  32.427  1.00  0.00     0.023 A 
ATOM     68  C   UNL A   1      51.399  23.763  32.598  1.00  0.00     0.031 A 
ATOM     69  C   UNL A   1      52.110  26.028  32.876  1.00  0.00     0.131 A 
ATOM     70  C   UNL A   1      52.555  23.345  33.291  1.00  0.00     0.055 A 
ATOM     71  C   UNL A   1      53.232  25.615  33.612  1.00  0.00     0.041 A 
ATOM     72  F   UNL A   1      51.991  27.349  32.665  1.00  0.00    -0.206 F 
ATOM     73  C   UNL A   1      53.449  24.264  33.841  1.00  0.00     0.022 A 
BRANCH  70  74
ATOM     74  S   UNL A   1      52.879  21.568  33.475  1.00  0.00     0.124 S 
ATOM     75  O   UNL A   1      52.068  21.223  34.638  1.00  0.00    -0.237 OA
ATOM     76  O   UNL A   1      52.428  21.038  32.193  1.00  0.00    -0.237 OA
ATOM     77  O   UNL A   1      54.324  21.503  33.693  1.00  0.00    -0.744 OA
ENDBRANCH  70  74
ENDBRANCH  53  67
BRANCH  54  78
ATOM     78  C   UNL A   1      43.190  28.311  27.677  1.00  0.00     0.023 A 
ATOM     79  C   UNL A   1      42.582  27.050  27.892  1.00  0.00     0.031 A 
ATOM     80  C   UNL A   1      42.605  29.153  26.721  1.00  0.00     0.131 A 
ATOM     81  C   UNL A   1      41.361  26.727  27.284  1.00  0.00     0.055 A 
ATOM     82  C   UNL A   1      41.417  28.795  26.057  1.00  0.00     0.041 A 
ATOM     83  F   UNL A   1      43.086  30.385  26.507  1.00  0.00    -0.206 F 
ATOM     84  C   UNL A   1      40.774  27.593  26.361  1.00  0.00     0.022 A 
BRANCH  81  85
ATOM     85  S   UNL A   1      40.395  25.317  27.913  1.00  0.00     0.124 S 
ATOM     86  O   UNL A   1      39.667  24.890  26.723  1.00  0.00    -0.237 OA
ATOM     87  O   UNL A   1      41.419  24.394  28.400  1.00  0.00    -0.237 OA
ATOM     88  O   UNL A   1      39.589  25.924  28.968  1.00  0.00    -0.744 OA
ENDBRANCH  81  85
ENDBRANCH  54  78
BRANCH  66  89
ATOM     89  C   UNL A   1      45.275  26.947  34.569  1.00  0.00     0.023 A 
ATOM     90  C   UNL A   1      45.592  25.646  34.955  1.00  0.00     0.031 A 
ATOM     91  C   UNL A   1      44.663  27.737  35.588  1.00  0.00     0.131 A 
ATOM     92  C   UNL A   1      45.306  25.171  36.248  1.00  0.00     0.055 A 
ATOM     93  C   UNL A   1      44.443  27.289  36.894  1.00  0.00     0.041 A 
ATOM     94  F   UNL A   1      44.234  28.989  35.377  1.00  0.00    -0.206 F 
ATOM     95  C   UNL A   1      44.760  25.989  37.233  1.00  0.00     0.022 A 
BRANCH  92  96
ATOM     96  S   UNL A   1      45.588  23.416  36.577  1.00  0.00     0.124 S 
ATOM     97  O   UNL A   1      45.482  23.362  38.034  1.00  0.00    -0.237 OA
ATOM     98  O   UNL A   1      44.500  22.784  35.840  1.00  0.00    -0.237 OA
ATOM     99  O   UNL A   1      46.927  23.176  36.045  1.00  0.00    -0.744 OA
ENDBRANCH  92  96
ENDBRANCH  66  89
ENDBRANCH  40  41
ENDBRANCH  33  35
ENDBRANCH  32  33
ENDBRANCH  31  32
ENDBRANCH  30  31
ENDBRANCH  29  30
ENDBRANCH   1  29
TORSDOF 22
ENDMDL
MODEL 3
REMARK VINA RESULT:     -11.0      5.907     10.104
REMARK SMILES Cc1ccc(S(=O)(=O)N2c3ccc(C(=O)OCCOCCOCCOC(=O)c4ccc(-c5c6nc(c(-c7cc(S(=O)(=O)[O-])ccc7F)c7ccc([nH]7)c(-c7cc(S(=O)(=O)[O-])ccc7F)c7nc(c(-c8cc(S(=O)(=O)[O-])ccc8F)c8ccc5[nH]8)C=C7)C=C6)cc4)cc3C[C@H]2C)cc1
REMARK SMILES IDX 21 1 20 2 19 3 18 4 17 5 16 6 14 7 15 8 13 9 9 10 10 11
REMARK SMILES IDX 94 12 11 13 92 14 93 15 95 16 12 17 91 18 6 19 7 20 8 21
REMARK SMILES IDX 5 22 1 23 2 24 3 25 97 26 4 27 96 28 22 29 23 30 24 31 25 32
REMARK SMILES IDX 26 33 27 34 28 35 29 36 90 37 30 38 89 39 31 40 32 41 33 42
REMARK SMILES IDX 83 43 34 44 88 45 82 46 84 47 35 48 87 49 81 50 80 51 36 53
REMARK SMILES IDX 68 54 48 55 67 56 49 57 52 58 66 59 85 60 50 61 51 62 65 64
REMARK SMILES IDX 86 65 53 66 37 67 38 68 46 69 39 70 45 71 47 72 44 73 40 74
REMARK SMILES IDX 41 75 42 76 43 77 69 78 70 79 78 80 71 81 77 82 79 83 76 84
REMARK SMILES IDX 72 85 73 86 74 87 75 88 54 89 55 90 63 91 56 92 62 93 64 94
REMARK SMILES IDX 61 95 57 96 58 97 59 98 60 99
REMARK H PARENT 84 52 52 63
REMARK Flexibility Score: inf
ROOT
ATOM      1  C   UNL A   1      43.673  23.496  28.206  1.00  0.00     0.188 C 
ENDROOT
BRANCH   1   2
ATOM      2  C   UNL A   1      42.701  22.316  28.190  1.00  0.00     0.188 C 
BRANCH   2   3
ATOM      3  O   UNL A   1      41.791  22.135  27.077  1.00  0.00    -0.376 OA
BRANCH   3   4
ATOM      4  C   UNL A   1      40.367  22.178  27.198  1.00  0.00     0.202 C 
BRANCH   4   5
ATOM      5  C   UNL A   1      39.395  21.581  25.995  1.00  0.00     0.261 C 
BRANCH   5   6
ATOM      6  O   UNL A   1      37.760  21.861  25.675  1.00  0.00    -0.460 OA
BRANCH   6   7
ATOM      7  C   UNL A   1      36.622  21.098  25.289  1.00  0.00     0.338 C 
ATOM      8  O   UNL A   1      36.552  19.907  25.009  1.00  0.00    -0.246 OA
BRANCH   7   9
ATOM      9  C   UNL A   1      35.200  21.539  25.192  1.00  0.00     0.060 A 
ATOM     10  N   UNL A   1      32.030  24.401  24.990  1.00  0.00    -0.263 N 
ATOM     11  C   UNL A   1      33.094  23.435  25.188  1.00  0.00     0.055 A 
ATOM     12  C   UNL A   1      31.768  24.339  23.482  1.00  0.00     0.101 C 
ATOM     13  C   UNL A   1      33.557  22.917  26.389  1.00  0.00     0.028 A 
ATOM     14  C   UNL A   1      33.682  23.073  23.987  1.00  0.00    -0.021 A 
ATOM     15  C   UNL A   1      33.108  23.881  22.855  1.00  0.00     0.063 C 
ATOM     16  C   UNL A   1      30.665  23.297  23.227  1.00  0.00     0.032 C 
ATOM     17  C   UNL A   1      34.613  21.978  26.389  1.00  0.00     0.018 A 
ATOM     18  C   UNL A   1      34.751  22.177  23.986  1.00  0.00     0.021 A 
BRANCH  10  19
ATOM     19  S   UNL A   1      32.464  25.993  25.547  1.00  0.00     0.264 S 
ATOM     20  O   UNL A   1      33.881  26.192  25.333  1.00  0.00    -0.201 OA
ATOM     21  O   UNL A   1      31.844  26.217  26.839  1.00  0.00    -0.201 OA
BRANCH  19  22
ATOM     22  C   UNL A   1      31.648  27.151  24.454  1.00  0.00     0.088 A 
ATOM     23  C   UNL A   1      29.942  30.037  21.747  1.00  0.00     0.044 C 
ATOM     24  C   UNL A   1      30.530  29.027  22.689  1.00  0.00    -0.051 A 
ATOM     25  C   UNL A   1      31.917  28.847  22.740  1.00  0.00     0.005 A 
ATOM     26  C   UNL A   1      29.714  28.281  23.549  1.00  0.00     0.005 A 
ATOM     27  C   UNL A   1      32.473  27.910  23.612  1.00  0.00     0.022 A 
ATOM     28  C   UNL A   1      30.270  27.349  24.434  1.00  0.00     0.022 A 
ENDBRANCH  19  22
ENDBRANCH  10  19
ENDBRANCH   7   9
ENDBRANCH   6   7
ENDBRANCH   5   6
ENDBRANCH   4   5
ENDBRANCH   3   4
ENDBRANCH   2   3
ENDBRANCH   1   2
BRANCH   1  29
ATOM     29  O   UNL A   1      43.066  24.594  27.548  1.00  0.00    -0.376 OA
BRANCH  29  30
ATOM     30  C   UNL A   1      42.190  25.383  28.320  1.00  0.00     0.202 C 
BRANCH  30  31
ATOM     31  C   UNL A   1      40.959  25.783  27.502  1.00  0.00     0.261 C 
BRANCH  31  32
ATOM     32  O   UNL A   1      39.847  26.078  28.387  1.00  0.00    -0.460 OA
BRANCH  32  33
ATOM     33  C   UNL A   1      39.480  27.400  28.506  1.00  0.00     0.338 C 
ATOM     34  O   UNL A   1      38.542  27.883  27.892  1.00  0.00    -0.246 OA
BRANCH  33  35
ATOM     35  C   UNL A   1      40.374  28.121  29.487  1.00  0.00     0.060 A 
ATOM     36  C   UNL A   1      40.372  28.027  30.887  1.00  0.00     0.016 A 
ATOM     37  C   UNL A   1      41.077  29.170  28.997  1.00  0.00     0.016 A 
ATOM     38  C   UNL A   1      40.987  29.060  31.746  1.00  0.00     0.010 A 
ATOM     39  C   UNL A   1      41.365  30.208  29.896  1.00  0.00     0.010 A 
ATOM     40  C   UNL A   1      41.495  30.279  31.269  1.00  0.00    -0.014 A 
BRANCH  40  41
ATOM     41  C   UNL A   1      41.776  31.666  32.028  1.00  0.00     0.031 A 
ATOM     42  C   UNL A   1      42.827  32.162  33.173  1.00  0.00     0.074 A 
ATOM     43  C   UNL A   1      40.906  32.664  31.749  1.00  0.00     0.049 A 
ATOM     44  N   UNL A   1      42.465  32.705  34.326  1.00  0.00    -0.248 NA
ATOM     45  C   UNL A   1      44.319  32.183  33.149  1.00  0.00     0.031 C 
ATOM     46  C   UNL A   1      40.943  34.049  32.213  1.00  0.00     0.029 A 
ATOM     47  N   UNL A   1      39.666  32.548  31.130  1.00  0.00    -0.354 N 
ATOM     48  C   UNL A   1      43.622  33.090  35.033  1.00  0.00     0.074 A 
ATOM     49  C   UNL A   1      44.729  32.579  34.340  1.00  0.00     0.031 C 
ATOM     50  C   UNL A   1      39.701  34.553  32.140  1.00  0.00     0.029 A 
ATOM     51  C   UNL A   1      38.815  33.483  31.717  1.00  0.00     0.049 A 
ATOM     52  H   UNL A   1      39.432  31.920  30.409  1.00  0.00     0.167 HD
ATOM     53  C   UNL A   1      43.738  34.011  36.026  1.00  0.00     0.034 A 
ATOM     54  C   UNL A   1      37.656  33.093  32.314  1.00  0.00     0.034 A 
ATOM     55  C   UNL A   1      42.549  34.794  36.081  1.00  0.00     0.049 A 
ATOM     56  C   UNL A   1      37.557  33.519  33.760  1.00  0.00     0.074 A 
ATOM     57  C   UNL A   1      42.198  35.988  35.482  1.00  0.00     0.029 A 
ATOM     58  N   UNL A   1      41.392  34.180  36.492  1.00  0.00    -0.354 N 
ATOM     59  N   UNL A   1      38.544  34.004  34.463  1.00  0.00    -0.248 NA
ATOM     60  C   UNL A   1      36.332  33.406  34.538  1.00  0.00     0.031 C 
ATOM     61  C   UNL A   1      40.788  36.093  35.551  1.00  0.00     0.029 A 
ATOM     62  C   UNL A   1      40.315  34.993  36.241  1.00  0.00     0.049 A 
ATOM     63  H   UNL A   1      41.342  33.287  36.907  1.00  0.00     0.167 HD
ATOM     64  C   UNL A   1      38.141  34.191  35.767  1.00  0.00     0.074 A 
ATOM     65  C   UNL A   1      36.736  33.835  35.745  1.00  0.00     0.031 C 
ATOM     66  C   UNL A   1      39.022  34.582  36.741  1.00  0.00     0.034 A 
BRANCH  53  67
ATOM     67  C   UNL A   1      45.091  34.393  36.607  1.00  0.00     0.023 A 
ATOM     68  C   UNL A   1      45.633  33.699  37.703  1.00  0.00     0.031 A 
ATOM     69  C   UNL A   1      45.848  35.495  36.141  1.00  0.00     0.131 A 
ATOM     70  C   UNL A   1      46.791  34.169  38.359  1.00  0.00     0.055 A 
ATOM     71  C   UNL A   1      46.968  35.994  36.824  1.00  0.00     0.041 A 
ATOM     72  F   UNL A   1      45.480  36.164  35.035  1.00  0.00    -0.206 F 
ATOM     73  C   UNL A   1      47.434  35.339  37.955  1.00  0.00     0.022 A 
BRANCH  70  74
ATOM     74  S   UNL A   1      47.452  33.228  39.763  1.00  0.00     0.124 S 
ATOM     75  O   UNL A   1      47.769  31.940  39.153  1.00  0.00    -0.237 OA
ATOM     76  O   UNL A   1      48.589  34.044  40.174  1.00  0.00    -0.237 OA
ATOM     77  O   UNL A   1      46.341  33.201  40.714  1.00  0.00    -0.744 OA
ENDBRANCH  70  74
ENDBRANCH  53  67
BRANCH  54  78
ATOM     78  C   UNL A   1      37.026  31.879  31.699  1.00  0.00     0.023 A 
ATOM     79  C   UNL A   1      36.204  32.079  30.563  1.00  0.00     0.031 A 
ATOM     80  C   UNL A   1      37.450  30.570  31.964  1.00  0.00     0.131 A 
ATOM     81  C   UNL A   1      35.957  31.034  29.661  1.00  0.00     0.055 A 
ATOM     82  C   UNL A   1      37.140  29.508  31.096  1.00  0.00     0.041 A 
ATOM     83  F   UNL A   1      38.280  30.312  32.984  1.00  0.00    -0.206 F 
ATOM     84  C   UNL A   1      36.418  29.744  29.923  1.00  0.00     0.022 A 
BRANCH  81  85
ATOM     85  S   UNL A   1      35.288  31.418  28.011  1.00  0.00     0.124 S 
ATOM     86  O   UNL A   1      35.700  30.254  27.236  1.00  0.00    -0.237 OA
ATOM     87  O   UNL A   1      33.852  31.551  28.249  1.00  0.00    -0.237 OA
ATOM     88  O   UNL A   1      35.956  32.674  27.678  1.00  0.00    -0.744 OA
ENDBRANCH  81  85
ENDBRANCH  54  78
BRANCH  66  89
ATOM     89  C   UNL A   1      38.829  34.619  38.253  1.00  0.00     0.023 A 
ATOM     90  C   UNL A   1      38.457  33.509  39.009  1.00  0.00     0.031 A 
ATOM     91  C   UNL A   1      39.052  35.807  39.011  1.00  0.00     0.131 A 
ATOM     92  C   UNL A   1      38.307  33.586  40.407  1.00  0.00     0.055 A 
ATOM     93  C   UNL A   1      38.973  35.867  40.405  1.00  0.00     0.041 A 
ATOM     94  F   UNL A   1      39.354  36.984  38.445  1.00  0.00    -0.206 F 
ATOM     95  C   UNL A   1      38.590  34.748  41.117  1.00  0.00     0.022 A 
BRANCH  92  96
ATOM     96  S   UNL A   1      37.642  32.138  41.259  1.00  0.00     0.124 S 
ATOM     97  O   UNL A   1      37.753  31.105  40.231  1.00  0.00    -0.237 OA
ATOM     98  O   UNL A   1      38.550  32.002  42.392  1.00  0.00    -0.237 OA
ATOM     99  O   UNL A   1      36.276  32.532  41.596  1.00  0.00    -0.744 OA
ENDBRANCH  92  96
ENDBRANCH  66  89
ENDBRANCH  40  41
ENDBRANCH  33  35
ENDBRANCH  32  33
ENDBRANCH  31  32
ENDBRANCH  30  31
ENDBRANCH  29  30
ENDBRANCH   1  29
TORSDOF 22
ENDMDL
