MODEL 1
REMARK VINA RESULT:      -9.7      0.000      0.000
REMARK SMILES CC[C@@H]1C=CC[C@@H]2C(=O)N(CCCC(=O)OCCOCCOCCOC(=O)c3ccc(-c4c5nc(c(-c6cc(S(=O)(=O)[O-])ccc6F)c6ccc([nH]6)c(-c6cc(S(=O)(=O)[O-])ccc6F)c6nc(c(-c7cc(S(=O)(=O)[O-])ccc7F)c7ccc4[nH]7)C=C6)C=C5)cc3)C(=O)[C@@H]21
REMARK SMILES IDX 20 1 19 2 18 3 17 4 16 5 14 6 15 7 13 8 12 9 11 10 10 11
REMARK SMILES IDX 3 12 4 13 93 14 5 15 7 16 91 17 6 18 8 19 92 20 9 21 2 22
REMARK SMILES IDX 1 23 21 24 22 25 23 26 24 27 25 28 26 29 27 30 28 31 29 32
REMARK SMILES IDX 90 33 30 34 89 35 31 36 32 37 33 38 83 39 34 40 88 41 82 42
REMARK SMILES IDX 84 43 35 44 87 45 81 46 80 47 36 49 68 50 48 51 67 52 49 53
REMARK SMILES IDX 52 54 66 55 85 56 50 57 51 58 65 60 86 61 53 62 37 63 38 64
REMARK SMILES IDX 46 65 39 66 45 67 47 68 44 69 40 70 41 71 42 72 43 73 69 74
REMARK SMILES IDX 70 75 78 76 71 77 77 78 79 79 76 80 72 81 73 82 74 83 75 84
REMARK SMILES IDX 54 85 55 86 63 87 56 88 62 89 64 90 61 91 57 92 58 93 59 94
REMARK SMILES IDX 60 95
REMARK H PARENT 84 48 52 59
REMARK Flexibility Score: inf
ROOT
ATOM      1  C   UNL A   1      40.094  20.728  26.052  1.00  0.00     0.188 C 
ENDROOT
BRANCH   1   2
ATOM      2  O   UNL A   1      38.920  21.437  25.676  1.00  0.00    -0.376 OA
BRANCH   2   3
ATOM      3  C   UNL A   1      38.770  22.791  26.101  1.00  0.00     0.202 C 
BRANCH   3   4
ATOM      4  C   UNL A   1      37.365  23.414  26.130  1.00  0.00     0.261 C 
BRANCH   4   5
ATOM      5  O   UNL A   1      36.382  22.666  25.392  1.00  0.00    -0.463 OA
BRANCH   5   6
ATOM      6  C   UNL A   1      35.192  23.266  25.154  1.00  0.00     0.305 C 
ATOM      7  O   UNL A   1      34.331  23.462  26.006  1.00  0.00    -0.252 OA
BRANCH   6   8
ATOM      8  C   UNL A   1      35.039  23.798  23.735  1.00  0.00     0.124 C 
BRANCH   8   9
ATOM      9  C   UNL A   1      33.934  24.785  23.313  1.00  0.00     0.034 C 
BRANCH   9  10
ATOM     10  C   UNL A   1      34.085  26.272  23.666  1.00  0.00     0.129 C 
BRANCH  10  11
ATOM     11  N   UNL A   1      32.879  26.740  24.306  1.00  0.00    -0.282 N 
ATOM     12  C   UNL A   1      30.394  25.191  25.643  1.00  0.00     0.024 C 
ATOM     13  C   UNL A   1      30.117  24.721  24.237  1.00  0.00    -0.027 C 
ATOM     14  C   UNL A   1      31.056  26.592  25.713  1.00  0.00     0.099 C 
ATOM     15  C   UNL A   1      29.737  25.584  23.286  1.00  0.00    -0.030 C 
ATOM     16  C   UNL A   1      30.711  27.541  24.540  1.00  0.00     0.096 C 
ATOM     17  C   UNL A   1      32.551  26.501  25.598  1.00  0.00     0.233 C 
ATOM     18  C   UNL A   1      29.633  27.053  23.566  1.00  0.00     0.041 C 
ATOM     19  C   UNL A   1      32.002  27.623  23.770  1.00  0.00     0.233 C 
ATOM     20  O   UNL A   1      33.312  26.299  26.530  1.00  0.00    -0.274 OA
ATOM     21  O   UNL A   1      32.202  28.387  22.839  1.00  0.00    -0.274 OA
BRANCH  12  22
ATOM     22  C   UNL A   1      31.027  24.090  26.533  1.00  0.00     0.005 C 
ATOM     23  C   UNL A   1      30.534  22.652  26.370  1.00  0.00     0.004 C 
ENDBRANCH  12  22
ENDBRANCH  10  11
ENDBRANCH   9  10
ENDBRANCH   8   9
ENDBRANCH   6   8
ENDBRANCH   5   6
ENDBRANCH   4   5
ENDBRANCH   3   4
ENDBRANCH   2   3
ENDBRANCH   1   2
BRANCH   1  24
ATOM     24  C   UNL A   1      40.823  21.146  27.336  1.00  0.00     0.188 C 
BRANCH  24  25
ATOM     25  O   UNL A   1      42.200  20.853  27.371  1.00  0.00    -0.376 OA
BRANCH  25  26
ATOM     26  C   UNL A   1      42.848  20.477  26.168  1.00  0.00     0.202 C 
BRANCH  26  27
ATOM     27  C   UNL A   1      43.695  21.507  25.399  1.00  0.00     0.261 C 
BRANCH  27  28
ATOM     28  O   UNL A   1      43.037  22.711  24.972  1.00  0.00    -0.460 OA
BRANCH  28  29
ATOM     29  C   UNL A   1      43.765  23.854  24.988  1.00  0.00     0.338 C 
ATOM     30  O   UNL A   1      44.685  24.134  24.232  1.00  0.00    -0.246 OA
BRANCH  29  31
ATOM     31  C   UNL A   1      43.064  24.820  25.872  1.00  0.00     0.060 A 
ATOM     32  C   UNL A   1      43.521  26.146  25.921  1.00  0.00     0.016 A 
ATOM     33  C   UNL A   1      41.939  24.441  26.607  1.00  0.00     0.016 A 
ATOM     34  C   UNL A   1      42.883  27.083  26.736  1.00  0.00     0.010 A 
ATOM     35  C   UNL A   1      41.314  25.375  27.442  1.00  0.00     0.010 A 
ATOM     36  C   UNL A   1      41.808  26.690  27.543  1.00  0.00    -0.014 A 
BRANCH  36  37
ATOM     37  C   UNL A   1      41.379  27.561  28.671  1.00  0.00     0.031 A 
ATOM     38  C   UNL A   1      42.182  27.497  29.945  1.00  0.00     0.074 A 
ATOM     39  C   UNL A   1      40.343  28.413  28.571  1.00  0.00     0.049 A 
ATOM     40  N   UNL A   1      41.989  28.104  31.087  1.00  0.00    -0.248 NA
ATOM     41  C   UNL A   1      43.365  26.621  29.921  1.00  0.00     0.031 C 
ATOM     42  C   UNL A   1      39.524  28.618  27.379  1.00  0.00     0.029 A 
ATOM     43  N   UNL A   1      39.800  29.266  29.502  1.00  0.00    -0.354 N 
ATOM     44  C   UNL A   1      43.019  27.677  31.920  1.00  0.00     0.074 A 
ATOM     45  C   UNL A   1      43.805  26.726  31.164  1.00  0.00     0.031 C 
ATOM     46  C   UNL A   1      38.578  29.535  27.653  1.00  0.00     0.029 A 
ATOM     47  C   UNL A   1      38.694  29.951  29.051  1.00  0.00     0.049 A 
ATOM     48  H   UNL A   1      40.167  29.377  30.409  1.00  0.00     0.167 HD
ATOM     49  C   UNL A   1      43.295  28.051  33.194  1.00  0.00     0.034 A 
ATOM     50  C   UNL A   1      37.862  30.794  29.699  1.00  0.00     0.034 A 
ATOM     51  C   UNL A   1      42.497  28.988  33.943  1.00  0.00     0.049 A 
ATOM     52  C   UNL A   1      38.126  31.115  31.155  1.00  0.00     0.074 A 
ATOM     53  C   UNL A   1      42.683  29.433  35.240  1.00  0.00     0.029 A 
ATOM     54  N   UNL A   1      41.353  29.619  33.469  1.00  0.00    -0.354 N 
ATOM     55  N   UNL A   1      39.097  30.699  31.936  1.00  0.00    -0.248 NA
ATOM     56  C   UNL A   1      37.182  32.030  31.814  1.00  0.00     0.031 C 
ATOM     57  C   UNL A   1      41.611  30.266  35.577  1.00  0.00     0.029 A 
ATOM     58  C   UNL A   1      40.808  30.422  34.459  1.00  0.00     0.049 A 
ATOM     59  H   UNL A   1      40.984  29.511  32.563  1.00  0.00     0.167 HD
ATOM     60  C   UNL A   1      38.905  31.341  33.160  1.00  0.00     0.074 A 
ATOM     61  C   UNL A   1      37.734  32.176  33.009  1.00  0.00     0.031 C 
ATOM     62  C   UNL A   1      39.637  31.254  34.302  1.00  0.00     0.034 A 
BRANCH  49  63
ATOM     63  C   UNL A   1      44.478  27.397  33.865  1.00  0.00     0.023 A 
ATOM     64  C   UNL A   1      45.768  27.954  33.803  1.00  0.00     0.031 A 
ATOM     65  C   UNL A   1      44.323  26.176  34.546  1.00  0.00     0.131 A 
ATOM     66  C   UNL A   1      46.859  27.257  34.344  1.00  0.00     0.055 A 
ATOM     67  C   UNL A   1      45.398  25.532  35.159  1.00  0.00     0.041 A 
ATOM     68  F   UNL A   1      43.122  25.580  34.613  1.00  0.00    -0.206 F 
ATOM     69  C   UNL A   1      46.679  26.064  35.047  1.00  0.00     0.022 A 
BRANCH  66  70
ATOM     70  S   UNL A   1      48.534  27.851  33.978  1.00  0.00     0.124 S 
ATOM     71  O   UNL A   1      49.353  26.752  34.483  1.00  0.00    -0.237 OA
ATOM     72  O   UNL A   1      48.503  28.010  32.529  1.00  0.00    -0.237 OA
ATOM     73  O   UNL A   1      48.631  29.092  34.742  1.00  0.00    -0.744 OA
ENDBRANCH  66  70
ENDBRANCH  49  63
BRANCH  50  74
ATOM     74  C   UNL A   1      36.672  31.374  29.008  1.00  0.00     0.023 A 
ATOM     75  C   UNL A   1      35.668  30.550  28.470  1.00  0.00     0.031 A 
ATOM     76  C   UNL A   1      36.561  32.761  28.800  1.00  0.00     0.131 A 
ATOM     77  C   UNL A   1      34.632  31.113  27.705  1.00  0.00     0.055 A 
ATOM     78  C   UNL A   1      35.494  33.321  28.094  1.00  0.00     0.041 A 
ATOM     79  F   UNL A   1      37.495  33.596  29.280  1.00  0.00    -0.206 F 
ATOM     80  C   UNL A   1      34.531  32.493  27.529  1.00  0.00     0.022 A 
BRANCH  77  81
ATOM     81  S   UNL A   1      33.480  30.001  26.851  1.00  0.00     0.124 S 
ATOM     82  O   UNL A   1      32.598  30.948  26.179  1.00  0.00    -0.237 OA
ATOM     83  O   UNL A   1      34.377  29.238  25.990  1.00  0.00    -0.237 OA
ATOM     84  O   UNL A   1      32.870  29.242  27.940  1.00  0.00    -0.744 OA
ENDBRANCH  77  81
ENDBRANCH  50  74
BRANCH  62  85
ATOM     85  C   UNL A   1      39.232  32.142  35.457  1.00  0.00     0.023 A 
ATOM     86  C   UNL A   1      39.701  33.461  35.591  1.00  0.00     0.031 A 
ATOM     87  C   UNL A   1      38.368  31.649  36.453  1.00  0.00     0.131 A 
ATOM     88  C   UNL A   1      39.362  34.213  36.727  1.00  0.00     0.055 A 
ATOM     89  C   UNL A   1      37.974  32.428  37.542  1.00  0.00     0.041 A 
ATOM     90  F   UNL A   1      37.889  30.397  36.384  1.00  0.00    -0.206 F 
ATOM     91  C   UNL A   1      38.485  33.712  37.693  1.00  0.00     0.022 A 
BRANCH  88  92
ATOM     92  S   UNL A   1      40.176  35.814  36.988  1.00  0.00     0.124 S 
ATOM     93  O   UNL A   1      41.587  35.446  36.946  1.00  0.00    -0.237 OA
ATOM     94  O   UNL A   1      39.688  36.600  35.861  1.00  0.00    -0.237 OA
ATOM     95  O   UNL A   1      39.686  36.238  38.298  1.00  0.00    -0.744 OA
ENDBRANCH  88  92
ENDBRANCH  62  85
ENDBRANCH  36  37
ENDBRANCH  29  31
ENDBRANCH  28  29
ENDBRANCH  27  28
ENDBRANCH  26  27
ENDBRANCH  25  26
ENDBRANCH  24  25
ENDBRANCH   1  24
TORSDOF 24
ENDMDL
MODEL 2
REMARK VINA RESULT:      -9.3      3.399      9.314
REMARK SMILES CC[C@@H]1C=CC[C@@H]2C(=O)N(CCCC(=O)OCCOCCOCCOC(=O)c3ccc(-c4c5nc(c(-c6cc(S(=O)(=O)[O-])ccc6F)c6ccc([nH]6)c(-c6cc(S(=O)(=O)[O-])ccc6F)c6nc(c(-c7cc(S(=O)(=O)[O-])ccc7F)c7ccc4[nH]7)C=C6)C=C5)cc3)C(=O)[C@@H]21
REMARK SMILES IDX 20 1 19 2 18 3 17 4 16 5 14 6 15 7 13 8 12 9 11 10 10 11
REMARK SMILES IDX 3 12 4 13 93 14 5 15 7 16 91 17 6 18 8 19 92 20 9 21 2 22
REMARK SMILES IDX 1 23 21 24 22 25 23 26 24 27 25 28 26 29 27 30 28 31 29 32
REMARK SMILES IDX 90 33 30 34 89 35 31 36 32 37 33 38 83 39 34 40 88 41 82 42
REMARK SMILES IDX 84 43 35 44 87 45 81 46 80 47 36 49 68 50 48 51 67 52 49 53
REMARK SMILES IDX 52 54 66 55 85 56 50 57 51 58 65 60 86 61 53 62 37 63 38 64
REMARK SMILES IDX 46 65 39 66 45 67 47 68 44 69 40 70 41 71 42 72 43 73 69 74
REMARK SMILES IDX 70 75 78 76 71 77 77 78 79 79 76 80 72 81 73 82 74 83 75 84
REMARK SMILES IDX 54 85 55 86 63 87 56 88 62 89 64 90 61 91 57 92 58 93 59 94
REMARK SMILES IDX 60 95
REMARK H PARENT 84 48 52 59
REMARK Flexibility Score: inf
ROOT
ATOM      1  C   UNL A   1      34.389  31.332  28.458  1.00  0.00     0.188 C 
ENDROOT
BRANCH   1   2
ATOM      2  O   UNL A   1      33.920  30.893  27.189  1.00  0.00    -0.376 OA
BRANCH   2   3
ATOM      3  C   UNL A   1      33.669  29.502  26.994  1.00  0.00     0.202 C 
BRANCH   3   4
ATOM      4  C   UNL A   1      33.233  29.010  25.604  1.00  0.00     0.261 C 
BRANCH   4   5
ATOM      5  O   UNL A   1      31.962  28.335  25.599  1.00  0.00    -0.463 OA
BRANCH   5   6
ATOM      6  C   UNL A   1      31.823  27.261  26.410  1.00  0.00     0.305 C 
ATOM      7  O   UNL A   1      31.179  27.258  27.454  1.00  0.00    -0.252 OA
BRANCH   6   8
ATOM      8  C   UNL A   1      32.450  25.985  25.863  1.00  0.00     0.124 C 
BRANCH   8   9
ATOM      9  C   UNL A   1      31.647  24.706  25.561  1.00  0.00     0.034 C 
BRANCH   9  10
ATOM     10  C   UNL A   1      31.661  24.133  24.136  1.00  0.00     0.129 C 
BRANCH  10  11
ATOM     11  N   UNL A   1      32.812  23.278  23.972  1.00  0.00    -0.282 N 
ATOM     12  C   UNL A   1      34.826  21.926  26.088  1.00  0.00     0.024 C 
ATOM     13  C   UNL A   1      35.241  23.346  26.380  1.00  0.00    -0.027 C 
ATOM     14  C   UNL A   1      34.365  21.701  24.623  1.00  0.00     0.099 C 
ATOM     15  C   UNL A   1      35.877  24.081  25.459  1.00  0.00    -0.030 C 
ATOM     16  C   UNL A   1      35.012  22.642  23.579  1.00  0.00     0.096 C 
ATOM     17  C   UNL A   1      32.907  22.015  24.451  1.00  0.00     0.233 C 
ATOM     18  C   UNL A   1      36.143  23.544  24.085  1.00  0.00     0.041 C 
ATOM     19  C   UNL A   1      33.874  23.542  23.173  1.00  0.00     0.233 C 
ATOM     20  O   UNL A   1      31.994  21.233  24.664  1.00  0.00    -0.274 OA
ATOM     21  O   UNL A   1      33.925  24.346  22.256  1.00  0.00    -0.274 OA
BRANCH  12  22
ATOM     22  C   UNL A   1      33.919  21.322  27.191  1.00  0.00     0.005 C 
ATOM     23  C   UNL A   1      33.086  22.275  28.048  1.00  0.00     0.004 C 
ENDBRANCH  12  22
ENDBRANCH  10  11
ENDBRANCH   9  10
ENDBRANCH   8   9
ENDBRANCH   6   8
ENDBRANCH   5   6
ENDBRANCH   4   5
ENDBRANCH   3   4
ENDBRANCH   2   3
ENDBRANCH   1   2
BRANCH   1  24
ATOM     24  C   UNL A   1      35.482  32.408  28.502  1.00  0.00     0.188 C 
BRANCH  24  25
ATOM     25  O   UNL A   1      35.293  33.495  27.626  1.00  0.00    -0.376 OA
BRANCH  25  26
ATOM     26  C   UNL A   1      34.120  34.280  27.754  1.00  0.00     0.202 C 
BRANCH  26  27
ATOM     27  C   UNL A   1      33.956  35.222  28.961  1.00  0.00     0.261 C 
BRANCH  27  28
ATOM     28  O   UNL A   1      33.082  34.791  30.016  1.00  0.00    -0.460 OA
BRANCH  28  29
ATOM     29  C   UNL A   1      33.262  35.351  31.237  1.00  0.00     0.338 C 
ATOM     30  O   UNL A   1      32.505  36.137  31.788  1.00  0.00    -0.246 OA
BRANCH  29  31
ATOM     31  C   UNL A   1      34.369  34.621  31.906  1.00  0.00     0.060 A 
ATOM     32  C   UNL A   1      35.570  35.301  32.159  1.00  0.00     0.016 A 
ATOM     33  C   UNL A   1      34.213  33.299  32.325  1.00  0.00     0.016 A 
ATOM     34  C   UNL A   1      36.631  34.649  32.792  1.00  0.00     0.010 A 
ATOM     35  C   UNL A   1      35.284  32.638  32.938  1.00  0.00     0.010 A 
ATOM     36  C   UNL A   1      36.513  33.297  33.137  1.00  0.00    -0.014 A 
BRANCH  36  37
ATOM     37  C   UNL A   1      37.737  32.511  33.452  1.00  0.00     0.031 A 
ATOM     38  C   UNL A   1      38.446  32.813  34.747  1.00  0.00     0.074 A 
ATOM     39  C   UNL A   1      38.193  31.534  32.647  1.00  0.00     0.049 A 
ATOM     40  N   UNL A   1      39.556  32.318  35.228  1.00  0.00    -0.248 NA
ATOM     41  C   UNL A   1      37.809  33.818  35.614  1.00  0.00     0.031 C 
ATOM     42  C   UNL A   1      37.568  31.100  31.400  1.00  0.00     0.029 A 
ATOM     43  N   UNL A   1      39.302  30.729  32.764  1.00  0.00    -0.354 N 
ATOM     44  C   UNL A   1      39.756  32.956  36.448  1.00  0.00     0.074 A 
ATOM     45  C   UNL A   1      38.677  33.906  36.609  1.00  0.00     0.031 C 
ATOM     46  C   UNL A   1      38.307  30.111  30.864  1.00  0.00     0.029 A 
ATOM     47  C   UNL A   1      39.480  29.870  31.704  1.00  0.00     0.049 A 
ATOM     48  H   UNL A   1      39.913  30.765  33.536  1.00  0.00     0.167 HD
ATOM     49  C   UNL A   1      40.741  32.762  37.360  1.00  0.00     0.034 A 
ATOM     50  C   UNL A   1      40.485  29.010  31.435  1.00  0.00     0.034 A 
ATOM     51  C   UNL A   1      41.821  31.824  37.183  1.00  0.00     0.049 A 
ATOM     52  C   UNL A   1      41.632  28.886  32.415  1.00  0.00     0.074 A 
ATOM     53  C   UNL A   1      42.873  31.552  38.041  1.00  0.00     0.029 A 
ATOM     54  N   UNL A   1      41.996  31.010  36.071  1.00  0.00    -0.354 N 
ATOM     55  N   UNL A   1      41.816  29.501  33.562  1.00  0.00    -0.248 NA
ATOM     56  C   UNL A   1      42.704  27.943  32.066  1.00  0.00     0.031 C 
ATOM     57  C   UNL A   1      43.725  30.638  37.413  1.00  0.00     0.029 A 
ATOM     58  C   UNL A   1      43.155  30.262  36.207  1.00  0.00     0.049 A 
ATOM     59  H   UNL A   1      41.387  30.972  35.299  1.00  0.00     0.167 HD
ATOM     60  C   UNL A   1      42.999  28.981  34.089  1.00  0.00     0.074 A 
ATOM     61  C   UNL A   1      43.477  27.998  33.141  1.00  0.00     0.031 C 
ATOM     62  C   UNL A   1      43.627  29.281  35.256  1.00  0.00     0.034 A 
BRANCH  49  63
ATOM     63  C   UNL A   1      40.717  33.625  38.598  1.00  0.00     0.023 A 
ATOM     64  C   UNL A   1      39.872  33.340  39.685  1.00  0.00     0.031 A 
ATOM     65  C   UNL A   1      41.523  34.774  38.678  1.00  0.00     0.131 A 
ATOM     66  C   UNL A   1      39.797  34.230  40.768  1.00  0.00     0.055 A 
ATOM     67  C   UNL A   1      41.511  35.608  39.797  1.00  0.00     0.041 A 
ATOM     68  F   UNL A   1      42.329  35.116  37.660  1.00  0.00    -0.206 F 
ATOM     69  C   UNL A   1      40.633  35.346  40.845  1.00  0.00     0.022 A 
BRANCH  66  70
ATOM     70  S   UNL A   1      38.483  33.993  41.995  1.00  0.00     0.124 S 
ATOM     71  O   UNL A   1      37.627  35.149  41.737  1.00  0.00    -0.237 OA
ATOM     72  O   UNL A   1      37.933  32.695  41.623  1.00  0.00    -0.237 OA
ATOM     73  O   UNL A   1      39.195  34.028  43.270  1.00  0.00    -0.744 OA
ENDBRANCH  66  70
ENDBRANCH  49  63
BRANCH  50  74
ATOM     74  C   UNL A   1      40.493  28.216  30.169  1.00  0.00     0.023 A 
ATOM     75  C   UNL A   1      41.418  28.485  29.147  1.00  0.00     0.031 A 
ATOM     76  C   UNL A   1      39.518  27.231  29.928  1.00  0.00     0.131 A 
ATOM     77  C   UNL A   1      41.316  27.819  27.913  1.00  0.00     0.055 A 
ATOM     78  C   UNL A   1      39.460  26.526  28.723  1.00  0.00     0.041 A 
ATOM     79  F   UNL A   1      38.600  26.940  30.863  1.00  0.00    -0.206 F 
ATOM     80  C   UNL A   1      40.353  26.831  27.702  1.00  0.00     0.022 A 
BRANCH  77  81
ATOM     81  S   UNL A   1      42.391  28.345  26.550  1.00  0.00     0.124 S 
ATOM     82  O   UNL A   1      43.602  27.577  26.814  1.00  0.00    -0.237 OA
ATOM     83  O   UNL A   1      41.618  27.942  25.381  1.00  0.00    -0.237 OA
ATOM     84  O   UNL A   1      42.510  29.788  26.748  1.00  0.00    -0.744 OA
ENDBRANCH  77  81
ENDBRANCH  50  74
BRANCH  62  85
ATOM     85  C   UNL A   1      44.864  28.485  35.606  1.00  0.00     0.023 A 
ATOM     86  C   UNL A   1      44.801  27.276  36.323  1.00  0.00     0.031 A 
ATOM     87  C   UNL A   1      46.135  28.956  35.225  1.00  0.00     0.131 A 
ATOM     88  C   UNL A   1      45.985  26.620  36.695  1.00  0.00     0.055 A 
ATOM     89  C   UNL A   1      47.304  28.260  35.534  1.00  0.00     0.041 A 
ATOM     90  F   UNL A   1      46.261  30.105  34.542  1.00  0.00    -0.206 F 
ATOM     91  C   UNL A   1      47.235  27.094  36.288  1.00  0.00     0.022 A 
BRANCH  88  92
ATOM     92  S   UNL A   1      45.879  25.202  37.823  1.00  0.00     0.124 S 
ATOM     93  O   UNL A   1      45.268  25.801  39.005  1.00  0.00    -0.237 OA
ATOM     94  O   UNL A   1      45.042  24.271  37.075  1.00  0.00    -0.237 OA
ATOM     95  O   UNL A   1      47.272  24.790  37.987  1.00  0.00    -0.744 OA
ENDBRANCH  88  92
ENDBRANCH  62  85
ENDBRANCH  36  37
ENDBRANCH  29  31
ENDBRANCH  28  29
ENDBRANCH  27  28
ENDBRANCH  26  27
ENDBRANCH  25  26
ENDBRANCH  24  25
ENDBRANCH   1  24
TORSDOF 24
ENDMDL
MODEL 3
REMARK VINA RESULT:      -9.2      5.209      6.835
REMARK SMILES CC[C@@H]1C=CC[C@@H]2C(=O)N(CCCC(=O)OCCOCCOCCOC(=O)c3ccc(-c4c5nc(c(-c6cc(S(=O)(=O)[O-])ccc6F)c6ccc([nH]6)c(-c6cc(S(=O)(=O)[O-])ccc6F)c6nc(c(-c7cc(S(=O)(=O)[O-])ccc7F)c7ccc4[nH]7)C=C6)C=C5)cc3)C(=O)[C@@H]21
REMARK SMILES IDX 20 1 19 2 18 3 17 4 16 5 14 6 15 7 13 8 12 9 11 10 10 11
REMARK SMILES IDX 3 12 4 13 93 14 5 15 7 16 91 17 6 18 8 19 92 20 9 21 2 22
REMARK SMILES IDX 1 23 21 24 22 25 23 26 24 27 25 28 26 29 27 30 28 31 29 32
REMARK SMILES IDX 90 33 30 34 89 35 31 36 32 37 33 38 83 39 34 40 88 41 82 42
REMARK SMILES IDX 84 43 35 44 87 45 81 46 80 47 36 49 68 50 48 51 67 52 49 53
REMARK SMILES IDX 52 54 66 55 85 56 50 57 51 58 65 60 86 61 53 62 37 63 38 64
REMARK SMILES IDX 46 65 39 66 45 67 47 68 44 69 40 70 41 71 42 72 43 73 69 74
REMARK SMILES IDX 70 75 78 76 71 77 77 78 79 79 76 80 72 81 73 82 74 83 75 84
REMARK SMILES IDX 54 85 55 86 63 87 56 88 62 89 64 90 61 91 57 92 58 93 59 94
REMARK SMILES IDX 60 95
REMARK H PARENT 84 48 52 59
REMARK Flexibility Score: inf
ROOT
ATOM      1  C   UNL A   1      40.908  21.904  26.170  1.00  0.00     0.188 C 
ENDROOT
BRANCH   1   2
ATOM      2  O   UNL A   1      39.721  21.772  25.397  1.00  0.00    -0.376 OA
BRANCH   2   3
ATOM      3  C   UNL A   1      38.476  21.610  26.073  1.00  0.00     0.202 C 
BRANCH   3   4
ATOM      4  C   UNL A   1      37.254  22.410  25.591  1.00  0.00     0.261 C 
BRANCH   4   5
ATOM      5  O   UNL A   1      36.484  21.740  24.577  1.00  0.00    -0.463 OA
BRANCH   5   6
ATOM      6  C   UNL A   1      35.210  22.156  24.386  1.00  0.00     0.305 C 
ATOM      7  O   UNL A   1      34.276  21.898  25.139  1.00  0.00    -0.252 OA
BRANCH   6   8
ATOM      8  C   UNL A   1      35.034  23.088  23.195  1.00  0.00     0.124 C 
BRANCH   8   9
ATOM      9  C   UNL A   1      33.698  23.768  22.838  1.00  0.00     0.034 C 
BRANCH   9  10
ATOM     10  C   UNL A   1      33.619  25.301  22.828  1.00  0.00     0.129 C 
BRANCH  10  11
ATOM     11  N   UNL A   1      32.914  25.755  24.002  1.00  0.00    -0.282 N 
ATOM     12  C   UNL A   1      30.996  28.284  24.537  1.00  0.00     0.024 C 
ATOM     13  C   UNL A   1      32.245  29.096  24.305  1.00  0.00    -0.027 C 
ATOM     14  C   UNL A   1      31.267  26.887  25.156  1.00  0.00     0.099 C 
ATOM     15  C   UNL A   1      33.273  29.038  25.161  1.00  0.00    -0.030 C 
ATOM     16  C   UNL A   1      32.531  26.796  26.044  1.00  0.00     0.096 C 
ATOM     17  C   UNL A   1      31.568  25.865  24.096  1.00  0.00     0.233 C 
ATOM     18  C   UNL A   1      33.247  28.117  26.345  1.00  0.00     0.041 C 
ATOM     19  C   UNL A   1      33.473  25.958  25.220  1.00  0.00     0.233 C 
ATOM     20  O   UNL A   1      30.727  25.227  23.484  1.00  0.00    -0.274 OA
ATOM     21  O   UNL A   1      34.543  25.528  25.620  1.00  0.00    -0.274 OA
BRANCH  12  22
ATOM     22  C   UNL A   1      30.019  28.321  23.334  1.00  0.00     0.005 C 
ATOM     23  C   UNL A   1      29.239  29.609  23.071  1.00  0.00     0.004 C 
ENDBRANCH  12  22
ENDBRANCH  10  11
ENDBRANCH   9  10
ENDBRANCH   8   9
ENDBRANCH   6   8
ENDBRANCH   5   6
ENDBRANCH   4   5
ENDBRANCH   3   4
ENDBRANCH   2   3
ENDBRANCH   1   2
BRANCH   1  24
ATOM     24  C   UNL A   1      41.015  21.122  27.486  1.00  0.00     0.188 C 
BRANCH  24  25
ATOM     25  O   UNL A   1      41.782  19.942  27.426  1.00  0.00    -0.376 OA
BRANCH  25  26
ATOM     26  C   UNL A   1      41.781  19.188  26.226  1.00  0.00     0.202 C 
BRANCH  26  27
ATOM     27  C   UNL A   1      43.116  18.771  25.582  1.00  0.00     0.261 C 
BRANCH  27  28
ATOM     28  O   UNL A   1      43.599  19.577  24.494  1.00  0.00    -0.460 OA
BRANCH  28  29
ATOM     29  C   UNL A   1      44.816  20.154  24.645  1.00  0.00     0.338 C 
ATOM     30  O   UNL A   1      45.871  19.742  24.185  1.00  0.00    -0.246 OA
BRANCH  29  31
ATOM     31  C   UNL A   1      44.600  21.516  25.199  1.00  0.00     0.060 A 
ATOM     32  C   UNL A   1      44.229  22.550  24.326  1.00  0.00     0.016 A 
ATOM     33  C   UNL A   1      44.711  21.763  26.568  1.00  0.00     0.016 A 
ATOM     34  C   UNL A   1      44.012  23.841  24.812  1.00  0.00     0.010 A 
ATOM     35  C   UNL A   1      44.516  23.062  27.052  1.00  0.00     0.010 A 
ATOM     36  C   UNL A   1      44.206  24.117  26.171  1.00  0.00    -0.014 A 
BRANCH  36  37
ATOM     37  C   UNL A   1      44.350  25.528  26.620  1.00  0.00     0.031 A 
ATOM     38  C   UNL A   1      45.716  26.156  26.520  1.00  0.00     0.074 A 
ATOM     39  C   UNL A   1      43.308  26.253  27.066  1.00  0.00     0.049 A 
ATOM     40  N   UNL A   1      46.122  27.341  26.894  1.00  0.00    -0.248 NA
ATOM     41  C   UNL A   1      46.769  25.323  25.915  1.00  0.00     0.031 C 
ATOM     42  C   UNL A   1      41.926  25.788  27.154  1.00  0.00     0.029 A 
ATOM     43  N   UNL A   1      43.257  27.545  27.534  1.00  0.00    -0.354 N 
ATOM     44  C   UNL A   1      47.476  27.394  26.579  1.00  0.00     0.074 A 
ATOM     45  C   UNL A   1      47.830  26.104  26.026  1.00  0.00     0.031 C 
ATOM     46  C   UNL A   1      41.164  26.779  27.653  1.00  0.00     0.029 A 
ATOM     47  C   UNL A   1      42.008  27.933  27.961  1.00  0.00     0.049 A 
ATOM     48  H   UNL A   1      44.043  28.137  27.564  1.00  0.00     0.167 HD
ATOM     49  C   UNL A   1      48.346  28.424  26.723  1.00  0.00     0.034 A 
ATOM     50  C   UNL A   1      41.602  29.077  28.552  1.00  0.00     0.034 A 
ATOM     51  C   UNL A   1      47.986  29.700  27.290  1.00  0.00     0.049 A 
ATOM     52  C   UNL A   1      42.612  30.176  28.803  1.00  0.00     0.074 A 
ATOM     53  C   UNL A   1      48.789  30.810  27.487  1.00  0.00     0.029 A 
ATOM     54  N   UNL A   1      46.723  30.037  27.759  1.00  0.00    -0.354 N 
ATOM     55  N   UNL A   1      43.892  30.212  28.509  1.00  0.00    -0.248 NA
ATOM     56  C   UNL A   1      42.117  31.395  29.460  1.00  0.00     0.031 C 
ATOM     57  C   UNL A   1      48.035  31.785  28.149  1.00  0.00     0.029 A 
ATOM     58  C   UNL A   1      46.735  31.323  28.275  1.00  0.00     0.049 A 
ATOM     59  H   UNL A   1      45.935  29.447  27.731  1.00  0.00     0.167 HD
ATOM     60  C   UNL A   1      44.339  31.474  28.902  1.00  0.00     0.074 A 
ATOM     61  C   UNL A   1      43.192  32.169  29.443  1.00  0.00     0.031 C 
ATOM     62  C   UNL A   1      45.584  32.012  28.814  1.00  0.00     0.034 A 
BRANCH  49  63
ATOM     63  C   UNL A   1      49.778  28.183  26.312  1.00  0.00     0.023 A 
ATOM     64  C   UNL A   1      50.217  28.396  24.993  1.00  0.00     0.031 A 
ATOM     65  C   UNL A   1      50.712  27.696  27.243  1.00  0.00     0.131 A 
ATOM     66  C   UNL A   1      51.527  28.053  24.626  1.00  0.00     0.055 A 
ATOM     67  C   UNL A   1      52.038  27.441  26.894  1.00  0.00     0.041 A 
ATOM     68  F   UNL A   1      50.345  27.444  28.510  1.00  0.00    -0.206 F 
ATOM     69  C   UNL A   1      52.449  27.604  25.574  1.00  0.00     0.022 A 
BRANCH  66  70
ATOM     70  S   UNL A   1      51.961  28.050  22.865  1.00  0.00     0.124 S 
ATOM     71  O   UNL A   1      53.339  27.566  22.902  1.00  0.00    -0.237 OA
ATOM     72  O   UNL A   1      50.978  27.136  22.298  1.00  0.00    -0.237 OA
ATOM     73  O   UNL A   1      51.812  29.450  22.474  1.00  0.00    -0.744 OA
ENDBRANCH  66  70
ENDBRANCH  49  63
BRANCH  50  74
ATOM     74  C   UNL A   1      40.184  29.248  28.992  1.00  0.00     0.023 A 
ATOM     75  C   UNL A   1      39.833  29.199  30.352  1.00  0.00     0.031 A 
ATOM     76  C   UNL A   1      39.146  29.378  28.051  1.00  0.00     0.131 A 
ATOM     77  C   UNL A   1      38.479  29.224  30.728  1.00  0.00     0.055 A 
ATOM     78  C   UNL A   1      37.806  29.467  28.435  1.00  0.00     0.041 A 
ATOM     79  F   UNL A   1      39.420  29.418  26.738  1.00  0.00    -0.206 F 
ATOM     80  C   UNL A   1      37.466  29.374  29.780  1.00  0.00     0.022 A 
BRANCH  77  81
ATOM     81  S   UNL A   1      38.057  28.944  32.470  1.00  0.00     0.124 S 
ATOM     82  O   UNL A   1      36.640  29.289  32.491  1.00  0.00    -0.237 OA
ATOM     83  O   UNL A   1      38.374  27.530  32.637  1.00  0.00    -0.237 OA
ATOM     84  O   UNL A   1      38.936  29.866  33.186  1.00  0.00    -0.744 OA
ENDBRANCH  77  81
ENDBRANCH  50  74
BRANCH  62  85
ATOM     85  C   UNL A   1      45.753  33.451  29.249  1.00  0.00     0.023 A 
ATOM     86  C   UNL A   1      45.604  34.528  28.356  1.00  0.00     0.031 A 
ATOM     87  C   UNL A   1      46.085  33.747  30.585  1.00  0.00     0.131 A 
ATOM     88  C   UNL A   1      45.854  35.839  28.792  1.00  0.00     0.055 A 
ATOM     89  C   UNL A   1      46.259  35.059  31.029  1.00  0.00     0.041 A 
ATOM     90  F   UNL A   1      46.244  32.763  31.484  1.00  0.00    -0.206 F 
ATOM     91  C   UNL A   1      46.161  36.112  30.127  1.00  0.00     0.022 A 
BRANCH  88  92
ATOM     92  S   UNL A   1      45.892  37.174  27.563  1.00  0.00     0.124 S 
ATOM     93  O   UNL A   1      44.519  37.666  27.609  1.00  0.00    -0.237 OA
ATOM     94  O   UNL A   1      46.908  38.069  28.106  1.00  0.00    -0.237 OA
ATOM     95  O   UNL A   1      46.264  36.491  26.326  1.00  0.00    -0.744 OA
ENDBRANCH  88  92
ENDBRANCH  62  85
ENDBRANCH  36  37
ENDBRANCH  29  31
ENDBRANCH  28  29
ENDBRANCH  27  28
ENDBRANCH  26  27
ENDBRANCH  25  26
ENDBRANCH  24  25
ENDBRANCH   1  24
TORSDOF 24
ENDMDL
