MODEL 1
REMARK VINA RESULT:      -9.4      0.000      0.000
REMARK SMILES CC[C@@](C)(NC(=O)Nc1cccc(C[NH2+]C)c1)C(=O)OCCOCCOCCOC(=O)c1ccc(-c2c3nc(c(-c4cc(S(=O)(=O)[O-])ccc4F)c4ccc([nH]4)c(-c4cc(S(=O)(=O)[O-])ccc4F)c4nc(c(-c5cc(S(=O)(=O)[O-])ccc5F)c5ccc2[nH]5)C=C4)C=C3)cc1
REMARK SMILES IDX 24 1 23 2 22 3 21 4 20 5 18 6 19 7 3 8 4 9 2 10 1 11 5 12
REMARK SMILES IDX 6 13 7 15 8 16 9 18 10 19 17 20 11 21 13 22 12 23 14 24
REMARK SMILES IDX 15 25 16 26 25 29 26 30 27 31 28 32 29 33 30 34 31 35 32 36
REMARK SMILES IDX 33 37 94 38 34 39 93 40 35 41 36 42 37 43 87 44 38 45 92 46
REMARK SMILES IDX 86 47 88 48 39 49 91 50 85 51 84 52 40 54 72 55 52 56 71 57
REMARK SMILES IDX 53 58 56 59 70 60 89 61 54 62 55 63 69 65 90 66 57 67 41 68
REMARK SMILES IDX 42 69 50 70 43 71 49 72 51 73 48 74 44 75 45 76 46 77 47 78
REMARK SMILES IDX 73 79 74 80 82 81 75 82 81 83 83 84 80 85 76 86 77 87 78 88
REMARK SMILES IDX 79 89 58 90 59 91 67 92 60 93 66 94 68 95 65 96 61 97 62 98
REMARK SMILES IDX 63 99 64 100
REMARK H PARENT 5 14 8 17 15 27 15 28 88 53 56 64
REMARK Flexibility Score: inf
ROOT
ATOM      1  C   UNL A   1      39.038  22.910  26.483  1.00  0.00     0.188 C 
ENDROOT
BRANCH   1   2
ATOM      2  O   UNL A   1      38.098  22.519  25.472  1.00  0.00    -0.376 OA
BRANCH   2   3
ATOM      3  C   UNL A   1      36.730  22.781  25.815  1.00  0.00     0.202 C 
BRANCH   3   4
ATOM      4  C   UNL A   1      35.968  23.543  24.688  1.00  0.00     0.261 C 
BRANCH   4   5
ATOM      5  O   UNL A   1      34.528  23.441  24.849  1.00  0.00    -0.462 OA
BRANCH   5   6
ATOM      6  C   UNL A   1      33.719  24.226  25.642  1.00  0.00     0.331 C 
ATOM      7  O   UNL A   1      33.619  24.071  26.857  1.00  0.00    -0.249 OA
BRANCH   6   8
ATOM      8  C   UNL A   1      32.972  25.421  24.776  1.00  0.00     0.136 C 
ATOM      9  C   UNL A   1      33.998  26.570  24.767  1.00  0.00     0.047 C 
BRANCH   8  10
ATOM     10  C   UNL A   1      32.243  25.535  23.361  1.00  0.00     0.037 C 
ATOM     11  C   UNL A   1      32.883  25.628  21.994  1.00  0.00     0.007 C 
ENDBRANCH   8  10
BRANCH   8  12
ATOM     12  N   UNL A   1      31.852  25.652  25.656  1.00  0.00    -0.322 N 
ATOM     13  C   UNL A   1      30.843  24.786  25.867  1.00  0.00     0.320 C 
ATOM     14  H   UNL A   1      31.823  26.509  26.139  1.00  0.00     0.166 HD
ATOM     15  O   UNL A   1      29.911  25.225  26.548  1.00  0.00    -0.248 OA
ATOM     16  N   UNL A   1      30.727  23.532  25.335  1.00  0.00    -0.308 N 
ATOM     17  H   UNL A   1      29.794  23.257  25.485  1.00  0.00     0.171 HD
BRANCH  16  18
ATOM     18  C   UNL A   1      31.361  22.438  24.657  1.00  0.00     0.043 A 
ATOM     19  C   UNL A   1      31.431  22.558  23.264  1.00  0.00     0.026 A 
ATOM     20  C   UNL A   1      31.898  21.249  25.150  1.00  0.00     0.035 A 
ATOM     21  C   UNL A   1      31.981  21.551  22.448  1.00  0.00     0.003 A 
ATOM     22  C   UNL A   1      32.465  20.212  24.371  1.00  0.00     0.008 A 
ATOM     23  C   UNL A   1      32.487  20.373  22.997  1.00  0.00     0.010 A 
BRANCH  22  24
ATOM     24  C   UNL A   1      33.103  19.026  25.078  1.00  0.00     0.297 C 
BRANCH  24  25
ATOM     25  N   UNL A   1      33.930  18.206  24.184  1.00  0.00    -0.345 N 
ATOM     26  C   UNL A   1      33.382  16.852  24.078  1.00  0.00     0.331 C 
ATOM     27  H   UNL A   1      34.878  18.156  24.556  1.00  0.00     0.346 HD
ATOM     28  H   UNL A   1      33.938  18.633  23.258  1.00  0.00     0.346 HD
ENDBRANCH  24  25
ENDBRANCH  22  24
ENDBRANCH  16  18
ENDBRANCH   8  12
ENDBRANCH   6   8
ENDBRANCH   5   6
ENDBRANCH   4   5
ENDBRANCH   3   4
ENDBRANCH   2   3
ENDBRANCH   1   2
BRANCH   1  29
ATOM     29  C   UNL A   1      40.022  21.787  26.832  1.00  0.00     0.188 C 
BRANCH  29  30
ATOM     30  O   UNL A   1      40.333  20.942  25.738  1.00  0.00    -0.376 OA
BRANCH  30  31
ATOM     31  C   UNL A   1      40.428  19.561  26.023  1.00  0.00     0.202 C 
BRANCH  31  32
ATOM     32  C   UNL A   1      41.864  19.037  26.197  1.00  0.00     0.261 C 
BRANCH  32  33
ATOM     33  O   UNL A   1      42.721  19.207  25.058  1.00  0.00    -0.460 OA
BRANCH  33  34
ATOM     34  C   UNL A   1      43.937  19.774  25.275  1.00  0.00     0.338 C 
ATOM     35  O   UNL A   1      45.021  19.234  25.120  1.00  0.00    -0.246 OA
BRANCH  34  36
ATOM     36  C   UNL A   1      43.717  21.204  25.613  1.00  0.00     0.060 A 
ATOM     37  C   UNL A   1      43.461  22.126  24.588  1.00  0.00     0.016 A 
ATOM     38  C   UNL A   1      43.763  21.645  26.942  1.00  0.00     0.016 A 
ATOM     39  C   UNL A   1      43.310  23.492  24.883  1.00  0.00     0.010 A 
ATOM     40  C   UNL A   1      43.616  23.006  27.234  1.00  0.00     0.010 A 
ATOM     41  C   UNL A   1      43.432  23.946  26.205  1.00  0.00    -0.014 A 
BRANCH  41  42
ATOM     42  C   UNL A   1      43.650  25.388  26.518  1.00  0.00     0.031 A 
ATOM     43  C   UNL A   1      45.048  25.928  26.341  1.00  0.00     0.074 A 
ATOM     44  C   UNL A   1      42.683  26.190  27.006  1.00  0.00     0.049 A 
ATOM     45  N   UNL A   1      45.555  27.078  26.705  1.00  0.00    -0.248 NA
ATOM     46  C   UNL A   1      46.007  25.032  25.672  1.00  0.00     0.031 C 
ATOM     47  C   UNL A   1      41.281  25.822  27.179  1.00  0.00     0.029 A 
ATOM     48  N   UNL A   1      42.747  27.485  27.469  1.00  0.00    -0.354 N 
ATOM     49  C   UNL A   1      46.893  27.038  26.322  1.00  0.00     0.074 A 
ATOM     50  C   UNL A   1      47.122  25.743  25.722  1.00  0.00     0.031 C 
ATOM     51  C   UNL A   1      40.622  26.858  27.734  1.00  0.00     0.029 A 
ATOM     52  C   UNL A   1      41.563  27.947  28.000  1.00  0.00     0.049 A 
ATOM     53  H   UNL A   1      43.565  28.031  27.424  1.00  0.00     0.167 HD
ATOM     54  C   UNL A   1      47.846  27.991  26.460  1.00  0.00     0.034 A 
ATOM     55  C   UNL A   1      41.284  29.096  28.658  1.00  0.00     0.034 A 
ATOM     56  C   UNL A   1      47.619  29.274  27.073  1.00  0.00     0.049 A 
ATOM     57  C   UNL A   1      42.392  30.106  28.890  1.00  0.00     0.074 A 
ATOM     58  C   UNL A   1      48.516  30.313  27.250  1.00  0.00     0.029 A 
ATOM     59  N   UNL A   1      46.416  29.689  27.627  1.00  0.00    -0.354 N 
ATOM     60  N   UNL A   1      43.651  30.059  28.515  1.00  0.00    -0.248 NA
ATOM     61  C   UNL A   1      42.041  31.322  29.640  1.00  0.00     0.031 C 
ATOM     62  C   UNL A   1      47.878  31.324  27.974  1.00  0.00     0.029 A 
ATOM     63  C   UNL A   1      46.559  30.952  28.179  1.00  0.00     0.049 A 
ATOM     64  H   UNL A   1      45.584  29.162  27.627  1.00  0.00     0.167 HD
ATOM     65  C   UNL A   1      44.225  31.253  28.954  1.00  0.00     0.074 A 
ATOM     66  C   UNL A   1      43.176  32.005  29.606  1.00  0.00     0.031 C 
ATOM     67  C   UNL A   1      45.504  31.691  28.830  1.00  0.00     0.034 A 
BRANCH  54  68
ATOM     68  C   UNL A   1      49.237  27.651  25.989  1.00  0.00     0.023 A 
ATOM     69  C   UNL A   1      49.677  27.959  24.691  1.00  0.00     0.031 A 
ATOM     70  C   UNL A   1      50.129  26.988  26.851  1.00  0.00     0.131 A 
ATOM     71  C   UNL A   1      50.954  27.556  24.273  1.00  0.00     0.055 A 
ATOM     72  C   UNL A   1      51.425  26.655  26.452  1.00  0.00     0.041 A 
ATOM     73  F   UNL A   1      49.753  26.646  28.094  1.00  0.00    -0.206 F 
ATOM     74  C   UNL A   1      51.840  26.929  25.153  1.00  0.00     0.022 A 
BRANCH  71  75
ATOM     75  S   UNL A   1      51.403  27.758  22.528  1.00  0.00     0.124 S 
ATOM     76  O   UNL A   1      50.510  26.799  21.881  1.00  0.00    -0.237 OA
ATOM     77  O   UNL A   1      51.110  29.167  22.287  1.00  0.00    -0.237 OA
ATOM     78  O   UNL A   1      52.820  27.402  22.494  1.00  0.00    -0.744 OA
ENDBRANCH  71  75
ENDBRANCH  54  68
BRANCH  55  79
ATOM     79  C   UNL A   1      39.922  29.353  29.224  1.00  0.00     0.023 A 
ATOM     80  C   UNL A   1      39.660  29.198  30.597  1.00  0.00     0.031 A 
ATOM     81  C   UNL A   1      38.832  29.642  28.382  1.00  0.00     0.131 A 
ATOM     82  C   UNL A   1      38.340  29.269  31.074  1.00  0.00     0.055 A 
ATOM     83  C   UNL A   1      37.531  29.774  28.870  1.00  0.00     0.041 A 
ATOM     84  F   UNL A   1      39.015  29.788  27.059  1.00  0.00    -0.206 F 
ATOM     85  C   UNL A   1      37.276  29.569  30.222  1.00  0.00     0.022 A 
BRANCH  82  86
ATOM     86  S   UNL A   1      38.015  28.840  32.809  1.00  0.00     0.124 S 
ATOM     87  O   UNL A   1      36.672  29.375  33.000  1.00  0.00    -0.237 OA
ATOM     88  O   UNL A   1      38.131  27.386  32.788  1.00  0.00    -0.237 OA
ATOM     89  O   UNL A   1      39.075  29.538  33.535  1.00  0.00    -0.744 OA
ENDBRANCH  82  86
ENDBRANCH  55  79
BRANCH  67  90
ATOM     90  C   UNL A   1      45.825  33.068  29.364  1.00  0.00     0.023 A 
ATOM     91  C   UNL A   1      45.565  34.233  28.622  1.00  0.00     0.031 A 
ATOM     92  C   UNL A   1      46.397  33.214  30.641  1.00  0.00     0.131 A 
ATOM     93  C   UNL A   1      45.922  35.488  29.140  1.00  0.00     0.055 A 
ATOM     94  C   UNL A   1      46.694  34.468  31.177  1.00  0.00     0.041 A 
ATOM     95  F   UNL A   1      46.668  32.137  31.397  1.00  0.00    -0.206 F 
ATOM     96  C   UNL A   1      46.468  35.614  30.421  1.00  0.00     0.022 A 
BRANCH  93  97
ATOM     97  S   UNL A   1      45.742  36.953  28.084  1.00  0.00     0.124 S 
ATOM     98  O   UNL A   1      46.413  36.530  26.860  1.00  0.00    -0.237 OA
ATOM     99  O   UNL A   1      44.292  37.100  27.998  1.00  0.00    -0.237 OA
ATOM    100  O   UNL A   1      46.427  38.003  28.835  1.00  0.00    -0.744 OA
ENDBRANCH  93  97
ENDBRANCH  67  90
ENDBRANCH  41  42
ENDBRANCH  34  36
ENDBRANCH  33  34
ENDBRANCH  32  33
ENDBRANCH  31  32
ENDBRANCH  30  31
ENDBRANCH  29  30
ENDBRANCH   1  29
TORSDOF 25
ENDMDL
MODEL 2
REMARK VINA RESULT:      -8.8      1.328      2.911
REMARK SMILES CC[C@@](C)(NC(=O)Nc1cccc(C[NH2+]C)c1)C(=O)OCCOCCOCCOC(=O)c1ccc(-c2c3nc(c(-c4cc(S(=O)(=O)[O-])ccc4F)c4ccc([nH]4)c(-c4cc(S(=O)(=O)[O-])ccc4F)c4nc(c(-c5cc(S(=O)(=O)[O-])ccc5F)c5ccc2[nH]5)C=C4)C=C3)cc1
REMARK SMILES IDX 24 1 23 2 22 3 21 4 20 5 18 6 19 7 3 8 4 9 2 10 1 11 5 12
REMARK SMILES IDX 6 13 7 15 8 16 9 18 10 19 17 20 11 21 13 22 12 23 14 24
REMARK SMILES IDX 15 25 16 26 25 29 26 30 27 31 28 32 29 33 30 34 31 35 32 36
REMARK SMILES IDX 33 37 94 38 34 39 93 40 35 41 36 42 37 43 87 44 38 45 92 46
REMARK SMILES IDX 86 47 88 48 39 49 91 50 85 51 84 52 40 54 72 55 52 56 71 57
REMARK SMILES IDX 53 58 56 59 70 60 89 61 54 62 55 63 69 65 90 66 57 67 41 68
REMARK SMILES IDX 42 69 50 70 43 71 49 72 51 73 48 74 44 75 45 76 46 77 47 78
REMARK SMILES IDX 73 79 74 80 82 81 75 82 81 83 83 84 80 85 76 86 77 87 78 88
REMARK SMILES IDX 79 89 58 90 59 91 67 92 60 93 66 94 68 95 65 96 61 97 62 98
REMARK SMILES IDX 63 99 64 100
REMARK H PARENT 5 14 8 17 15 27 15 28 88 53 56 64
REMARK Flexibility Score: inf
ROOT
ATOM      1  C   UNL A   1      40.275  21.894  26.689  1.00  0.00     0.188 C 
ENDROOT
BRANCH   1   2
ATOM      2  O   UNL A   1      39.233  21.258  25.935  1.00  0.00    -0.376 OA
BRANCH   2   3
ATOM      3  C   UNL A   1      38.045  22.050  25.801  1.00  0.00     0.202 C 
BRANCH   3   4
ATOM      4  C   UNL A   1      36.800  21.197  25.407  1.00  0.00     0.261 C 
BRANCH   4   5
ATOM      5  O   UNL A   1      35.560  21.921  25.626  1.00  0.00    -0.462 OA
BRANCH   5   6
ATOM      6  C   UNL A   1      34.860  22.673  24.708  1.00  0.00     0.331 C 
ATOM      7  O   UNL A   1      35.353  23.623  24.105  1.00  0.00    -0.249 OA
BRANCH   6   8
ATOM      8  C   UNL A   1      33.326  22.099  24.476  1.00  0.00     0.136 C 
ATOM      9  C   UNL A   1      32.596  23.260  23.775  1.00  0.00     0.047 C 
BRANCH   8  10
ATOM     10  C   UNL A   1      32.670  20.787  23.848  1.00  0.00     0.037 C 
ATOM     11  C   UNL A   1      32.551  19.417  24.479  1.00  0.00     0.007 C 
ENDBRANCH   8  10
BRANCH   8  12
ATOM     12  N   UNL A   1      32.952  21.929  25.859  1.00  0.00    -0.322 N 
ATOM     13  C   UNL A   1      32.713  22.933  26.725  1.00  0.00     0.320 C 
ATOM     14  H   UNL A   1      32.865  21.009  26.197  1.00  0.00     0.166 HD
ATOM     15  O   UNL A   1      32.541  22.583  27.896  1.00  0.00    -0.248 OA
ATOM     16  N   UNL A   1      32.730  24.269  26.439  1.00  0.00    -0.308 N 
ATOM     17  H   UNL A   1      32.751  24.733  27.306  1.00  0.00     0.171 HD
BRANCH  16  18
ATOM     18  C   UNL A   1      32.730  25.296  25.437  1.00  0.00     0.043 A 
ATOM     19  C   UNL A   1      33.881  26.093  25.398  1.00  0.00     0.026 A 
ATOM     20  C   UNL A   1      31.756  25.661  24.507  1.00  0.00     0.035 A 
ATOM     21  C   UNL A   1      34.019  27.172  24.504  1.00  0.00     0.003 A 
ATOM     22  C   UNL A   1      31.853  26.733  23.587  1.00  0.00     0.008 A 
ATOM     23  C   UNL A   1      33.003  27.502  23.607  1.00  0.00     0.010 A 
BRANCH  22  24
ATOM     24  C   UNL A   1      30.742  26.927  22.566  1.00  0.00     0.297 C 
BRANCH  24  25
ATOM     25  N   UNL A   1      29.525  27.505  23.150  1.00  0.00    -0.345 N 
ATOM     26  C   UNL A   1      29.591  28.968  23.127  1.00  0.00     0.331 C 
ATOM     27  H   UNL A   1      29.432  27.188  24.115  1.00  0.00     0.346 HD
ATOM     28  H   UNL A   1      28.720  27.202  22.602  1.00  0.00     0.346 HD
ENDBRANCH  24  25
ENDBRANCH  22  24
ENDBRANCH  16  18
ENDBRANCH   8  12
ENDBRANCH   6   8
ENDBRANCH   5   6
ENDBRANCH   4   5
ENDBRANCH   3   4
ENDBRANCH   2   3
ENDBRANCH   1   2
BRANCH   1  29
ATOM     29  C   UNL A   1      41.612  21.150  26.580  1.00  0.00     0.188 C 
BRANCH  29  30
ATOM     30  O   UNL A   1      41.600  20.091  25.640  1.00  0.00    -0.376 OA
BRANCH  30  31
ATOM     31  C   UNL A   1      42.037  18.832  26.110  1.00  0.00     0.202 C 
BRANCH  31  32
ATOM     32  C   UNL A   1      43.475  18.460  25.710  1.00  0.00     0.261 C 
BRANCH  32  33
ATOM     33  O   UNL A   1      43.886  18.912  24.411  1.00  0.00    -0.460 OA
BRANCH  33  34
ATOM     34  C   UNL A   1      45.061  19.592  24.334  1.00  0.00     0.338 C 
ATOM     35  O   UNL A   1      46.110  19.168  23.876  1.00  0.00    -0.246 OA
BRANCH  34  36
ATOM     36  C   UNL A   1      44.809  20.984  24.790  1.00  0.00     0.060 A 
ATOM     37  C   UNL A   1      44.211  21.902  23.914  1.00  0.00     0.016 A 
ATOM     38  C   UNL A   1      45.163  21.393  26.082  1.00  0.00     0.016 A 
ATOM     39  C   UNL A   1      44.021  23.238  24.307  1.00  0.00     0.010 A 
ATOM     40  C   UNL A   1      44.975  22.725  26.472  1.00  0.00     0.010 A 
ATOM     41  C   UNL A   1      44.444  23.668  25.574  1.00  0.00    -0.014 A 
BRANCH  41  42
ATOM     42  C   UNL A   1      44.606  25.116  25.893  1.00  0.00     0.031 A 
ATOM     43  C   UNL A   1      45.997  25.693  25.795  1.00  0.00     0.074 A 
ATOM     44  C   UNL A   1      43.591  25.894  26.320  1.00  0.00     0.049 A 
ATOM     45  N   UNL A   1      46.451  26.856  26.183  1.00  0.00    -0.248 NA
ATOM     46  C   UNL A   1      47.016  24.820  25.187  1.00  0.00     0.031 C 
ATOM     47  C   UNL A   1      42.191  25.489  26.414  1.00  0.00     0.029 A 
ATOM     48  N   UNL A   1      43.594  27.191  26.781  1.00  0.00    -0.354 N 
ATOM     49  C   UNL A   1      47.809  26.851  25.879  1.00  0.00     0.074 A 
ATOM     50  C   UNL A   1      48.108  25.560  25.299  1.00  0.00     0.031 C 
ATOM     51  C   UNL A   1      41.475  26.509  26.925  1.00  0.00     0.029 A 
ATOM     52  C   UNL A   1      42.369  27.623  27.240  1.00  0.00     0.049 A 
ATOM     53  H   UNL A   1      44.398  27.759  26.781  1.00  0.00     0.167 HD
ATOM     54  C   UNL A   1      48.728  27.829  26.068  1.00  0.00     0.034 A 
ATOM     55  C   UNL A   1      42.022  28.766  27.876  1.00  0.00     0.034 A 
ATOM     56  C   UNL A   1      48.432  29.107  26.661  1.00  0.00     0.049 A 
ATOM     57  C   UNL A   1      43.088  29.806  28.168  1.00  0.00     0.074 A 
ATOM     58  C   UNL A   1      49.289  30.170  26.885  1.00  0.00     0.029 A 
ATOM     59  N   UNL A   1      47.189  29.491  27.143  1.00  0.00    -0.354 N 
ATOM     60  N   UNL A   1      44.367  29.791  27.866  1.00  0.00    -0.248 NA
ATOM     61  C   UNL A   1      42.662  31.014  28.890  1.00  0.00     0.031 C 
ATOM     62  C   UNL A   1      48.584  31.166  27.567  1.00  0.00     0.029 A 
ATOM     63  C   UNL A   1      47.265  30.759  27.697  1.00  0.00     0.049 A 
ATOM     64  H   UNL A   1      46.372  28.943  27.096  1.00  0.00     0.167 HD
ATOM     65  C   UNL A   1      44.883  31.000  28.333  1.00  0.00     0.074 A 
ATOM     66  C   UNL A   1      43.779  31.726  28.920  1.00  0.00     0.031 C 
ATOM     67  C   UNL A   1      46.155  31.473  28.282  1.00  0.00     0.034 A 
BRANCH  54  68
ATOM     68  C   UNL A   1      50.152  27.524  25.681  1.00  0.00     0.023 A 
ATOM     69  C   UNL A   1      50.605  27.653  24.357  1.00  0.00     0.031 A 
ATOM     70  C   UNL A   1      51.066  27.078  26.652  1.00  0.00     0.131 A 
ATOM     71  C   UNL A   1      51.919  27.287  24.029  1.00  0.00     0.055 A 
ATOM     72  C   UNL A   1      52.393  26.784  26.333  1.00  0.00     0.041 A 
ATOM     73  F   UNL A   1      50.681  26.912  27.928  1.00  0.00    -0.206 F 
ATOM     74  C   UNL A   1      52.823  26.877  25.014  1.00  0.00     0.022 A 
BRANCH  71  75
ATOM     75  S   UNL A   1      52.400  27.240  22.282  1.00  0.00     0.124 S 
ATOM     76  O   UNL A   1      51.186  26.724  21.655  1.00  0.00    -0.237 OA
ATOM     77  O   UNL A   1      52.719  28.636  22.004  1.00  0.00    -0.237 OA
ATOM     78  O   UNL A   1      53.540  26.326  22.264  1.00  0.00    -0.744 OA
ENDBRANCH  71  75
ENDBRANCH  54  68
BRANCH  55  79
ATOM     79  C   UNL A   1      40.623  28.989  28.360  1.00  0.00     0.023 A 
ATOM     80  C   UNL A   1      40.294  28.866  29.721  1.00  0.00     0.031 A 
ATOM     81  C   UNL A   1      39.571  29.211  27.453  1.00  0.00     0.131 A 
ATOM     82  C   UNL A   1      38.948  28.901  30.126  1.00  0.00     0.055 A 
ATOM     83  C   UNL A   1      38.242  29.308  27.868  1.00  0.00     0.041 A 
ATOM     84  F   UNL A   1      39.820  29.324  26.138  1.00  0.00    -0.206 F 
ATOM     85  C   UNL A   1      37.921  29.135  29.210  1.00  0.00     0.022 A 
BRANCH  82  86
ATOM     86  S   UNL A   1      38.545  28.513  31.855  1.00  0.00     0.124 S 
ATOM     87  O   UNL A   1      37.218  29.101  31.989  1.00  0.00    -0.237 OA
ATOM     88  O   UNL A   1      38.606  27.055  31.859  1.00  0.00    -0.237 OA
ATOM     89  O   UNL A   1      39.605  29.181  32.608  1.00  0.00    -0.744 OA
ENDBRANCH  82  86
ENDBRANCH  55  79
BRANCH  67  90
ATOM     90  C   UNL A   1      46.409  32.859  28.827  1.00  0.00     0.023 A 
ATOM     91  C   UNL A   1      46.238  34.011  28.040  1.00  0.00     0.031 A 
ATOM     92  C   UNL A   1      46.823  33.027  30.162  1.00  0.00     0.131 A 
ATOM     93  C   UNL A   1      46.530  35.275  28.576  1.00  0.00     0.055 A 
ATOM     94  C   UNL A   1      47.051  34.291  30.709  1.00  0.00     0.041 A 
ATOM     95  F   UNL A   1      47.002  31.964  30.962  1.00  0.00    -0.206 F 
ATOM     96  C   UNL A   1      46.918  35.423  29.911  1.00  0.00     0.022 A 
BRANCH  93  97
ATOM     97  S   UNL A   1      46.477  36.722  27.483  1.00  0.00     0.124 S 
ATOM     98  O   UNL A   1      47.625  36.488  26.613  1.00  0.00    -0.237 OA
ATOM     99  O   UNL A   1      45.166  36.591  26.856  1.00  0.00    -0.237 OA
ATOM    100  O   UNL A   1      46.615  37.851  28.400  1.00  0.00    -0.744 OA
ENDBRANCH  93  97
ENDBRANCH  67  90
ENDBRANCH  41  42
ENDBRANCH  34  36
ENDBRANCH  33  34
ENDBRANCH  32  33
ENDBRANCH  31  32
ENDBRANCH  30  31
ENDBRANCH  29  30
ENDBRANCH   1  29
TORSDOF 25
ENDMDL
MODEL 3
REMARK VINA RESULT:      -8.6      4.803      7.099
REMARK SMILES CC[C@@](C)(NC(=O)Nc1cccc(C[NH2+]C)c1)C(=O)OCCOCCOCCOC(=O)c1ccc(-c2c3nc(c(-c4cc(S(=O)(=O)[O-])ccc4F)c4ccc([nH]4)c(-c4cc(S(=O)(=O)[O-])ccc4F)c4nc(c(-c5cc(S(=O)(=O)[O-])ccc5F)c5ccc2[nH]5)C=C4)C=C3)cc1
REMARK SMILES IDX 24 1 23 2 22 3 21 4 20 5 18 6 19 7 3 8 4 9 2 10 1 11 5 12
REMARK SMILES IDX 6 13 7 15 8 16 9 18 10 19 17 20 11 21 13 22 12 23 14 24
REMARK SMILES IDX 15 25 16 26 25 29 26 30 27 31 28 32 29 33 30 34 31 35 32 36
REMARK SMILES IDX 33 37 94 38 34 39 93 40 35 41 36 42 37 43 87 44 38 45 92 46
REMARK SMILES IDX 86 47 88 48 39 49 91 50 85 51 84 52 40 54 72 55 52 56 71 57
REMARK SMILES IDX 53 58 56 59 70 60 89 61 54 62 55 63 69 65 90 66 57 67 41 68
REMARK SMILES IDX 42 69 50 70 43 71 49 72 51 73 48 74 44 75 45 76 46 77 47 78
REMARK SMILES IDX 73 79 74 80 82 81 75 82 81 83 83 84 80 85 76 86 77 87 78 88
REMARK SMILES IDX 79 89 58 90 59 91 67 92 60 93 66 94 68 95 65 96 61 97 62 98
REMARK SMILES IDX 63 99 64 100
REMARK H PARENT 5 14 8 17 15 27 15 28 88 53 56 64
REMARK Flexibility Score: inf
ROOT
ATOM      1  C   UNL A   1      38.973  21.368  26.011  1.00  0.00     0.188 C 
ENDROOT
BRANCH   1   2
ATOM      2  O   UNL A   1      37.931  22.236  25.545  1.00  0.00    -0.376 OA
BRANCH   2   3
ATOM      3  C   UNL A   1      37.272  21.772  24.359  1.00  0.00     0.202 C 
BRANCH   3   4
ATOM      4  C   UNL A   1      36.640  22.934  23.533  1.00  0.00     0.261 C 
BRANCH   4   5
ATOM      5  O   UNL A   1      35.189  22.903  23.585  1.00  0.00    -0.462 OA
BRANCH   5   6
ATOM      6  C   UNL A   1      34.371  23.574  24.468  1.00  0.00     0.331 C 
ATOM      7  O   UNL A   1      34.469  24.778  24.688  1.00  0.00    -0.249 OA
BRANCH   6   8
ATOM      8  C   UNL A   1      33.221  22.582  25.123  1.00  0.00     0.136 C 
ATOM      9  C   UNL A   1      33.947  21.893  26.294  1.00  0.00     0.047 C 
BRANCH   8  10
ATOM     10  C   UNL A   1      31.718  22.741  25.634  1.00  0.00     0.037 C 
ATOM     11  C   UNL A   1      31.217  23.559  26.803  1.00  0.00     0.007 C 
ENDBRANCH   8  10
BRANCH   8  12
ATOM     12  N   UNL A   1      33.010  21.721  23.985  1.00  0.00    -0.322 N 
ATOM     13  C   UNL A   1      32.209  22.001  22.940  1.00  0.00     0.320 C 
ATOM     14  H   UNL A   1      33.489  20.861  23.971  1.00  0.00     0.166 HD
ATOM     15  O   UNL A   1      32.057  21.078  22.134  1.00  0.00    -0.248 OA
ATOM     16  N   UNL A   1      31.504  23.157  22.748  1.00  0.00    -0.308 N 
ATOM     17  H   UNL A   1      30.852  22.963  22.037  1.00  0.00     0.171 HD
BRANCH  16  18
ATOM     18  C   UNL A   1      31.293  24.526  23.121  1.00  0.00     0.043 A 
ATOM     19  C   UNL A   1      30.044  24.805  23.690  1.00  0.00     0.026 A 
ATOM     20  C   UNL A   1      32.115  25.645  22.985  1.00  0.00     0.035 A 
ATOM     21  C   UNL A   1      29.662  26.106  24.068  1.00  0.00     0.003 A 
ATOM     22  C   UNL A   1      31.777  26.969  23.354  1.00  0.00     0.008 A 
ATOM     23  C   UNL A   1      30.521  27.191  23.891  1.00  0.00     0.010 A 
BRANCH  22  24
ATOM     24  C   UNL A   1      32.833  28.057  23.236  1.00  0.00     0.297 C 
BRANCH  24  25
ATOM     25  N   UNL A   1      33.875  27.955  24.265  1.00  0.00    -0.345 N 
ATOM     26  C   UNL A   1      33.663  28.958  25.311  1.00  0.00     0.331 C 
ATOM     27  H   UNL A   1      34.788  28.105  23.836  1.00  0.00     0.346 HD
ATOM     28  H   UNL A   1      33.834  27.026  24.685  1.00  0.00     0.346 HD
ENDBRANCH  24  25
ENDBRANCH  22  24
ENDBRANCH  16  18
ENDBRANCH   8  12
ENDBRANCH   6   8
ENDBRANCH   5   6
ENDBRANCH   4   5
ENDBRANCH   3   4
ENDBRANCH   2   3
ENDBRANCH   1   2
BRANCH   1  29
ATOM     29  C   UNL A   1      40.122  22.137  26.674  1.00  0.00     0.188 C 
BRANCH  29  30
ATOM     30  O   UNL A   1      40.869  21.363  27.596  1.00  0.00    -0.376 OA
BRANCH  30  31
ATOM     31  C   UNL A   1      41.738  20.397  27.041  1.00  0.00     0.202 C 
BRANCH  31  32
ATOM     32  C   UNL A   1      42.668  20.926  25.936  1.00  0.00     0.261 C 
BRANCH  32  33
ATOM     33  O   UNL A   1      43.570  21.967  26.341  1.00  0.00    -0.460 OA
BRANCH  33  34
ATOM     34  C   UNL A   1      43.515  23.138  25.652  1.00  0.00     0.338 C 
ATOM     35  O   UNL A   1      43.388  23.256  24.443  1.00  0.00    -0.246 OA
BRANCH  34  36
ATOM     36  C   UNL A   1      43.506  24.246  26.641  1.00  0.00     0.060 A 
ATOM     37  C   UNL A   1      43.044  24.009  27.944  1.00  0.00     0.016 A 
ATOM     38  C   UNL A   1      43.953  25.527  26.290  1.00  0.00     0.016 A 
ATOM     39  C   UNL A   1      42.973  25.059  28.874  1.00  0.00     0.010 A 
ATOM     40  C   UNL A   1      43.878  26.573  27.217  1.00  0.00     0.010 A 
ATOM     41  C   UNL A   1      43.348  26.359  28.501  1.00  0.00    -0.014 A 
BRANCH  41  42
ATOM     42  C   UNL A   1      42.948  27.549  29.309  1.00  0.00     0.031 A 
ATOM     43  C   UNL A   1      43.849  27.938  30.456  1.00  0.00     0.074 A 
ATOM     44  C   UNL A   1      41.805  28.231  29.098  1.00  0.00     0.049 A 
ATOM     45  N   UNL A   1      43.654  28.802  31.418  1.00  0.00    -0.248 NA
ATOM     46  C   UNL A   1      45.142  27.235  30.529  1.00  0.00     0.031 C 
ATOM     47  C   UNL A   1      40.869  28.002  28.001  1.00  0.00     0.029 A 
ATOM     48  N   UNL A   1      41.227  29.248  29.824  1.00  0.00    -0.354 N 
ATOM     49  C   UNL A   1      44.792  28.738  32.217  1.00  0.00     0.074 A 
ATOM     50  C   UNL A   1      45.658  27.734  31.640  1.00  0.00     0.031 C 
ATOM     51  C   UNL A   1      39.821  28.837  28.140  1.00  0.00     0.029 A 
ATOM     52  C   UNL A   1      39.986  29.628  29.361  1.00  0.00     0.049 A 
ATOM     53  H   UNL A   1      41.661  29.667  30.601  1.00  0.00     0.167 HD
ATOM     54  C   UNL A   1      45.090  29.448  33.332  1.00  0.00     0.034 A 
ATOM     55  C   UNL A   1      39.077  30.482  29.884  1.00  0.00     0.034 A 
ATOM     56  C   UNL A   1      44.219  30.436  33.914  1.00  0.00     0.049 A 
ATOM     57  C   UNL A   1      39.389  31.191  31.189  1.00  0.00     0.074 A 
ATOM     58  C   UNL A   1      44.433  31.218  35.035  1.00  0.00     0.029 A 
ATOM     59  N   UNL A   1      42.959  30.766  33.435  1.00  0.00    -0.354 N 
ATOM     60  N   UNL A   1      40.473  31.128  31.929  1.00  0.00    -0.248 NA
ATOM     61  C   UNL A   1      38.352  32.082  31.729  1.00  0.00     0.031 C 
ATOM     62  C   UNL A   1      43.277  31.966  35.276  1.00  0.00     0.029 A 
ATOM     63  C   UNL A   1      42.370  31.712  34.259  1.00  0.00     0.049 A 
ATOM     64  H   UNL A   1      42.545  30.384  32.627  1.00  0.00     0.167 HD
ATOM     65  C   UNL A   1      40.256  31.997  32.999  1.00  0.00     0.074 A 
ATOM     66  C   UNL A   1      38.949  32.583  32.801  1.00  0.00     0.031 C 
ATOM     67  C   UNL A   1      41.063  32.288  34.052  1.00  0.00     0.034 A 
BRANCH  54  68
ATOM     68  C   UNL A   1      46.390  29.133  34.026  1.00  0.00     0.023 A 
ATOM     69  C   UNL A   1      46.475  28.160  35.037  1.00  0.00     0.031 A 
ATOM     70  C   UNL A   1      47.560  29.834  33.683  1.00  0.00     0.131 A 
ATOM     71  C   UNL A   1      47.690  27.954  35.707  1.00  0.00     0.055 A 
ATOM     72  C   UNL A   1      48.782  29.573  34.304  1.00  0.00     0.041 A 
ATOM     73  F   UNL A   1      47.532  30.793  32.743  1.00  0.00    -0.206 F 
ATOM     74  C   UNL A   1      48.850  28.636  35.329  1.00  0.00     0.022 A 
BRANCH  71  75
ATOM     75  S   UNL A   1      47.710  26.866  37.157  1.00  0.00     0.124 S 
ATOM     76  O   UNL A   1      49.143  26.717  37.394  1.00  0.00    -0.237 OA
ATOM     77  O   UNL A   1      46.976  27.647  38.148  1.00  0.00    -0.237 OA
ATOM     78  O   UNL A   1      47.033  25.658  36.690  1.00  0.00    -0.744 OA
ENDBRANCH  71  75
ENDBRANCH  54  68
BRANCH  55  79
ATOM     79  C   UNL A   1      37.741  30.682  29.239  1.00  0.00     0.023 A 
ATOM     80  C   UNL A   1      37.191  31.966  29.081  1.00  0.00     0.031 A 
ATOM     81  C   UNL A   1      36.941  29.582  28.877  1.00  0.00     0.131 A 
ATOM     82  C   UNL A   1      35.864  32.115  28.640  1.00  0.00     0.055 A 
ATOM     83  C   UNL A   1      35.647  29.738  28.378  1.00  0.00     0.041 A 
ATOM     84  F   UNL A   1      37.405  28.329  29.016  1.00  0.00    -0.206 F 
ATOM     85  C   UNL A   1      35.094  31.010  28.274  1.00  0.00     0.022 A 
BRANCH  82  86
ATOM     86  S   UNL A   1      35.116  33.770  28.666  1.00  0.00     0.124 S 
ATOM     87  O   UNL A   1      36.200  34.577  29.214  1.00  0.00    -0.237 OA
ATOM     88  O   UNL A   1      34.804  33.983  27.257  1.00  0.00    -0.237 OA
ATOM     89  O   UNL A   1      33.956  33.604  29.540  1.00  0.00    -0.744 OA
ENDBRANCH  82  86
ENDBRANCH  55  79
BRANCH  67  90
ATOM     90  C   UNL A   1      40.577  33.322  35.040  1.00  0.00     0.023 A 
ATOM     91  C   UNL A   1      39.948  32.963  36.245  1.00  0.00     0.031 A 
ATOM     92  C   UNL A   1      40.754  34.692  34.772  1.00  0.00     0.131 A 
ATOM     93  C   UNL A   1      39.473  33.960  37.112  1.00  0.00     0.055 A 
ATOM     94  C   UNL A   1      40.335  35.679  35.666  1.00  0.00     0.041 A 
ATOM     95  F   UNL A   1      41.349  35.097  33.638  1.00  0.00    -0.206 F 
ATOM     96  C   UNL A   1      39.679  35.315  36.838  1.00  0.00     0.022 A 
BRANCH  93  97
ATOM     97  S   UNL A   1      38.505  33.466  38.564  1.00  0.00     0.124 S 
ATOM     98  O   UNL A   1      37.208  33.155  37.974  1.00  0.00    -0.237 OA
ATOM     99  O   UNL A   1      39.263  32.326  39.072  1.00  0.00    -0.237 OA
ATOM    100  O   UNL A   1      38.531  34.654  39.414  1.00  0.00    -0.744 OA
ENDBRANCH  93  97
ENDBRANCH  67  90
ENDBRANCH  41  42
ENDBRANCH  34  36
ENDBRANCH  33  34
ENDBRANCH  32  33
ENDBRANCH  31  32
ENDBRANCH  30  31
ENDBRANCH  29  30
ENDBRANCH   1  29
TORSDOF 25
ENDMDL
