MODEL 1
REMARK VINA RESULT:      -6.8      0.000      0.000
REMARK SMILES COc1cc(/C=C/C(=O)c2ccc(OCC(=O)OCCOCCOCCOC(=O)c3ccc(-c4c5nc(c(-c6cc(S(=O)(=O)[O-])ccc6F)c6ccc([nH]6)c(-c6cc(S(=O)(=O)[O-])ccc6F)c6nc(c(-c7cc(S(=O)(=O)[O-])ccc7F)c7ccc4[nH]7)C=C6)C=C5)cc3)cc2)cc2c1OCCO2
REMARK SMILES IDX 21 1 20 2 19 3 18 4 16 5 17 6 15 7 14 8 13 9 10 10 11 11
REMARK SMILES IDX 94 12 12 13 93 14 8 15 9 16 7 17 6 18 5 19 3 20 4 21 97 22
REMARK SMILES IDX 96 23 98 24 95 25 101 26 99 27 100 28 2 29 1 30 22 31 23 32
REMARK SMILES IDX 24 33 25 34 26 35 27 36 28 37 29 38 30 39 31 40 92 41 32 42
REMARK SMILES IDX 91 43 33 44 34 45 35 46 85 47 36 48 90 49 84 50 86 51 37 52
REMARK SMILES IDX 89 53 83 54 82 55 38 57 70 58 50 59 69 60 51 61 54 62 68 63
REMARK SMILES IDX 87 64 52 65 53 66 67 68 88 69 55 70 39 71 40 72 48 73 41 74
REMARK SMILES IDX 47 75 49 76 46 77 42 78 43 79 44 80 45 81 71 82 72 83 80 84
REMARK SMILES IDX 73 85 79 86 81 87 78 88 74 89 75 90 76 91 77 92 56 93 57 94
REMARK SMILES IDX 65 95 58 96 64 97 66 98 63 99 59 100 60 101 61 102 62 103
REMARK H PARENT 86 56 54 67
REMARK Flexibility Score: inf
ROOT
ATOM      1  O   UNL A   1      36.413  34.621  34.198  1.00  0.00    -0.376 OA
ENDROOT
BRANCH   1   2
ATOM      2  C   UNL A   1      37.014  33.394  33.793  1.00  0.00     0.202 C 
BRANCH   2   3
ATOM      3  C   UNL A   1      37.041  32.317  34.888  1.00  0.00     0.261 C 
BRANCH   3   4
ATOM      4  O   UNL A   1      38.396  31.873  35.142  1.00  0.00    -0.461 OA
BRANCH   4   5
ATOM      5  C   UNL A   1      38.735  30.620  34.735  1.00  0.00     0.344 C 
ATOM      6  O   UNL A   1      38.162  30.019  33.831  1.00  0.00    -0.248 OA
BRANCH   5   7
ATOM      7  C   UNL A   1      40.026  30.091  35.408  1.00  0.00     0.351 C 
BRANCH   7   8
ATOM      8  O   UNL A   1      41.015  29.489  34.577  1.00  0.00    -0.482 OA
BRANCH   8   9
ATOM      9  C   UNL A   1      41.519  28.247  34.886  1.00  0.00     0.120 A 
ATOM     10  C   UNL A   1      42.968  25.959  35.791  1.00  0.00     0.022 A 
ATOM     11  C   UNL A   1      42.497  26.924  36.693  1.00  0.00     0.016 A 
ATOM     12  C   UNL A   1      42.572  26.073  34.456  1.00  0.00     0.016 A 
ATOM     13  C   UNL A   1      41.790  28.054  36.243  1.00  0.00     0.047 A 
ATOM     14  C   UNL A   1      41.834  27.205  34.010  1.00  0.00     0.047 A 
BRANCH  10  15
ATOM     15  C   UNL A   1      43.924  24.930  36.338  1.00  0.00     0.185 C 
ATOM     16  O   UNL A   1      44.056  24.829  37.555  1.00  0.00    -0.289 OA
BRANCH  15  17
ATOM     17  C   UNL A   1      44.854  24.201  35.398  1.00  0.00     0.053 C 
ATOM     18  C   UNL A   1      46.005  23.701  35.903  1.00  0.00     0.012 C 
BRANCH  18  19
ATOM     19  C   UNL A   1      47.195  23.211  35.163  1.00  0.00    -0.018 A 
ATOM     20  C   UNL A   1      49.303  23.816  34.006  1.00  0.00     0.165 A 
ATOM     21  C   UNL A   1      48.096  24.146  34.643  1.00  0.00     0.058 A 
ATOM     22  C   UNL A   1      49.692  22.484  33.981  1.00  0.00     0.203 A 
ATOM     23  C   UNL A   1      48.841  21.526  34.564  1.00  0.00     0.165 A 
ATOM     24  O   UNL A   1      50.927  22.169  33.473  1.00  0.00    -0.483 OA
ATOM     25  C   UNL A   1      47.587  21.877  35.112  1.00  0.00     0.058 A 
ATOM     26  O   UNL A   1      49.201  20.201  34.686  1.00  0.00    -0.486 OA
ATOM     27  C   UNL A   1      51.136  20.763  33.351  1.00  0.00     0.271 C 
ATOM     28  C   UNL A   1      50.621  20.046  34.583  1.00  0.00     0.271 C 
BRANCH  20  29
ATOM     29  O   UNL A   1      50.024  24.891  33.552  1.00  0.00    -0.493 OA
ATOM     30  C   UNL A   1      49.770  25.309  32.212  1.00  0.00     0.278 C 
ENDBRANCH  20  29
ENDBRANCH  18  19
ENDBRANCH  15  17
ENDBRANCH  10  15
ENDBRANCH   8   9
ENDBRANCH   7   8
ENDBRANCH   5   7
ENDBRANCH   4   5
ENDBRANCH   3   4
ENDBRANCH   2   3
ENDBRANCH   1   2
BRANCH   1  31
ATOM     31  C   UNL A   1      35.016  34.754  33.947  1.00  0.00     0.188 C 
BRANCH  31  32
ATOM     32  C   UNL A   1      34.618  35.493  32.662  1.00  0.00     0.188 C 
BRANCH  32  33
ATOM     33  O   UNL A   1      33.767  34.702  31.842  1.00  0.00    -0.376 OA
BRANCH  33  34
ATOM     34  C   UNL A   1      33.209  35.431  30.760  1.00  0.00     0.202 C 
BRANCH  34  35
ATOM     35  C   UNL A   1      33.681  34.865  29.414  1.00  0.00     0.261 C 
BRANCH  35  36
ATOM     36  O   UNL A   1      35.108  34.639  29.191  1.00  0.00    -0.460 OA
BRANCH  36  37
ATOM     37  C   UNL A   1      35.476  33.542  28.511  1.00  0.00     0.338 C 
ATOM     38  O   UNL A   1      34.805  33.013  27.624  1.00  0.00    -0.246 OA
BRANCH  37  39
ATOM     39  C   UNL A   1      36.780  32.959  28.872  1.00  0.00     0.060 A 
ATOM     40  C   UNL A   1      36.775  31.759  29.583  1.00  0.00     0.016 A 
ATOM     41  C   UNL A   1      37.957  33.710  28.809  1.00  0.00     0.016 A 
ATOM     42  C   UNL A   1      37.913  31.342  30.281  1.00  0.00     0.010 A 
ATOM     43  C   UNL A   1      39.117  33.261  29.465  1.00  0.00     0.010 A 
ATOM     44  C   UNL A   1      39.109  32.077  30.220  1.00  0.00    -0.014 A 
BRANCH  44  45
ATOM     45  C   UNL A   1      40.357  31.537  30.840  1.00  0.00     0.031 A 
ATOM     46  C   UNL A   1      41.108  30.360  30.266  1.00  0.00     0.074 A 
ATOM     47  C   UNL A   1      40.813  32.119  31.968  1.00  0.00     0.049 A 
ATOM     48  N   UNL A   1      42.123  29.704  30.773  1.00  0.00    -0.248 NA
ATOM     49  C   UNL A   1      40.669  29.861  28.956  1.00  0.00     0.031 C 
ATOM     50  C   UNL A   1      40.203  33.282  32.617  1.00  0.00     0.029 A 
ATOM     51  N   UNL A   1      41.883  31.815  32.775  1.00  0.00    -0.354 N 
ATOM     52  C   UNL A   1      42.432  28.695  29.864  1.00  0.00     0.074 A 
ATOM     53  C   UNL A   1      41.491  28.834  28.768  1.00  0.00     0.031 C 
ATOM     54  C   UNL A   1      40.911  33.600  33.709  1.00  0.00     0.029 A 
ATOM     55  C   UNL A   1      41.969  32.613  33.892  1.00  0.00     0.049 A 
ATOM     56  H   UNL A   1      42.524  31.096  32.573  1.00  0.00     0.167 HD
ATOM     57  C   UNL A   1      43.397  27.742  29.943  1.00  0.00     0.034 A 
ATOM     58  C   UNL A   1      42.762  32.540  34.978  1.00  0.00     0.034 A 
ATOM     59  C   UNL A   1      44.338  27.618  31.038  1.00  0.00     0.049 A 
ATOM     60  C   UNL A   1      43.780  31.440  35.072  1.00  0.00     0.074 A 
ATOM     61  C   UNL A   1      45.368  26.702  31.191  1.00  0.00     0.029 A 
ATOM     62  N   UNL A   1      44.361  28.421  32.170  1.00  0.00    -0.354 N 
ATOM     63  N   UNL A   1      44.032  30.477  34.217  1.00  0.00    -0.248 NA
ATOM     64  C   UNL A   1      44.613  31.412  36.279  1.00  0.00     0.031 C 
ATOM     65  C   UNL A   1      45.967  26.908  32.439  1.00  0.00     0.029 A 
ATOM     66  C   UNL A   1      45.360  27.999  33.038  1.00  0.00     0.049 A 
ATOM     67  H   UNL A   1      43.757  29.180  32.334  1.00  0.00     0.167 HD
ATOM     68  C   UNL A   1      45.061  29.731  34.783  1.00  0.00     0.074 A 
ATOM     69  C   UNL A   1      45.397  30.371  36.039  1.00  0.00     0.031 C 
ATOM     70  C   UNL A   1      45.671  28.618  34.305  1.00  0.00     0.034 A 
BRANCH  57  71
ATOM     71  C   UNL A   1      43.458  26.702  28.847  1.00  0.00     0.023 A 
ATOM     72  C   UNL A   1      42.614  25.579  28.827  1.00  0.00     0.031 A 
ATOM     73  C   UNL A   1      44.362  26.864  27.778  1.00  0.00     0.131 A 
ATOM     74  C   UNL A   1      42.719  24.642  27.785  1.00  0.00     0.055 A 
ATOM     75  C   UNL A   1      44.420  25.960  26.715  1.00  0.00     0.041 A 
ATOM     76  F   UNL A   1      45.201  27.912  27.748  1.00  0.00    -0.206 F 
ATOM     77  C   UNL A   1      43.603  24.836  26.719  1.00  0.00     0.022 A 
BRANCH  74  78
ATOM     78  S   UNL A   1      41.757  23.108  27.889  1.00  0.00     0.124 S 
ATOM     79  O   UNL A   1      42.302  22.498  29.099  1.00  0.00    -0.237 OA
ATOM     80  O   UNL A   1      40.388  23.602  27.983  1.00  0.00    -0.237 OA
ATOM     81  O   UNL A   1      42.086  22.411  26.646  1.00  0.00    -0.744 OA
ENDBRANCH  74  78
ENDBRANCH  57  71
BRANCH  58  82
ATOM     82  C   UNL A   1      42.562  33.495  36.103  1.00  0.00     0.023 A 
ATOM     83  C   UNL A   1      41.702  33.194  37.168  1.00  0.00     0.031 A 
ATOM     84  C   UNL A   1      43.233  34.731  36.119  1.00  0.00     0.131 A 
ATOM     85  C   UNL A   1      41.516  34.131  38.195  1.00  0.00     0.055 A 
ATOM     86  C   UNL A   1      43.086  35.637  37.169  1.00  0.00     0.041 A 
ATOM     87  F   UNL A   1      44.069  35.064  35.122  1.00  0.00    -0.206 F 
ATOM     88  C   UNL A   1      42.214  35.343  38.211  1.00  0.00     0.022 A 
BRANCH  85  89
ATOM     89  S   UNL A   1      40.293  33.773  39.485  1.00  0.00     0.124 S 
ATOM     90  O   UNL A   1      40.423  32.328  39.626  1.00  0.00    -0.237 OA
ATOM     91  O   UNL A   1      40.788  34.573  40.600  1.00  0.00    -0.237 OA
ATOM     92  O   UNL A   1      39.036  34.233  38.899  1.00  0.00    -0.744 OA
ENDBRANCH  85  89
ENDBRANCH  58  82
BRANCH  70  93
ATOM     93  C   UNL A   1      46.783  28.044  35.147  1.00  0.00     0.023 A 
ATOM     94  C   UNL A   1      46.530  27.463  36.402  1.00  0.00     0.031 A 
ATOM     95  C   UNL A   1      48.117  28.126  34.711  1.00  0.00     0.131 A 
ATOM     96  C   UNL A   1      47.601  27.039  37.205  1.00  0.00     0.055 A 
ATOM     97  C   UNL A   1      49.174  27.654  35.491  1.00  0.00     0.041 A 
ATOM     98  F   UNL A   1      48.415  28.676  33.524  1.00  0.00    -0.206 F 
ATOM     99  C   UNL A   1      48.920  27.120  36.752  1.00  0.00     0.022 A 
BRANCH  96 100
ATOM    100  S   UNL A   1      47.253  26.467  38.892  1.00  0.00     0.124 S 
ATOM    101  O   UNL A   1      48.241  27.204  39.672  1.00  0.00    -0.237 OA
ATOM    102  O   UNL A   1      45.863  26.870  39.077  1.00  0.00    -0.237 OA
ATOM    103  O   UNL A   1      47.474  25.024  38.816  1.00  0.00    -0.744 OA
ENDBRANCH  96 100
ENDBRANCH  70  93
ENDBRANCH  44  45
ENDBRANCH  37  39
ENDBRANCH  36  37
ENDBRANCH  35  36
ENDBRANCH  34  35
ENDBRANCH  33  34
ENDBRANCH  32  33
ENDBRANCH  31  32
ENDBRANCH   1  31
TORSDOF 26
ENDMDL
MODEL 2
REMARK VINA RESULT:      -6.5      4.180     11.516
REMARK SMILES COc1cc(/C=C/C(=O)c2ccc(OCC(=O)OCCOCCOCCOC(=O)c3ccc(-c4c5nc(c(-c6cc(S(=O)(=O)[O-])ccc6F)c6ccc([nH]6)c(-c6cc(S(=O)(=O)[O-])ccc6F)c6nc(c(-c7cc(S(=O)(=O)[O-])ccc7F)c7ccc4[nH]7)C=C6)C=C5)cc3)cc2)cc2c1OCCO2
REMARK SMILES IDX 21 1 20 2 19 3 18 4 16 5 17 6 15 7 14 8 13 9 10 10 11 11
REMARK SMILES IDX 94 12 12 13 93 14 8 15 9 16 7 17 6 18 5 19 3 20 4 21 97 22
REMARK SMILES IDX 96 23 98 24 95 25 101 26 99 27 100 28 2 29 1 30 22 31 23 32
REMARK SMILES IDX 24 33 25 34 26 35 27 36 28 37 29 38 30 39 31 40 92 41 32 42
REMARK SMILES IDX 91 43 33 44 34 45 35 46 85 47 36 48 90 49 84 50 86 51 37 52
REMARK SMILES IDX 89 53 83 54 82 55 38 57 70 58 50 59 69 60 51 61 54 62 68 63
REMARK SMILES IDX 87 64 52 65 53 66 67 68 88 69 55 70 39 71 40 72 48 73 41 74
REMARK SMILES IDX 47 75 49 76 46 77 42 78 43 79 44 80 45 81 71 82 72 83 80 84
REMARK SMILES IDX 73 85 79 86 81 87 78 88 74 89 75 90 76 91 77 92 56 93 57 94
REMARK SMILES IDX 65 95 58 96 64 97 66 98 63 99 59 100 60 101 61 102 62 103
REMARK H PARENT 86 56 54 67
REMARK Flexibility Score: inf
ROOT
ATOM      1  O   UNL A   1      44.882  24.445  30.925  1.00  0.00    -0.376 OA
ENDROOT
BRANCH   1   2
ATOM      2  C   UNL A   1      45.365  25.765  31.163  1.00  0.00     0.202 C 
BRANCH   2   3
ATOM      3  C   UNL A   1      44.544  26.557  32.192  1.00  0.00     0.261 C 
BRANCH   3   4
ATOM      4  O   UNL A   1      43.419  27.215  31.560  1.00  0.00    -0.461 OA
BRANCH   4   5
ATOM      5  C   UNL A   1      42.915  28.323  32.166  1.00  0.00     0.344 C 
ATOM      6  O   UNL A   1      43.355  29.455  31.992  1.00  0.00    -0.248 OA
BRANCH   5   7
ATOM      7  C   UNL A   1      41.620  28.039  32.969  1.00  0.00     0.351 C 
BRANCH   7   8
ATOM      8  O   UNL A   1      40.497  28.890  32.748  1.00  0.00    -0.482 OA
BRANCH   8   9
ATOM      9  C   UNL A   1      40.269  29.965  33.575  1.00  0.00     0.120 A 
ATOM     10  C   UNL A   1      40.299  32.374  35.109  1.00  0.00     0.022 A 
ATOM     11  C   UNL A   1      40.437  32.400  33.713  1.00  0.00     0.016 A 
ATOM     12  C   UNL A   1      39.993  31.149  35.707  1.00  0.00     0.016 A 
ATOM     13  C   UNL A   1      40.430  31.211  32.961  1.00  0.00     0.047 A 
ATOM     14  C   UNL A   1      39.961  29.952  34.937  1.00  0.00     0.047 A 
BRANCH  10  15
ATOM     15  C   UNL A   1      40.574  33.663  35.840  1.00  0.00     0.185 C 
ATOM     16  O   UNL A   1      41.030  34.617  35.214  1.00  0.00    -0.289 OA
BRANCH  15  17
ATOM     17  C   UNL A   1      40.495  33.697  37.348  1.00  0.00     0.053 C 
ATOM     18  C   UNL A   1      39.282  33.888  37.916  1.00  0.00     0.012 C 
BRANCH  18  19
ATOM     19  C   UNL A   1      38.975  34.244  39.325  1.00  0.00    -0.018 A 
ATOM     20  C   UNL A   1      38.755  36.062  40.997  1.00  0.00     0.165 A 
ATOM     21  C   UNL A   1      39.101  35.578  39.724  1.00  0.00     0.058 A 
ATOM     22  C   UNL A   1      38.145  35.192  41.889  1.00  0.00     0.203 A 
ATOM     23  C   UNL A   1      37.935  33.858  41.487  1.00  0.00     0.165 A 
ATOM     24  O   UNL A   1      37.690  35.687  43.084  1.00  0.00    -0.483 OA
ATOM     25  C   UNL A   1      38.382  33.377  40.236  1.00  0.00     0.058 A 
ATOM     26  O   UNL A   1      37.235  32.960  42.263  1.00  0.00    -0.486 OA
ATOM     27  C   UNL A   1      37.237  34.667  43.973  1.00  0.00     0.271 C 
ATOM     28  C   UNL A   1      36.415  33.640  43.220  1.00  0.00     0.271 C 
BRANCH  20  29
ATOM     29  O   UNL A   1      38.981  37.402  41.182  1.00  0.00    -0.493 OA
ATOM     30  C   UNL A   1      38.910  38.227  40.020  1.00  0.00     0.278 C 
ENDBRANCH  20  29
ENDBRANCH  18  19
ENDBRANCH  15  17
ENDBRANCH  10  15
ENDBRANCH   8   9
ENDBRANCH   7   8
ENDBRANCH   5   7
ENDBRANCH   4   5
ENDBRANCH   3   4
ENDBRANCH   2   3
ENDBRANCH   1   2
BRANCH   1  31
ATOM     31  C   UNL A   1      44.186  24.239  29.697  1.00  0.00     0.188 C 
BRANCH  31  32
ATOM     32  C   UNL A   1      43.262  23.016  29.632  1.00  0.00     0.188 C 
BRANCH  32  33
ATOM     33  O   UNL A   1      42.313  23.130  28.579  1.00  0.00    -0.376 OA
BRANCH  33  34
ATOM     34  C   UNL A   1      42.339  22.025  27.689  1.00  0.00     0.202 C 
BRANCH  34  35
ATOM     35  C   UNL A   1      40.917  21.587  27.313  1.00  0.00     0.261 C 
BRANCH  35  36
ATOM     36  O   UNL A   1      40.280  22.157  26.128  1.00  0.00    -0.460 OA
BRANCH  36  37
ATOM     37  C   UNL A   1      39.156  22.871  26.295  1.00  0.00     0.338 C 
ATOM     38  O   UNL A   1      38.022  22.453  26.057  1.00  0.00    -0.246 OA
BRANCH  37  39
ATOM     39  C   UNL A   1      39.325  24.242  26.807  1.00  0.00     0.060 A 
ATOM     40  C   UNL A   1      40.037  25.143  26.015  1.00  0.00     0.016 A 
ATOM     41  C   UNL A   1      39.085  24.554  28.148  1.00  0.00     0.016 A 
ATOM     42  C   UNL A   1      40.563  26.315  26.568  1.00  0.00     0.010 A 
ATOM     43  C   UNL A   1      39.567  25.760  28.689  1.00  0.00     0.010 A 
ATOM     44  C   UNL A   1      40.322  26.652  27.911  1.00  0.00    -0.014 A 
BRANCH  44  45
ATOM     45  C   UNL A   1      40.755  27.980  28.443  1.00  0.00     0.031 A 
ATOM     46  C   UNL A   1      39.775  29.027  28.914  1.00  0.00     0.074 A 
ATOM     47  C   UNL A   1      42.076  28.252  28.482  1.00  0.00     0.049 A 
ATOM     48  N   UNL A   1      40.003  30.268  29.268  1.00  0.00    -0.248 NA
ATOM     49  C   UNL A   1      38.364  28.630  29.003  1.00  0.00     0.031 C 
ATOM     50  C   UNL A   1      43.136  27.322  28.085  1.00  0.00     0.029 A 
ATOM     51  N   UNL A   1      42.756  29.384  28.862  1.00  0.00    -0.354 N 
ATOM     52  C   UNL A   1      38.766  30.816  29.598  1.00  0.00     0.074 A 
ATOM     53  C   UNL A   1      37.789  29.760  29.401  1.00  0.00     0.031 C 
ATOM     54  C   UNL A   1      44.326  27.912  28.254  1.00  0.00     0.029 A 
ATOM     55  C   UNL A   1      44.116  29.290  28.682  1.00  0.00     0.049 A 
ATOM     56  H   UNL A   1      42.313  30.183  29.228  1.00  0.00     0.167 HD
ATOM     57  C   UNL A   1      38.475  32.076  30.012  1.00  0.00     0.034 A 
ATOM     58  C   UNL A   1      45.092  30.212  28.787  1.00  0.00     0.034 A 
ATOM     59  C   UNL A   1      39.459  33.121  30.215  1.00  0.00     0.049 A 
ATOM     60  C   UNL A   1      44.738  31.616  29.185  1.00  0.00     0.074 A 
ATOM     61  C   UNL A   1      39.260  34.419  30.659  1.00  0.00     0.029 A 
ATOM     62  N   UNL A   1      40.821  32.995  29.978  1.00  0.00    -0.354 N 
ATOM     63  N   UNL A   1      43.558  32.121  29.459  1.00  0.00    -0.248 NA
ATOM     64  C   UNL A   1      45.844  32.575  29.281  1.00  0.00     0.031 C 
ATOM     65  C   UNL A   1      40.486  35.094  30.627  1.00  0.00     0.029 A 
ATOM     66  C   UNL A   1      41.466  34.199  30.232  1.00  0.00     0.049 A 
ATOM     67  H   UNL A   1      41.266  32.171  29.675  1.00  0.00     0.167 HD
ATOM     68  C   UNL A   1      43.783  33.458  29.767  1.00  0.00     0.074 A 
ATOM     69  C   UNL A   1      45.213  33.673  29.669  1.00  0.00     0.031 C 
ATOM     70  C   UNL A   1      42.886  34.420  30.101  1.00  0.00     0.034 A 
BRANCH  57  71
ATOM     71  C   UNL A   1      37.020  32.437  30.218  1.00  0.00     0.023 A 
ATOM     72  C   UNL A   1      36.265  33.105  29.240  1.00  0.00     0.031 A 
ATOM     73  C   UNL A   1      36.370  32.068  31.412  1.00  0.00     0.131 A 
ATOM     74  C   UNL A   1      34.917  33.419  29.489  1.00  0.00     0.055 A 
ATOM     75  C   UNL A   1      35.015  32.329  31.629  1.00  0.00     0.041 A 
ATOM     76  F   UNL A   1      37.043  31.437  32.388  1.00  0.00    -0.206 F 
ATOM     77  C   UNL A   1      34.283  33.017  30.668  1.00  0.00     0.022 A 
BRANCH  74  78
ATOM     78  S   UNL A   1      34.025  34.449  28.292  1.00  0.00     0.124 S 
ATOM     79  O   UNL A   1      33.867  35.697  29.036  1.00  0.00    -0.237 OA
ATOM     80  O   UNL A   1      34.946  34.490  27.164  1.00  0.00    -0.237 OA
ATOM     81  O   UNL A   1      32.785  33.711  28.060  1.00  0.00    -0.744 OA
ENDBRANCH  74  78
ENDBRANCH  57  71
BRANCH  58  82
ATOM     82  C   UNL A   1      46.491  29.850  28.425  1.00  0.00     0.023 A 
ATOM     83  C   UNL A   1      47.360  29.277  29.363  1.00  0.00     0.031 A 
ATOM     84  C   UNL A   1      46.974  30.083  27.124  1.00  0.00     0.131 A 
ATOM     85  C   UNL A   1      48.680  28.977  28.992  1.00  0.00     0.055 A 
ATOM     86  C   UNL A   1      48.270  29.733  26.746  1.00  0.00     0.041 A 
ATOM     87  F   UNL A   1      46.178  30.627  26.189  1.00  0.00    -0.206 F 
ATOM     88  C   UNL A   1      49.135  29.185  27.687  1.00  0.00     0.022 A 
BRANCH  85  89
ATOM     89  S   UNL A   1      49.820  28.368  30.263  1.00  0.00     0.124 S 
ATOM     90  O   UNL A   1      50.804  27.650  29.461  1.00  0.00    -0.237 OA
ATOM     91  O   UNL A   1      50.278  29.609  30.878  1.00  0.00    -0.237 OA
ATOM     92  O   UNL A   1      48.972  27.531  31.108  1.00  0.00    -0.744 OA
ENDBRANCH  85  89
ENDBRANCH  58  82
BRANCH  70  93
ATOM     93  C   UNL A   1      43.446  35.787  30.405  1.00  0.00     0.023 A 
ATOM     94  C   UNL A   1      43.747  36.183  31.720  1.00  0.00     0.031 A 
ATOM     95  C   UNL A   1      43.633  36.722  29.372  1.00  0.00     0.131 A 
ATOM     96  C   UNL A   1      44.163  37.499  31.976  1.00  0.00     0.055 A 
ATOM     97  C   UNL A   1      44.097  38.014  29.627  1.00  0.00     0.041 A 
ATOM     98  F   UNL A   1      43.356  36.399  28.099  1.00  0.00    -0.206 F 
ATOM     99  C   UNL A   1      44.351  38.413  30.937  1.00  0.00     0.022 A 
BRANCH  96 100
ATOM    100  S   UNL A   1      44.363  38.031  33.700  1.00  0.00     0.124 S 
ATOM    101  O   UNL A   1      45.787  37.805  33.924  1.00  0.00    -0.237 OA
ATOM    102  O   UNL A   1      43.938  39.426  33.647  1.00  0.00    -0.237 OA
ATOM    103  O   UNL A   1      43.470  37.140  34.439  1.00  0.00    -0.744 OA
ENDBRANCH  96 100
ENDBRANCH  70  93
ENDBRANCH  44  45
ENDBRANCH  37  39
ENDBRANCH  36  37
ENDBRANCH  35  36
ENDBRANCH  34  35
ENDBRANCH  33  34
ENDBRANCH  32  33
ENDBRANCH  31  32
ENDBRANCH   1  31
TORSDOF 26
ENDMDL
MODEL 3
REMARK VINA RESULT:      -6.1      7.636     10.629
REMARK SMILES COc1cc(/C=C/C(=O)c2ccc(OCC(=O)OCCOCCOCCOC(=O)c3ccc(-c4c5nc(c(-c6cc(S(=O)(=O)[O-])ccc6F)c6ccc([nH]6)c(-c6cc(S(=O)(=O)[O-])ccc6F)c6nc(c(-c7cc(S(=O)(=O)[O-])ccc7F)c7ccc4[nH]7)C=C6)C=C5)cc3)cc2)cc2c1OCCO2
REMARK SMILES IDX 21 1 20 2 19 3 18 4 16 5 17 6 15 7 14 8 13 9 10 10 11 11
REMARK SMILES IDX 94 12 12 13 93 14 8 15 9 16 7 17 6 18 5 19 3 20 4 21 97 22
REMARK SMILES IDX 96 23 98 24 95 25 101 26 99 27 100 28 2 29 1 30 22 31 23 32
REMARK SMILES IDX 24 33 25 34 26 35 27 36 28 37 29 38 30 39 31 40 92 41 32 42
REMARK SMILES IDX 91 43 33 44 34 45 35 46 85 47 36 48 90 49 84 50 86 51 37 52
REMARK SMILES IDX 89 53 83 54 82 55 38 57 70 58 50 59 69 60 51 61 54 62 68 63
REMARK SMILES IDX 87 64 52 65 53 66 67 68 88 69 55 70 39 71 40 72 48 73 41 74
REMARK SMILES IDX 47 75 49 76 46 77 42 78 43 79 44 80 45 81 71 82 72 83 80 84
REMARK SMILES IDX 73 85 79 86 81 87 78 88 74 89 75 90 76 91 77 92 56 93 57 94
REMARK SMILES IDX 65 95 58 96 64 97 66 98 63 99 59 100 60 101 61 102 62 103
REMARK H PARENT 86 56 54 67
REMARK Flexibility Score: inf
ROOT
ATOM      1  O   UNL A   1      37.810  30.951  32.521  1.00  0.00    -0.376 OA
ENDROOT
BRANCH   1   2
ATOM      2  C   UNL A   1      38.098  30.191  33.692  1.00  0.00     0.202 C 
BRANCH   2   3
ATOM      3  C   UNL A   1      39.519  30.395  34.238  1.00  0.00     0.261 C 
BRANCH   3   4
ATOM      4  O   UNL A   1      40.272  29.158  34.194  1.00  0.00    -0.461 OA
BRANCH   4   5
ATOM      5  C   UNL A   1      40.559  28.638  32.971  1.00  0.00     0.344 C 
ATOM      6  O   UNL A   1      39.992  27.658  32.497  1.00  0.00    -0.248 OA
BRANCH   5   7
ATOM      7  C   UNL A   1      41.554  29.506  32.160  1.00  0.00     0.351 C 
BRANCH   7   8
ATOM      8  O   UNL A   1      41.207  29.845  30.820  1.00  0.00    -0.482 OA
BRANCH   8   9
ATOM      9  C   UNL A   1      41.320  28.912  29.817  1.00  0.00     0.120 A 
ATOM     10  C   UNL A   1      41.063  26.785  27.928  1.00  0.00     0.022 A 
ATOM     11  C   UNL A   1      40.071  27.768  28.055  1.00  0.00     0.016 A 
ATOM     12  C   UNL A   1      42.249  26.966  28.645  1.00  0.00     0.016 A 
ATOM     13  C   UNL A   1      40.197  28.810  28.991  1.00  0.00     0.047 A 
ATOM     14  C   UNL A   1      42.382  28.038  29.572  1.00  0.00     0.047 A 
BRANCH  10  15
ATOM     15  C   UNL A   1      40.721  25.582  27.088  1.00  0.00     0.185 C 
ATOM     16  O   UNL A   1      41.539  25.178  26.266  1.00  0.00    -0.289 OA
BRANCH  15  17
ATOM     17  C   UNL A   1      39.315  25.030  27.112  1.00  0.00     0.053 C 
ATOM     18  C   UNL A   1      39.059  23.910  26.398  1.00  0.00     0.012 C 
BRANCH  18  19
ATOM     19  C   UNL A   1      37.739  23.342  26.026  1.00  0.00    -0.018 A 
ATOM     20  C   UNL A   1      36.484  21.325  25.314  1.00  0.00     0.165 A 
ATOM     21  C   UNL A   1      37.675  22.010  25.605  1.00  0.00     0.058 A 
ATOM     22  C   UNL A   1      35.278  21.967  25.561  1.00  0.00     0.203 A 
ATOM     23  C   UNL A   1      35.309  23.285  26.058  1.00  0.00     0.165 A 
ATOM     24  O   UNL A   1      34.113  21.262  25.400  1.00  0.00    -0.483 OA
ATOM     25  C   UNL A   1      36.524  23.981  26.248  1.00  0.00     0.058 A 
ATOM     26  O   UNL A   1      34.166  23.952  26.438  1.00  0.00    -0.486 OA
ATOM     27  C   UNL A   1      32.948  22.077  25.522  1.00  0.00     0.271 C 
ATOM     28  C   UNL A   1      33.096  23.034  26.688  1.00  0.00     0.271 C 
BRANCH  20  29
ATOM     29  O   UNL A   1      36.654  20.030  24.896  1.00  0.00    -0.493 OA
ATOM     30  C   UNL A   1      37.979  19.505  24.970  1.00  0.00     0.278 C 
ENDBRANCH  20  29
ENDBRANCH  18  19
ENDBRANCH  15  17
ENDBRANCH  10  15
ENDBRANCH   8   9
ENDBRANCH   7   8
ENDBRANCH   5   7
ENDBRANCH   4   5
ENDBRANCH   3   4
ENDBRANCH   2   3
ENDBRANCH   1   2
BRANCH   1  31
ATOM     31  C   UNL A   1      37.811  30.235  31.287  1.00  0.00     0.188 C 
BRANCH  31  32
ATOM     32  C   UNL A   1      36.442  29.814  30.739  1.00  0.00     0.188 C 
BRANCH  32  33
ATOM     33  O   UNL A   1      35.729  30.920  30.199  1.00  0.00    -0.376 OA
BRANCH  33  34
ATOM     34  C   UNL A   1      35.737  32.053  31.054  1.00  0.00     0.202 C 
BRANCH  34  35
ATOM     35  C   UNL A   1      36.066  33.331  30.271  1.00  0.00     0.261 C 
BRANCH  35  36
ATOM     36  O   UNL A   1      36.572  34.500  30.986  1.00  0.00    -0.460 OA
BRANCH  36  37
ATOM     37  C   UNL A   1      37.707  34.369  31.690  1.00  0.00     0.338 C 
ATOM     38  O   UNL A   1      37.766  34.339  32.920  1.00  0.00    -0.246 OA
BRANCH  37  39
ATOM     39  C   UNL A   1      38.949  34.247  30.907  1.00  0.00     0.060 A 
ATOM     40  C   UNL A   1      40.148  34.133  31.613  1.00  0.00     0.016 A 
ATOM     41  C   UNL A   1      38.987  34.560  29.546  1.00  0.00     0.016 A 
ATOM     42  C   UNL A   1      41.370  34.392  30.985  1.00  0.00     0.010 A 
ATOM     43  C   UNL A   1      40.221  34.766  28.902  1.00  0.00     0.010 A 
ATOM     44  C   UNL A   1      41.429  34.696  29.615  1.00  0.00    -0.014 A 
BRANCH  44  45
ATOM     45  C   UNL A   1      42.750  34.814  28.926  1.00  0.00     0.031 A 
ATOM     46  C   UNL A   1      43.685  33.642  28.753  1.00  0.00     0.074 A 
ATOM     47  C   UNL A   1      43.121  36.024  28.460  1.00  0.00     0.049 A 
ATOM     48  N   UNL A   1      44.915  33.630  28.300  1.00  0.00    -0.248 NA
ATOM     49  C   UNL A   1      43.175  32.318  29.131  1.00  0.00     0.031 C 
ATOM     50  C   UNL A   1      42.303  37.238  28.533  1.00  0.00     0.029 A 
ATOM     51  N   UNL A   1      44.276  36.442  27.843  1.00  0.00    -0.354 N 
ATOM     52  C   UNL A   1      45.343  32.306  28.361  1.00  0.00     0.074 A 
ATOM     53  C   UNL A   1      44.230  31.544  28.895  1.00  0.00     0.031 C 
ATOM     54  C   UNL A   1      42.972  38.255  27.973  1.00  0.00     0.029 A 
ATOM     55  C   UNL A   1      44.299  37.793  27.585  1.00  0.00     0.049 A 
ATOM     56  H   UNL A   1      45.013  35.833  27.608  1.00  0.00     0.167 HD
ATOM     57  C   UNL A   1      46.549  31.783  28.016  1.00  0.00     0.034 A 
ATOM     58  C   UNL A   1      45.286  38.596  27.142  1.00  0.00     0.034 A 
ATOM     59  C   UNL A   1      47.651  32.552  27.474  1.00  0.00     0.049 A 
ATOM     60  C   UNL A   1      46.630  38.004  26.827  1.00  0.00     0.074 A 
ATOM     61  C   UNL A   1      48.899  32.103  27.069  1.00  0.00     0.029 A 
ATOM     62  N   UNL A   1      47.647  33.925  27.270  1.00  0.00    -0.354 N 
ATOM     63  N   UNL A   1      47.023  36.756  26.925  1.00  0.00    -0.248 NA
ATOM     64  C   UNL A   1      47.663  38.930  26.351  1.00  0.00     0.031 C 
ATOM     65  C   UNL A   1      49.668  33.209  26.686  1.00  0.00     0.029 A 
ATOM     66  C   UNL A   1      48.879  34.342  26.782  1.00  0.00     0.049 A 
ATOM     67  H   UNL A   1      46.881  34.518  27.446  1.00  0.00     0.167 HD
ATOM     68  C   UNL A   1      48.351  36.747  26.513  1.00  0.00     0.074 A 
ATOM     69  C   UNL A   1      48.683  38.109  26.145  1.00  0.00     0.031 C 
ATOM     70  C   UNL A   1      49.217  35.705  26.447  1.00  0.00     0.034 A 
BRANCH  57  71
ATOM     71  C   UNL A   1      46.781  30.310  28.269  1.00  0.00     0.023 A 
ATOM     72  C   UNL A   1      46.560  29.333  27.284  1.00  0.00     0.031 A 
ATOM     73  C   UNL A   1      47.269  29.884  29.520  1.00  0.00     0.131 A 
ATOM     74  C   UNL A   1      46.788  27.978  27.579  1.00  0.00     0.055 A 
ATOM     75  C   UNL A   1      47.550  28.542  29.787  1.00  0.00     0.041 A 
ATOM     76  F   UNL A   1      47.489  30.771  30.504  1.00  0.00    -0.206 F 
ATOM     77  C   UNL A   1      47.300  27.579  28.817  1.00  0.00     0.022 A 
BRANCH  74  78
ATOM     78  S   UNL A   1      46.310  26.725  26.356  1.00  0.00     0.124 S 
ATOM     79  O   UNL A   1      46.033  27.550  25.182  1.00  0.00    -0.237 OA
ATOM     80  O   UNL A   1      47.501  25.888  26.283  1.00  0.00    -0.237 OA
ATOM     81  O   UNL A   1      45.137  26.091  26.954  1.00  0.00    -0.744 OA
ENDBRANCH  74  78
ENDBRANCH  57  71
BRANCH  58  82
ATOM     82  C   UNL A   1      45.057  40.065  27.055  1.00  0.00     0.023 A 
ATOM     83  C   UNL A   1      44.667  40.670  25.852  1.00  0.00     0.031 A 
ATOM     84  C   UNL A   1      45.234  40.884  28.185  1.00  0.00     0.131 A 
ATOM     85  C   UNL A   1      44.491  42.061  25.802  1.00  0.00     0.055 A 
ATOM     86  C   UNL A   1      45.004  42.259  28.143  1.00  0.00     0.041 A 
ATOM     87  F   UNL A   1      45.604  40.350  29.361  1.00  0.00    -0.206 F 
ATOM     88  C   UNL A   1      44.640  42.856  26.942  1.00  0.00     0.022 A 
BRANCH  85  89
ATOM     89  S   UNL A   1      44.124  42.831  24.202  1.00  0.00     0.124 S 
ATOM     90  O   UNL A   1      42.946  42.084  23.776  1.00  0.00    -0.237 OA
ATOM     91  O   UNL A   1      43.898  44.221  24.581  1.00  0.00    -0.237 OA
ATOM     92  O   UNL A   1      45.334  42.588  23.421  1.00  0.00    -0.744 OA
ENDBRANCH  85  89
ENDBRANCH  58  82
BRANCH  70  93
ATOM     93  C   UNL A   1      50.601  36.010  25.932  1.00  0.00     0.023 A 
ATOM     94  C   UNL A   1      51.704  36.108  26.798  1.00  0.00     0.031 A 
ATOM     95  C   UNL A   1      50.810  36.257  24.564  1.00  0.00     0.131 A 
ATOM     96  C   UNL A   1      52.955  36.501  26.297  1.00  0.00     0.055 A 
ATOM     97  C   UNL A   1      52.068  36.596  24.062  1.00  0.00     0.041 A 
ATOM     98  F   UNL A   1      49.791  36.183  23.693  1.00  0.00    -0.206 F 
ATOM     99  C   UNL A   1      53.147  36.734  24.933  1.00  0.00     0.022 A 
BRANCH  96 100
ATOM    100  S   UNL A   1      54.310  36.797  27.468  1.00  0.00     0.124 S 
ATOM    101  O   UNL A   1      55.199  37.656  26.692  1.00  0.00    -0.237 OA
ATOM    102  O   UNL A   1      53.621  37.434  28.586  1.00  0.00    -0.237 OA
ATOM    103  O   UNL A   1      54.825  35.457  27.742  1.00  0.00    -0.744 OA
ENDBRANCH  96 100
ENDBRANCH  70  93
ENDBRANCH  44  45
ENDBRANCH  37  39
ENDBRANCH  36  37
ENDBRANCH  35  36
ENDBRANCH  34  35
ENDBRANCH  33  34
ENDBRANCH  32  33
ENDBRANCH  31  32
ENDBRANCH   1  31
TORSDOF 26
ENDMDL
