MODEL 1
REMARK VINA RESULT:     -10.0      0.000      0.000
REMARK SMILES CC1(C)Cc2c(-c3ccccc3)c(-c3ccc(Cl)cc3)c(CC(=O)OCCOCCOCCOC(=O)c3ccc(-c4c5nc(c(-c6cc(S(=O)(=O)[O-])ccc6F)c6ccc([nH]6)c(-c6cc(S(=O)(=O)[O-])ccc6F)c6nc(c(-c7cc(S(=O)(=O)[O-])ccc7F)c7ccc4[nH]7)C=C6)C=C5)cc3)n2C1
REMARK SMILES IDX 30 1 29 2 28 3 27 4 26 5 25 6 23 7 24 8 22 9 21 10 1 11 2 12
REMARK SMILES IDX 3 13 4 14 101 15 5 16 100 17 6 18 13 19 7 20 8 21 12 22 9 23
REMARK SMILES IDX 11 24 10 25 14 26 15 27 20 28 16 29 19 30 17 31 18 32 31 33
REMARK SMILES IDX 32 34 33 35 34 36 35 37 36 38 37 39 38 40 99 41 39 42 98 43
REMARK SMILES IDX 40 44 41 45 42 46 92 47 43 48 97 49 91 50 93 51 44 52 96 53
REMARK SMILES IDX 90 54 89 55 45 57 77 58 57 59 76 60 58 61 61 62 75 63 94 64
REMARK SMILES IDX 59 65 60 66 74 68 95 69 62 70 46 71 47 72 55 73 48 74 54 75
REMARK SMILES IDX 56 76 53 77 49 78 50 79 51 80 52 81 78 82 79 83 87 84 80 85
REMARK SMILES IDX 86 86 88 87 85 88 81 89 82 90 83 91 84 92 63 93 64 94 72 95
REMARK SMILES IDX 65 96 71 97 73 98 70 99 66 100 67 101 68 102 69 103
REMARK H PARENT 93 56 61 67
REMARK Flexibility Score: inf
ROOT
ATOM      1  C   UNL A   1      42.570  21.490  25.959  1.00  0.00     0.188 C 
ENDROOT
BRANCH   1   2
ATOM      2  C   UNL A   1      41.045  21.584  26.251  1.00  0.00     0.188 C 
BRANCH   2   3
ATOM      3  O   UNL A   1      40.629  22.361  27.346  1.00  0.00    -0.376 OA
BRANCH   3   4
ATOM      4  C   UNL A   1      40.240  23.663  26.968  1.00  0.00     0.202 C 
BRANCH   4   5
ATOM      5  C   UNL A   1      38.721  24.048  27.164  1.00  0.00     0.261 C 
BRANCH   5   6
ATOM      6  O   UNL A   1      37.880  24.380  25.967  1.00  0.00    -0.463 OA
BRANCH   6   7
ATOM      7  C   UNL A   1      36.923  23.540  25.462  1.00  0.00     0.311 C 
ATOM      8  O   UNL A   1      37.261  22.640  24.686  1.00  0.00    -0.252 OA
BRANCH   7   9
ATOM      9  C   UNL A   1      35.384  23.570  26.000  1.00  0.00     0.177 C 
BRANCH   9  10
ATOM     10  C   UNL A   1      34.084  24.282  25.392  1.00  0.00     0.037 A 
ATOM     11  C   UNL A   1      31.898  20.945  22.309  1.00  0.00     0.013 C 
ATOM     12  C   UNL A   1      32.662  22.257  22.546  1.00  0.00    -0.012 C 
ATOM     13  C   UNL A   1      33.479  22.567  21.278  1.00  0.00     0.013 C 
ATOM     14  C   UNL A   1      31.663  23.410  22.839  1.00  0.00     0.063 C 
ATOM     15  C   UNL A   1      33.588  22.214  23.811  1.00  0.00     0.129 C 
ATOM     16  C   UNL A   1      32.322  24.157  23.937  1.00  0.00     0.027 A 
ATOM     17  N   UNL A   1      33.396  23.522  24.452  1.00  0.00    -0.346 N 
ATOM     18  C   UNL A   1      32.174  25.366  24.543  1.00  0.00     0.011 A 
ATOM     19  C   UNL A   1      33.231  25.508  25.585  1.00  0.00     0.011 A 
BRANCH  18  20
ATOM     20  C   UNL A   1      31.195  26.284  23.984  1.00  0.00    -0.016 A 
ATOM     21  C   UNL A   1      29.854  26.228  24.366  1.00  0.00     0.009 A 
ATOM     22  C   UNL A   1      31.617  27.283  23.095  1.00  0.00     0.009 A 
ATOM     23  C   UNL A   1      28.990  27.259  23.989  1.00  0.00     0.001 A 
ATOM     24  C   UNL A   1      30.780  28.355  22.791  1.00  0.00     0.001 A 
ATOM     25  C   UNL A   1      29.468  28.350  23.256  1.00  0.00     0.000 A 
ENDBRANCH  18  20
BRANCH  19  26
ATOM     26  C   UNL A   1      33.412  26.966  26.395  1.00  0.00    -0.016 A 
ATOM     27  C   UNL A   1      32.066  27.413  27.571  1.00  0.00     0.010 A 
ATOM     28  C   UNL A   1      34.132  28.294  25.443  1.00  0.00     0.010 A 
ATOM     29  C   UNL A   1      31.315  29.103  27.599  1.00  0.00     0.021 A 
ATOM     30  C   UNL A   1      33.440  29.981  25.418  1.00  0.00     0.021 A 
ATOM     31  C   UNL A   1      31.984  30.399  26.503  1.00  0.00     0.041 A 
ATOM     32  Cl  UNL A   1      31.216  31.932  26.370  1.00  0.00    -0.084 Cl
ENDBRANCH  19  26
ENDBRANCH   9  10
ENDBRANCH   7   9
ENDBRANCH   6   7
ENDBRANCH   5   6
ENDBRANCH   4   5
ENDBRANCH   3   4
ENDBRANCH   2   3
ENDBRANCH   1   2
BRANCH   1  33
ATOM     33  O   UNL A   1      43.052  22.010  24.753  1.00  0.00    -0.376 OA
BRANCH  33  34
ATOM     34  C   UNL A   1      43.865  23.155  24.780  1.00  0.00     0.202 C 
BRANCH  34  35
ATOM     35  C   UNL A   1      44.109  23.952  26.053  1.00  0.00     0.261 C 
BRANCH  35  36
ATOM     36  O   UNL A   1      45.284  24.772  26.078  1.00  0.00    -0.460 OA
BRANCH  36  37
ATOM     37  C   UNL A   1      45.231  26.077  26.879  1.00  0.00     0.338 C 
ATOM     38  O   UNL A   1      46.218  25.846  27.636  1.00  0.00    -0.246 OA
BRANCH  37  39
ATOM     39  C   UNL A   1      43.705  27.561  26.792  1.00  0.00     0.060 A 
ATOM     40  C   UNL A   1      43.722  29.009  26.426  1.00  0.00     0.016 A 
ATOM     41  C   UNL A   1      42.419  27.634  27.504  1.00  0.00     0.016 A 
ATOM     42  C   UNL A   1      43.457  30.086  27.383  1.00  0.00     0.010 A 
ATOM     43  C   UNL A   1      42.080  28.712  28.317  1.00  0.00     0.010 A 
ATOM     44  C   UNL A   1      42.942  29.749  28.617  1.00  0.00    -0.014 A 
BRANCH  44  45
ATOM     45  C   UNL A   1      42.510  30.555  29.857  1.00  0.00     0.031 A 
ATOM     46  C   UNL A   1      42.465  29.558  30.971  1.00  0.00     0.074 A 
ATOM     47  C   UNL A   1      42.429  31.896  30.201  1.00  0.00     0.049 A 
ATOM     48  N   UNL A   1      41.558  28.625  31.034  1.00  0.00    -0.248 NA
ATOM     49  C   UNL A   1      43.730  29.182  31.673  1.00  0.00     0.031 C 
ATOM     50  C   UNL A   1      42.642  33.115  29.405  1.00  0.00     0.029 A 
ATOM     51  N   UNL A   1      42.123  32.484  31.447  1.00  0.00    -0.354 N 
ATOM     52  C   UNL A   1      41.993  27.836  32.078  1.00  0.00     0.074 A 
ATOM     53  C   UNL A   1      43.415  27.920  32.008  1.00  0.00     0.031 C 
ATOM     54  C   UNL A   1      42.655  34.236  30.193  1.00  0.00     0.029 A 
ATOM     55  C   UNL A   1      42.343  33.900  31.580  1.00  0.00     0.049 A 
ATOM     56  H   UNL A   1      41.775  31.947  32.196  1.00  0.00     0.167 HD
ATOM     57  C   UNL A   1      41.243  27.752  33.209  1.00  0.00     0.034 A 
ATOM     58  C   UNL A   1      42.154  34.748  32.679  1.00  0.00     0.034 A 
ATOM     59  C   UNL A   1      39.911  28.298  32.947  1.00  0.00     0.049 A 
ATOM     60  C   UNL A   1      41.186  34.066  33.566  1.00  0.00     0.074 A 
ATOM     61  C   UNL A   1      38.934  28.110  31.982  1.00  0.00     0.029 A 
ATOM     62  N   UNL A   1      39.662  29.541  33.482  1.00  0.00    -0.354 N 
ATOM     63  N   UNL A   1      39.949  33.855  33.226  1.00  0.00    -0.248 NA
ATOM     64  C   UNL A   1      41.754  33.142  34.526  1.00  0.00     0.031 C 
ATOM     65  C   UNL A   1      38.416  29.414  31.697  1.00  0.00     0.029 A 
ATOM     66  C   UNL A   1      38.968  30.324  32.597  1.00  0.00     0.049 A 
ATOM     67  H   UNL A   1      39.946  29.829  34.378  1.00  0.00     0.167 HD
ATOM     68  C   UNL A   1      39.764  32.508  33.483  1.00  0.00     0.074 A 
ATOM     69  C   UNL A   1      40.905  32.130  34.328  1.00  0.00     0.031 C 
ATOM     70  C   UNL A   1      38.911  31.772  32.706  1.00  0.00     0.034 A 
BRANCH  57  71
ATOM     71  C   UNL A   1      41.860  27.739  34.610  1.00  0.00     0.023 A 
ATOM     72  C   UNL A   1      42.427  28.951  35.024  1.00  0.00     0.031 A 
ATOM     73  C   UNL A   1      42.159  26.623  35.443  1.00  0.00     0.131 A 
ATOM     74  C   UNL A   1      43.330  28.996  36.099  1.00  0.00     0.055 A 
ATOM     75  C   UNL A   1      43.028  26.683  36.533  1.00  0.00     0.041 A 
ATOM     76  F   UNL A   1      41.692  25.387  35.258  1.00  0.00    -0.206 F 
ATOM     77  C   UNL A   1      43.642  27.871  36.853  1.00  0.00     0.022 A 
BRANCH  74  78
ATOM     78  S   UNL A   1      44.211  30.541  36.386  1.00  0.00     0.124 S 
ATOM     79  O   UNL A   1      44.494  30.961  35.019  1.00  0.00    -0.237 OA
ATOM     80  O   UNL A   1      43.210  31.320  37.108  1.00  0.00    -0.237 OA
ATOM     81  O   UNL A   1      45.367  30.125  37.175  1.00  0.00    -0.744 OA
ENDBRANCH  74  78
ENDBRANCH  57  71
BRANCH  58  82
ATOM     82  C   UNL A   1      42.951  35.934  33.281  1.00  0.00     0.023 A 
ATOM     83  C   UNL A   1      44.053  36.649  32.660  1.00  0.00     0.031 A 
ATOM     84  C   UNL A   1      42.380  36.589  34.384  1.00  0.00     0.131 A 
ATOM     85  C   UNL A   1      44.494  37.929  33.153  1.00  0.00     0.055 A 
ATOM     86  C   UNL A   1      42.795  37.855  34.834  1.00  0.00     0.041 A 
ATOM     87  F   UNL A   1      41.328  36.057  35.020  1.00  0.00    -0.206 F 
ATOM     88  C   UNL A   1      43.836  38.533  34.220  1.00  0.00     0.022 A 
BRANCH  85  89
ATOM     89  S   UNL A   1      45.896  38.913  32.427  1.00  0.00     0.124 S 
ATOM     90  O   UNL A   1      46.062  39.997  33.388  1.00  0.00    -0.237 OA
ATOM     91  O   UNL A   1      46.980  37.941  32.348  1.00  0.00    -0.237 OA
ATOM     92  O   UNL A   1      45.381  39.343  31.123  1.00  0.00    -0.744 OA
ENDBRANCH  85  89
ENDBRANCH  58  82
BRANCH  70  93
ATOM     93  C   UNL A   1      37.897  32.520  31.851  1.00  0.00     0.023 A 
ATOM     94  C   UNL A   1      36.670  33.089  32.282  1.00  0.00     0.031 A 
ATOM     95  C   UNL A   1      38.235  32.675  30.495  1.00  0.00     0.131 A 
ATOM     96  C   UNL A   1      35.833  33.750  31.354  1.00  0.00     0.055 A 
ATOM     97  C   UNL A   1      37.422  33.353  29.591  1.00  0.00     0.041 A 
ATOM     98  F   UNL A   1      39.385  32.168  30.020  1.00  0.00    -0.206 F 
ATOM     99  C   UNL A   1      36.211  33.882  30.014  1.00  0.00     0.022 A 
BRANCH  96 100
ATOM    100  S   UNL A   1      34.195  34.397  31.841  1.00  0.00     0.124 S 
ATOM    101  O   UNL A   1      34.497  35.709  32.397  1.00  0.00    -0.237 OA
ATOM    102  O   UNL A   1      33.465  34.393  30.575  1.00  0.00    -0.237 OA
ATOM    103  O   UNL A   1      33.716  33.415  32.817  1.00  0.00    -0.744 OA
ENDBRANCH  96 100
ENDBRANCH  70  93
ENDBRANCH  44  45
ENDBRANCH  37  39
ENDBRANCH  36  37
ENDBRANCH  35  36
ENDBRANCH  34  35
ENDBRANCH  33  34
ENDBRANCH   1  33
TORSDOF 23
ENDMDL
MODEL 2
REMARK VINA RESULT:      -9.5      5.904     12.543
REMARK SMILES CC1(C)Cc2c(-c3ccccc3)c(-c3ccc(Cl)cc3)c(CC(=O)OCCOCCOCCOC(=O)c3ccc(-c4c5nc(c(-c6cc(S(=O)(=O)[O-])ccc6F)c6ccc([nH]6)c(-c6cc(S(=O)(=O)[O-])ccc6F)c6nc(c(-c7cc(S(=O)(=O)[O-])ccc7F)c7ccc4[nH]7)C=C6)C=C5)cc3)n2C1
REMARK SMILES IDX 30 1 29 2 28 3 27 4 26 5 25 6 23 7 24 8 22 9 21 10 1 11 2 12
REMARK SMILES IDX 3 13 4 14 101 15 5 16 100 17 6 18 13 19 7 20 8 21 12 22 9 23
REMARK SMILES IDX 11 24 10 25 14 26 15 27 20 28 16 29 19 30 17 31 18 32 31 33
REMARK SMILES IDX 32 34 33 35 34 36 35 37 36 38 37 39 38 40 99 41 39 42 98 43
REMARK SMILES IDX 40 44 41 45 42 46 92 47 43 48 97 49 91 50 93 51 44 52 96 53
REMARK SMILES IDX 90 54 89 55 45 57 77 58 57 59 76 60 58 61 61 62 75 63 94 64
REMARK SMILES IDX 59 65 60 66 74 68 95 69 62 70 46 71 47 72 55 73 48 74 54 75
REMARK SMILES IDX 56 76 53 77 49 78 50 79 51 80 52 81 78 82 79 83 87 84 80 85
REMARK SMILES IDX 86 86 88 87 85 88 81 89 82 90 83 91 84 92 63 93 64 94 72 95
REMARK SMILES IDX 65 96 71 97 73 98 70 99 66 100 67 101 68 102 69 103
REMARK H PARENT 93 56 61 67
REMARK Flexibility Score: inf
ROOT
ATOM      1  C   UNL A   1      37.766  33.677  30.324  1.00  0.00     0.188 C 
ENDROOT
BRANCH   1   2
ATOM      2  C   UNL A   1      36.668  33.868  29.239  1.00  0.00     0.188 C 
BRANCH   2   3
ATOM      3  O   UNL A   1      35.360  34.152  29.667  1.00  0.00    -0.376 OA
BRANCH   3   4
ATOM      4  C   UNL A   1      34.481  33.064  29.478  1.00  0.00     0.202 C 
BRANCH   4   5
ATOM      5  C   UNL A   1      35.055  31.792  28.739  1.00  0.00     0.261 C 
BRANCH   5   6
ATOM      6  O   UNL A   1      35.644  30.671  29.542  1.00  0.00    -0.463 OA
BRANCH   6   7
ATOM      7  C   UNL A   1      36.592  29.811  29.053  1.00  0.00     0.311 C 
ATOM      8  O   UNL A   1      36.791  29.765  27.834  1.00  0.00    -0.252 OA
BRANCH   7   9
ATOM      9  C   UNL A   1      37.595  28.986  30.040  1.00  0.00     0.177 C 
BRANCH   9  10
ATOM     10  C   UNL A   1      39.190  29.030  30.171  1.00  0.00     0.037 A 
ATOM     11  C   UNL A   1      41.051  26.462  26.252  1.00  0.00     0.013 C 
ATOM     12  C   UNL A   1      40.796  26.616  27.760  1.00  0.00    -0.012 C 
ATOM     13  C   UNL A   1      40.740  25.207  28.379  1.00  0.00     0.013 C 
ATOM     14  C   UNL A   1      41.935  27.446  28.411  1.00  0.00     0.063 C 
ATOM     15  C   UNL A   1      39.490  27.422  28.086  1.00  0.00     0.129 C 
ATOM     16  C   UNL A   1      41.211  28.331  29.354  1.00  0.00     0.027 A 
ATOM     17  N   UNL A   1      39.870  28.299  29.204  1.00  0.00    -0.346 N 
ATOM     18  C   UNL A   1      41.531  29.143  30.399  1.00  0.00     0.011 A 
ATOM     19  C   UNL A   1      40.275  29.728  30.949  1.00  0.00     0.011 A 
BRANCH  18  20
ATOM     20  C   UNL A   1      42.914  29.148  30.847  1.00  0.00    -0.016 A 
ATOM     21  C   UNL A   1      43.890  29.879  30.169  1.00  0.00     0.009 A 
ATOM     22  C   UNL A   1      43.260  28.458  32.019  1.00  0.00     0.009 A 
ATOM     23  C   UNL A   1      45.149  30.046  30.750  1.00  0.00     0.001 A 
ATOM     24  C   UNL A   1      44.485  28.696  32.640  1.00  0.00     0.001 A 
ATOM     25  C   UNL A   1      45.424  29.508  32.010  1.00  0.00     0.000 A 
ENDBRANCH  18  20
BRANCH  19  26
ATOM     26  C   UNL A   1      40.329  30.646  32.352  1.00  0.00    -0.016 A 
ATOM     27  C   UNL A   1      41.022  29.813  33.841  1.00  0.00     0.010 A 
ATOM     28  C   UNL A   1      38.945  31.746  32.607  1.00  0.00     0.010 A 
ATOM     29  C   UNL A   1      40.188  29.904  35.489  1.00  0.00     0.021 A 
ATOM     30  C   UNL A   1      38.071  31.881  34.203  1.00  0.00     0.021 A 
ATOM     31  C   UNL A   1      38.687  30.925  35.679  1.00  0.00     0.041 A 
ATOM     32  Cl  UNL A   1      37.782  30.911  37.141  1.00  0.00    -0.084 Cl
ENDBRANCH  19  26
ENDBRANCH   9  10
ENDBRANCH   7   9
ENDBRANCH   6   7
ENDBRANCH   5   6
ENDBRANCH   4   5
ENDBRANCH   3   4
ENDBRANCH   2   3
ENDBRANCH   1   2
BRANCH   1  33
ATOM     33  O   UNL A   1      38.491  34.798  30.743  1.00  0.00    -0.376 OA
BRANCH  33  34
ATOM     34  C   UNL A   1      39.838  34.919  30.364  1.00  0.00     0.202 C 
BRANCH  34  35
ATOM     35  C   UNL A   1      40.686  33.719  29.972  1.00  0.00     0.261 C 
BRANCH  35  36
ATOM     36  O   UNL A   1      41.809  33.980  29.120  1.00  0.00    -0.460 OA
BRANCH  36  37
ATOM     37  C   UNL A   1      43.119  33.242  29.413  1.00  0.00     0.338 C 
ATOM     38  O   UNL A   1      42.871  32.936  30.615  1.00  0.00    -0.246 OA
BRANCH  37  39
ATOM     39  C   UNL A   1      44.828  33.134  28.146  1.00  0.00     0.060 A 
ATOM     40  C   UNL A   1      45.003  32.744  26.714  1.00  0.00     0.016 A 
ATOM     41  C   UNL A   1      46.248  32.957  28.490  1.00  0.00     0.016 A 
ATOM     42  C   UNL A   1      45.733  31.549  26.287  1.00  0.00     0.010 A 
ATOM     43  C   UNL A   1      47.008  31.904  27.991  1.00  0.00     0.010 A 
ATOM     44  C   UNL A   1      46.490  30.878  27.223  1.00  0.00    -0.014 A 
BRANCH  44  45
ATOM     45  C   UNL A   1      47.401  29.636  27.179  1.00  0.00     0.031 A 
ATOM     46  C   UNL A   1      46.479  28.488  26.917  1.00  0.00     0.074 A 
ATOM     47  C   UNL A   1      48.763  29.397  27.063  1.00  0.00     0.049 A 
ATOM     48  N   UNL A   1      45.630  28.060  27.808  1.00  0.00    -0.248 NA
ATOM     49  C   UNL A   1      46.042  28.200  25.517  1.00  0.00     0.031 C 
ATOM     50  C   UNL A   1      49.910  30.317  27.049  1.00  0.00     0.029 A 
ATOM     51  N   UNL A   1      49.447  28.172  26.910  1.00  0.00    -0.354 N 
ATOM     52  C   UNL A   1      44.871  27.150  27.103  1.00  0.00     0.074 A 
ATOM     53  C   UNL A   1      44.832  27.678  25.780  1.00  0.00     0.031 C 
ATOM     54  C   UNL A   1      51.071  29.671  26.714  1.00  0.00     0.029 A 
ATOM     55  C   UNL A   1      50.845  28.235  26.576  1.00  0.00     0.049 A 
ATOM     56  H   UNL A   1      48.986  27.310  27.027  1.00  0.00     0.167 HD
ATOM     57  C   UNL A   1      44.916  25.834  27.448  1.00  0.00     0.034 A 
ATOM     58  C   UNL A   1      51.769  27.208  26.345  1.00  0.00     0.034 A 
ATOM     59  C   UNL A   1      45.555  25.700  28.757  1.00  0.00     0.049 A 
ATOM     60  C   UNL A   1      51.224  26.003  27.010  1.00  0.00     0.074 A 
ATOM     61  C   UNL A   1      45.392  26.281  30.004  1.00  0.00     0.029 A 
ATOM     62  N   UNL A   1      46.844  25.219  28.744  1.00  0.00    -0.354 N 
ATOM     63  N   UNL A   1      51.096  25.909  28.301  1.00  0.00    -0.248 NA
ATOM     64  C   UNL A   1      50.314  25.204  26.216  1.00  0.00     0.031 C 
ATOM     65  C   UNL A   1      46.715  26.492  30.509  1.00  0.00     0.029 A 
ATOM     66  C   UNL A   1      47.628  25.896  29.641  1.00  0.00     0.049 A 
ATOM     67  H   UNL A   1      47.160  24.488  28.167  1.00  0.00     0.167 HD
ATOM     68  C   UNL A   1      49.787  25.496  28.471  1.00  0.00     0.074 A 
ATOM     69  C   UNL A   1      49.367  25.033  27.142  1.00  0.00     0.031 C 
ATOM     70  C   UNL A   1      49.080  25.895  29.573  1.00  0.00     0.034 A 
BRANCH  57  71
ATOM     71  C   UNL A   1      44.936  24.710  26.409  1.00  0.00     0.023 A 
ATOM     72  C   UNL A   1      43.844  23.834  26.457  1.00  0.00     0.031 A 
ATOM     73  C   UNL A   1      46.009  24.283  25.576  1.00  0.00     0.131 A 
ATOM     74  C   UNL A   1      43.899  22.576  25.833  1.00  0.00     0.055 A 
ATOM     75  C   UNL A   1      46.041  23.048  24.928  1.00  0.00     0.041 A 
ATOM     76  F   UNL A   1      47.125  24.981  25.353  1.00  0.00    -0.206 F 
ATOM     77  C   UNL A   1      44.991  22.172  25.075  1.00  0.00     0.022 A 
BRANCH  74  78
ATOM     78  S   UNL A   1      42.564  21.415  26.173  1.00  0.00     0.124 S 
ATOM     79  O   UNL A   1      42.965  20.279  25.354  1.00  0.00    -0.237 OA
ATOM     80  O   UNL A   1      42.682  21.246  27.617  1.00  0.00    -0.237 OA
ATOM     81  O   UNL A   1      41.375  22.134  25.722  1.00  0.00    -0.744 OA
ENDBRANCH  74  78
ENDBRANCH  57  71
BRANCH  58  82
ATOM     82  C   UNL A   1      52.918  26.994  25.327  1.00  0.00     0.023 A 
ATOM     83  C   UNL A   1      52.811  26.991  23.878  1.00  0.00     0.031 A 
ATOM     84  C   UNL A   1      54.230  27.119  25.813  1.00  0.00     0.131 A 
ATOM     85  C   UNL A   1      53.973  27.119  23.036  1.00  0.00     0.055 A 
ATOM     86  C   UNL A   1      55.353  27.279  24.982  1.00  0.00     0.041 A 
ATOM     87  F   UNL A   1      54.463  27.179  27.131  1.00  0.00    -0.206 F 
ATOM     88  C   UNL A   1      55.232  27.292  23.602  1.00  0.00     0.022 A 
BRANCH  85  89
ATOM     89  S   UNL A   1      53.933  27.119  21.176  1.00  0.00     0.124 S 
ATOM     90  O   UNL A   1      55.221  26.533  20.824  1.00  0.00    -0.237 OA
ATOM     91  O   UNL A   1      52.750  26.326  20.868  1.00  0.00    -0.237 OA
ATOM     92  O   UNL A   1      53.809  28.539  20.831  1.00  0.00    -0.744 OA
ENDBRANCH  85  89
ENDBRANCH  58  82
BRANCH  70  93
ATOM     93  C   UNL A   1      49.857  26.438  30.764  1.00  0.00     0.023 A 
ATOM     94  C   UNL A   1      50.107  27.802  31.071  1.00  0.00     0.031 A 
ATOM     95  C   UNL A   1      50.357  25.477  31.659  1.00  0.00     0.131 A 
ATOM     96  C   UNL A   1      50.857  28.142  32.221  1.00  0.00     0.055 A 
ATOM     97  C   UNL A   1      51.069  25.817  32.806  1.00  0.00     0.041 A 
ATOM     98  F   UNL A   1      50.152  24.169  31.435  1.00  0.00    -0.206 F 
ATOM     99  C   UNL A   1      51.333  27.151  33.085  1.00  0.00     0.022 A 
BRANCH  96 100
ATOM    100  S   UNL A   1      51.298  29.875  32.593  1.00  0.00     0.124 S 
ATOM    101  O   UNL A   1      52.745  29.831  32.762  1.00  0.00    -0.237 OA
ATOM    102  O   UNL A   1      50.814  30.584  31.410  1.00  0.00    -0.237 OA
ATOM    103  O   UNL A   1      50.549  30.163  33.819  1.00  0.00    -0.744 OA
ENDBRANCH  96 100
ENDBRANCH  70  93
ENDBRANCH  44  45
ENDBRANCH  37  39
ENDBRANCH  36  37
ENDBRANCH  35  36
ENDBRANCH  34  35
ENDBRANCH  33  34
ENDBRANCH   1  33
TORSDOF 23
ENDMDL
MODEL 3
REMARK VINA RESULT:      -9.5      5.836     12.633
REMARK SMILES CC1(C)Cc2c(-c3ccccc3)c(-c3ccc(Cl)cc3)c(CC(=O)OCCOCCOCCOC(=O)c3ccc(-c4c5nc(c(-c6cc(S(=O)(=O)[O-])ccc6F)c6ccc([nH]6)c(-c6cc(S(=O)(=O)[O-])ccc6F)c6nc(c(-c7cc(S(=O)(=O)[O-])ccc7F)c7ccc4[nH]7)C=C6)C=C5)cc3)n2C1
REMARK SMILES IDX 30 1 29 2 28 3 27 4 26 5 25 6 23 7 24 8 22 9 21 10 1 11 2 12
REMARK SMILES IDX 3 13 4 14 101 15 5 16 100 17 6 18 13 19 7 20 8 21 12 22 9 23
REMARK SMILES IDX 11 24 10 25 14 26 15 27 20 28 16 29 19 30 17 31 18 32 31 33
REMARK SMILES IDX 32 34 33 35 34 36 35 37 36 38 37 39 38 40 99 41 39 42 98 43
REMARK SMILES IDX 40 44 41 45 42 46 92 47 43 48 97 49 91 50 93 51 44 52 96 53
REMARK SMILES IDX 90 54 89 55 45 57 77 58 57 59 76 60 58 61 61 62 75 63 94 64
REMARK SMILES IDX 59 65 60 66 74 68 95 69 62 70 46 71 47 72 55 73 48 74 54 75
REMARK SMILES IDX 56 76 53 77 49 78 50 79 51 80 52 81 78 82 79 83 87 84 80 85
REMARK SMILES IDX 86 86 88 87 85 88 81 89 82 90 83 91 84 92 63 93 64 94 72 95
REMARK SMILES IDX 65 96 71 97 73 98 70 99 66 100 67 101 68 102 69 103
REMARK H PARENT 93 56 61 67
REMARK Flexibility Score: inf
ROOT
ATOM      1  C   UNL A   1      40.819  35.593  35.789  1.00  0.00     0.188 C 
ENDROOT
BRANCH   1   2
ATOM      2  C   UNL A   1      39.732  35.998  36.825  1.00  0.00     0.188 C 
BRANCH   2   3
ATOM      3  O   UNL A   1      40.060  35.916  38.190  1.00  0.00    -0.376 OA
BRANCH   3   4
ATOM      4  C   UNL A   1      40.873  34.801  38.484  1.00  0.00     0.202 C 
BRANCH   4   5
ATOM      5  C   UNL A   1      40.145  33.469  38.915  1.00  0.00     0.261 C 
BRANCH   5   6
ATOM      6  O   UNL A   1      40.306  32.232  38.082  1.00  0.00    -0.463 OA
BRANCH   6   7
ATOM      7  C   UNL A   1      40.485  32.256  36.724  1.00  0.00     0.311 C 
ATOM      8  O   UNL A   1      41.622  32.426  36.270  1.00  0.00    -0.252 OA
BRANCH   7   9
ATOM      9  C   UNL A   1      39.280  31.878  35.692  1.00  0.00     0.177 C 
BRANCH   9  10
ATOM     10  C   UNL A   1      39.322  31.129  34.277  1.00  0.00     0.037 A 
ATOM     11  C   UNL A   1      41.969  26.890  34.944  1.00  0.00     0.013 C 
ATOM     12  C   UNL A   1      41.808  28.293  34.339  1.00  0.00    -0.012 C 
ATOM     13  C   UNL A   1      43.214  28.880  34.119  1.00  0.00     0.013 C 
ATOM     14  C   UNL A   1      41.042  28.208  32.991  1.00  0.00     0.063 C 
ATOM     15  C   UNL A   1      40.935  29.251  35.224  1.00  0.00     0.129 C 
ATOM     16  C   UNL A   1      40.124  29.370  33.050  1.00  0.00     0.027 A 
ATOM     17  N   UNL A   1      40.084  29.966  34.261  1.00  0.00    -0.346 N 
ATOM     18  C   UNL A   1      39.334  30.058  32.180  1.00  0.00     0.011 A 
ATOM     19  C   UNL A   1      38.686  31.182  32.913  1.00  0.00     0.011 A 
BRANCH  18  20
ATOM     20  C   UNL A   1      39.404  29.690  30.775  1.00  0.00    -0.016 A 
ATOM     21  C   UNL A   1      40.414  30.185  29.949  1.00  0.00     0.009 A 
ATOM     22  C   UNL A   1      38.478  28.772  30.257  1.00  0.00     0.009 A 
ATOM     23  C   UNL A   1      40.587  29.640  28.675  1.00  0.00     0.001 A 
ATOM     24  C   UNL A   1      38.703  28.168  29.022  1.00  0.00     0.001 A 
ATOM     25  C   UNL A   1      39.772  28.591  28.238  1.00  0.00     0.000 A 
ENDBRANCH  18  20
BRANCH  19  26
ATOM     26  C   UNL A   1      37.777  32.312  32.068  1.00  0.00    -0.016 A 
ATOM     27  C   UNL A   1      37.752  34.017  32.765  1.00  0.00     0.010 A 
ATOM     28  C   UNL A   1      36.257  31.703  31.357  1.00  0.00     0.010 A 
ATOM     29  C   UNL A   1      36.180  34.973  32.951  1.00  0.00     0.021 A 
ATOM     30  C   UNL A   1      34.670  32.589  31.508  1.00  0.00     0.021 A 
ATOM     31  C   UNL A   1      34.617  34.255  32.342  1.00  0.00     0.041 A 
ATOM     32  Cl  UNL A   1      33.109  35.026  32.642  1.00  0.00    -0.084 Cl
ENDBRANCH  19  26
ENDBRANCH   9  10
ENDBRANCH   7   9
ENDBRANCH   6   7
ENDBRANCH   5   6
ENDBRANCH   4   5
ENDBRANCH   3   4
ENDBRANCH   2   3
ENDBRANCH   1   2
BRANCH   1  33
ATOM     33  O   UNL A   1      40.479  35.587  34.432  1.00  0.00    -0.376 OA
BRANCH  33  34
ATOM     34  C   UNL A   1      41.429  35.156  33.492  1.00  0.00     0.202 C 
BRANCH  34  35
ATOM     35  C   UNL A   1      41.100  34.145  32.403  1.00  0.00     0.261 C 
BRANCH  35  36
ATOM     36  O   UNL A   1      42.213  33.553  31.723  1.00  0.00    -0.460 OA
BRANCH  36  37
ATOM     37  C   UNL A   1      42.228  33.603  30.192  1.00  0.00     0.338 C 
ATOM     38  O   UNL A   1      40.976  33.643  30.016  1.00  0.00    -0.246 OA
BRANCH  37  39
ATOM     39  C   UNL A   1      43.927  33.366  28.929  1.00  0.00     0.060 A 
ATOM     40  C   UNL A   1      44.074  33.004  27.487  1.00  0.00     0.016 A 
ATOM     41  C   UNL A   1      45.321  33.039  29.274  1.00  0.00     0.016 A 
ATOM     42  C   UNL A   1      44.686  31.755  27.027  1.00  0.00     0.010 A 
ATOM     43  C   UNL A   1      45.977  31.932  28.746  1.00  0.00     0.010 A 
ATOM     44  C   UNL A   1      45.367  30.985  27.946  1.00  0.00    -0.014 A 
BRANCH  44  45
ATOM     45  C   UNL A   1      46.151  29.662  27.867  1.00  0.00     0.031 A 
ATOM     46  C   UNL A   1      45.106  28.592  27.842  1.00  0.00     0.074 A 
ATOM     47  C   UNL A   1      47.452  29.285  27.568  1.00  0.00     0.049 A 
ATOM     48  N   UNL A   1      44.374  28.310  28.883  1.00  0.00    -0.248 NA
ATOM     49  C   UNL A   1      44.431  28.252  26.552  1.00  0.00     0.031 C 
ATOM     50  C   UNL A   1      48.657  30.088  27.306  1.00  0.00     0.029 A 
ATOM     51  N   UNL A   1      47.998  27.993  27.416  1.00  0.00    -0.354 N 
ATOM     52  C   UNL A   1      43.440  27.430  28.378  1.00  0.00     0.074 A 
ATOM     53  C   UNL A   1      43.238  27.868  27.037  1.00  0.00     0.031 C 
ATOM     54  C   UNL A   1      49.691  29.312  26.854  1.00  0.00     0.029 A 
ATOM     55  C   UNL A   1      49.327  27.898  26.871  1.00  0.00     0.049 A 
ATOM     56  H   UNL A   1      47.490  27.189  27.671  1.00  0.00     0.167 HD
ATOM     57  C   UNL A   1      43.428  26.143  28.819  1.00  0.00     0.034 A 
ATOM     58  C   UNL A   1      50.113  26.773  26.589  1.00  0.00     0.034 A 
ATOM     59  C   UNL A   1      44.251  26.038  30.024  1.00  0.00     0.049 A 
ATOM     60  C   UNL A   1      49.579  25.675  27.426  1.00  0.00     0.074 A 
ATOM     61  C   UNL A   1      44.335  26.717  31.229  1.00  0.00     0.029 A 
ATOM     62  N   UNL A   1      45.476  25.436  29.857  1.00  0.00    -0.354 N 
ATOM     63  N   UNL A   1      49.649  25.683  28.724  1.00  0.00    -0.248 NA
ATOM     64  C   UNL A   1      48.492  24.914  26.846  1.00  0.00     0.031 C 
ATOM     65  C   UNL A   1      45.734  26.833  31.510  1.00  0.00     0.029 A 
ATOM     66  C   UNL A   1      46.445  26.094  30.567  1.00  0.00     0.049 A 
ATOM     67  H   UNL A   1      45.635  24.640  29.301  1.00  0.00     0.167 HD
ATOM     68  C   UNL A   1      48.353  25.410  29.123  1.00  0.00     0.074 A 
ATOM     69  C   UNL A   1      47.691  24.900  27.914  1.00  0.00     0.031 C 
ATOM     70  C   UNL A   1      47.864  25.949  30.281  1.00  0.00     0.034 A 
BRANCH  57  71
ATOM     71  C   UNL A   1      43.188  24.954  27.885  1.00  0.00     0.023 A 
ATOM     72  C   UNL A   1      44.275  24.602  27.075  1.00  0.00     0.031 A 
ATOM     73  C   UNL A   1      41.960  24.319  27.547  1.00  0.00     0.131 A 
ATOM     74  C   UNL A   1      44.098  23.795  25.939  1.00  0.00     0.055 A 
ATOM     75  C   UNL A   1      41.798  23.487  26.438  1.00  0.00     0.041 A 
ATOM     76  F   UNL A   1      40.812  24.477  28.209  1.00  0.00    -0.206 F 
ATOM     77  C   UNL A   1      42.867  23.240  25.609  1.00  0.00     0.022 A 
BRANCH  74  78
ATOM     78  S   UNL A   1      45.493  23.619  24.813  1.00  0.00     0.124 S 
ATOM     79  O   UNL A   1      45.932  25.004  24.692  1.00  0.00    -0.237 OA
ATOM     80  O   UNL A   1      46.368  22.726  25.566  1.00  0.00    -0.237 OA
ATOM     81  O   UNL A   1      44.886  23.039  23.618  1.00  0.00    -0.744 OA
ENDBRANCH  74  78
ENDBRANCH  57  71
BRANCH  58  82
ATOM     82  C   UNL A   1      51.065  26.381  25.431  1.00  0.00     0.023 A 
ATOM     83  C   UNL A   1      51.025  26.871  24.063  1.00  0.00     0.031 A 
ATOM     84  C   UNL A   1      52.263  25.738  25.782  1.00  0.00     0.131 A 
ATOM     85  C   UNL A   1      52.142  26.704  23.169  1.00  0.00     0.055 A 
ATOM     86  C   UNL A   1      53.361  25.612  24.913  1.00  0.00     0.041 A 
ATOM     87  F   UNL A   1      52.447  25.278  27.027  1.00  0.00    -0.206 F 
ATOM     88  C   UNL A   1      53.313  26.101  23.617  1.00  0.00     0.022 A 
BRANCH  85  89
ATOM     89  S   UNL A   1      52.177  27.292  21.405  1.00  0.00     0.124 S 
ATOM     90  O   UNL A   1      53.055  26.323  20.758  1.00  0.00    -0.237 OA
ATOM     91  O   UNL A   1      50.773  27.261  21.014  1.00  0.00    -0.237 OA
ATOM     92  O   UNL A   1      52.743  28.642  21.499  1.00  0.00    -0.744 OA
ENDBRANCH  85  89
ENDBRANCH  58  82
BRANCH  70  93
ATOM     93  C   UNL A   1      48.862  26.495  31.293  1.00  0.00     0.023 A 
ATOM     94  C   UNL A   1      49.601  25.753  32.251  1.00  0.00     0.031 A 
ATOM     95  C   UNL A   1      49.081  27.883  31.249  1.00  0.00     0.131 A 
ATOM     96  C   UNL A   1      50.489  26.417  33.128  1.00  0.00     0.055 A 
ATOM     97  C   UNL A   1      49.978  28.529  32.095  1.00  0.00     0.041 A 
ATOM     98  F   UNL A   1      48.420  28.647  30.363  1.00  0.00    -0.206 F 
ATOM     99  C   UNL A   1      50.677  27.801  33.047  1.00  0.00     0.022 A 
BRANCH  96 100
ATOM    100  S   UNL A   1      51.375  25.517  34.449  1.00  0.00     0.124 S 
ATOM    101  O   UNL A   1      52.383  26.471  34.895  1.00  0.00    -0.237 OA
ATOM    102  O   UNL A   1      50.306  25.225  35.402  1.00  0.00    -0.237 OA
ATOM    103  O   UNL A   1      51.910  24.340  33.761  1.00  0.00    -0.744 OA
ENDBRANCH  96 100
ENDBRANCH  70  93
ENDBRANCH  44  45
ENDBRANCH  37  39
ENDBRANCH  36  37
ENDBRANCH  35  36
ENDBRANCH  34  35
ENDBRANCH  33  34
ENDBRANCH   1  33
TORSDOF 23
ENDMDL
