MODEL 1
REMARK VINA RESULT:     -10.4      0.000      0.000
REMARK SMILES O=C(C[C@H]1SC[C@@H](C(=O)OCCOCCOCCOC(=O)c2ccc(-c3c4nc(c(-c5cc(S(=O)(=O)[O-])ccc5F)c5ccc([nH]5)c(-c5cc(S(=O)(=O)[O-])ccc5F)c5nc(c(-c6cc(S(=O)(=O)[O-])ccc6F)c6ccc3[nH]6)C=C5)C=C4)cc2)NC1=O)Nc1cccc(Cl)c1
REMARK SMILES IDX 14 1 13 2 12 3 11 4 10 5 8 6 9 7 7 8 4 9 5 10 86 11 6 12
REMARK SMILES IDX 85 13 87 14 3 16 2 17 1 18 88 19 89 21 90 22 95 23 91 24
REMARK SMILES IDX 93 25 92 26 94 27 15 28 16 29 17 30 18 31 19 32 20 33 21 34
REMARK SMILES IDX 22 35 23 36 84 37 24 38 83 39 25 40 26 41 27 42 77 43 28 44
REMARK SMILES IDX 82 45 76 46 78 47 29 48 81 49 75 50 74 51 30 53 62 54 42 55
REMARK SMILES IDX 61 56 43 57 46 58 60 59 79 60 44 61 45 62 59 64 80 65 47 66
REMARK SMILES IDX 31 67 32 68 40 69 33 70 39 71 41 72 38 73 34 74 35 75 36 76
REMARK SMILES IDX 37 77 63 78 64 79 72 80 65 81 71 82 73 83 70 84 66 85 67 86
REMARK SMILES IDX 68 87 69 88 48 89 49 90 57 91 50 92 56 93 58 94 55 95 51 96
REMARK SMILES IDX 52 97 53 98 54 99
REMARK H PARENT 85 15 88 20 78 52 46 63
REMARK Flexibility Score: inf
ROOT
ATOM      1  C   UNL A   1      35.548  22.338  24.489  1.00  0.00     0.188 C 
ENDROOT
BRANCH   1   2
ATOM      2  O   UNL A   1      35.472  23.753  24.471  1.00  0.00    -0.376 OA
BRANCH   2   3
ATOM      3  C   UNL A   1      34.595  24.433  23.595  1.00  0.00     0.202 C 
BRANCH   3   4
ATOM      4  C   UNL A   1      33.713  25.593  24.079  1.00  0.00     0.261 C 
BRANCH   4   5
ATOM      5  O   UNL A   1      34.185  26.918  23.809  1.00  0.00    -0.462 OA
BRANCH   5   6
ATOM      6  C   UNL A   1      33.620  27.529  22.718  1.00  0.00     0.329 C 
ATOM      7  O   UNL A   1      33.363  26.962  21.667  1.00  0.00    -0.250 OA
BRANCH   6   8
ATOM      8  C   UNL A   1      33.115  28.936  23.112  1.00  0.00     0.202 C 
ATOM      9  C   UNL A   1      30.253  28.471  23.912  1.00  0.00     0.145 C 
ATOM     10  S   UNL A   1      31.502  28.142  25.190  1.00  0.00    -0.145 SA
ATOM     11  C   UNL A   1      30.708  28.958  22.540  1.00  0.00     0.234 C 
ATOM     12  C   UNL A   1      32.891  29.126  24.595  1.00  0.00     0.107 C 
ATOM     13  N   UNL A   1      31.984  29.337  22.296  1.00  0.00    -0.341 N 
ATOM     14  O   UNL A   1      29.915  29.005  21.593  1.00  0.00    -0.274 OA
ATOM     15  H   UNL A   1      32.155  29.919  21.520  1.00  0.00     0.164 HD
BRANCH   9  16
ATOM     16  C   UNL A   1      29.349  27.246  23.758  1.00  0.00     0.124 C 
BRANCH  16  17
ATOM     17  C   UNL A   1      30.056  25.897  23.805  1.00  0.00     0.226 C 
ATOM     18  O   UNL A   1      30.686  25.489  22.833  1.00  0.00    -0.275 OA
ATOM     19  N   UNL A   1      29.962  25.239  25.020  1.00  0.00    -0.326 N 
ATOM     20  H   UNL A   1      29.270  25.551  25.647  1.00  0.00     0.169 HD
BRANCH  19  21
ATOM     21  C   UNL A   1      30.771  24.162  25.439  1.00  0.00     0.042 A 
ATOM     22  C   UNL A   1      31.425  24.274  26.672  1.00  0.00     0.026 A 
ATOM     23  C   UNL A   1      31.004  23.036  24.645  1.00  0.00     0.046 A 
ATOM     24  C   UNL A   1      32.281  23.262  27.119  1.00  0.00     0.004 A 
ATOM     25  C   UNL A   1      31.894  22.050  25.074  1.00  0.00     0.043 A 
ATOM     26  C   UNL A   1      32.526  22.154  26.311  1.00  0.00     0.020 A 
ATOM     27  Cl  UNL A   1      32.251  20.715  24.048  1.00  0.00    -0.084 Cl
ENDBRANCH  19  21
ENDBRANCH  16  17
ENDBRANCH   9  16
ENDBRANCH   6   8
ENDBRANCH   5   6
ENDBRANCH   4   5
ENDBRANCH   3   4
ENDBRANCH   2   3
ENDBRANCH   1   2
BRANCH   1  28
ATOM     28  C   UNL A   1      36.788  21.610  25.052  1.00  0.00     0.188 C 
BRANCH  28  29
ATOM     29  O   UNL A   1      37.766  22.438  25.628  1.00  0.00    -0.376 OA
BRANCH  29  30
ATOM     30  C   UNL A   1      38.965  21.865  26.115  1.00  0.00     0.202 C 
BRANCH  30  31
ATOM     31  C   UNL A   1      39.526  20.473  25.746  1.00  0.00     0.261 C 
BRANCH  31  32
ATOM     32  O   UNL A   1      40.559  19.895  26.550  1.00  0.00    -0.460 OA
BRANCH  32  33
ATOM     33  C   UNL A   1      41.824  20.007  26.073  1.00  0.00     0.338 C 
ATOM     34  O   UNL A   1      42.391  19.213  25.331  1.00  0.00    -0.246 OA
BRANCH  33  35
ATOM     35  C   UNL A   1      42.365  21.342  26.403  1.00  0.00     0.060 A 
ATOM     36  C   UNL A   1      42.572  21.672  27.752  1.00  0.00     0.016 A 
ATOM     37  C   UNL A   1      42.641  22.276  25.402  1.00  0.00     0.016 A 
ATOM     38  C   UNL A   1      43.020  22.948  28.105  1.00  0.00     0.010 A 
ATOM     39  C   UNL A   1      43.066  23.563  25.760  1.00  0.00     0.010 A 
ATOM     40  C   UNL A   1      43.222  23.918  27.114  1.00  0.00    -0.014 A 
BRANCH  40  41
ATOM     41  C   UNL A   1      43.357  25.351  27.494  1.00  0.00     0.031 A 
ATOM     42  C   UNL A   1      44.720  25.986  27.379  1.00  0.00     0.074 A 
ATOM     43  C   UNL A   1      42.309  26.089  27.907  1.00  0.00     0.049 A 
ATOM     44  N   UNL A   1      45.117  27.184  27.721  1.00  0.00    -0.248 NA
ATOM     45  C   UNL A   1      45.779  25.143  26.801  1.00  0.00     0.031 C 
ATOM     46  C   UNL A   1      40.928  25.619  28.002  1.00  0.00     0.029 A 
ATOM     47  N   UNL A   1      42.249  27.395  28.330  1.00  0.00    -0.354 N 
ATOM     48  C   UNL A   1      46.471  27.239  27.406  1.00  0.00     0.074 A 
ATOM     49  C   UNL A   1      46.834  25.937  26.888  1.00  0.00     0.031 C 
ATOM     50  C   UNL A   1      40.159  26.622  28.465  1.00  0.00     0.029 A 
ATOM     51  C   UNL A   1      40.996  27.788  28.742  1.00  0.00     0.049 A 
ATOM     52  H   UNL A   1      43.031  27.994  28.339  1.00  0.00     0.167 HD
ATOM     53  C   UNL A   1      47.333  28.280  27.525  1.00  0.00     0.034 A 
ATOM     54  C   UNL A   1      40.582  28.945  29.303  1.00  0.00     0.034 A 
ATOM     55  C   UNL A   1      46.969  29.567  28.062  1.00  0.00     0.049 A 
ATOM     56  C   UNL A   1      41.587  30.056  29.535  1.00  0.00     0.074 A 
ATOM     57  C   UNL A   1      47.767  30.682  28.245  1.00  0.00     0.029 A 
ATOM     58  N   UNL A   1      45.701  29.911  28.515  1.00  0.00    -0.354 N 
ATOM     59  N   UNL A   1      42.869  30.091  29.245  1.00  0.00    -0.248 NA
ATOM     60  C   UNL A   1      41.083  31.287  30.159  1.00  0.00     0.031 C 
ATOM     61  C   UNL A   1      47.004  31.672  28.874  1.00  0.00     0.029 A 
ATOM     62  C   UNL A   1      45.704  31.211  28.998  1.00  0.00     0.049 A 
ATOM     63  H   UNL A   1      44.916  29.318  28.496  1.00  0.00     0.167 HD
ATOM     64  C   UNL A   1      43.306  31.365  29.605  1.00  0.00     0.074 A 
ATOM     65  C   UNL A   1      42.153  32.068  30.124  1.00  0.00     0.031 C 
ATOM     66  C   UNL A   1      44.547  31.910  29.506  1.00  0.00     0.034 A 
BRANCH  53  67
ATOM     67  C   UNL A   1      48.765  28.040  27.109  1.00  0.00     0.023 A 
ATOM     68  C   UNL A   1      49.179  28.176  25.772  1.00  0.00     0.031 A 
ATOM     69  C   UNL A   1      49.724  27.633  28.055  1.00  0.00     0.131 A 
ATOM     70  C   UNL A   1      50.490  27.834  25.406  1.00  0.00     0.055 A 
ATOM     71  C   UNL A   1      51.049  27.381  27.699  1.00  0.00     0.041 A 
ATOM     72  F   UNL A   1      49.382  27.459  29.342  1.00  0.00    -0.206 F 
ATOM     73  C   UNL A   1      51.436  27.465  26.365  1.00  0.00     0.022 A 
BRANCH  70  74
ATOM     74  S   UNL A   1      50.895  27.728  23.642  1.00  0.00     0.124 S 
ATOM     75  O   UNL A   1      49.626  27.278  23.075  1.00  0.00    -0.237 OA
ATOM     76  O   UNL A   1      51.287  29.096  23.324  1.00  0.00    -0.237 OA
ATOM     77  O   UNL A   1      51.974  26.743  23.596  1.00  0.00    -0.744 OA
ENDBRANCH  70  74
ENDBRANCH  53  67
BRANCH  54  78
ATOM     78  C   UNL A   1      39.161  29.127  29.728  1.00  0.00     0.023 A 
ATOM     79  C   UNL A   1      38.249  29.836  28.927  1.00  0.00     0.031 A 
ATOM     80  C   UNL A   1      38.716  28.677  30.984  1.00  0.00     0.131 A 
ATOM     81  C   UNL A   1      36.966  30.129  29.415  1.00  0.00     0.055 A 
ATOM     82  C   UNL A   1      37.416  28.912  31.437  1.00  0.00     0.041 A 
ATOM     83  F   UNL A   1      39.546  28.004  31.797  1.00  0.00    -0.206 F 
ATOM     84  C   UNL A   1      36.537  29.658  30.657  1.00  0.00     0.022 A 
BRANCH  81  85
ATOM     85  S   UNL A   1      35.904  31.241  28.450  1.00  0.00     0.124 S 
ATOM     86  O   UNL A   1      35.510  30.382  27.340  1.00  0.00    -0.237 OA
ATOM     87  O   UNL A   1      34.856  31.570  29.412  1.00  0.00    -0.237 OA
ATOM     88  O   UNL A   1      36.796  32.345  28.101  1.00  0.00    -0.744 OA
ENDBRANCH  81  85
ENDBRANCH  54  78
BRANCH  66  89
ATOM     89  C   UNL A   1      44.703  33.365  29.888  1.00  0.00     0.023 A 
ATOM     90  C   UNL A   1      44.536  34.409  28.961  1.00  0.00     0.031 A 
ATOM     91  C   UNL A   1      45.042  33.709  31.210  1.00  0.00     0.131 A 
ATOM     92  C   UNL A   1      44.772  35.738  29.352  1.00  0.00     0.055 A 
ATOM     93  C   UNL A   1      45.206  35.036  31.610  1.00  0.00     0.041 A 
ATOM     94  F   UNL A   1      45.218  32.756  32.141  1.00  0.00    -0.206 F 
ATOM     95  C   UNL A   1      45.088  36.059  30.675  1.00  0.00     0.022 A 
BRANCH  92  96
ATOM     96  S   UNL A   1      44.775  37.034  28.082  1.00  0.00     0.124 S 
ATOM     97  O   UNL A   1      44.516  36.270  26.867  1.00  0.00    -0.237 OA
ATOM     98  O   UNL A   1      43.696  37.909  28.529  1.00  0.00    -0.237 OA
ATOM     99  O   UNL A   1      46.117  37.607  28.181  1.00  0.00    -0.744 OA
ENDBRANCH  92  96
ENDBRANCH  66  89
ENDBRANCH  40  41
ENDBRANCH  33  35
ENDBRANCH  32  33
ENDBRANCH  31  32
ENDBRANCH  30  31
ENDBRANCH  29  30
ENDBRANCH  28  29
ENDBRANCH   1  28
TORSDOF 23
ENDMDL
MODEL 2
REMARK VINA RESULT:     -10.3      5.660     10.393
REMARK SMILES O=C(C[C@H]1SC[C@@H](C(=O)OCCOCCOCCOC(=O)c2ccc(-c3c4nc(c(-c5cc(S(=O)(=O)[O-])ccc5F)c5ccc([nH]5)c(-c5cc(S(=O)(=O)[O-])ccc5F)c5nc(c(-c6cc(S(=O)(=O)[O-])ccc6F)c6ccc3[nH]6)C=C5)C=C4)cc2)NC1=O)Nc1cccc(Cl)c1
REMARK SMILES IDX 14 1 13 2 12 3 11 4 10 5 8 6 9 7 7 8 4 9 5 10 86 11 6 12
REMARK SMILES IDX 85 13 87 14 3 16 2 17 1 18 88 19 89 21 90 22 95 23 91 24
REMARK SMILES IDX 93 25 92 26 94 27 15 28 16 29 17 30 18 31 19 32 20 33 21 34
REMARK SMILES IDX 22 35 23 36 84 37 24 38 83 39 25 40 26 41 27 42 77 43 28 44
REMARK SMILES IDX 82 45 76 46 78 47 29 48 81 49 75 50 74 51 30 53 62 54 42 55
REMARK SMILES IDX 61 56 43 57 46 58 60 59 79 60 44 61 45 62 59 64 80 65 47 66
REMARK SMILES IDX 31 67 32 68 40 69 33 70 39 71 41 72 38 73 34 74 35 75 36 76
REMARK SMILES IDX 37 77 63 78 64 79 72 80 65 81 71 82 73 83 70 84 66 85 67 86
REMARK SMILES IDX 68 87 69 88 48 89 49 90 57 91 50 92 56 93 58 94 55 95 51 96
REMARK SMILES IDX 52 97 53 98 54 99
REMARK H PARENT 85 15 88 20 78 52 46 63
REMARK Flexibility Score: inf
ROOT
ATOM      1  C   UNL A   1      34.127  28.606  26.870  1.00  0.00     0.188 C 
ENDROOT
BRANCH   1   2
ATOM      2  O   UNL A   1      32.820  28.408  27.379  1.00  0.00    -0.376 OA
BRANCH   2   3
ATOM      3  C   UNL A   1      31.687  28.963  26.741  1.00  0.00     0.202 C 
BRANCH   3   4
ATOM      4  C   UNL A   1      31.816  29.840  25.487  1.00  0.00     0.261 C 
BRANCH   4   5
ATOM      5  O   UNL A   1      31.201  29.349  24.291  1.00  0.00    -0.462 OA
BRANCH   5   6
ATOM      6  C   UNL A   1      32.055  28.747  23.400  1.00  0.00     0.329 C 
ATOM      7  O   UNL A   1      33.249  28.992  23.317  1.00  0.00    -0.250 OA
BRANCH   6   8
ATOM      8  C   UNL A   1      31.349  27.545  22.733  1.00  0.00     0.202 C 
ATOM      9  C   UNL A   1      32.451  25.162  24.200  1.00  0.00     0.145 C 
ATOM     10  S   UNL A   1      31.065  26.021  25.002  1.00  0.00    -0.145 SA
ATOM     11  C   UNL A   1      32.964  25.675  22.859  1.00  0.00     0.234 C 
ATOM     12  C   UNL A   1      30.311  26.869  23.600  1.00  0.00     0.107 C 
ATOM     13  N   UNL A   1      32.310  26.625  22.152  1.00  0.00    -0.341 N 
ATOM     14  O   UNL A   1      34.019  25.244  22.381  1.00  0.00    -0.274 OA
ATOM     15  H   UNL A   1      32.495  26.697  21.187  1.00  0.00     0.164 HD
BRANCH   9  16
ATOM     16  C   UNL A   1      33.611  25.035  25.190  1.00  0.00     0.124 C 
BRANCH  16  17
ATOM     17  C   UNL A   1      33.949  23.617  25.630  1.00  0.00     0.226 C 
ATOM     18  O   UNL A   1      33.744  23.258  26.787  1.00  0.00    -0.275 OA
ATOM     19  N   UNL A   1      34.436  22.801  24.624  1.00  0.00    -0.326 N 
ATOM     20  H   UNL A   1      34.754  23.242  23.802  1.00  0.00     0.169 HD
BRANCH  19  21
ATOM     21  C   UNL A   1      34.516  21.393  24.669  1.00  0.00     0.042 A 
ATOM     22  C   UNL A   1      35.765  20.816  24.928  1.00  0.00     0.026 A 
ATOM     23  C   UNL A   1      33.428  20.563  24.389  1.00  0.00     0.046 A 
ATOM     24  C   UNL A   1      35.920  19.426  24.934  1.00  0.00     0.004 A 
ATOM     25  C   UNL A   1      33.596  19.178  24.352  1.00  0.00     0.043 A 
ATOM     26  C   UNL A   1      34.834  18.605  24.633  1.00  0.00     0.020 A 
ATOM     27  Cl  UNL A   1      32.274  18.167  23.911  1.00  0.00    -0.084 Cl
ENDBRANCH  19  21
ENDBRANCH  16  17
ENDBRANCH   9  16
ENDBRANCH   6   8
ENDBRANCH   5   6
ENDBRANCH   4   5
ENDBRANCH   3   4
ENDBRANCH   2   3
ENDBRANCH   1   2
BRANCH   1  28
ATOM     28  C   UNL A   1      35.113  29.579  27.551  1.00  0.00     0.188 C 
BRANCH  28  29
ATOM     29  O   UNL A   1      34.911  30.940  27.272  1.00  0.00    -0.376 OA
BRANCH  29  30
ATOM     30  C   UNL A   1      33.929  31.661  27.992  1.00  0.00     0.202 C 
BRANCH  30  31
ATOM     31  C   UNL A   1      33.360  33.049  27.618  1.00  0.00     0.261 C 
BRANCH  31  32
ATOM     32  O   UNL A   1      32.677  33.820  28.612  1.00  0.00    -0.460 OA
BRANCH  32  33
ATOM     33  C   UNL A   1      33.373  34.850  29.153  1.00  0.00     0.338 C 
ATOM     34  O   UNL A   1      33.035  36.029  29.158  1.00  0.00    -0.246 OA
BRANCH  33  35
ATOM     35  C   UNL A   1      34.513  34.327  29.934  1.00  0.00     0.060 A 
ATOM     36  C   UNL A   1      35.815  34.542  29.454  1.00  0.00     0.016 A 
ATOM     37  C   UNL A   1      34.310  33.606  31.112  1.00  0.00     0.016 A 
ATOM     38  C   UNL A   1      36.914  34.005  30.131  1.00  0.00     0.010 A 
ATOM     39  C   UNL A   1      35.411  33.047  31.775  1.00  0.00     0.010 A 
ATOM     40  C   UNL A   1      36.715  33.211  31.268  1.00  0.00    -0.014 A 
BRANCH  40  41
ATOM     41  C   UNL A   1      37.824  32.362  31.784  1.00  0.00     0.031 A 
ATOM     42  C   UNL A   1      38.388  32.688  33.144  1.00  0.00     0.074 A 
ATOM     43  C   UNL A   1      38.312  31.315  31.092  1.00  0.00     0.049 A 
ATOM     44  N   UNL A   1      39.401  32.158  33.780  1.00  0.00    -0.248 NA
ATOM     45  C   UNL A   1      37.713  33.767  33.882  1.00  0.00     0.031 C 
ATOM     46  C   UNL A   1      37.816  30.852  29.797  1.00  0.00     0.029 A 
ATOM     47  N   UNL A   1      39.342  30.455  31.384  1.00  0.00    -0.354 N 
ATOM     48  C   UNL A   1      39.489  32.841  34.988  1.00  0.00     0.074 A 
ATOM     49  C   UNL A   1      38.454  33.853  34.975  1.00  0.00     0.031 C 
ATOM     50  C   UNL A   1      38.552  29.796  29.404  1.00  0.00     0.029 A 
ATOM     51  C   UNL A   1      39.597  29.535  30.392  1.00  0.00     0.049 A 
ATOM     52  H   UNL A   1      39.852  30.493  32.226  1.00  0.00     0.167 HD
ATOM     53  C   UNL A   1      40.344  32.638  36.022  1.00  0.00     0.034 A 
ATOM     54  C   UNL A   1      40.576  28.612  30.285  1.00  0.00     0.034 A 
ATOM     55  C   UNL A   1      41.386  31.642  36.018  1.00  0.00     0.049 A 
ATOM     56  C   UNL A   1      41.594  28.480  31.401  1.00  0.00     0.074 A 
ATOM     57  C   UNL A   1      42.319  31.367  37.003  1.00  0.00     0.029 A 
ATOM     58  N   UNL A   1      41.644  30.763  34.975  1.00  0.00    -0.354 N 
ATOM     59  N   UNL A   1      41.675  29.141  32.533  1.00  0.00    -0.248 NA
ATOM     60  C   UNL A   1      42.644  27.468  31.225  1.00  0.00     0.031 C 
ATOM     61  C   UNL A   1      43.183  30.375  36.527  1.00  0.00     0.029 A 
ATOM     62  C   UNL A   1      42.734  29.963  35.283  1.00  0.00     0.049 A 
ATOM     63  H   UNL A   1      41.128  30.715  34.138  1.00  0.00     0.167 HD
ATOM     64  C   UNL A   1      42.753  28.585  33.223  1.00  0.00     0.074 A 
ATOM     65  C   UNL A   1      43.284  27.533  32.383  1.00  0.00     0.031 C 
ATOM     66  C   UNL A   1      43.253  28.908  34.444  1.00  0.00     0.034 A 
BRANCH  53  67
ATOM     67  C   UNL A   1      40.210  33.553  37.216  1.00  0.00     0.023 A 
ATOM     68  C   UNL A   1      41.033  34.681  37.379  1.00  0.00     0.031 A 
ATOM     69  C   UNL A   1      39.271  33.274  38.227  1.00  0.00     0.131 A 
ATOM     70  C   UNL A   1      40.957  35.440  38.556  1.00  0.00     0.055 A 
ATOM     71  C   UNL A   1      39.139  34.086  39.353  1.00  0.00     0.041 A 
ATOM     72  F   UNL A   1      38.476  32.196  38.141  1.00  0.00    -0.206 F 
ATOM     73  C   UNL A   1      39.995  35.168  39.532  1.00  0.00     0.022 A 
BRANCH  70  74
ATOM     74  S   UNL A   1      42.234  36.691  38.863  1.00  0.00     0.124 S 
ATOM     75  O   UNL A   1      42.939  36.711  37.583  1.00  0.00    -0.237 OA
ATOM     76  O   UNL A   1      41.447  37.877  39.177  1.00  0.00    -0.237 OA
ATOM     77  O   UNL A   1      42.998  36.134  39.978  1.00  0.00    -0.744 OA
ENDBRANCH  70  74
ENDBRANCH  53  67
BRANCH  54  78
ATOM     78  C   UNL A   1      40.689  27.749  29.069  1.00  0.00     0.023 A 
ATOM     79  C   UNL A   1      41.602  28.056  28.046  1.00  0.00     0.031 A 
ATOM     80  C   UNL A   1      39.821  26.662  28.868  1.00  0.00     0.131 A 
ATOM     81  C   UNL A   1      41.583  27.327  26.846  1.00  0.00     0.055 A 
ATOM     82  C   UNL A   1      39.853  25.896  27.700  1.00  0.00     0.041 A 
ATOM     83  F   UNL A   1      38.921  26.328  29.806  1.00  0.00    -0.206 F 
ATOM     84  C   UNL A   1      40.726  26.239  26.673  1.00  0.00     0.022 A 
BRANCH  81  85
ATOM     85  S   UNL A   1      42.613  27.900  25.466  1.00  0.00     0.124 S 
ATOM     86  O   UNL A   1      43.869  28.203  26.143  1.00  0.00    -0.237 OA
ATOM     87  O   UNL A   1      42.621  26.733  24.589  1.00  0.00    -0.237 OA
ATOM     88  O   UNL A   1      41.884  29.058  24.954  1.00  0.00    -0.744 OA
ENDBRANCH  81  85
ENDBRANCH  54  78
BRANCH  66  89
ATOM     89  C   UNL A   1      44.380  28.056  34.985  1.00  0.00     0.023 A 
ATOM     90  C   UNL A   1      44.159  26.793  35.562  1.00  0.00     0.031 A 
ATOM     91  C   UNL A   1      45.704  28.531  34.931  1.00  0.00     0.131 A 
ATOM     92  C   UNL A   1      45.234  26.081  36.121  1.00  0.00     0.055 A 
ATOM     93  C   UNL A   1      46.777  27.787  35.423  1.00  0.00     0.041 A 
ATOM     94  F   UNL A   1      45.978  29.731  34.393  1.00  0.00    -0.206 F 
ATOM     95  C   UNL A   1      46.543  26.562  36.037  1.00  0.00     0.022 A 
BRANCH  92  96
ATOM     96  S   UNL A   1      44.884  24.569  37.061  1.00  0.00     0.124 S 
ATOM     97  O   UNL A   1      44.232  23.732  36.060  1.00  0.00    -0.237 OA
ATOM     98  O   UNL A   1      46.218  24.145  37.476  1.00  0.00    -0.237 OA
ATOM     99  O   UNL A   1      44.018  25.031  38.144  1.00  0.00    -0.744 OA
ENDBRANCH  92  96
ENDBRANCH  66  89
ENDBRANCH  40  41
ENDBRANCH  33  35
ENDBRANCH  32  33
ENDBRANCH  31  32
ENDBRANCH  30  31
ENDBRANCH  29  30
ENDBRANCH  28  29
ENDBRANCH   1  28
TORSDOF 23
ENDMDL
MODEL 3
REMARK VINA RESULT:     -10.0      2.954      4.131
REMARK SMILES O=C(C[C@H]1SC[C@@H](C(=O)OCCOCCOCCOC(=O)c2ccc(-c3c4nc(c(-c5cc(S(=O)(=O)[O-])ccc5F)c5ccc([nH]5)c(-c5cc(S(=O)(=O)[O-])ccc5F)c5nc(c(-c6cc(S(=O)(=O)[O-])ccc6F)c6ccc3[nH]6)C=C5)C=C4)cc2)NC1=O)Nc1cccc(Cl)c1
REMARK SMILES IDX 14 1 13 2 12 3 11 4 10 5 8 6 9 7 7 8 4 9 5 10 86 11 6 12
REMARK SMILES IDX 85 13 87 14 3 16 2 17 1 18 88 19 89 21 90 22 95 23 91 24
REMARK SMILES IDX 93 25 92 26 94 27 15 28 16 29 17 30 18 31 19 32 20 33 21 34
REMARK SMILES IDX 22 35 23 36 84 37 24 38 83 39 25 40 26 41 27 42 77 43 28 44
REMARK SMILES IDX 82 45 76 46 78 47 29 48 81 49 75 50 74 51 30 53 62 54 42 55
REMARK SMILES IDX 61 56 43 57 46 58 60 59 79 60 44 61 45 62 59 64 80 65 47 66
REMARK SMILES IDX 31 67 32 68 40 69 33 70 39 71 41 72 38 73 34 74 35 75 36 76
REMARK SMILES IDX 37 77 63 78 64 79 72 80 65 81 71 82 73 83 70 84 66 85 67 86
REMARK SMILES IDX 68 87 69 88 48 89 49 90 57 91 50 92 56 93 58 94 55 95 51 96
REMARK SMILES IDX 52 97 53 98 54 99
REMARK H PARENT 85 15 88 20 78 52 46 63
REMARK Flexibility Score: inf
ROOT
ATOM      1  C   UNL A   1      34.314  21.818  24.970  1.00  0.00     0.188 C 
ENDROOT
BRANCH   1   2
ATOM      2  O   UNL A   1      33.327  21.096  24.254  1.00  0.00    -0.376 OA
BRANCH   2   3
ATOM      3  C   UNL A   1      32.596  21.692  23.201  1.00  0.00     0.202 C 
BRANCH   3   4
ATOM      4  C   UNL A   1      31.778  22.975  23.412  1.00  0.00     0.261 C 
BRANCH   4   5
ATOM      5  O   UNL A   1      31.820  23.946  22.360  1.00  0.00    -0.462 OA
BRANCH   5   6
ATOM      6  C   UNL A   1      31.372  25.198  22.703  1.00  0.00     0.329 C 
ATOM      7  O   UNL A   1      30.534  25.418  23.564  1.00  0.00    -0.250 OA
BRANCH   6   8
ATOM      8  C   UNL A   1      32.272  26.270  22.047  1.00  0.00     0.202 C 
ATOM      9  C   UNL A   1      32.188  28.562  23.993  1.00  0.00     0.145 C 
ATOM     10  S   UNL A   1      33.379  27.242  24.367  1.00  0.00    -0.145 SA
ATOM     11  C   UNL A   1      31.322  28.446  22.743  1.00  0.00     0.234 C 
ATOM     12  C   UNL A   1      33.596  26.486  22.745  1.00  0.00     0.107 C 
ATOM     13  N   UNL A   1      31.537  27.497  21.802  1.00  0.00    -0.341 N 
ATOM     14  O   UNL A   1      30.373  29.216  22.559  1.00  0.00    -0.274 OA
ATOM     15  H   UNL A   1      31.174  27.648  20.899  1.00  0.00     0.164 HD
BRANCH   9  16
ATOM     16  C   UNL A   1      31.305  28.812  25.218  1.00  0.00     0.124 C 
BRANCH  16  17
ATOM     17  C   UNL A   1      32.044  29.187  26.496  1.00  0.00     0.226 C 
ATOM     18  O   UNL A   1      31.788  28.619  27.554  1.00  0.00    -0.275 OA
ATOM     19  N   UNL A   1      33.025  30.150  26.333  1.00  0.00    -0.326 N 
ATOM     20  H   UNL A   1      33.002  30.680  25.503  1.00  0.00     0.169 HD
BRANCH  19  21
ATOM     21  C   UNL A   1      34.057  30.440  27.251  1.00  0.00     0.042 A 
ATOM     22  C   UNL A   1      35.031  29.460  27.475  1.00  0.00     0.026 A 
ATOM     23  C   UNL A   1      34.099  31.623  27.995  1.00  0.00     0.046 A 
ATOM     24  C   UNL A   1      36.049  29.667  28.411  1.00  0.00     0.004 A 
ATOM     25  C   UNL A   1      35.090  31.807  28.960  1.00  0.00     0.043 A 
ATOM     26  C   UNL A   1      36.071  30.838  29.165  1.00  0.00     0.020 A 
ATOM     27  Cl  UNL A   1      35.078  33.222  29.939  1.00  0.00    -0.084 Cl
ENDBRANCH  19  21
ENDBRANCH  16  17
ENDBRANCH   9  16
ENDBRANCH   6   8
ENDBRANCH   5   6
ENDBRANCH   4   5
ENDBRANCH   3   4
ENDBRANCH   2   3
ENDBRANCH   1   2
BRANCH   1  28
ATOM     28  C   UNL A   1      35.441  21.090  25.734  1.00  0.00     0.188 C 
BRANCH  28  29
ATOM     29  O   UNL A   1      36.278  20.279  24.951  1.00  0.00    -0.376 OA
BRANCH  29  30
ATOM     30  C   UNL A   1      37.671  20.526  24.934  1.00  0.00     0.202 C 
BRANCH  30  31
ATOM     31  C   UNL A   1      38.420  21.580  25.780  1.00  0.00     0.261 C 
BRANCH  31  32
ATOM     32  O   UNL A   1      39.850  21.545  25.844  1.00  0.00    -0.460 OA
BRANCH  32  33
ATOM     33  C   UNL A   1      40.392  21.466  27.084  1.00  0.00     0.338 C 
ATOM     34  O   UNL A   1      40.698  20.437  27.677  1.00  0.00    -0.246 OA
BRANCH  33  35
ATOM     35  C   UNL A   1      40.766  22.817  27.552  1.00  0.00     0.060 A 
ATOM     36  C   UNL A   1      40.091  23.927  27.020  1.00  0.00     0.016 A 
ATOM     37  C   UNL A   1      41.791  23.000  28.482  1.00  0.00     0.016 A 
ATOM     38  C   UNL A   1      40.463  25.223  27.389  1.00  0.00     0.010 A 
ATOM     39  C   UNL A   1      42.179  24.300  28.832  1.00  0.00     0.010 A 
ATOM     40  C   UNL A   1      41.544  25.419  28.259  1.00  0.00    -0.014 A 
BRANCH  40  41
ATOM     41  C   UNL A   1      42.161  26.768  28.383  1.00  0.00     0.031 A 
ATOM     42  C   UNL A   1      43.489  27.001  27.708  1.00  0.00     0.074 A 
ATOM     43  C   UNL A   1      41.564  27.775  29.048  1.00  0.00     0.049 A 
ATOM     44  N   UNL A   1      44.268  28.052  27.732  1.00  0.00    -0.248 NA
ATOM     45  C   UNL A   1      44.007  25.886  26.900  1.00  0.00     0.031 C 
ATOM     46  C   UNL A   1      40.252  27.706  29.690  1.00  0.00     0.029 A 
ATOM     47  N   UNL A   1      41.992  29.057  29.298  1.00  0.00    -0.354 N 
ATOM     48  C   UNL A   1      45.370  27.724  26.948  1.00  0.00     0.074 A 
ATOM     49  C   UNL A   1      45.176  26.361  26.502  1.00  0.00     0.031 C 
ATOM     50  C   UNL A   1      39.989  28.891  30.269  1.00  0.00     0.029 A 
ATOM     51  C   UNL A   1      41.127  29.789  30.079  1.00  0.00     0.049 A 
ATOM     52  H   UNL A   1      42.840  29.417  28.950  1.00  0.00     0.167 HD
ATOM     53  C   UNL A   1      46.439  28.491  26.618  1.00  0.00     0.034 A 
ATOM     54  C   UNL A   1      41.255  31.028  30.601  1.00  0.00     0.034 A 
ATOM     55  C   UNL A   1      46.634  29.841  27.085  1.00  0.00     0.049 A 
ATOM     56  C   UNL A   1      42.512  31.825  30.316  1.00  0.00     0.074 A 
ATOM     57  C   UNL A   1      47.690  30.698  26.828  1.00  0.00     0.029 A 
ATOM     58  N   UNL A   1      45.760  30.530  27.915  1.00  0.00    -0.354 N 
ATOM     59  N   UNL A   1      43.554  31.499  29.584  1.00  0.00    -0.248 NA
ATOM     60  C   UNL A   1      42.602  33.161  30.920  1.00  0.00     0.031 C 
ATOM     61  C   UNL A   1      47.491  31.873  27.559  1.00  0.00     0.029 A 
ATOM     62  C   UNL A   1      46.265  31.791  28.198  1.00  0.00     0.049 A 
ATOM     63  H   UNL A   1      44.906  30.176  28.253  1.00  0.00     0.167 HD
ATOM     64  C   UNL A   1      44.394  32.613  29.601  1.00  0.00     0.074 A 
ATOM     65  C   UNL A   1      43.735  33.617  30.406  1.00  0.00     0.031 C 
ATOM     66  C   UNL A   1      45.597  32.793  28.995  1.00  0.00     0.034 A 
BRANCH  53  67
ATOM     67  C   UNL A   1      47.500  27.856  25.750  1.00  0.00     0.023 A 
ATOM     68  C   UNL A   1      47.603  28.147  24.378  1.00  0.00     0.031 A 
ATOM     69  C   UNL A   1      48.399  26.920  26.293  1.00  0.00     0.131 A 
ATOM     70  C   UNL A   1      48.527  27.453  23.583  1.00  0.00     0.055 A 
ATOM     71  C   UNL A   1      49.376  26.299  25.513  1.00  0.00     0.041 A 
ATOM     72  F   UNL A   1      48.332  26.581  27.590  1.00  0.00    -0.206 F 
ATOM     73  C   UNL A   1      49.434  26.552  24.145  1.00  0.00     0.022 A 
BRANCH  70  74
ATOM     74  S   UNL A   1      48.421  27.629  21.781  1.00  0.00     0.124 S 
ATOM     75  O   UNL A   1      49.529  28.543  21.509  1.00  0.00    -0.237 OA
ATOM     76  O   UNL A   1      48.597  26.258  21.317  1.00  0.00    -0.237 OA
ATOM     77  O   UNL A   1      47.090  28.195  21.569  1.00  0.00    -0.744 OA
ENDBRANCH  70  74
ENDBRANCH  53  67
BRANCH  54  78
ATOM     78  C   UNL A   1      40.193  31.604  31.482  1.00  0.00     0.023 A 
ATOM     79  C   UNL A   1      40.223  31.410  32.873  1.00  0.00     0.031 A 
ATOM     80  C   UNL A   1      39.083  32.273  30.937  1.00  0.00     0.131 A 
ATOM     81  C   UNL A   1      39.137  31.823  33.663  1.00  0.00     0.055 A 
ATOM     82  C   UNL A   1      38.037  32.742  31.736  1.00  0.00     0.041 A 
ATOM     83  F   UNL A   1      38.994  32.477  29.614  1.00  0.00    -0.206 F 
ATOM     84  C   UNL A   1      38.053  32.502  33.106  1.00  0.00     0.022 A 
BRANCH  81  85
ATOM     85  S   UNL A   1      39.110  31.349  35.415  1.00  0.00     0.124 S 
ATOM     86  O   UNL A   1      40.533  31.280  35.724  1.00  0.00    -0.237 OA
ATOM     87  O   UNL A   1      38.374  32.457  36.017  1.00  0.00    -0.237 OA
ATOM     88  O   UNL A   1      38.408  30.067  35.410  1.00  0.00    -0.744 OA
ENDBRANCH  81  85
ENDBRANCH  54  78
BRANCH  66  89
ATOM     89  C   UNL A   1      46.239  34.157  29.110  1.00  0.00     0.023 A 
ATOM     90  C   UNL A   1      45.849  35.244  28.307  1.00  0.00     0.031 A 
ATOM     91  C   UNL A   1      47.277  34.367  30.038  1.00  0.00     0.131 A 
ATOM     92  C   UNL A   1      46.534  36.466  28.400  1.00  0.00     0.055 A 
ATOM     93  C   UNL A   1      47.907  35.604  30.176  1.00  0.00     0.041 A 
ATOM     94  F   UNL A   1      47.696  33.368  30.832  1.00  0.00    -0.206 F 
ATOM     95  C   UNL A   1      47.548  36.659  29.343  1.00  0.00     0.022 A 
BRANCH  92  96
ATOM     96  S   UNL A   1      46.163  37.769  27.194  1.00  0.00     0.124 S 
ATOM     97  O   UNL A   1      47.102  37.466  26.120  1.00  0.00    -0.237 OA
ATOM     98  O   UNL A   1      44.755  37.527  26.897  1.00  0.00    -0.237 OA
ATOM     99  O   UNL A   1      46.436  39.004  27.927  1.00  0.00    -0.744 OA
ENDBRANCH  92  96
ENDBRANCH  66  89
ENDBRANCH  40  41
ENDBRANCH  33  35
ENDBRANCH  32  33
ENDBRANCH  31  32
ENDBRANCH  30  31
ENDBRANCH  29  30
ENDBRANCH  28  29
ENDBRANCH   1  28
TORSDOF 23
ENDMDL
