MODEL 1
REMARK VINA RESULT:     -11.5      0.000      0.000
REMARK SMILES O=C(OCCOCCOCCOC(=O)c1ccc(-c2c3nc(c(-c4cc(S(=O)(=O)[O-])ccc4F)c4ccc([nH]4)c(-c4cc(S(=O)(=O)[O-])ccc4F)c4nc(c(-c5cc(S(=O)(=O)[O-])ccc5F)c5ccc2[nH]5)C=C4)C=C3)cc1)C1=Cc2c(Cl)ccc(Cl)c2O[C@@H]1C(F)(F)F
REMARK SMILES IDX 8 1 7 2 6 3 5 4 4 5 3 6 2 7 1 8 78 9 79 10 89 11 80 12 88 13
REMARK SMILES IDX 81 14 87 15 82 16 83 17 85 18 84 19 86 20 90 21 91 22 92 23
REMARK SMILES IDX 93 24 9 25 10 26 11 27 12 28 13 29 14 30 15 31 16 32 77 33
REMARK SMILES IDX 17 34 76 35 18 36 19 37 20 38 70 39 21 40 75 41 69 42 71 43
REMARK SMILES IDX 22 44 74 45 68 46 67 47 23 49 55 50 35 51 54 52 36 53 39 54
REMARK SMILES IDX 53 55 72 56 37 57 38 58 52 60 73 61 40 62 24 63 25 64 33 65
REMARK SMILES IDX 26 66 32 67 34 68 31 69 27 70 28 71 29 72 30 73 56 74 57 75
REMARK SMILES IDX 65 76 58 77 64 78 66 79 63 80 59 81 60 82 61 83 62 84 41 85
REMARK SMILES IDX 42 86 50 87 43 88 49 89 51 90 48 91 44 92 45 93 46 94 47 95
REMARK H PARENT 71 48 39 59
REMARK Flexibility Score: inf
ROOT
ATOM      1  C   UNL A   1      41.323  20.954  26.078  1.00  0.00     0.188 C 
ENDROOT
BRANCH   1   2
ATOM      2  C   UNL A   1      39.897  21.324  26.525  1.00  0.00     0.188 C 
BRANCH   2   3
ATOM      3  O   UNL A   1      38.905  22.083  25.733  1.00  0.00    -0.376 OA
BRANCH   3   4
ATOM      4  C   UNL A   1      37.233  21.855  25.602  1.00  0.00     0.202 C 
BRANCH   4   5
ATOM      5  C   UNL A   1      36.002  22.282  23.868  1.00  0.00     0.261 C 
BRANCH   5   6
ATOM      6  O   UNL A   1      35.628  23.645  23.334  1.00  0.00    -0.460 OA
BRANCH   6   7
ATOM      7  C   UNL A   1      34.302  23.777  23.203  1.00  0.00     0.338 C 
ATOM      8  O   UNL A   1      33.624  23.546  22.233  1.00  0.00    -0.246 OA
BRANCH   7   9
ATOM      9  C   UNL A   1      34.084  24.656  24.344  1.00  0.00     0.087 C 
ATOM     10  C   UNL A   1      34.018  26.082  24.013  1.00  0.00     0.029 C 
ATOM     11  C   UNL A   1      32.597  23.625  24.977  1.00  0.00     0.316 C 
ATOM     12  C   UNL A   1      32.490  27.043  23.871  1.00  0.00     0.037 A 
ATOM     13  O   UNL A   1      30.914  24.566  24.699  1.00  0.00    -0.474 OA
ATOM     14  C   UNL A   1      32.510  28.340  23.413  1.00  0.00     0.052 A 
ATOM     15  C   UNL A   1      30.933  26.313  24.133  1.00  0.00     0.148 A 
ATOM     16  Cl  UNL A   1      33.946  29.179  23.000  1.00  0.00    -0.084 Cl
ATOM     17  C   UNL A   1      31.255  28.950  23.233  1.00  0.00     0.023 A 
ATOM     18  C   UNL A   1      29.759  26.981  23.903  1.00  0.00     0.083 A 
ATOM     19  C   UNL A   1      29.965  28.311  23.466  1.00  0.00     0.026 A 
ATOM     20  Cl  UNL A   1      28.195  26.331  23.999  1.00  0.00    -0.080 Cl
BRANCH  11  21
ATOM     21  C   UNL A   1      33.419  23.154  26.349  1.00  0.00     0.430 C 
ATOM     22  F   UNL A   1      34.489  23.832  26.761  1.00  0.00    -0.167 F 
ATOM     23  F   UNL A   1      32.535  23.247  27.384  1.00  0.00    -0.167 F 
ATOM     24  F   UNL A   1      33.782  21.840  26.335  1.00  0.00    -0.167 F 
ENDBRANCH  11  21
ENDBRANCH   7   9
ENDBRANCH   6   7
ENDBRANCH   5   6
ENDBRANCH   4   5
ENDBRANCH   3   4
ENDBRANCH   2   3
ENDBRANCH   1   2
BRANCH   1  25
ATOM     25  O   UNL A   1      41.576  19.728  25.447  1.00  0.00    -0.376 OA
BRANCH  25  26
ATOM     26  C   UNL A   1      42.593  18.924  26.019  1.00  0.00     0.202 C 
BRANCH  26  27
ATOM     27  C   UNL A   1      43.799  18.554  25.147  1.00  0.00     0.261 C 
BRANCH  27  28
ATOM     28  O   UNL A   1      44.159  19.564  24.183  1.00  0.00    -0.460 OA
BRANCH  28  29
ATOM     29  C   UNL A   1      45.269  20.295  24.460  1.00  0.00     0.338 C 
ATOM     30  O   UNL A   1      46.414  20.035  24.138  1.00  0.00    -0.246 OA
BRANCH  29  31
ATOM     31  C   UNL A   1      44.879  21.577  25.086  1.00  0.00     0.060 A 
ATOM     32  C   UNL A   1      44.467  22.637  24.263  1.00  0.00     0.016 A 
ATOM     33  C   UNL A   1      44.971  21.748  26.467  1.00  0.00     0.016 A 
ATOM     34  C   UNL A   1      44.158  23.876  24.818  1.00  0.00     0.010 A 
ATOM     35  C   UNL A   1      44.712  23.006  27.019  1.00  0.00     0.010 A 
ATOM     36  C   UNL A   1      44.345  24.082  26.190  1.00  0.00    -0.014 A 
BRANCH  36  37
ATOM     37  C   UNL A   1      44.478  25.476  26.678  1.00  0.00     0.031 A 
ATOM     38  C   UNL A   1      45.837  26.114  26.559  1.00  0.00     0.074 A 
ATOM     39  C   UNL A   1      43.430  26.171  27.152  1.00  0.00     0.049 A 
ATOM     40  N   UNL A   1      46.224  27.321  26.875  1.00  0.00    -0.248 NA
ATOM     41  C   UNL A   1      46.904  25.265  26.003  1.00  0.00     0.031 C 
ATOM     42  C   UNL A   1      42.060  25.673  27.255  1.00  0.00     0.029 A 
ATOM     43  N   UNL A   1      43.359  27.457  27.627  1.00  0.00    -0.354 N 
ATOM     44  C   UNL A   1      47.578  27.374  26.558  1.00  0.00     0.074 A 
ATOM     45  C   UNL A   1      47.953  26.068  26.069  1.00  0.00     0.031 C 
ATOM     46  C   UNL A   1      41.281  26.648  27.760  1.00  0.00     0.029 A 
ATOM     47  C   UNL A   1      42.101  27.824  28.045  1.00  0.00     0.049 A 
ATOM     48  H   UNL A   1      44.136  28.061  27.665  1.00  0.00     0.167 HD
ATOM     49  C   UNL A   1      48.430  28.423  26.660  1.00  0.00     0.034 A 
ATOM     50  C   UNL A   1      41.674  28.976  28.603  1.00  0.00     0.034 A 
ATOM     51  C   UNL A   1      48.041  29.708  27.180  1.00  0.00     0.049 A 
ATOM     52  C   UNL A   1      42.669  30.099  28.807  1.00  0.00     0.074 A 
ATOM     53  C   UNL A   1      48.813  30.847  27.325  1.00  0.00     0.029 A 
ATOM     54  N   UNL A   1      46.777  30.020  27.666  1.00  0.00    -0.354 N 
ATOM     55  N   UNL A   1      43.943  30.147  28.488  1.00  0.00    -0.248 NA
ATOM     56  C   UNL A   1      42.161  31.326  29.433  1.00  0.00     0.031 C 
ATOM     57  C   UNL A   1      48.049  31.808  27.993  1.00  0.00     0.029 A 
ATOM     58  C   UNL A   1      46.763  31.317  28.155  1.00  0.00     0.049 A 
ATOM     59  H   UNL A   1      46.004  29.409  27.664  1.00  0.00     0.167 HD
ATOM     60  C   UNL A   1      44.374  31.429  28.830  1.00  0.00     0.074 A 
ATOM     61  C   UNL A   1      43.220  32.119  29.369  1.00  0.00     0.031 C 
ATOM     62  C   UNL A   1      45.605  31.989  28.700  1.00  0.00     0.034 A 
BRANCH  49  63
ATOM     63  C   UNL A   1      49.871  28.187  26.276  1.00  0.00     0.023 A 
ATOM     64  C   UNL A   1      50.322  28.312  24.949  1.00  0.00     0.031 A 
ATOM     65  C   UNL A   1      50.800  27.779  27.250  1.00  0.00     0.131 A 
ATOM     66  C   UNL A   1      51.641  27.956  24.623  1.00  0.00     0.055 A 
ATOM     67  C   UNL A   1      52.134  27.520  26.933  1.00  0.00     0.041 A 
ATOM     68  F   UNL A   1      50.422  27.606  28.526  1.00  0.00    -0.206 F 
ATOM     69  C   UNL A   1      52.558  27.592  25.611  1.00  0.00     0.022 A 
BRANCH  66  70
ATOM     70  S   UNL A   1      52.089  27.806  22.871  1.00  0.00     0.124 S 
ATOM     71  O   UNL A   1      51.022  26.946  22.366  1.00  0.00    -0.237 OA
ATOM     72  O   UNL A   1      52.062  29.192  22.418  1.00  0.00    -0.237 OA
ATOM     73  O   UNL A   1      53.413  27.188  22.909  1.00  0.00    -0.744 OA
ENDBRANCH  66  70
ENDBRANCH  49  63
BRANCH  50  74
ATOM     74  C   UNL A   1      40.251  29.139  29.031  1.00  0.00     0.023 A 
ATOM     75  C   UNL A   1      39.886  29.072  30.386  1.00  0.00     0.031 A 
ATOM     76  C   UNL A   1      39.223  29.286  28.082  1.00  0.00     0.131 A 
ATOM     77  C   UNL A   1      38.530  29.096  30.749  1.00  0.00     0.055 A 
ATOM     78  C   UNL A   1      37.881  29.379  28.454  1.00  0.00     0.041 A 
ATOM     79  F   UNL A   1      39.510  29.340  26.771  1.00  0.00    -0.206 F 
ATOM     80  C   UNL A   1      37.526  29.268  29.794  1.00  0.00     0.022 A 
BRANCH  77  81
ATOM     81  S   UNL A   1      38.088  28.774  32.479  1.00  0.00     0.124 S 
ATOM     82  O   UNL A   1      39.096  29.549  33.192  1.00  0.00    -0.237 OA
ATOM     83  O   UNL A   1      36.722  29.282  32.544  1.00  0.00    -0.237 OA
ATOM     84  O   UNL A   1      38.217  27.322  32.599  1.00  0.00    -0.744 OA
ENDBRANCH  77  81
ENDBRANCH  50  74
BRANCH  62  85
ATOM     85  C   UNL A   1      45.749  33.445  29.085  1.00  0.00     0.023 A 
ATOM     86  C   UNL A   1      45.553  34.488  28.163  1.00  0.00     0.031 A 
ATOM     87  C   UNL A   1      46.109  33.793  30.401  1.00  0.00     0.131 A 
ATOM     88  C   UNL A   1      45.802  35.814  28.545  1.00  0.00     0.055 A 
ATOM     89  C   UNL A   1      46.266  35.120  30.798  1.00  0.00     0.041 A 
ATOM     90  F   UNL A   1      46.317  32.842  31.327  1.00  0.00    -0.206 F 
ATOM     91  C   UNL A   1      46.132  36.140  29.862  1.00  0.00     0.022 A 
BRANCH  88  92
ATOM     92  S   UNL A   1      45.836  37.095  27.260  1.00  0.00     0.124 S 
ATOM     93  O   UNL A   1      46.668  38.121  27.880  1.00  0.00    -0.237 OA
ATOM     94  O   UNL A   1      46.434  36.388  26.130  1.00  0.00    -0.237 OA
ATOM     95  O   UNL A   1      44.429  37.452  27.094  1.00  0.00    -0.744 OA
ENDBRANCH  88  92
ENDBRANCH  62  85
ENDBRANCH  36  37
ENDBRANCH  29  31
ENDBRANCH  28  29
ENDBRANCH  27  28
ENDBRANCH  26  27
ENDBRANCH  25  26
ENDBRANCH   1  25
TORSDOF 21
ENDMDL
MODEL 2
REMARK VINA RESULT:     -11.2      3.059      4.314
REMARK SMILES O=C(OCCOCCOCCOC(=O)c1ccc(-c2c3nc(c(-c4cc(S(=O)(=O)[O-])ccc4F)c4ccc([nH]4)c(-c4cc(S(=O)(=O)[O-])ccc4F)c4nc(c(-c5cc(S(=O)(=O)[O-])ccc5F)c5ccc2[nH]5)C=C4)C=C3)cc1)C1=Cc2c(Cl)ccc(Cl)c2O[C@@H]1C(F)(F)F
REMARK SMILES IDX 8 1 7 2 6 3 5 4 4 5 3 6 2 7 1 8 78 9 79 10 89 11 80 12 88 13
REMARK SMILES IDX 81 14 87 15 82 16 83 17 85 18 84 19 86 20 90 21 91 22 92 23
REMARK SMILES IDX 93 24 9 25 10 26 11 27 12 28 13 29 14 30 15 31 16 32 77 33
REMARK SMILES IDX 17 34 76 35 18 36 19 37 20 38 70 39 21 40 75 41 69 42 71 43
REMARK SMILES IDX 22 44 74 45 68 46 67 47 23 49 55 50 35 51 54 52 36 53 39 54
REMARK SMILES IDX 53 55 72 56 37 57 38 58 52 60 73 61 40 62 24 63 25 64 33 65
REMARK SMILES IDX 26 66 32 67 34 68 31 69 27 70 28 71 29 72 30 73 56 74 57 75
REMARK SMILES IDX 65 76 58 77 64 78 66 79 63 80 59 81 60 82 61 83 62 84 41 85
REMARK SMILES IDX 42 86 50 87 43 88 49 89 51 90 48 91 44 92 45 93 46 94 47 95
REMARK H PARENT 71 48 39 59
REMARK Flexibility Score: inf
ROOT
ATOM      1  C   UNL A   1      38.724  18.913  25.646  1.00  0.00     0.188 C 
ENDROOT
BRANCH   1   2
ATOM      2  C   UNL A   1      37.753  19.737  24.782  1.00  0.00     0.188 C 
BRANCH   2   3
ATOM      3  O   UNL A   1      36.322  19.978  25.068  1.00  0.00    -0.376 OA
BRANCH   3   4
ATOM      4  C   UNL A   1      35.579  21.324  25.775  1.00  0.00     0.202 C 
BRANCH   4   5
ATOM      5  C   UNL A   1      36.078  23.406  25.428  1.00  0.00     0.261 C 
BRANCH   5   6
ATOM      6  O   UNL A   1      35.190  24.462  24.809  1.00  0.00    -0.460 OA
BRANCH   6   7
ATOM      7  C   UNL A   1      33.999  23.961  24.459  1.00  0.00     0.338 C 
ATOM      8  O   UNL A   1      33.653  23.552  23.379  1.00  0.00    -0.246 OA
BRANCH   7   9
ATOM      9  C   UNL A   1      33.233  24.487  25.581  1.00  0.00     0.087 C 
ATOM     10  C   UNL A   1      33.542  25.875  25.934  1.00  0.00     0.029 C 
ATOM     11  C   UNL A   1      31.564  23.908  24.839  1.00  0.00     0.316 C 
ATOM     12  C   UNL A   1      32.533  27.309  25.479  1.00  0.00     0.037 A 
ATOM     13  O   UNL A   1      30.514  25.417  24.196  1.00  0.00    -0.474 OA
ATOM     14  C   UNL A   1      32.972  28.589  25.725  1.00  0.00     0.052 A 
ATOM     15  C   UNL A   1      31.067  27.129  24.559  1.00  0.00     0.148 A 
ATOM     16  Cl  UNL A   1      34.446  28.952  26.518  1.00  0.00    -0.084 Cl
ATOM     17  C   UNL A   1      32.162  29.625  25.224  1.00  0.00     0.023 A 
ATOM     18  C   UNL A   1      30.358  28.203  24.089  1.00  0.00     0.083 A 
ATOM     19  C   UNL A   1      30.933  29.442  24.459  1.00  0.00     0.026 A 
ATOM     20  Cl  UNL A   1      28.996  28.146  23.079  1.00  0.00    -0.080 Cl
BRANCH  11  21
ATOM     21  C   UNL A   1      31.326  22.800  26.062  1.00  0.00     0.430 C 
ATOM     22  F   UNL A   1      31.719  23.072  27.305  1.00  0.00    -0.167 F 
ATOM     23  F   UNL A   1      29.977  22.615  26.162  1.00  0.00    -0.167 F 
ATOM     24  F   UNL A   1      31.814  21.561  25.769  1.00  0.00    -0.167 F 
ENDBRANCH  11  21
ENDBRANCH   7   9
ENDBRANCH   6   7
ENDBRANCH   5   6
ENDBRANCH   4   5
ENDBRANCH   3   4
ENDBRANCH   2   3
ENDBRANCH   1   2
BRANCH   1  25
ATOM     25  O   UNL A   1      40.099  18.912  25.371  1.00  0.00    -0.376 OA
BRANCH  25  26
ATOM     26  C   UNL A   1      40.957  19.235  26.451  1.00  0.00     0.202 C 
BRANCH  26  27
ATOM     27  C   UNL A   1      41.502  20.666  26.538  1.00  0.00     0.261 C 
BRANCH  27  28
ATOM     28  O   UNL A   1      40.671  21.566  27.299  1.00  0.00    -0.460 OA
BRANCH  28  29
ATOM     29  C   UNL A   1      39.936  22.458  26.587  1.00  0.00     0.338 C 
ATOM     30  O   UNL A   1      39.251  22.223  25.608  1.00  0.00    -0.246 OA
BRANCH  29  31
ATOM     31  C   UNL A   1      39.945  23.770  27.269  1.00  0.00     0.060 A 
ATOM     32  C   UNL A   1      39.168  24.813  26.743  1.00  0.00     0.016 A 
ATOM     33  C   UNL A   1      40.756  23.984  28.384  1.00  0.00     0.016 A 
ATOM     34  C   UNL A   1      39.208  26.079  27.323  1.00  0.00     0.010 A 
ATOM     35  C   UNL A   1      40.837  25.267  28.934  1.00  0.00     0.010 A 
ATOM     36  C   UNL A   1      40.094  26.325  28.379  1.00  0.00    -0.014 A 
BRANCH  36  37
ATOM     37  C   UNL A   1      40.474  27.730  28.662  1.00  0.00     0.031 A 
ATOM     38  C   UNL A   1      41.889  28.132  28.339  1.00  0.00     0.074 A 
ATOM     39  C   UNL A   1      39.591  28.630  29.130  1.00  0.00     0.049 A 
ATOM     40  N   UNL A   1      42.475  29.295  28.456  1.00  0.00    -0.248 NA
ATOM     41  C   UNL A   1      42.760  27.070  27.811  1.00  0.00     0.031 C 
ATOM     42  C   UNL A   1      38.184  28.363  29.419  1.00  0.00     0.029 A 
ATOM     43  N   UNL A   1      39.755  29.958  29.433  1.00  0.00    -0.354 N 
ATOM     44  C   UNL A   1      43.780  29.100  28.017  1.00  0.00     0.074 A 
ATOM     45  C   UNL A   1      43.912  27.703  27.675  1.00  0.00     0.031 C 
ATOM     46  C   UNL A   1      37.609  29.500  29.855  1.00  0.00     0.029 A 
ATOM     47  C   UNL A   1      38.613  30.561  29.907  1.00  0.00     0.049 A 
ATOM     48  H   UNL A   1      40.608  30.435  29.321  1.00  0.00     0.167 HD
ATOM     49  C   UNL A   1      44.778  30.010  27.903  1.00  0.00     0.034 A 
ATOM     50  C   UNL A   1      38.415  31.824  30.342  1.00  0.00     0.034 A 
ATOM     51  C   UNL A   1      44.633  31.393  28.278  1.00  0.00     0.049 A 
ATOM     52  C   UNL A   1      39.575  32.796  30.305  1.00  0.00     0.074 A 
ATOM     53  C   UNL A   1      45.569  32.408  28.201  1.00  0.00     0.029 A 
ATOM     54  N   UNL A   1      43.485  31.951  28.828  1.00  0.00    -0.354 N 
ATOM     55  N   UNL A   1      40.802  32.610  29.871  1.00  0.00    -0.248 NA
ATOM     56  C   UNL A   1      39.316  34.153  30.804  1.00  0.00     0.031 C 
ATOM     57  C   UNL A   1      45.025  33.548  28.799  1.00  0.00     0.029 A 
ATOM     58  C   UNL A   1      43.707  33.283  29.138  1.00  0.00     0.049 A 
ATOM     59  H   UNL A   1      42.638  31.470  28.975  1.00  0.00     0.167 HD
ATOM     60  C   UNL A   1      41.444  33.841  30.000  1.00  0.00     0.074 A 
ATOM     61  C   UNL A   1      40.463  34.759  30.542  1.00  0.00     0.031 C 
ATOM     62  C   UNL A   1      42.721  34.186  29.688  1.00  0.00     0.034 A 
BRANCH  49  63
ATOM     63  C   UNL A   1      46.121  29.511  27.427  1.00  0.00     0.023 A 
ATOM     64  C   UNL A   1      46.349  29.127  26.093  1.00  0.00     0.031 A 
ATOM     65  C   UNL A   1      47.182  29.370  28.341  1.00  0.00     0.131 A 
ATOM     66  C   UNL A   1      47.576  28.549  25.732  1.00  0.00     0.055 A 
ATOM     67  C   UNL A   1      48.430  28.884  27.952  1.00  0.00     0.041 A 
ATOM     68  F   UNL A   1      47.016  29.685  29.636  1.00  0.00    -0.206 F 
ATOM     69  C   UNL A   1      48.628  28.454  26.645  1.00  0.00     0.022 A 
BRANCH  66  70
ATOM     70  S   UNL A   1      47.717  27.762  24.103  1.00  0.00     0.124 S 
ATOM     71  O   UNL A   1      47.202  26.423  24.377  1.00  0.00    -0.237 OA
ATOM     72  O   UNL A   1      46.876  28.612  23.268  1.00  0.00    -0.237 OA
ATOM     73  O   UNL A   1      49.149  27.825  23.815  1.00  0.00    -0.744 OA
ENDBRANCH  66  70
ENDBRANCH  49  63
BRANCH  50  74
ATOM     74  C   UNL A   1      37.084  32.253  30.868  1.00  0.00     0.023 A 
ATOM     75  C   UNL A   1      36.134  32.867  30.032  1.00  0.00     0.031 A 
ATOM     76  C   UNL A   1      36.771  32.127  32.233  1.00  0.00     0.131 A 
ATOM     77  C   UNL A   1      34.947  33.379  30.578  1.00  0.00     0.055 A 
ATOM     78  C   UNL A   1      35.558  32.577  32.759  1.00  0.00     0.041 A 
ATOM     79  F   UNL A   1      37.646  31.564  33.082  1.00  0.00    -0.206 F 
ATOM     80  C   UNL A   1      34.644  33.221  31.933  1.00  0.00     0.022 A 
BRANCH  77  81
ATOM     81  S   UNL A   1      33.857  34.367  29.516  1.00  0.00     0.124 S 
ATOM     82  O   UNL A   1      33.075  35.106  30.500  1.00  0.00    -0.237 OA
ATOM     83  O   UNL A   1      34.814  35.146  28.739  1.00  0.00    -0.237 OA
ATOM     84  O   UNL A   1      33.115  33.359  28.758  1.00  0.00    -0.744 OA
ENDBRANCH  77  81
ENDBRANCH  50  74
BRANCH  62  85
ATOM     85  C   UNL A   1      43.109  35.638  29.861  1.00  0.00     0.023 A 
ATOM     86  C   UNL A   1      42.826  36.611  28.887  1.00  0.00     0.031 A 
ATOM     87  C   UNL A   1      43.795  36.049  31.019  1.00  0.00     0.131 A 
ATOM     88  C   UNL A   1      43.301  37.920  29.049  1.00  0.00     0.055 A 
ATOM     89  C   UNL A   1      44.184  37.374  31.216  1.00  0.00     0.041 A 
ATOM     90  F   UNL A   1      44.101  35.166  31.984  1.00  0.00    -0.206 F 
ATOM     91  C   UNL A   1      43.956  38.315  30.218  1.00  0.00     0.022 A 
BRANCH  88  92
ATOM     92  S   UNL A   1      43.185  39.065  27.647  1.00  0.00     0.124 S 
ATOM     93  O   UNL A   1      44.551  39.569  27.555  1.00  0.00    -0.237 OA
ATOM     94  O   UNL A   1      42.755  38.188  26.562  1.00  0.00    -0.237 OA
ATOM     95  O   UNL A   1      42.191  40.043  28.084  1.00  0.00    -0.744 OA
ENDBRANCH  88  92
ENDBRANCH  62  85
ENDBRANCH  36  37
ENDBRANCH  29  31
ENDBRANCH  28  29
ENDBRANCH  27  28
ENDBRANCH  26  27
ENDBRANCH  25  26
ENDBRANCH   1  25
TORSDOF 21
ENDMDL
MODEL 3
REMARK VINA RESULT:     -11.1      1.945      2.322
REMARK SMILES O=C(OCCOCCOCCOC(=O)c1ccc(-c2c3nc(c(-c4cc(S(=O)(=O)[O-])ccc4F)c4ccc([nH]4)c(-c4cc(S(=O)(=O)[O-])ccc4F)c4nc(c(-c5cc(S(=O)(=O)[O-])ccc5F)c5ccc2[nH]5)C=C4)C=C3)cc1)C1=Cc2c(Cl)ccc(Cl)c2O[C@@H]1C(F)(F)F
REMARK SMILES IDX 8 1 7 2 6 3 5 4 4 5 3 6 2 7 1 8 78 9 79 10 89 11 80 12 88 13
REMARK SMILES IDX 81 14 87 15 82 16 83 17 85 18 84 19 86 20 90 21 91 22 92 23
REMARK SMILES IDX 93 24 9 25 10 26 11 27 12 28 13 29 14 30 15 31 16 32 77 33
REMARK SMILES IDX 17 34 76 35 18 36 19 37 20 38 70 39 21 40 75 41 69 42 71 43
REMARK SMILES IDX 22 44 74 45 68 46 67 47 23 49 55 50 35 51 54 52 36 53 39 54
REMARK SMILES IDX 53 55 72 56 37 57 38 58 52 60 73 61 40 62 24 63 25 64 33 65
REMARK SMILES IDX 26 66 32 67 34 68 31 69 27 70 28 71 29 72 30 73 56 74 57 75
REMARK SMILES IDX 65 76 58 77 64 78 66 79 63 80 59 81 60 82 61 83 62 84 41 85
REMARK SMILES IDX 42 86 50 87 43 88 49 89 51 90 48 91 44 92 45 93 46 94 47 95
REMARK H PARENT 71 48 39 59
REMARK Flexibility Score: inf
ROOT
ATOM      1  C   UNL A   1      40.761  20.337  26.497  1.00  0.00     0.188 C 
ENDROOT
BRANCH   1   2
ATOM      2  C   UNL A   1      39.570  21.229  26.100  1.00  0.00     0.188 C 
BRANCH   2   3
ATOM      3  O   UNL A   1      39.350  22.628  26.526  1.00  0.00    -0.376 OA
BRANCH   3   4
ATOM      4  C   UNL A   1      38.065  23.670  26.169  1.00  0.00     0.202 C 
BRANCH   4   5
ATOM      5  C   UNL A   1      36.537  23.368  24.660  1.00  0.00     0.261 C 
BRANCH   5   6
ATOM      6  O   UNL A   1      35.071  23.087  24.895  1.00  0.00    -0.460 OA
BRANCH   6   7
ATOM      7  C   UNL A   1      34.291  23.960  24.246  1.00  0.00     0.338 C 
ATOM      8  O   UNL A   1      34.471  24.454  23.161  1.00  0.00    -0.246 OA
BRANCH   7   9
ATOM      9  C   UNL A   1      33.511  24.409  25.392  1.00  0.00     0.087 C 
ATOM     10  C   UNL A   1      33.797  25.779  25.826  1.00  0.00     0.029 C 
ATOM     11  C   UNL A   1      31.854  23.848  24.608  1.00  0.00     0.316 C 
ATOM     12  C   UNL A   1      32.768  27.221  25.449  1.00  0.00     0.037 A 
ATOM     13  O   UNL A   1      30.784  25.375  24.047  1.00  0.00    -0.474 OA
ATOM     14  C   UNL A   1      33.186  28.491  25.770  1.00  0.00     0.052 A 
ATOM     15  C   UNL A   1      31.310  27.072  24.512  1.00  0.00     0.148 A 
ATOM     16  Cl  UNL A   1      34.651  28.830  26.591  1.00  0.00    -0.084 Cl
ATOM     17  C   UNL A   1      32.362  29.542  25.325  1.00  0.00     0.023 A 
ATOM     18  C   UNL A   1      30.586  28.160  24.100  1.00  0.00     0.083 A 
ATOM     19  C   UNL A   1      31.140  29.384  24.544  1.00  0.00     0.026 A 
ATOM     20  Cl  UNL A   1      29.230  28.141  23.082  1.00  0.00    -0.080 Cl
BRANCH  11  21
ATOM     21  C   UNL A   1      31.628  22.668  25.765  1.00  0.00     0.430 C 
ATOM     22  F   UNL A   1      31.910  22.913  27.043  1.00  0.00    -0.167 F 
ATOM     23  F   UNL A   1      30.297  22.368  25.759  1.00  0.00    -0.167 F 
ATOM     24  F   UNL A   1      32.239  21.488  25.458  1.00  0.00    -0.167 F 
ENDBRANCH  11  21
ENDBRANCH   7   9
ENDBRANCH   6   7
ENDBRANCH   5   6
ENDBRANCH   4   5
ENDBRANCH   3   4
ENDBRANCH   2   3
ENDBRANCH   1   2
BRANCH   1  25
ATOM     25  O   UNL A   1      41.043  19.165  25.782  1.00  0.00    -0.376 OA
BRANCH  25  26
ATOM     26  C   UNL A   1      42.233  18.482  26.138  1.00  0.00     0.202 C 
BRANCH  26  27
ATOM     27  C   UNL A   1      43.502  18.769  25.326  1.00  0.00     0.261 C 
BRANCH  27  28
ATOM     28  O   UNL A   1      44.213  19.952  25.745  1.00  0.00    -0.460 OA
BRANCH  28  29
ATOM     29  C   UNL A   1      44.258  20.976  24.855  1.00  0.00     0.338 C 
ATOM     30  O   UNL A   1      44.485  20.897  23.661  1.00  0.00    -0.246 OA
BRANCH  29  31
ATOM     31  C   UNL A   1      43.824  22.228  25.511  1.00  0.00     0.060 A 
ATOM     32  C   UNL A   1      43.601  23.367  24.721  1.00  0.00     0.016 A 
ATOM     33  C   UNL A   1      43.692  22.293  26.898  1.00  0.00     0.016 A 
ATOM     34  C   UNL A   1      43.257  24.578  25.318  1.00  0.00     0.010 A 
ATOM     35  C   UNL A   1      43.399  23.519  27.501  1.00  0.00     0.010 A 
ATOM     36  C   UNL A   1      43.222  24.671  26.714  1.00  0.00    -0.014 A 
BRANCH  36  37
ATOM     37  C   UNL A   1      43.330  26.017  27.329  1.00  0.00     0.031 A 
ATOM     38  C   UNL A   1      44.699  26.645  27.356  1.00  0.00     0.074 A 
ATOM     39  C   UNL A   1      42.258  26.682  27.791  1.00  0.00     0.049 A 
ATOM     40  N   UNL A   1      45.072  27.816  27.801  1.00  0.00    -0.248 NA
ATOM     41  C   UNL A   1      45.796  25.834  26.801  1.00  0.00     0.031 C 
ATOM     42  C   UNL A   1      40.881  26.193  27.759  1.00  0.00     0.029 A 
ATOM     43  N   UNL A   1      42.164  27.923  28.369  1.00  0.00    -0.354 N 
ATOM     44  C   UNL A   1      46.445  27.879  27.580  1.00  0.00     0.074 A 
ATOM     45  C   UNL A   1      46.843  26.615  27.006  1.00  0.00     0.031 C 
ATOM     46  C   UNL A   1      40.076  27.131  28.293  1.00  0.00     0.029 A 
ATOM     47  C   UNL A   1      40.883  28.268  28.733  1.00  0.00     0.049 A 
ATOM     48  H   UNL A   1      42.940  28.511  28.511  1.00  0.00     0.167 HD
ATOM     49  C   UNL A   1      47.295  28.904  27.830  1.00  0.00     0.034 A 
ATOM     50  C   UNL A   1      40.427  29.373  29.360  1.00  0.00     0.034 A 
ATOM     51  C   UNL A   1      46.881  30.145  28.432  1.00  0.00     0.049 A 
ATOM     52  C   UNL A   1      41.414  30.462  29.726  1.00  0.00     0.074 A 
ATOM     53  C   UNL A   1      47.649  31.257  28.726  1.00  0.00     0.029 A 
ATOM     54  N   UNL A   1      45.589  30.430  28.858  1.00  0.00    -0.354 N 
ATOM     55  N   UNL A   1      42.707  30.521  29.497  1.00  0.00    -0.248 NA
ATOM     56  C   UNL A   1      40.874  31.636  30.421  1.00  0.00     0.031 C 
ATOM     57  C   UNL A   1      46.848  32.167  29.423  1.00  0.00     0.029 A 
ATOM     58  C   UNL A   1      45.551  31.679  29.456  1.00  0.00     0.049 A 
ATOM     59  H   UNL A   1      44.814  29.831  28.751  1.00  0.00     0.167 HD
ATOM     60  C   UNL A   1      43.123  31.763  29.978  1.00  0.00     0.074 A 
ATOM     61  C   UNL A   1      41.939  32.418  30.496  1.00  0.00     0.031 C 
ATOM     62  C   UNL A   1      44.364  32.317  29.978  1.00  0.00     0.034 A 
BRANCH  49  63
ATOM     63  C   UNL A   1      48.756  28.684  27.523  1.00  0.00     0.023 A 
ATOM     64  C   UNL A   1      49.278  28.819  26.223  1.00  0.00     0.031 A 
ATOM     65  C   UNL A   1      49.636  28.282  28.544  1.00  0.00     0.131 A 
ATOM     66  C   UNL A   1      50.615  28.477  25.967  1.00  0.00     0.055 A 
ATOM     67  C   UNL A   1      50.988  28.038  28.300  1.00  0.00     0.041 A 
ATOM     68  F   UNL A   1      49.192  28.101  29.798  1.00  0.00    -0.206 F 
ATOM     69  C   UNL A   1      51.481  28.119  27.002  1.00  0.00     0.022 A 
BRANCH  66  70
ATOM     70  S   UNL A   1      51.159  28.338  24.242  1.00  0.00     0.124 S 
ATOM     71  O   UNL A   1      52.132  27.252  24.326  1.00  0.00    -0.237 OA
ATOM     72  O   UNL A   1      49.917  28.032  23.542  1.00  0.00    -0.237 OA
ATOM     73  O   UNL A   1      51.729  29.654  23.956  1.00  0.00    -0.744 OA
ENDBRANCH  66  70
ENDBRANCH  49  63
BRANCH  50  74
ATOM     74  C   UNL A   1      38.980  29.517  29.704  1.00  0.00     0.023 A 
ATOM     75  C   UNL A   1      38.169  30.468  29.062  1.00  0.00     0.031 A 
ATOM     76  C   UNL A   1      38.404  28.756  30.738  1.00  0.00     0.131 A 
ATOM     77  C   UNL A   1      36.850  30.672  29.496  1.00  0.00     0.055 A 
ATOM     78  C   UNL A   1      37.071  28.915  31.119  1.00  0.00     0.041 A 
ATOM     79  F   UNL A   1      39.135  27.843  31.398  1.00  0.00    -0.206 F 
ATOM     80  C   UNL A   1      36.289  29.889  30.507  1.00  0.00     0.022 A 
BRANCH  77  81
ATOM     81  S   UNL A   1      35.912  32.063  28.803  1.00  0.00     0.124 S 
ATOM     82  O   UNL A   1      34.539  31.594  28.946  1.00  0.00    -0.237 OA
ATOM     83  O   UNL A   1      36.310  33.163  29.676  1.00  0.00    -0.237 OA
ATOM     84  O   UNL A   1      36.402  32.153  27.428  1.00  0.00    -0.744 OA
ENDBRANCH  77  81
ENDBRANCH  50  74
BRANCH  62  85
ATOM     85  C   UNL A   1      44.491  33.733  30.497  1.00  0.00     0.023 A 
ATOM     86  C   UNL A   1      44.114  34.849  29.731  1.00  0.00     0.031 A 
ATOM     87  C   UNL A   1      45.020  33.966  31.781  1.00  0.00     0.131 A 
ATOM     88  C   UNL A   1      44.351  36.142  30.218  1.00  0.00     0.055 A 
ATOM     89  C   UNL A   1      45.168  35.254  32.296  1.00  0.00     0.041 A 
ATOM     90  F   UNL A   1      45.405  32.942  32.560  1.00  0.00    -0.206 F 
ATOM     91  C   UNL A   1      44.852  36.353  31.505  1.00  0.00     0.022 A 
BRANCH  88  92
ATOM     92  S   UNL A   1      44.138  37.546  29.089  1.00  0.00     0.124 S 
ATOM     93  O   UNL A   1      43.043  37.088  28.241  1.00  0.00    -0.237 OA
ATOM     94  O   UNL A   1      43.820  38.638  30.005  1.00  0.00    -0.237 OA
ATOM     95  O   UNL A   1      45.435  37.653  28.425  1.00  0.00    -0.744 OA
ENDBRANCH  88  92
ENDBRANCH  62  85
ENDBRANCH  36  37
ENDBRANCH  29  31
ENDBRANCH  28  29
ENDBRANCH  27  28
ENDBRANCH  26  27
ENDBRANCH  25  26
ENDBRANCH   1  25
TORSDOF 21
ENDMDL
