MODEL 1
REMARK VINA RESULT:      -9.6      0.000      0.000
REMARK SMILES CCCCCCNC(=O)Oc1cccc(-c2ccc([C@@H](C)C(=O)OCCOCCOCCOC(=O)c3ccc(-c4c5nc(c(-c6cc(S(=O)(=O)[O-])ccc6F)c6ccc([nH]6)c(-c6cc(S(=O)(=O)[O-])ccc6F)c6nc(c(-c7cc(S(=O)(=O)[O-])ccc7F)c7ccc4[nH]7)C=C6)C=C5)cc3)cc2O)c1
REMARK SMILES IDX 25 1 24 2 22 3 23 4 20 5 21 6 19 7 16 8 17 9 100 10 18 11
REMARK SMILES IDX 99 12 15 13 11 14 12 15 102 16 13 17 14 18 10 19 8 20 7 21
REMARK SMILES IDX 9 23 6 24 5 25 4 26 3 27 2 28 1 29 101 30 26 32 27 33 28 34
REMARK SMILES IDX 29 35 30 36 31 37 32 38 33 39 34 40 35 41 36 42 37 43 98 44
REMARK SMILES IDX 38 45 97 46 39 47 40 48 41 49 91 50 42 51 96 52 90 53 92 54
REMARK SMILES IDX 43 55 95 56 89 57 88 58 44 60 76 61 56 62 75 63 57 64 60 65
REMARK SMILES IDX 74 66 93 67 58 68 59 69 73 71 94 72 61 73 45 74 46 75 54 76
REMARK SMILES IDX 47 77 53 78 55 79 52 80 48 81 49 82 50 83 51 84 77 85 78 86
REMARK SMILES IDX 86 87 79 88 85 89 87 90 84 91 80 92 81 93 82 94 83 95 62 96
REMARK SMILES IDX 63 97 71 98 64 99 70 100 72 101 69 102 65 103 66 104 67 105
REMARK SMILES IDX 68 106
REMARK H PARENT 7 22 101 31 92 59 60 70
REMARK Flexibility Score: inf
ROOT
ATOM      1  C   UNL A   1      33.246  35.653  29.501  1.00  0.00     0.261 C 
ENDROOT
BRANCH   1   2
ATOM      2  O   UNL A   1      33.242  34.297  29.004  1.00  0.00    -0.463 OA
BRANCH   2   3
ATOM      3  C   UNL A   1      34.295  33.940  28.223  1.00  0.00     0.313 C 
ATOM      4  O   UNL A   1      34.808  34.701  27.405  1.00  0.00    -0.252 OA
BRANCH   3   5
ATOM      5  C   UNL A   1      34.831  32.517  28.409  1.00  0.00     0.126 C 
ATOM      6  C   UNL A   1      36.337  32.533  28.149  1.00  0.00     0.025 C 
BRANCH   5   7
ATOM      7  C   UNL A   1      34.185  31.321  27.708  1.00  0.00    -0.030 A 
ATOM      8  C   UNL A   1      32.862  29.162  26.341  1.00  0.00     0.024 A 
ATOM      9  C   UNL A   1      34.044  28.964  27.082  1.00  0.00     0.013 A 
ATOM     10  C   UNL A   1      32.351  30.468  26.318  1.00  0.00     0.123 A 
ATOM     11  C   UNL A   1      34.690  30.017  27.764  1.00  0.00     0.005 A 
ATOM     12  C   UNL A   1      32.993  31.520  26.987  1.00  0.00     0.051 A 
BRANCH   8  13
ATOM     13  C   UNL A   1      32.191  28.018  25.682  1.00  0.00    -0.011 A 
ATOM     14  C   UNL A   1      31.904  25.634  25.279  1.00  0.00     0.133 A 
ATOM     15  C   UNL A   1      30.959  25.885  24.287  1.00  0.00     0.047 A 
ATOM     16  C   UNL A   1      32.520  26.680  25.978  1.00  0.00     0.056 A 
ATOM     17  C   UNL A   1      30.607  27.200  23.999  1.00  0.00     0.004 A 
ATOM     18  C   UNL A   1      31.220  28.253  24.687  1.00  0.00     0.009 A 
BRANCH  14  19
ATOM     19  O   UNL A   1      32.317  24.298  25.424  1.00  0.00    -0.410 OA
BRANCH  19  20
ATOM     20  C   UNL A   1      31.569  23.456  26.232  1.00  0.00     0.412 C 
ATOM     21  N   UNL A   1      31.492  22.174  25.757  1.00  0.00    -0.321 N 
ATOM     22  H   UNL A   1      31.054  21.515  26.343  1.00  0.00     0.167 HD
ATOM     23  O   UNL A   1      30.977  23.787  27.258  1.00  0.00    -0.224 OA
BRANCH  21  24
ATOM     24  C   UNL A   1      31.984  21.679  24.483  1.00  0.00     0.119 C 
BRANCH  24  25
ATOM     25  C   UNL A   1      32.231  20.170  24.479  1.00  0.00     0.021 C 
BRANCH  25  26
ATOM     26  C   UNL A   1      33.704  19.747  24.528  1.00  0.00     0.002 C 
BRANCH  26  27
ATOM     27  C   UNL A   1      33.979  18.333  25.053  1.00  0.00    -0.000 C 
BRANCH  27  28
ATOM     28  C   UNL A   1      34.816  17.435  24.139  1.00  0.00    -0.003 C 
ATOM     29  C   UNL A   1      33.990  16.428  23.354  1.00  0.00     0.004 C 
ENDBRANCH  27  28
ENDBRANCH  26  27
ENDBRANCH  25  26
ENDBRANCH  24  25
ENDBRANCH  21  24
ENDBRANCH  19  20
ENDBRANCH  14  19
ENDBRANCH   8  13
BRANCH  10  30
ATOM     30  O   UNL A   1      31.193  30.810  25.671  1.00  0.00    -0.507 OA
ATOM     31  H   UNL A   1      30.753  31.608  25.887  1.00  0.00     0.293 HD
ENDBRANCH  10  30
ENDBRANCH   5   7
ENDBRANCH   3   5
ENDBRANCH   2   3
ENDBRANCH   1   2
BRANCH   1  32
ATOM     32  C   UNL A   1      32.863  35.804  30.979  1.00  0.00     0.202 C 
BRANCH  32  33
ATOM     33  O   UNL A   1      33.886  36.181  31.890  1.00  0.00    -0.376 OA
BRANCH  33  34
ATOM     34  C   UNL A   1      34.697  35.173  32.486  1.00  0.00     0.188 C 
BRANCH  34  35
ATOM     35  C   UNL A   1      34.027  33.983  33.188  1.00  0.00     0.188 C 
BRANCH  35  36
ATOM     36  O   UNL A   1      33.977  32.803  32.408  1.00  0.00    -0.376 OA
BRANCH  36  37
ATOM     37  C   UNL A   1      35.198  32.415  31.808  1.00  0.00     0.202 C 
BRANCH  37  38
ATOM     38  C   UNL A   1      35.971  31.396  32.655  1.00  0.00     0.261 C 
BRANCH  38  39
ATOM     39  O   UNL A   1      36.237  30.137  32.009  1.00  0.00    -0.460 OA
BRANCH  39  40
ATOM     40  C   UNL A   1      37.349  29.470  32.390  1.00  0.00     0.338 C 
ATOM     41  O   UNL A   1      37.393  28.401  32.989  1.00  0.00    -0.246 OA
BRANCH  40  42
ATOM     42  C   UNL A   1      38.516  30.133  31.772  1.00  0.00     0.060 A 
ATOM     43  C   UNL A   1      38.546  30.318  30.383  1.00  0.00     0.016 A 
ATOM     44  C   UNL A   1      39.570  30.588  32.568  1.00  0.00     0.016 A 
ATOM     45  C   UNL A   1      39.641  30.947  29.783  1.00  0.00     0.010 A 
ATOM     46  C   UNL A   1      40.673  31.197  31.963  1.00  0.00     0.010 A 
ATOM     47  C   UNL A   1      40.726  31.360  30.566  1.00  0.00    -0.014 A 
BRANCH  47  48
ATOM     48  C   UNL A   1      41.996  31.804  29.934  1.00  0.00     0.031 A 
ATOM     49  C   UNL A   1      42.992  30.755  29.521  1.00  0.00     0.074 A 
ATOM     50  C   UNL A   1      42.275  33.107  29.751  1.00  0.00     0.049 A 
ATOM     51  N   UNL A   1      44.208  30.892  29.060  1.00  0.00    -0.248 NA
ATOM     52  C   UNL A   1      42.552  29.359  29.660  1.00  0.00     0.031 C 
ATOM     53  C   UNL A   1      41.373  34.215  30.054  1.00  0.00     0.029 A 
ATOM     54  N   UNL A   1      43.411  33.716  29.276  1.00  0.00    -0.354 N 
ATOM     55  C   UNL A   1      44.688  29.602  28.870  1.00  0.00     0.074 A 
ATOM     56  C   UNL A   1      43.640  28.698  29.297  1.00  0.00     0.031 C 
ATOM     57  C   UNL A   1      41.994  35.372  29.763  1.00  0.00     0.029 A 
ATOM     58  C   UNL A   1      43.353  35.090  29.304  1.00  0.00     0.049 A 
ATOM     59  H   UNL A   1      44.192  33.216  28.947  1.00  0.00     0.167 HD
ATOM     60  C   UNL A   1      45.892  29.207  28.384  1.00  0.00     0.034 A 
ATOM     61  C   UNL A   1      44.299  36.010  29.023  1.00  0.00     0.034 A 
ATOM     62  C   UNL A   1      46.932  30.122  27.979  1.00  0.00     0.049 A 
ATOM     63  C   UNL A   1      45.676  35.548  28.601  1.00  0.00     0.074 A 
ATOM     64  C   UNL A   1      48.172  29.831  27.438  1.00  0.00     0.029 A 
ATOM     65  N   UNL A   1      46.866  31.505  28.095  1.00  0.00    -0.354 N 
ATOM     66  N   UNL A   1      46.118  34.325  28.407  1.00  0.00    -0.248 NA
ATOM     67  C   UNL A   1      46.683  36.591  28.368  1.00  0.00     0.031 C 
ATOM     68  C   UNL A   1      48.887  31.028  27.314  1.00  0.00     0.029 A 
ATOM     69  C   UNL A   1      48.062  32.076  27.689  1.00  0.00     0.049 A 
ATOM     70  H   UNL A   1      46.082  32.007  28.416  1.00  0.00     0.167 HD
ATOM     71  C   UNL A   1      47.445  34.459  28.002  1.00  0.00     0.074 A 
ATOM     72  C   UNL A   1      47.726  35.879  27.968  1.00  0.00     0.031 C 
ATOM     73  C   UNL A   1      48.346  33.494  27.680  1.00  0.00     0.034 A 
BRANCH  60  74
ATOM     74  C   UNL A   1      46.166  27.721  28.342  1.00  0.00     0.023 A 
ATOM     75  C   UNL A   1      46.168  26.997  27.137  1.00  0.00     0.031 A 
ATOM     76  C   UNL A   1      46.376  27.009  29.537  1.00  0.00     0.131 A 
ATOM     77  C   UNL A   1      46.284  25.598  27.160  1.00  0.00     0.055 A 
ATOM     78  C   UNL A   1      46.584  25.628  29.545  1.00  0.00     0.041 A 
ATOM     79  F   UNL A   1      46.359  27.639  30.721  1.00  0.00    -0.206 F 
ATOM     80  C   UNL A   1      46.520  24.911  28.355  1.00  0.00     0.022 A 
BRANCH  77  81
ATOM     81  S   UNL A   1      45.951  24.673  25.636  1.00  0.00     0.124 S 
ATOM     82  O   UNL A   1      44.497  24.525  25.688  1.00  0.00    -0.237 OA
ATOM     83  O   UNL A   1      46.465  25.567  24.604  1.00  0.00    -0.237 OA
ATOM     84  O   UNL A   1      46.699  23.431  25.816  1.00  0.00    -0.744 OA
ENDBRANCH  77  81
ENDBRANCH  60  74
BRANCH  61  85
ATOM     85  C   UNL A   1      44.008  37.466  29.168  1.00  0.00     0.023 A 
ATOM     86  C   UNL A   1      43.750  38.265  28.042  1.00  0.00     0.031 A 
ATOM     87  C   UNL A   1      44.039  38.091  30.427  1.00  0.00     0.131 A 
ATOM     88  C   UNL A   1      43.568  39.649  28.193  1.00  0.00     0.055 A 
ATOM     89  C   UNL A   1      43.804  39.460  30.577  1.00  0.00     0.041 A 
ATOM     90  F   UNL A   1      44.294  37.378  31.535  1.00  0.00    -0.206 F 
ATOM     91  C   UNL A   1      43.577  40.249  29.455  1.00  0.00     0.022 A 
BRANCH  88  92
ATOM     92  S   UNL A   1      43.394  40.670  26.704  1.00  0.00     0.124 S 
ATOM     93  O   UNL A   1      44.082  41.893  27.101  1.00  0.00    -0.237 OA
ATOM     94  O   UNL A   1      44.064  39.855  25.696  1.00  0.00    -0.237 OA
ATOM     95  O   UNL A   1      41.946  40.792  26.542  1.00  0.00    -0.744 OA
ENDBRANCH  88  92
ENDBRANCH  61  85
BRANCH  73  96
ATOM     96  C   UNL A   1      49.716  33.949  27.230  1.00  0.00     0.023 A 
ATOM     97  C   UNL A   1      50.823  33.941  28.096  1.00  0.00     0.031 A 
ATOM     98  C   UNL A   1      49.915  34.396  25.911  1.00  0.00     0.131 A 
ATOM     99  C   UNL A   1      52.066  34.418  27.650  1.00  0.00     0.055 A 
ATOM    100  C   UNL A   1      51.168  34.809  25.453  1.00  0.00     0.041 A 
ATOM    101  F   UNL A   1      48.895  34.430  25.038  1.00  0.00    -0.206 F 
ATOM    102  C   UNL A   1      52.250  34.832  26.328  1.00  0.00     0.022 A 
BRANCH  99 103
ATOM    103  S   UNL A   1      53.424  34.572  28.843  1.00  0.00     0.124 S 
ATOM    104  O   UNL A   1      53.724  33.175  29.142  1.00  0.00    -0.237 OA
ATOM    105  O   UNL A   1      54.435  35.291  28.076  1.00  0.00    -0.237 OA
ATOM    106  O   UNL A   1      52.829  35.327  29.945  1.00  0.00    -0.744 OA
ENDBRANCH  99 103
ENDBRANCH  73  96
ENDBRANCH  47  48
ENDBRANCH  40  42
ENDBRANCH  39  40
ENDBRANCH  38  39
ENDBRANCH  37  38
ENDBRANCH  36  37
ENDBRANCH  35  36
ENDBRANCH  34  35
ENDBRANCH  33  34
ENDBRANCH  32  33
ENDBRANCH   1  32
TORSDOF 30
ENDMDL
MODEL 2
REMARK VINA RESULT:      -9.1      5.998      9.608
REMARK SMILES CCCCCCNC(=O)Oc1cccc(-c2ccc([C@@H](C)C(=O)OCCOCCOCCOC(=O)c3ccc(-c4c5nc(c(-c6cc(S(=O)(=O)[O-])ccc6F)c6ccc([nH]6)c(-c6cc(S(=O)(=O)[O-])ccc6F)c6nc(c(-c7cc(S(=O)(=O)[O-])ccc7F)c7ccc4[nH]7)C=C6)C=C5)cc3)cc2O)c1
REMARK SMILES IDX 25 1 24 2 22 3 23 4 20 5 21 6 19 7 16 8 17 9 100 10 18 11
REMARK SMILES IDX 99 12 15 13 11 14 12 15 102 16 13 17 14 18 10 19 8 20 7 21
REMARK SMILES IDX 9 23 6 24 5 25 4 26 3 27 2 28 1 29 101 30 26 32 27 33 28 34
REMARK SMILES IDX 29 35 30 36 31 37 32 38 33 39 34 40 35 41 36 42 37 43 98 44
REMARK SMILES IDX 38 45 97 46 39 47 40 48 41 49 91 50 42 51 96 52 90 53 92 54
REMARK SMILES IDX 43 55 95 56 89 57 88 58 44 60 76 61 56 62 75 63 57 64 60 65
REMARK SMILES IDX 74 66 93 67 58 68 59 69 73 71 94 72 61 73 45 74 46 75 54 76
REMARK SMILES IDX 47 77 53 78 55 79 52 80 48 81 49 82 50 83 51 84 77 85 78 86
REMARK SMILES IDX 86 87 79 88 85 89 87 90 84 91 80 92 81 93 82 94 83 95 62 96
REMARK SMILES IDX 63 97 71 98 64 99 70 100 72 101 69 102 65 103 66 104 67 105
REMARK SMILES IDX 68 106
REMARK H PARENT 7 22 101 31 92 59 60 70
REMARK Flexibility Score: inf
ROOT
ATOM      1  C   UNL A   1      32.800  29.540  25.559  1.00  0.00     0.261 C 
ENDROOT
BRANCH   1   2
ATOM      2  O   UNL A   1      31.418  29.119  25.583  1.00  0.00    -0.463 OA
BRANCH   2   3
ATOM      3  C   UNL A   1      30.704  29.337  24.448  1.00  0.00     0.313 C 
ATOM      4  O   UNL A   1      30.197  30.424  24.176  1.00  0.00    -0.252 OA
BRANCH   3   5
ATOM      5  C   UNL A   1      30.554  28.146  23.497  1.00  0.00     0.126 C 
ATOM      6  C   UNL A   1      29.072  27.981  23.162  1.00  0.00     0.025 C 
BRANCH   5   7
ATOM      7  C   UNL A   1      31.179  26.786  23.811  1.00  0.00    -0.030 A 
ATOM      8  C   UNL A   1      32.462  24.257  24.298  1.00  0.00     0.024 A 
ATOM      9  C   UNL A   1      31.301  24.651  24.992  1.00  0.00     0.013 A 
ATOM     10  C   UNL A   1      32.953  25.156  23.340  1.00  0.00     0.123 A 
ATOM     11  C   UNL A   1      30.661  25.885  24.749  1.00  0.00     0.005 A 
ATOM     12  C   UNL A   1      32.327  26.388  23.099  1.00  0.00     0.051 A 
BRANCH   8  13
ATOM     13  C   UNL A   1      33.071  22.931  24.551  1.00  0.00    -0.011 A 
ATOM     14  C   UNL A   1      34.827  21.508  25.458  1.00  0.00     0.133 A 
ATOM     15  C   UNL A   1      34.251  20.378  24.882  1.00  0.00     0.047 A 
ATOM     16  C   UNL A   1      34.253  22.776  25.303  1.00  0.00     0.056 A 
ATOM     17  C   UNL A   1      33.072  20.511  24.155  1.00  0.00     0.004 A 
ATOM     18  C   UNL A   1      32.493  21.774  23.989  1.00  0.00     0.009 A 
BRANCH  14  19
ATOM     19  O   UNL A   1      36.086  21.329  26.058  1.00  0.00    -0.410 OA
BRANCH  19  20
ATOM     20  C   UNL A   1      37.173  21.041  25.249  1.00  0.00     0.412 C 
ATOM     21  N   UNL A   1      38.153  21.996  25.294  1.00  0.00    -0.321 N 
ATOM     22  H   UNL A   1      38.987  21.791  24.813  1.00  0.00     0.167 HD
ATOM     23  O   UNL A   1      37.277  20.062  24.511  1.00  0.00    -0.224 OA
BRANCH  21  24
ATOM     24  C   UNL A   1      38.097  23.279  25.974  1.00  0.00     0.119 C 
BRANCH  24  25
ATOM     25  C   UNL A   1      39.415  23.661  26.647  1.00  0.00     0.021 C 
BRANCH  25  26
ATOM     26  C   UNL A   1      39.335  24.839  27.626  1.00  0.00     0.002 C 
BRANCH  26  27
ATOM     27  C   UNL A   1      40.442  25.893  27.499  1.00  0.00    -0.000 C 
BRANCH  27  28
ATOM     28  C   UNL A   1      40.761  26.353  26.074  1.00  0.00    -0.003 C 
ATOM     29  C   UNL A   1      42.161  26.927  25.920  1.00  0.00     0.004 C 
ENDBRANCH  27  28
ENDBRANCH  26  27
ENDBRANCH  25  26
ENDBRANCH  24  25
ENDBRANCH  21  24
ENDBRANCH  19  20
ENDBRANCH  14  19
ENDBRANCH   8  13
BRANCH  10  30
ATOM     30  O   UNL A   1      34.051  24.899  22.562  1.00  0.00    -0.507 OA
ATOM     31  H   UNL A   1      34.819  25.430  22.644  1.00  0.00     0.293 HD
ENDBRANCH  10  30
ENDBRANCH   5   7
ENDBRANCH   3   5
ENDBRANCH   2   3
ENDBRANCH   1   2
BRANCH   1  32
ATOM     32  C   UNL A   1      33.452  29.704  26.938  1.00  0.00     0.202 C 
BRANCH  32  33
ATOM     33  O   UNL A   1      34.671  30.430  27.009  1.00  0.00    -0.376 OA
BRANCH  33  34
ATOM     34  C   UNL A   1      34.821  31.449  27.994  1.00  0.00     0.188 C 
BRANCH  34  35
ATOM     35  C   UNL A   1      36.225  31.972  28.328  1.00  0.00     0.188 C 
BRANCH  35  36
ATOM     36  O   UNL A   1      36.833  31.335  29.436  1.00  0.00    -0.376 OA
BRANCH  36  37
ATOM     37  C   UNL A   1      36.824  32.072  30.645  1.00  0.00     0.202 C 
BRANCH  37  38
ATOM     38  C   UNL A   1      35.980  31.402  31.735  1.00  0.00     0.261 C 
BRANCH  38  39
ATOM     39  O   UNL A   1      36.689  30.473  32.576  1.00  0.00    -0.460 OA
BRANCH  39  40
ATOM     40  C   UNL A   1      37.637  30.981  33.396  1.00  0.00     0.338 C 
ATOM     41  O   UNL A   1      37.459  31.755  34.329  1.00  0.00    -0.246 OA
BRANCH  40  42
ATOM     42  C   UNL A   1      38.906  30.276  33.120  1.00  0.00     0.060 A 
ATOM     43  C   UNL A   1      38.944  28.877  33.184  1.00  0.00     0.016 A 
ATOM     44  C   UNL A   1      40.053  30.998  32.781  1.00  0.00     0.016 A 
ATOM     45  C   UNL A   1      40.135  28.194  32.923  1.00  0.00     0.010 A 
ATOM     46  C   UNL A   1      41.248  30.315  32.541  1.00  0.00     0.010 A 
ATOM     47  C   UNL A   1      41.303  28.912  32.633  1.00  0.00    -0.014 A 
BRANCH  47  48
ATOM     48  C   UNL A   1      42.624  28.232  32.593  1.00  0.00     0.031 A 
ATOM     49  C   UNL A   1      43.404  28.114  33.873  1.00  0.00     0.074 A 
ATOM     50  C   UNL A   1      43.136  27.752  31.445  1.00  0.00     0.049 A 
ATOM     51  N   UNL A   1      44.618  27.672  34.075  1.00  0.00    -0.248 NA
ATOM     52  C   UNL A   1      42.717  28.569  35.090  1.00  0.00     0.031 C 
ATOM     53  C   UNL A   1      42.457  27.752  30.152  1.00  0.00     0.029 A 
ATOM     54  N   UNL A   1      44.357  27.181  31.186  1.00  0.00    -0.354 N 
ATOM     55  C   UNL A   1      44.850  27.812  35.438  1.00  0.00     0.074 A 
ATOM     56  C   UNL A   1      43.659  28.409  36.006  1.00  0.00     0.031 C 
ATOM     57  C   UNL A   1      43.277  27.213  29.231  1.00  0.00     0.029 A 
ATOM     58  C   UNL A   1      44.554  26.877  29.859  1.00  0.00     0.049 A 
ATOM     59  H   UNL A   1      45.029  27.006  31.884  1.00  0.00     0.167 HD
ATOM     60  C   UNL A   1      45.954  27.473  36.151  1.00  0.00     0.034 A 
ATOM     61  C   UNL A   1      45.650  26.414  29.222  1.00  0.00     0.034 A 
ATOM     62  C   UNL A   1      47.139  26.893  35.565  1.00  0.00     0.049 A 
ATOM     63  C   UNL A   1      46.912  26.159  30.014  1.00  0.00     0.074 A 
ATOM     64  C   UNL A   1      48.297  26.478  36.199  1.00  0.00     0.029 A 
ATOM     65  N   UNL A   1      47.330  26.672  34.207  1.00  0.00    -0.354 N 
ATOM     66  N   UNL A   1      47.119  26.277  31.307  1.00  0.00    -0.248 NA
ATOM     67  C   UNL A   1      48.091  25.715  29.259  1.00  0.00     0.031 C 
ATOM     68  C   UNL A   1      49.219  26.093  35.218  1.00  0.00     0.029 A 
ATOM     69  C   UNL A   1      48.606  26.180  33.978  1.00  0.00     0.049 A 
ATOM     70  H   UNL A   1      46.657  26.839  33.509  1.00  0.00     0.167 HD
ATOM     71  C   UNL A   1      48.442  25.894  31.518  1.00  0.00     0.074 A 
ATOM     72  C   UNL A   1      48.979  25.530  30.224  1.00  0.00     0.031 C 
ATOM     73  C   UNL A   1      49.146  25.841  32.679  1.00  0.00     0.034 A 
BRANCH  60  74
ATOM     74  C   UNL A   1      45.949  27.796  37.627  1.00  0.00     0.023 A 
ATOM     75  C   UNL A   1      46.316  29.064  38.114  1.00  0.00     0.031 A 
ATOM     76  C   UNL A   1      45.625  26.801  38.566  1.00  0.00     0.131 A 
ATOM     77  C   UNL A   1      46.435  29.275  39.497  1.00  0.00     0.055 A 
ATOM     78  C   UNL A   1      45.656  27.044  39.940  1.00  0.00     0.041 A 
ATOM     79  F   UNL A   1      45.294  25.564  38.164  1.00  0.00    -0.206 F 
ATOM     80  C   UNL A   1      46.082  28.281  40.414  1.00  0.00     0.022 A 
BRANCH  77  81
ATOM     81  S   UNL A   1      47.223  30.803  40.077  1.00  0.00     0.124 S 
ATOM     82  O   UNL A   1      46.206  31.803  39.757  1.00  0.00    -0.237 OA
ATOM     83  O   UNL A   1      47.430  30.534  41.495  1.00  0.00    -0.237 OA
ATOM     84  O   UNL A   1      48.441  30.889  39.273  1.00  0.00    -0.744 OA
ENDBRANCH  77  81
ENDBRANCH  60  74
BRANCH  61  85
ATOM     85  C   UNL A   1      45.634  26.197  27.746  1.00  0.00     0.023 A 
ATOM     86  C   UNL A   1      45.378  24.926  27.206  1.00  0.00     0.031 A 
ATOM     87  C   UNL A   1      45.929  27.244  26.854  1.00  0.00     0.131 A 
ATOM     88  C   UNL A   1      45.457  24.725  25.820  1.00  0.00     0.055 A 
ATOM     89  C   UNL A   1      45.953  27.050  25.471  1.00  0.00     0.041 A 
ATOM     90  F   UNL A   1      46.194  28.476  27.316  1.00  0.00    -0.206 F 
ATOM     91  C   UNL A   1      45.726  25.782  24.946  1.00  0.00     0.022 A 
BRANCH  88  92
ATOM     92  S   UNL A   1      45.276  23.039  25.174  1.00  0.00     0.124 S 
ATOM     93  O   UNL A   1      46.628  22.516  25.330  1.00  0.00    -0.237 OA
ATOM     94  O   UNL A   1      44.265  22.479  26.064  1.00  0.00    -0.237 OA
ATOM     95  O   UNL A   1      44.843  23.247  23.794  1.00  0.00    -0.744 OA
ENDBRANCH  88  92
ENDBRANCH  61  85
BRANCH  73  96
ATOM     96  C   UNL A   1      50.569  25.338  32.604  1.00  0.00     0.023 A 
ATOM     97  C   UNL A   1      50.887  23.979  32.771  1.00  0.00     0.031 A 
ATOM     98  C   UNL A   1      51.625  26.236  32.359  1.00  0.00     0.131 A 
ATOM     99  C   UNL A   1      52.228  23.564  32.741  1.00  0.00     0.055 A 
ATOM    100  C   UNL A   1      52.951  25.808  32.266  1.00  0.00     0.041 A 
ATOM    101  F   UNL A   1      51.385  27.546  32.195  1.00  0.00    -0.206 F 
ATOM    102  C   UNL A   1      53.260  24.467  32.469  1.00  0.00     0.022 A 
BRANCH  99 103
ATOM    103  S   UNL A   1      52.619  21.839  33.147  1.00  0.00     0.124 S 
ATOM    104  O   UNL A   1      54.037  21.763  32.810  1.00  0.00    -0.237 OA
ATOM    105  O   UNL A   1      52.297  21.771  34.568  1.00  0.00    -0.237 OA
ATOM    106  O   UNL A   1      51.733  21.071  32.273  1.00  0.00    -0.744 OA
ENDBRANCH  99 103
ENDBRANCH  73  96
ENDBRANCH  47  48
ENDBRANCH  40  42
ENDBRANCH  39  40
ENDBRANCH  38  39
ENDBRANCH  37  38
ENDBRANCH  36  37
ENDBRANCH  35  36
ENDBRANCH  34  35
ENDBRANCH  33  34
ENDBRANCH  32  33
ENDBRANCH   1  32
TORSDOF 30
ENDMDL
MODEL 3
REMARK VINA RESULT:      -9.0      7.734     11.633
REMARK SMILES CCCCCCNC(=O)Oc1cccc(-c2ccc([C@@H](C)C(=O)OCCOCCOCCOC(=O)c3ccc(-c4c5nc(c(-c6cc(S(=O)(=O)[O-])ccc6F)c6ccc([nH]6)c(-c6cc(S(=O)(=O)[O-])ccc6F)c6nc(c(-c7cc(S(=O)(=O)[O-])ccc7F)c7ccc4[nH]7)C=C6)C=C5)cc3)cc2O)c1
REMARK SMILES IDX 25 1 24 2 22 3 23 4 20 5 21 6 19 7 16 8 17 9 100 10 18 11
REMARK SMILES IDX 99 12 15 13 11 14 12 15 102 16 13 17 14 18 10 19 8 20 7 21
REMARK SMILES IDX 9 23 6 24 5 25 4 26 3 27 2 28 1 29 101 30 26 32 27 33 28 34
REMARK SMILES IDX 29 35 30 36 31 37 32 38 33 39 34 40 35 41 36 42 37 43 98 44
REMARK SMILES IDX 38 45 97 46 39 47 40 48 41 49 91 50 42 51 96 52 90 53 92 54
REMARK SMILES IDX 43 55 95 56 89 57 88 58 44 60 76 61 56 62 75 63 57 64 60 65
REMARK SMILES IDX 74 66 93 67 58 68 59 69 73 71 94 72 61 73 45 74 46 75 54 76
REMARK SMILES IDX 47 77 53 78 55 79 52 80 48 81 49 82 50 83 51 84 77 85 78 86
REMARK SMILES IDX 86 87 79 88 85 89 87 90 84 91 80 92 81 93 82 94 83 95 62 96
REMARK SMILES IDX 63 97 71 98 64 99 70 100 72 101 69 102 65 103 66 104 67 105
REMARK SMILES IDX 68 106
REMARK H PARENT 7 22 101 31 92 59 60 70
REMARK Flexibility Score: inf
ROOT
ATOM      1  C   UNL A   1      34.472  30.657  27.281  1.00  0.00     0.261 C 
ENDROOT
BRANCH   1   2
ATOM      2  O   UNL A   1      33.079  30.497  27.630  1.00  0.00    -0.463 OA
BRANCH   2   3
ATOM      3  C   UNL A   1      32.181  30.730  26.639  1.00  0.00     0.313 C 
ATOM      4  O   UNL A   1      31.391  31.672  26.660  1.00  0.00    -0.252 OA
BRANCH   3   5
ATOM      5  C   UNL A   1      32.191  29.747  25.463  1.00  0.00     0.126 C 
ATOM      6  C   UNL A   1      30.883  29.910  24.688  1.00  0.00     0.025 C 
BRANCH   5   7
ATOM      7  C   UNL A   1      32.508  28.265  25.661  1.00  0.00    -0.030 A 
ATOM      8  C   UNL A   1      32.962  25.454  26.080  1.00  0.00     0.024 A 
ATOM      9  C   UNL A   1      33.979  26.315  25.622  1.00  0.00     0.013 A 
ATOM     10  C   UNL A   1      31.715  26.043  26.340  1.00  0.00     0.123 A 
ATOM     11  C   UNL A   1      33.765  27.696  25.427  1.00  0.00     0.005 A 
ATOM     12  C   UNL A   1      31.493  27.413  26.139  1.00  0.00     0.051 A 
BRANCH   8  13
ATOM     13  C   UNL A   1      33.246  24.020  26.318  1.00  0.00    -0.011 A 
ATOM     14  C   UNL A   1      33.892  21.800  25.556  1.00  0.00     0.133 A 
ATOM     15  C   UNL A   1      33.640  21.261  26.816  1.00  0.00     0.047 A 
ATOM     16  C   UNL A   1      33.703  23.163  25.297  1.00  0.00     0.056 A 
ATOM     17  C   UNL A   1      33.210  22.098  27.840  1.00  0.00     0.004 A 
ATOM     18  C   UNL A   1      33.011  23.461  27.591  1.00  0.00     0.009 A 
BRANCH  14  19
ATOM     19  O   UNL A   1      34.189  20.882  24.533  1.00  0.00    -0.410 OA
BRANCH  19  20
ATOM     20  C   UNL A   1      33.224  19.956  24.172  1.00  0.00     0.412 C 
ATOM     21  N   UNL A   1      32.236  20.479  23.383  1.00  0.00    -0.321 N 
ATOM     22  H   UNL A   1      31.580  19.840  23.020  1.00  0.00     0.167 HD
ATOM     23  O   UNL A   1      33.189  18.780  24.533  1.00  0.00    -0.224 OA
BRANCH  21  24
ATOM     24  C   UNL A   1      32.047  21.874  23.022  1.00  0.00     0.119 C 
BRANCH  24  25
ATOM     25  C   UNL A   1      33.056  22.369  21.987  1.00  0.00     0.021 C 
BRANCH  25  26
ATOM     26  C   UNL A   1      33.174  23.893  21.863  1.00  0.00     0.002 C 
BRANCH  26  27
ATOM     27  C   UNL A   1      31.991  24.704  22.405  1.00  0.00    -0.000 C 
BRANCH  27  28
ATOM     28  C   UNL A   1      31.914  26.160  21.939  1.00  0.00    -0.003 C 
ATOM     29  C   UNL A   1      30.806  26.956  22.611  1.00  0.00     0.004 C 
ENDBRANCH  27  28
ENDBRANCH  26  27
ENDBRANCH  25  26
ENDBRANCH  24  25
ENDBRANCH  21  24
ENDBRANCH  19  20
ENDBRANCH  14  19
ENDBRANCH   8  13
BRANCH  10  30
ATOM     30  O   UNL A   1      30.641  25.344  26.821  1.00  0.00    -0.507 OA
ATOM     31  H   UNL A   1      30.683  24.942  27.667  1.00  0.00     0.293 HD
ENDBRANCH  10  30
ENDBRANCH   5   7
ENDBRANCH   3   5
ENDBRANCH   2   3
ENDBRANCH   1   2
BRANCH   1  32
ATOM     32  C   UNL A   1      35.152  31.895  27.878  1.00  0.00     0.202 C 
BRANCH  32  33
ATOM     33  O   UNL A   1      34.579  33.164  27.594  1.00  0.00    -0.376 OA
BRANCH  33  34
ATOM     34  C   UNL A   1      34.951  34.291  28.382  1.00  0.00     0.188 C 
BRANCH  34  35
ATOM     35  C   UNL A   1      34.351  35.667  28.059  1.00  0.00     0.188 C 
BRANCH  35  36
ATOM     36  O   UNL A   1      33.620  36.246  29.124  1.00  0.00    -0.376 OA
BRANCH  36  37
ATOM     37  C   UNL A   1      33.050  35.332  30.041  1.00  0.00     0.202 C 
BRANCH  37  38
ATOM     38  C   UNL A   1      33.752  35.352  31.404  1.00  0.00     0.261 C 
BRANCH  38  39
ATOM     39  O   UNL A   1      33.459  34.233  32.262  1.00  0.00    -0.460 OA
BRANCH  39  40
ATOM     40  C   UNL A   1      34.306  33.180  32.217  1.00  0.00     0.338 C 
ATOM     41  O   UNL A   1      34.424  32.373  31.302  1.00  0.00    -0.246 OA
BRANCH  40  42
ATOM     42  C   UNL A   1      35.229  33.286  33.365  1.00  0.00     0.060 A 
ATOM     43  C   UNL A   1      35.017  34.282  34.329  1.00  0.00     0.016 A 
ATOM     44  C   UNL A   1      36.291  32.389  33.500  1.00  0.00     0.016 A 
ATOM     45  C   UNL A   1      35.879  34.393  35.424  1.00  0.00     0.010 A 
ATOM     46  C   UNL A   1      37.164  32.516  34.584  1.00  0.00     0.010 A 
ATOM     47  C   UNL A   1      36.977  33.532  35.540  1.00  0.00    -0.014 A 
BRANCH  47  48
ATOM     48  C   UNL A   1      38.037  33.783  36.551  1.00  0.00     0.031 A 
ATOM     49  C   UNL A   1      39.341  34.371  36.087  1.00  0.00     0.074 A 
ATOM     50  C   UNL A   1      37.862  33.472  37.848  1.00  0.00     0.049 A 
ATOM     51  N   UNL A   1      40.450  34.574  36.749  1.00  0.00    -0.248 NA
ATOM     52  C   UNL A   1      39.398  34.777  34.674  1.00  0.00     0.031 C 
ATOM     53  C   UNL A   1      36.630  32.952  38.434  1.00  0.00     0.029 A 
ATOM     54  N   UNL A   1      38.736  33.541  38.905  1.00  0.00    -0.354 N 
ATOM     55  C   UNL A   1      41.345  35.113  35.832  1.00  0.00     0.074 A 
ATOM     56  C   UNL A   1      40.655  35.176  34.560  1.00  0.00     0.031 C 
ATOM     57  C   UNL A   1      36.828  32.741  39.747  1.00  0.00     0.029 A 
ATOM     58  C   UNL A   1      38.215  33.062  40.085  1.00  0.00     0.049 A 
ATOM     59  H   UNL A   1      39.650  33.899  38.827  1.00  0.00     0.167 HD
ATOM     60  C   UNL A   1      42.624  35.519  36.032  1.00  0.00     0.034 A 
ATOM     61  C   UNL A   1      38.800  32.874  41.285  1.00  0.00     0.034 A 
ATOM     62  C   UNL A   1      43.302  35.434  37.304  1.00  0.00     0.049 A 
ATOM     63  C   UNL A   1      40.263  33.217  41.456  1.00  0.00     0.074 A 
ATOM     64  C   UNL A   1      44.582  35.851  37.626  1.00  0.00     0.029 A 
ATOM     65  N   UNL A   1      42.767  34.871  38.456  1.00  0.00    -0.354 N 
ATOM     66  N   UNL A   1      41.098  33.743  40.589  1.00  0.00    -0.248 NA
ATOM     67  C   UNL A   1      40.862  32.934  42.767  1.00  0.00     0.031 C 
ATOM     68  C   UNL A   1      44.851  35.459  38.942  1.00  0.00     0.029 A 
ATOM     69  C   UNL A   1      43.710  34.879  39.473  1.00  0.00     0.049 A 
ATOM     70  H   UNL A   1      41.852  34.520  38.538  1.00  0.00     0.167 HD
ATOM     71  C   UNL A   1      42.312  33.878  41.262  1.00  0.00     0.074 A 
ATOM     72  C   UNL A   1      42.095  33.390  42.608  1.00  0.00     0.031 C 
ATOM     73  C   UNL A   1      43.495  34.368  40.809  1.00  0.00     0.034 A 
BRANCH  60  74
ATOM     74  C   UNL A   1      43.387  36.018  34.827  1.00  0.00     0.023 A 
ATOM     75  C   UNL A   1      43.445  37.382  34.492  1.00  0.00     0.031 A 
ATOM     76  C   UNL A   1      44.023  35.103  33.967  1.00  0.00     0.131 A 
ATOM     77  C   UNL A   1      44.044  37.784  33.287  1.00  0.00     0.055 A 
ATOM     78  C   UNL A   1      44.697  35.518  32.817  1.00  0.00     0.041 A 
ATOM     79  F   UNL A   1      43.981  33.786  34.218  1.00  0.00    -0.206 F 
ATOM     80  C   UNL A   1      44.694  36.863  32.460  1.00  0.00     0.022 A 
BRANCH  77  81
ATOM     81  S   UNL A   1      43.810  39.493  32.729  1.00  0.00     0.124 S 
ATOM     82  O   UNL A   1      45.065  40.117  33.146  1.00  0.00    -0.237 OA
ATOM     83  O   UNL A   1      43.623  39.335  31.291  1.00  0.00    -0.237 OA
ATOM     84  O   UNL A   1      42.630  39.938  33.467  1.00  0.00    -0.744 OA
ENDBRANCH  77  81
ENDBRANCH  60  74
BRANCH  61  85
ATOM     85  C   UNL A   1      38.028  32.292  42.422  1.00  0.00     0.023 A 
ATOM     86  C   UNL A   1      37.207  33.101  43.225  1.00  0.00     0.031 A 
ATOM     87  C   UNL A   1      38.142  30.931  42.758  1.00  0.00     0.131 A 
ATOM     88  C   UNL A   1      36.561  32.551  44.343  1.00  0.00     0.055 A 
ATOM     89  C   UNL A   1      37.454  30.377  43.840  1.00  0.00     0.041 A 
ATOM     90  F   UNL A   1      38.923  30.115  42.032  1.00  0.00    -0.206 F 
ATOM     91  C   UNL A   1      36.666  31.191  44.647  1.00  0.00     0.022 A 
BRANCH  88  92
ATOM     92  S   UNL A   1      35.639  33.658  45.445  1.00  0.00     0.124 S 
ATOM     93  O   UNL A   1      34.879  32.709  46.251  1.00  0.00    -0.237 OA
ATOM     94  O   UNL A   1      36.712  34.368  46.133  1.00  0.00    -0.237 OA
ATOM     95  O   UNL A   1      34.846  34.471  44.525  1.00  0.00    -0.744 OA
ENDBRANCH  88  92
ENDBRANCH  61  85
BRANCH  73  96
ATOM     96  C   UNL A   1      44.641  34.431  41.793  1.00  0.00     0.023 A 
ATOM     97  C   UNL A   1      44.850  35.550  42.619  1.00  0.00     0.031 A 
ATOM     98  C   UNL A   1      45.537  33.352  41.907  1.00  0.00     0.131 A 
ATOM     99  C   UNL A   1      45.955  35.585  43.484  1.00  0.00     0.055 A 
ATOM    100  C   UNL A   1      46.597  33.366  42.815  1.00  0.00     0.041 A 
ATOM    101  F   UNL A   1      45.391  32.258  41.142  1.00  0.00    -0.206 F 
ATOM    102  C   UNL A   1      46.818  34.492  43.602  1.00  0.00     0.022 A 
BRANCH  99 103
ATOM    103  S   UNL A   1      46.305  37.115  44.395  1.00  0.00     0.124 S 
ATOM    104  O   UNL A   1      46.552  38.062  43.313  1.00  0.00    -0.237 OA
ATOM    105  O   UNL A   1      45.073  37.317  45.150  1.00  0.00    -0.237 OA
ATOM    106  O   UNL A   1      47.477  36.775  45.202  1.00  0.00    -0.744 OA
ENDBRANCH  99 103
ENDBRANCH  73  96
ENDBRANCH  47  48
ENDBRANCH  40  42
ENDBRANCH  39  40
ENDBRANCH  38  39
ENDBRANCH  37  38
ENDBRANCH  36  37
ENDBRANCH  35  36
ENDBRANCH  34  35
ENDBRANCH  33  34
ENDBRANCH  32  33
ENDBRANCH   1  32
TORSDOF 30
ENDMDL
