MODEL 1
REMARK VINA RESULT:      -9.8      0.000      0.000
REMARK SMILES COc1cc(NC[C@@H](CC(C)C)C(=O)OCCOCCOCCOC(=O)c2ccc(-c3c4nc(c(-c5cc(S(=O)(=O)[O-])ccc5F)c5ccc([nH]5)c(-c5cc(S(=O)(=O)[O-])ccc5F)c5nc(c(-c6cc(S(=O)(=O)[O-])ccc6F)c6ccc3[nH]6)C=C5)C=C4)cc2)nc(C)n1
REMARK SMILES IDX 19 1 18 2 17 3 16 4 15 5 13 6 14 7 8 8 7 9 6 10 5 12 3 13
REMARK SMILES IDX 4 14 93 15 91 16 90 17 92 18 2 19 1 20 9 21 10 22 11 23
REMARK SMILES IDX 12 24 20 25 21 26 22 27 23 28 24 29 25 30 26 31 27 32 28 33
REMARK SMILES IDX 89 34 29 35 88 36 30 37 31 38 32 39 82 40 33 41 87 42 81 43
REMARK SMILES IDX 83 44 34 45 86 46 80 47 79 48 35 50 67 51 47 52 66 53 48 54
REMARK SMILES IDX 51 55 65 56 84 57 49 58 50 59 64 61 85 62 52 63 36 64 37 65
REMARK SMILES IDX 45 66 38 67 44 68 46 69 43 70 39 71 40 72 41 73 42 74 68 75
REMARK SMILES IDX 69 76 77 77 70 78 76 79 78 80 75 81 71 82 72 83 73 84 74 85
REMARK SMILES IDX 53 86 54 87 62 88 55 89 61 90 63 91 60 92 56 93 57 94 58 95
REMARK SMILES IDX 59 96
REMARK H PARENT 6 11 83 49 51 60
REMARK Flexibility Score: inf
ROOT
ATOM      1  C   UNL A   1      31.765  28.542  26.211  1.00  0.00     0.188 C 
ENDROOT
BRANCH   1   2
ATOM      2  O   UNL A   1      31.226  27.435  25.503  1.00  0.00    -0.376 OA
BRANCH   2   3
ATOM      3  C   UNL A   1      30.718  26.330  26.246  1.00  0.00     0.202 C 
BRANCH   3   4
ATOM      4  C   UNL A   1      31.720  25.315  26.810  1.00  0.00     0.261 C 
BRANCH   4   5
ATOM      5  O   UNL A   1      31.161  24.025  27.177  1.00  0.00    -0.463 OA
BRANCH   5   6
ATOM      6  C   UNL A   1      31.133  23.091  26.191  1.00  0.00     0.310 C 
ATOM      7  O   UNL A   1      30.287  22.203  26.128  1.00  0.00    -0.252 OA
BRANCH   6   8
ATOM      8  C   UNL A   1      32.302  23.130  25.204  1.00  0.00     0.118 C 
BRANCH   8   9
ATOM      9  C   UNL A   1      33.336  21.994  25.200  1.00  0.00     0.129 C 
BRANCH   9  10
ATOM     10  N   UNL A   1      32.790  20.794  25.829  1.00  0.00    -0.369 N 
ATOM     11  H   UNL A   1      32.444  20.915  26.743  1.00  0.00     0.162 HD
BRANCH  10  12
ATOM     12  C   UNL A   1      32.690  19.521  25.324  1.00  0.00     0.133 A 
ATOM     13  C   UNL A   1      32.620  17.179  25.408  1.00  0.00     0.218 A 
ATOM     14  C   UNL A   1      32.728  18.376  26.083  1.00  0.00     0.115 A 
ATOM     15  N   UNL A   1      32.491  17.074  24.085  1.00  0.00    -0.199 NA
ATOM     16  C   UNL A   1      32.466  18.232  23.417  1.00  0.00     0.131 A 
ATOM     17  N   UNL A   1      32.548  19.455  23.987  1.00  0.00    -0.216 NA
ATOM     18  C   UNL A   1      32.351  18.144  21.927  1.00  0.00     0.090 C 
BRANCH  13  19
ATOM     19  O   UNL A   1      32.793  15.992  26.072  1.00  0.00    -0.481 OA
ATOM     20  C   UNL A   1      33.247  14.967  25.192  1.00  0.00     0.280 C 
ENDBRANCH  13  19
ENDBRANCH  10  12
ENDBRANCH   9  10
ENDBRANCH   8   9
BRANCH   8  21
ATOM     21  C   UNL A   1      31.749  23.472  23.803  1.00  0.00     0.020 C 
BRANCH  21  22
ATOM     22  C   UNL A   1      32.625  24.333  22.866  1.00  0.00    -0.017 C 
ATOM     23  C   UNL A   1      33.215  23.577  21.677  1.00  0.00     0.007 C 
ATOM     24  C   UNL A   1      31.790  25.507  22.347  1.00  0.00     0.007 C 
ENDBRANCH  21  22
ENDBRANCH   8  21
ENDBRANCH   6   8
ENDBRANCH   5   6
ENDBRANCH   4   5
ENDBRANCH   3   4
ENDBRANCH   2   3
ENDBRANCH   1   2
BRANCH   1  25
ATOM     25  C   UNL A   1      32.213  29.760  25.401  1.00  0.00     0.188 C 
BRANCH  25  26
ATOM     26  O   UNL A   1      31.461  30.940  25.608  1.00  0.00    -0.376 OA
BRANCH  26  27
ATOM     27  C   UNL A   1      31.559  31.535  26.897  1.00  0.00     0.202 C 
BRANCH  27  28
ATOM     28  C   UNL A   1      31.766  33.059  26.883  1.00  0.00     0.261 C 
BRANCH  28  29
ATOM     29  O   UNL A   1      33.143  33.477  26.950  1.00  0.00    -0.460 OA
BRANCH  29  30
ATOM     30  C   UNL A   1      33.567  33.972  28.139  1.00  0.00     0.338 C 
ATOM     31  O   UNL A   1      32.949  34.726  28.871  1.00  0.00    -0.246 OA
BRANCH  30  32
ATOM     32  C   UNL A   1      34.762  33.197  28.544  1.00  0.00     0.060 A 
ATOM     33  C   UNL A   1      34.572  31.878  28.972  1.00  0.00     0.016 A 
ATOM     34  C   UNL A   1      36.048  33.722  28.453  1.00  0.00     0.016 A 
ATOM     35  C   UNL A   1      35.653  31.080  29.336  1.00  0.00     0.010 A 
ATOM     36  C   UNL A   1      37.136  32.930  28.838  1.00  0.00     0.010 A 
ATOM     37  C   UNL A   1      36.942  31.614  29.302  1.00  0.00    -0.014 A 
BRANCH  37  38
ATOM     38  C   UNL A   1      38.057  30.870  29.936  1.00  0.00     0.031 A 
ATOM     39  C   UNL A   1      38.377  31.174  31.373  1.00  0.00     0.074 A 
ATOM     40  C   UNL A   1      38.747  29.928  29.270  1.00  0.00     0.049 A 
ATOM     41  N   UNL A   1      39.363  30.745  32.115  1.00  0.00    -0.248 NA
ATOM     42  C   UNL A   1      37.456  32.093  32.060  1.00  0.00     0.031 C 
ATOM     43  C   UNL A   1      38.477  29.485  27.903  1.00  0.00     0.029 A 
ATOM     44  N   UNL A   1      39.830  29.177  29.658  1.00  0.00    -0.354 N 
ATOM     45  C   UNL A   1      39.191  31.351  33.355  1.00  0.00     0.074 A 
ATOM     46  C   UNL A   1      38.023  32.200  33.252  1.00  0.00     0.031 C 
ATOM     47  C   UNL A   1      39.384  28.552  27.561  1.00  0.00     0.029 A 
ATOM     48  C   UNL A   1      40.324  28.366  28.665  1.00  0.00     0.049 A 
ATOM     49  H   UNL A   1      40.215  29.217  30.564  1.00  0.00     0.167 HD
ATOM     50  C   UNL A   1      39.938  31.211  34.477  1.00  0.00     0.034 A 
ATOM     51  C   UNL A   1      41.430  27.593  28.641  1.00  0.00     0.034 A 
ATOM     52  C   UNL A   1      41.104  30.368  34.561  1.00  0.00     0.049 A 
ATOM     53  C   UNL A   1      42.311  27.536  29.868  1.00  0.00     0.074 A 
ATOM     54  C   UNL A   1      41.938  30.154  35.645  1.00  0.00     0.029 A 
ATOM     55  N   UNL A   1      41.612  29.605  33.516  1.00  0.00    -0.354 N 
ATOM     56  N   UNL A   1      42.158  28.133  31.028  1.00  0.00    -0.248 NA
ATOM     57  C   UNL A   1      43.515  26.698  29.781  1.00  0.00     0.031 C 
ATOM     58  C   UNL A   1      42.986  29.322  35.236  1.00  0.00     0.029 A 
ATOM     59  C   UNL A   1      42.766  28.949  33.920  1.00  0.00     0.049 A 
ATOM     60  H   UNL A   1      41.210  29.539  32.620  1.00  0.00     0.167 HD
ATOM     61  C   UNL A   1      43.231  27.718  31.816  1.00  0.00     0.074 A 
ATOM     62  C   UNL A   1      44.011  26.808  31.004  1.00  0.00     0.031 C 
ATOM     63  C   UNL A   1      43.544  28.055  33.095  1.00  0.00     0.034 A 
BRANCH  50  64
ATOM     64  C   UNL A   1      39.549  32.046  35.671  1.00  0.00     0.023 A 
ATOM     65  C   UNL A   1      38.747  31.537  36.708  1.00  0.00     0.031 A 
ATOM     66  C   UNL A   1      39.953  33.390  35.749  1.00  0.00     0.131 A 
ATOM     67  C   UNL A   1      38.317  32.387  37.740  1.00  0.00     0.055 A 
ATOM     68  C   UNL A   1      39.589  34.208  36.819  1.00  0.00     0.041 A 
ATOM     69  F   UNL A   1      40.695  33.939  34.774  1.00  0.00    -0.206 F 
ATOM     70  C   UNL A   1      38.754  33.712  37.816  1.00  0.00     0.022 A 
BRANCH  67  71
ATOM     71  S   UNL A   1      37.064  31.780  38.902  1.00  0.00     0.124 S 
ATOM     72  O   UNL A   1      36.890  30.399  38.456  1.00  0.00    -0.237 OA
ATOM     73  O   UNL A   1      37.718  31.958  40.194  1.00  0.00    -0.237 OA
ATOM     74  O   UNL A   1      35.918  32.654  38.658  1.00  0.00    -0.744 OA
ENDBRANCH  67  71
ENDBRANCH  50  64
BRANCH  51  75
ATOM     75  C   UNL A   1      41.821  26.858  27.401  1.00  0.00     0.023 A 
ATOM     76  C   UNL A   1      41.698  25.462  27.311  1.00  0.00     0.031 A 
ATOM     77  C   UNL A   1      42.403  27.538  26.316  1.00  0.00     0.131 A 
ATOM     78  C   UNL A   1      42.197  24.785  26.186  1.00  0.00     0.055 A 
ATOM     79  C   UNL A   1      42.845  26.868  25.174  1.00  0.00     0.041 A 
ATOM     80  F   UNL A   1      42.554  28.871  26.351  1.00  0.00    -0.206 F 
ATOM     81  C   UNL A   1      42.758  25.481  25.111  1.00  0.00     0.022 A 
BRANCH  78  82
ATOM     82  S   UNL A   1      42.195  22.971  26.188  1.00  0.00     0.124 S 
ATOM     83  O   UNL A   1      43.058  22.674  27.326  1.00  0.00    -0.237 OA
ATOM     84  O   UNL A   1      40.778  22.669  26.360  1.00  0.00    -0.237 OA
ATOM     85  O   UNL A   1      42.748  22.628  24.879  1.00  0.00    -0.744 OA
ENDBRANCH  78  82
ENDBRANCH  51  75
BRANCH  63  86
ATOM     86  C   UNL A   1      44.761  27.396  33.700  1.00  0.00     0.023 A 
ATOM     87  C   UNL A   1      44.690  26.143  34.335  1.00  0.00     0.031 A 
ATOM     88  C   UNL A   1      46.010  28.043  33.658  1.00  0.00     0.131 A 
ATOM     89  C   UNL A   1      45.828  25.606  34.955  1.00  0.00     0.055 A 
ATOM     90  C   UNL A   1      47.153  27.474  34.220  1.00  0.00     0.041 A 
ATOM     91  F   UNL A   1      46.139  29.242  33.067  1.00  0.00    -0.206 F 
ATOM     92  C   UNL A   1      47.064  26.256  34.888  1.00  0.00     0.022 A 
BRANCH  89  93
ATOM     93  S   UNL A   1      45.654  24.095  35.943  1.00  0.00     0.124 S 
ATOM     94  O   UNL A   1      44.746  24.527  37.002  1.00  0.00    -0.237 OA
ATOM     95  O   UNL A   1      45.101  23.152  34.977  1.00  0.00    -0.237 OA
ATOM     96  O   UNL A   1      47.019  23.807  36.377  1.00  0.00    -0.744 OA
ENDBRANCH  89  93
ENDBRANCH  63  86
ENDBRANCH  37  38
ENDBRANCH  30  32
ENDBRANCH  29  30
ENDBRANCH  28  29
ENDBRANCH  27  28
ENDBRANCH  26  27
ENDBRANCH  25  26
ENDBRANCH   1  25
TORSDOF 26
ENDMDL
MODEL 2
REMARK VINA RESULT:      -9.3      2.979      4.754
REMARK SMILES COc1cc(NC[C@@H](CC(C)C)C(=O)OCCOCCOCCOC(=O)c2ccc(-c3c4nc(c(-c5cc(S(=O)(=O)[O-])ccc5F)c5ccc([nH]5)c(-c5cc(S(=O)(=O)[O-])ccc5F)c5nc(c(-c6cc(S(=O)(=O)[O-])ccc6F)c6ccc3[nH]6)C=C5)C=C4)cc2)nc(C)n1
REMARK SMILES IDX 19 1 18 2 17 3 16 4 15 5 13 6 14 7 8 8 7 9 6 10 5 12 3 13
REMARK SMILES IDX 4 14 93 15 91 16 90 17 92 18 2 19 1 20 9 21 10 22 11 23
REMARK SMILES IDX 12 24 20 25 21 26 22 27 23 28 24 29 25 30 26 31 27 32 28 33
REMARK SMILES IDX 89 34 29 35 88 36 30 37 31 38 32 39 82 40 33 41 87 42 81 43
REMARK SMILES IDX 83 44 34 45 86 46 80 47 79 48 35 50 67 51 47 52 66 53 48 54
REMARK SMILES IDX 51 55 65 56 84 57 49 58 50 59 64 61 85 62 52 63 36 64 37 65
REMARK SMILES IDX 45 66 38 67 44 68 46 69 43 70 39 71 40 72 41 73 42 74 68 75
REMARK SMILES IDX 69 76 77 77 70 78 76 79 78 80 75 81 71 82 72 83 73 84 74 85
REMARK SMILES IDX 53 86 54 87 62 88 55 89 61 90 63 91 60 92 56 93 57 94 58 95
REMARK SMILES IDX 59 96
REMARK H PARENT 6 11 83 49 51 60
REMARK Flexibility Score: inf
ROOT
ATOM      1  C   UNL A   1      35.399  32.916  28.052  1.00  0.00     0.188 C 
ENDROOT
BRANCH   1   2
ATOM      2  O   UNL A   1      34.968  31.742  27.379  1.00  0.00    -0.376 OA
BRANCH   2   3
ATOM      3  C   UNL A   1      33.757  31.119  27.800  1.00  0.00     0.202 C 
BRANCH   3   4
ATOM      4  C   UNL A   1      32.852  30.498  26.728  1.00  0.00     0.261 C 
BRANCH   4   5
ATOM      5  O   UNL A   1      31.760  29.682  27.230  1.00  0.00    -0.463 OA
BRANCH   5   6
ATOM      6  C   UNL A   1      31.795  28.368  26.881  1.00  0.00     0.310 C 
ATOM      7  O   UNL A   1      31.709  27.453  27.696  1.00  0.00    -0.252 OA
BRANCH   6   8
ATOM      8  C   UNL A   1      32.067  28.080  25.404  1.00  0.00     0.118 C 
BRANCH   8   9
ATOM      9  C   UNL A   1      33.450  27.572  24.968  1.00  0.00     0.129 C 
BRANCH   9  10
ATOM     10  N   UNL A   1      33.830  26.385  25.730  1.00  0.00    -0.369 N 
ATOM     11  H   UNL A   1      34.142  26.553  26.648  1.00  0.00     0.162 HD
BRANCH  10  12
ATOM     12  C   UNL A   1      33.812  25.067  25.345  1.00  0.00     0.133 A 
ATOM     13  C   UNL A   1      32.906  22.921  25.083  1.00  0.00     0.218 A 
ATOM     14  C   UNL A   1      32.748  24.216  25.525  1.00  0.00     0.115 A 
ATOM     15  N   UNL A   1      34.016  22.455  24.509  1.00  0.00    -0.199 NA
ATOM     16  C   UNL A   1      35.007  23.342  24.373  1.00  0.00     0.131 A 
ATOM     17  N   UNL A   1      34.944  24.636  24.758  1.00  0.00    -0.216 NA
ATOM     18  C   UNL A   1      36.276  22.840  23.757  1.00  0.00     0.090 C 
BRANCH  13  19
ATOM     19  O   UNL A   1      31.950  21.975  25.354  1.00  0.00    -0.481 OA
ATOM     20  C   UNL A   1      32.471  20.657  25.213  1.00  0.00     0.280 C 
ENDBRANCH  13  19
ENDBRANCH  10  12
ENDBRANCH   9  10
ENDBRANCH   8   9
BRANCH   8  21
ATOM     21  C   UNL A   1      30.894  27.247  24.843  1.00  0.00     0.020 C 
BRANCH  21  22
ATOM     22  C   UNL A   1      29.969  27.908  23.796  1.00  0.00    -0.017 C 
ATOM     23  C   UNL A   1      30.625  28.162  22.440  1.00  0.00     0.007 C 
ATOM     24  C   UNL A   1      28.736  27.022  23.596  1.00  0.00     0.007 C 
ENDBRANCH  21  22
ENDBRANCH   8  21
ENDBRANCH   6   8
ENDBRANCH   5   6
ENDBRANCH   4   5
ENDBRANCH   3   4
ENDBRANCH   2   3
ENDBRANCH   1   2
BRANCH   1  25
ATOM     25  C   UNL A   1      34.361  34.005  28.328  1.00  0.00     0.188 C 
BRANCH  25  26
ATOM     26  O   UNL A   1      34.787  35.331  28.078  1.00  0.00    -0.376 OA
BRANCH  26  27
ATOM     27  C   UNL A   1      33.889  36.366  28.459  1.00  0.00     0.202 C 
BRANCH  27  28
ATOM     28  C   UNL A   1      32.921  35.989  29.592  1.00  0.00     0.261 C 
BRANCH  28  29
ATOM     29  O   UNL A   1      33.318  36.450  30.898  1.00  0.00    -0.460 OA
BRANCH  29  30
ATOM     30  C   UNL A   1      32.824  35.763  31.957  1.00  0.00     0.338 C 
ATOM     31  O   UNL A   1      31.646  35.591  32.223  1.00  0.00    -0.246 OA
BRANCH  30  32
ATOM     32  C   UNL A   1      33.942  34.995  32.552  1.00  0.00     0.060 A 
ATOM     33  C   UNL A   1      35.235  35.513  32.418  1.00  0.00     0.016 A 
ATOM     34  C   UNL A   1      33.731  33.826  33.278  1.00  0.00     0.016 A 
ATOM     35  C   UNL A   1      36.330  34.863  32.980  1.00  0.00     0.010 A 
ATOM     36  C   UNL A   1      34.831  33.158  33.828  1.00  0.00     0.010 A 
ATOM     37  C   UNL A   1      36.136  33.660  33.663  1.00  0.00    -0.014 A 
BRANCH  37  38
ATOM     38  C   UNL A   1      37.311  32.833  34.028  1.00  0.00     0.031 A 
ATOM     39  C   UNL A   1      38.051  33.179  35.290  1.00  0.00     0.074 A 
ATOM     40  C   UNL A   1      37.694  31.782  33.282  1.00  0.00     0.049 A 
ATOM     41  N   UNL A   1      39.162  32.685  35.766  1.00  0.00    -0.248 NA
ATOM     42  C   UNL A   1      37.451  34.234  36.122  1.00  0.00     0.031 C 
ATOM     43  C   UNL A   1      37.009  31.295  32.086  1.00  0.00     0.029 A 
ATOM     44  N   UNL A   1      38.768  30.937  33.421  1.00  0.00    -0.354 N 
ATOM     45  C   UNL A   1      39.405  33.376  36.949  1.00  0.00     0.074 A 
ATOM     46  C   UNL A   1      38.339  34.345  37.097  1.00  0.00     0.031 C 
ATOM     47  C   UNL A   1      37.692  30.247  31.590  1.00  0.00     0.029 A 
ATOM     48  C   UNL A   1      38.885  30.019  32.404  1.00  0.00     0.049 A 
ATOM     49  H   UNL A   1      39.396  30.984  34.178  1.00  0.00     0.167 HD
ATOM     50  C   UNL A   1      40.423  33.217  37.829  1.00  0.00     0.034 A 
ATOM     51  C   UNL A   1      39.862  29.126  32.143  1.00  0.00     0.034 A 
ATOM     52  C   UNL A   1      41.482  32.254  37.662  1.00  0.00     0.049 A 
ATOM     53  C   UNL A   1      41.045  29.040  33.081  1.00  0.00     0.074 A 
ATOM     54  C   UNL A   1      42.564  32.010  38.488  1.00  0.00     0.029 A 
ATOM     55  N   UNL A   1      41.600  31.380  36.587  1.00  0.00    -0.354 N 
ATOM     56  N   UNL A   1      41.282  29.716  34.182  1.00  0.00    -0.248 NA
ATOM     57  C   UNL A   1      42.093  28.068  32.738  1.00  0.00     0.031 C 
ATOM     58  C   UNL A   1      43.372  31.043  37.881  1.00  0.00     0.029 A 
ATOM     59  C   UNL A   1      42.755  30.622  36.714  1.00  0.00     0.049 A 
ATOM     60  H   UNL A   1      40.957  31.308  35.846  1.00  0.00     0.167 HD
ATOM     61  C   UNL A   1      42.490  29.228  34.677  1.00  0.00     0.074 A 
ATOM     62  C   UNL A   1      42.922  28.191  33.763  1.00  0.00     0.031 C 
ATOM     63  C   UNL A   1      43.182  29.600  35.786  1.00  0.00     0.034 A 
BRANCH  50  64
ATOM     64  C   UNL A   1      40.465  34.158  39.007  1.00  0.00     0.023 A 
ATOM     65  C   UNL A   1      39.687  33.947  40.159  1.00  0.00     0.031 A 
ATOM     66  C   UNL A   1      41.269  35.311  38.956  1.00  0.00     0.131 A 
ATOM     67  C   UNL A   1      39.676  34.910  41.180  1.00  0.00     0.055 A 
ATOM     68  C   UNL A   1      41.314  36.224  40.010  1.00  0.00     0.041 A 
ATOM     69  F   UNL A   1      42.011  35.579  37.870  1.00  0.00    -0.206 F 
ATOM     70  C   UNL A   1      40.504  36.034  41.125  1.00  0.00     0.022 A 
BRANCH  67  71
ATOM     71  S   UNL A   1      38.458  34.749  42.515  1.00  0.00     0.124 S 
ATOM     72  O   UNL A   1      37.201  34.939  41.794  1.00  0.00    -0.237 OA
ATOM     73  O   UNL A   1      38.712  33.402  43.015  1.00  0.00    -0.237 OA
ATOM     74  O   UNL A   1      38.810  35.831  43.433  1.00  0.00    -0.744 OA
ENDBRANCH  67  71
ENDBRANCH  50  64
BRANCH  51  75
ATOM     75  C   UNL A   1      39.816  28.282  30.912  1.00  0.00     0.023 A 
ATOM     76  C   UNL A   1      40.517  28.648  29.751  1.00  0.00     0.031 A 
ATOM     77  C   UNL A   1      39.000  27.138  30.854  1.00  0.00     0.131 A 
ATOM     78  C   UNL A   1      40.349  27.909  28.569  1.00  0.00     0.055 A 
ATOM     79  C   UNL A   1      38.882  26.373  29.693  1.00  0.00     0.041 A 
ATOM     80  F   UNL A   1      38.300  26.747  31.930  1.00  0.00    -0.206 F 
ATOM     81  C   UNL A   1      39.547  26.766  28.536  1.00  0.00     0.022 A 
BRANCH  78  82
ATOM     82  S   UNL A   1      41.118  28.520  27.043  1.00  0.00     0.124 S 
ATOM     83  O   UNL A   1      40.026  29.276  26.442  1.00  0.00    -0.237 OA
ATOM     84  O   UNL A   1      42.235  29.304  27.558  1.00  0.00    -0.237 OA
ATOM     85  O   UNL A   1      41.492  27.296  26.336  1.00  0.00    -0.744 OA
ENDBRANCH  78  82
ENDBRANCH  51  75
BRANCH  63  86
ATOM     86  C   UNL A   1      44.455  28.844  36.088  1.00  0.00     0.023 A 
ATOM     87  C   UNL A   1      44.460  27.686  36.888  1.00  0.00     0.031 A 
ATOM     88  C   UNL A   1      45.685  29.300  35.583  1.00  0.00     0.131 A 
ATOM     89  C   UNL A   1      45.674  27.063  37.209  1.00  0.00     0.055 A 
ATOM     90  C   UNL A   1      46.884  28.638  35.853  1.00  0.00     0.041 A 
ATOM     91  F   UNL A   1      45.743  30.400  34.815  1.00  0.00    -0.206 F 
ATOM     92  C   UNL A   1      46.885  27.522  36.684  1.00  0.00     0.022 A 
BRANCH  89  93
ATOM     93  S   UNL A   1      45.667  25.703  38.410  1.00  0.00     0.124 S 
ATOM     94  O   UNL A   1      47.039  25.212  38.321  1.00  0.00    -0.237 OA
ATOM     95  O   UNL A   1      45.313  26.384  39.650  1.00  0.00    -0.237 OA
ATOM     96  O   UNL A   1      44.648  24.791  37.892  1.00  0.00    -0.744 OA
ENDBRANCH  89  93
ENDBRANCH  63  86
ENDBRANCH  37  38
ENDBRANCH  30  32
ENDBRANCH  29  30
ENDBRANCH  28  29
ENDBRANCH  27  28
ENDBRANCH  26  27
ENDBRANCH  25  26
ENDBRANCH   1  25
TORSDOF 26
ENDMDL
MODEL 3
REMARK VINA RESULT:      -9.3      3.145      4.632
REMARK SMILES COc1cc(NC[C@@H](CC(C)C)C(=O)OCCOCCOCCOC(=O)c2ccc(-c3c4nc(c(-c5cc(S(=O)(=O)[O-])ccc5F)c5ccc([nH]5)c(-c5cc(S(=O)(=O)[O-])ccc5F)c5nc(c(-c6cc(S(=O)(=O)[O-])ccc6F)c6ccc3[nH]6)C=C5)C=C4)cc2)nc(C)n1
REMARK SMILES IDX 19 1 18 2 17 3 16 4 15 5 13 6 14 7 8 8 7 9 6 10 5 12 3 13
REMARK SMILES IDX 4 14 93 15 91 16 90 17 92 18 2 19 1 20 9 21 10 22 11 23
REMARK SMILES IDX 12 24 20 25 21 26 22 27 23 28 24 29 25 30 26 31 27 32 28 33
REMARK SMILES IDX 89 34 29 35 88 36 30 37 31 38 32 39 82 40 33 41 87 42 81 43
REMARK SMILES IDX 83 44 34 45 86 46 80 47 79 48 35 50 67 51 47 52 66 53 48 54
REMARK SMILES IDX 51 55 65 56 84 57 49 58 50 59 64 61 85 62 52 63 36 64 37 65
REMARK SMILES IDX 45 66 38 67 44 68 46 69 43 70 39 71 40 72 41 73 42 74 68 75
REMARK SMILES IDX 69 76 77 77 70 78 76 79 78 80 75 81 71 82 72 83 73 84 74 85
REMARK SMILES IDX 53 86 54 87 62 88 55 89 61 90 63 91 60 92 56 93 57 94 58 95
REMARK SMILES IDX 59 96
REMARK H PARENT 6 11 83 49 51 60
REMARK Flexibility Score: inf
ROOT
ATOM      1  C   UNL A   1      32.080  28.613  26.949  1.00  0.00     0.188 C 
ENDROOT
BRANCH   1   2
ATOM      2  O   UNL A   1      31.203  27.811  26.170  1.00  0.00    -0.376 OA
BRANCH   2   3
ATOM      3  C   UNL A   1      31.315  26.394  26.256  1.00  0.00     0.202 C 
BRANCH   3   4
ATOM      4  C   UNL A   1      32.694  25.761  26.031  1.00  0.00     0.261 C 
BRANCH   4   5
ATOM      5  O   UNL A   1      32.725  24.309  26.055  1.00  0.00    -0.463 OA
BRANCH   5   6
ATOM      6  C   UNL A   1      32.273  23.689  24.933  1.00  0.00     0.310 C 
ATOM      7  O   UNL A   1      31.131  23.250  24.821  1.00  0.00    -0.252 OA
BRANCH   6   8
ATOM      8  C   UNL A   1      33.313  23.457  23.835  1.00  0.00     0.118 C 
BRANCH   8   9
ATOM      9  C   UNL A   1      32.998  23.863  22.388  1.00  0.00     0.129 C 
BRANCH   9  10
ATOM     10  N   UNL A   1      31.792  24.686  22.330  1.00  0.00    -0.369 N 
ATOM     11  H   UNL A   1      30.961  24.204  22.116  1.00  0.00     0.162 HD
BRANCH  10  12
ATOM     12  C   UNL A   1      31.655  26.036  22.535  1.00  0.00     0.133 A 
ATOM     13  C   UNL A   1      30.500  28.053  22.841  1.00  0.00     0.218 A 
ATOM     14  C   UNL A   1      30.452  26.691  22.643  1.00  0.00     0.115 A 
ATOM     15  N   UNL A   1      31.629  28.759  22.924  1.00  0.00    -0.199 NA
ATOM     16  C   UNL A   1      32.758  28.051  22.805  1.00  0.00     0.131 A 
ATOM     17  N   UNL A   1      32.815  26.712  22.626  1.00  0.00    -0.216 NA
ATOM     18  C   UNL A   1      34.041  28.821  22.866  1.00  0.00     0.090 C 
BRANCH  13  19
ATOM     19  O   UNL A   1      29.350  28.799  22.815  1.00  0.00    -0.481 OA
ATOM     20  C   UNL A   1      29.560  30.097  23.363  1.00  0.00     0.280 C 
ENDBRANCH  13  19
ENDBRANCH  10  12
ENDBRANCH   9  10
ENDBRANCH   8   9
BRANCH   8  21
ATOM     21  C   UNL A   1      34.680  23.965  24.341  1.00  0.00     0.020 C 
BRANCH  21  22
ATOM     22  C   UNL A   1      35.859  22.967  24.376  1.00  0.00    -0.017 C 
ATOM     23  C   UNL A   1      36.650  22.874  23.072  1.00  0.00     0.007 C 
ATOM     24  C   UNL A   1      36.810  23.363  25.509  1.00  0.00     0.007 C 
ENDBRANCH  21  22
ENDBRANCH   8  21
ENDBRANCH   6   8
ENDBRANCH   5   6
ENDBRANCH   4   5
ENDBRANCH   3   4
ENDBRANCH   2   3
ENDBRANCH   1   2
BRANCH   1  25
ATOM     25  C   UNL A   1      32.619  29.899  26.321  1.00  0.00     0.188 C 
BRANCH  25  26
ATOM     26  O   UNL A   1      32.061  31.100  26.818  1.00  0.00    -0.376 OA
BRANCH  26  27
ATOM     27  C   UNL A   1      32.876  31.859  27.703  1.00  0.00     0.202 C 
BRANCH  27  28
ATOM     28  C   UNL A   1      32.777  33.383  27.516  1.00  0.00     0.261 C 
BRANCH  28  29
ATOM     29  O   UNL A   1      32.516  34.119  28.726  1.00  0.00    -0.460 OA
BRANCH  29  30
ATOM     30  C   UNL A   1      33.431  35.057  29.071  1.00  0.00     0.338 C 
ATOM     31  O   UNL A   1      33.294  36.267  28.996  1.00  0.00    -0.246 OA
BRANCH  30  32
ATOM     32  C   UNL A   1      34.496  34.378  29.844  1.00  0.00     0.060 A 
ATOM     33  C   UNL A   1      35.822  34.573  29.442  1.00  0.00     0.016 A 
ATOM     34  C   UNL A   1      34.216  33.616  30.974  1.00  0.00     0.016 A 
ATOM     35  C   UNL A   1      36.877  33.994  30.142  1.00  0.00     0.010 A 
ATOM     36  C   UNL A   1      35.271  33.013  31.669  1.00  0.00     0.010 A 
ATOM     37  C   UNL A   1      36.604  33.181  31.244  1.00  0.00    -0.014 A 
BRANCH  37  38
ATOM     38  C   UNL A   1      37.687  32.353  31.825  1.00  0.00     0.031 A 
ATOM     39  C   UNL A   1      38.170  32.695  33.207  1.00  0.00     0.074 A 
ATOM     40  C   UNL A   1      38.208  31.305  31.163  1.00  0.00     0.049 A 
ATOM     41  N   UNL A   1      39.170  32.199  33.886  1.00  0.00    -0.248 NA
ATOM     42  C   UNL A   1      37.420  33.747  33.912  1.00  0.00     0.031 C 
ATOM     43  C   UNL A   1      37.766  30.822  29.856  1.00  0.00     0.029 A 
ATOM     44  N   UNL A   1      39.236  30.460  31.502  1.00  0.00    -0.354 N 
ATOM     45  C   UNL A   1      39.180  32.886  35.096  1.00  0.00     0.074 A 
ATOM     46  C   UNL A   1      38.104  33.854  35.040  1.00  0.00     0.031 C 
ATOM     47  C   UNL A   1      38.532  29.776  29.496  1.00  0.00     0.029 A 
ATOM     48  C   UNL A   1      39.547  29.546  30.524  1.00  0.00     0.049 A 
ATOM     49  H   UNL A   1      39.706  30.505  32.367  1.00  0.00     0.167 HD
ATOM     50  C   UNL A   1      40.009  32.724  36.155  1.00  0.00     0.034 A 
ATOM     51  C   UNL A   1      40.557  28.654  30.452  1.00  0.00     0.034 A 
ATOM     52  C   UNL A   1      41.082  31.762  36.190  1.00  0.00     0.049 A 
ATOM     53  C   UNL A   1      41.537  28.565  31.600  1.00  0.00     0.074 A 
ATOM     54  C   UNL A   1      41.986  31.515  37.209  1.00  0.00     0.029 A 
ATOM     55  N   UNL A   1      41.406  30.892  35.156  1.00  0.00    -0.354 N 
ATOM     56  N   UNL A   1      41.558  29.237  32.729  1.00  0.00    -0.248 NA
ATOM     57  C   UNL A   1      42.632  27.594  31.462  1.00  0.00     0.031 C 
ATOM     58  C   UNL A   1      42.896  30.551  36.765  1.00  0.00     0.029 A 
ATOM     59  C   UNL A   1      42.516  30.134  35.499  1.00  0.00     0.049 A 
ATOM     60  H   UNL A   1      40.918  30.823  34.304  1.00  0.00     0.167 HD
ATOM     61  C   UNL A   1      42.649  28.747  33.444  1.00  0.00     0.074 A 
ATOM     62  C   UNL A   1      43.249  27.714  32.627  1.00  0.00     0.031 C 
ATOM     63  C   UNL A   1      43.114  29.115  34.667  1.00  0.00     0.034 A 
BRANCH  50  64
ATOM     64  C   UNL A   1      39.824  33.660  37.322  1.00  0.00     0.023 A 
ATOM     65  C   UNL A   1      40.614  34.811  37.489  1.00  0.00     0.031 A 
ATOM     66  C   UNL A   1      38.866  33.370  38.310  1.00  0.00     0.131 A 
ATOM     67  C   UNL A   1      40.480  35.588  38.650  1.00  0.00     0.055 A 
ATOM     68  C   UNL A   1      38.682  34.191  39.422  1.00  0.00     0.041 A 
ATOM     69  F   UNL A   1      38.102  32.269  38.218  1.00  0.00    -0.206 F 
ATOM     70  C   UNL A   1      39.502  35.301  39.605  1.00  0.00     0.022 A 
BRANCH  67  71
ATOM     71  S   UNL A   1      41.698  36.895  38.968  1.00  0.00     0.124 S 
ATOM     72  O   UNL A   1      42.471  36.319  40.066  1.00  0.00    -0.237 OA
ATOM     73  O   UNL A   1      42.387  37.004  37.687  1.00  0.00    -0.237 OA
ATOM     74  O   UNL A   1      40.876  38.048  39.334  1.00  0.00    -0.744 OA
ENDBRANCH  67  71
ENDBRANCH  50  64
BRANCH  51  75
ATOM     75  C   UNL A   1      40.750  27.815  29.232  1.00  0.00     0.023 A 
ATOM     76  C   UNL A   1      41.705  28.152  28.259  1.00  0.00     0.031 A 
ATOM     77  C   UNL A   1      39.920  26.707  28.983  1.00  0.00     0.131 A 
ATOM     78  C   UNL A   1      41.772  27.423  27.061  1.00  0.00     0.055 A 
ATOM     79  C   UNL A   1      40.029  25.949  27.816  1.00  0.00     0.041 A 
ATOM     80  F   UNL A   1      38.984  26.345  29.874  1.00  0.00    -0.206 F 
ATOM     81  C   UNL A   1      40.949  26.315  26.839  1.00  0.00     0.022 A 
BRANCH  78  82
ATOM     82  S   UNL A   1      42.883  28.002  25.749  1.00  0.00     0.124 S 
ATOM     83  O   UNL A   1      42.707  29.447  25.827  1.00  0.00    -0.237 OA
ATOM     84  O   UNL A   1      44.174  27.488  26.195  1.00  0.00    -0.237 OA
ATOM     85  O   UNL A   1      42.347  27.371  24.544  1.00  0.00    -0.744 OA
ENDBRANCH  78  82
ENDBRANCH  51  75
BRANCH  63  86
ATOM     86  C   UNL A   1      44.306  28.359  35.206  1.00  0.00     0.023 A 
ATOM     87  C   UNL A   1      44.176  27.084  35.787  1.00  0.00     0.031 A 
ATOM     88  C   UNL A   1      45.590  28.931  35.153  1.00  0.00     0.131 A 
ATOM     89  C   UNL A   1      45.297  26.453  36.347  1.00  0.00     0.055 A 
ATOM     90  C   UNL A   1      46.712  28.270  35.654  1.00  0.00     0.041 A 
ATOM     91  F   UNL A   1      45.775  30.146  34.612  1.00  0.00    -0.206 F 
ATOM     92  C   UNL A   1      46.567  27.030  36.270  1.00  0.00     0.022 A 
BRANCH  89  93
ATOM     93  S   UNL A   1      45.059  24.911  37.272  1.00  0.00     0.124 S 
ATOM     94  O   UNL A   1      46.018  25.060  38.363  1.00  0.00    -0.237 OA
ATOM     95  O   UNL A   1      43.651  24.987  37.648  1.00  0.00    -0.237 OA
ATOM     96  O   UNL A   1      45.384  23.870  36.299  1.00  0.00    -0.744 OA
ENDBRANCH  89  93
ENDBRANCH  63  86
ENDBRANCH  37  38
ENDBRANCH  30  32
ENDBRANCH  29  30
ENDBRANCH  28  29
ENDBRANCH  27  28
ENDBRANCH  26  27
ENDBRANCH  25  26
ENDBRANCH   1  25
TORSDOF 26
ENDMDL
