MODEL 1
REMARK VINA RESULT:      -9.8      0.000      0.000
REMARK SMILES Cn1ccnc1[C@@H]1[C@@H](C(=O)OCCOCCOCCOC(=O)c2ccc(-c3c4nc(c(-c5cc(S(=O)(=O)[O-])ccc5F)c5ccc([nH]5)c(-c5cc(S(=O)(=O)[O-])ccc5F)c5nc(c(-c6cc(S(=O)(=O)[O-])ccc6F)c6ccc3[nH]6)C=C5)C=C4)cc2)CC(=O)N1CCc1ccccc1F
REMARK SMILES IDX 15 1 14 2 13 3 12 4 11 5 9 6 10 7 8 8 7 9 89 10 86 11 87 12
REMARK SMILES IDX 88 13 6 14 1 15 2 16 3 17 4 18 5 19 90 20 91 21 92 22 93 23
REMARK SMILES IDX 97 24 94 25 96 26 98 27 95 28 16 29 17 30 18 31 19 32 20 33
REMARK SMILES IDX 21 34 22 35 23 36 24 37 85 38 25 39 84 40 26 41 27 42 28 43
REMARK SMILES IDX 78 44 29 45 83 46 77 47 79 48 30 49 82 50 76 51 75 52 31 54
REMARK SMILES IDX 63 55 43 56 62 57 44 58 47 59 61 60 80 61 45 62 46 63 60 65
REMARK SMILES IDX 81 66 48 67 32 68 33 69 41 70 34 71 40 72 42 73 39 74 35 75
REMARK SMILES IDX 36 76 37 77 38 78 64 79 65 80 73 81 66 82 72 83 74 84 71 85
REMARK SMILES IDX 67 86 68 87 69 88 70 89 49 90 50 91 58 92 51 93 57 94 59 95
REMARK SMILES IDX 56 96 52 97 53 98 54 99 55 100
REMARK H PARENT 79 53 47 64
REMARK Flexibility Score: inf
ROOT
ATOM      1  C   UNL A   1      35.897  31.647  28.073  1.00  0.00     0.188 C 
ENDROOT
BRANCH   1   2
ATOM      2  O   UNL A   1      34.601  31.493  27.504  1.00  0.00    -0.376 OA
BRANCH   2   3
ATOM      3  C   UNL A   1      34.071  30.208  27.232  1.00  0.00     0.202 C 
BRANCH   3   4
ATOM      4  C   UNL A   1      32.818  30.071  26.348  1.00  0.00     0.261 C 
BRANCH   4   5
ATOM      5  O   UNL A   1      31.725  29.289  26.868  1.00  0.00    -0.463 OA
BRANCH   5   6
ATOM      6  C   UNL A   1      31.815  27.953  26.637  1.00  0.00     0.312 C 
ATOM      7  O   UNL A   1      31.157  27.110  27.234  1.00  0.00    -0.252 OA
BRANCH   6   8
ATOM      8  C   UNL A   1      32.803  27.569  25.551  1.00  0.00     0.139 C 
ATOM      9  C   UNL A   1      32.034  26.781  24.515  1.00  0.00     0.166 C 
ATOM     10  N   UNL A   1      33.038  26.017  23.802  1.00  0.00    -0.331 N 
ATOM     11  C   UNL A   1      33.980  26.639  25.856  1.00  0.00     0.118 C 
ATOM     12  C   UNL A   1      34.163  25.844  24.591  1.00  0.00     0.224 C 
ATOM     13  O   UNL A   1      35.115  25.120  24.351  1.00  0.00    -0.275 OA
BRANCH   9  14
ATOM     14  C   UNL A   1      31.120  27.611  23.682  1.00  0.00     0.132 A 
ATOM     15  C   UNL A   1      28.885  26.472  24.097  1.00  0.00     0.151 C 
ATOM     16  N   UNL A   1      29.759  27.477  23.544  1.00  0.00    -0.336 N 
ATOM     17  C   UNL A   1      29.329  28.482  22.716  1.00  0.00     0.107 A 
ATOM     18  C   UNL A   1      30.467  29.115  22.291  1.00  0.00     0.131 A 
ATOM     19  N   UNL A   1      31.563  28.571  22.891  1.00  0.00    -0.239 NA
ENDBRANCH   9  14
BRANCH  10  20
ATOM     20  C   UNL A   1      32.762  25.156  22.654  1.00  0.00     0.125 C 
BRANCH  20  21
ATOM     21  C   UNL A   1      32.881  23.648  22.961  1.00  0.00     0.060 C 
BRANCH  21  22
ATOM     22  C   UNL A   1      32.278  23.265  24.291  1.00  0.00    -0.010 A 
ATOM     23  C   UNL A   1      33.091  22.927  25.383  1.00  0.00     0.007 A 
ATOM     24  C   UNL A   1      30.898  23.366  24.490  1.00  0.00     0.126 A 
ATOM     25  C   UNL A   1      32.536  22.795  26.659  1.00  0.00     0.000 A 
ATOM     26  C   UNL A   1      30.336  23.208  25.752  1.00  0.00     0.039 A 
ATOM     27  F   UNL A   1      30.100  23.682  23.459  1.00  0.00    -0.207 F 
ATOM     28  C   UNL A   1      31.161  22.948  26.844  1.00  0.00     0.003 A 
ENDBRANCH  21  22
ENDBRANCH  20  21
ENDBRANCH  10  20
ENDBRANCH   6   8
ENDBRANCH   5   6
ENDBRANCH   4   5
ENDBRANCH   3   4
ENDBRANCH   2   3
ENDBRANCH   1   2
BRANCH   1  29
ATOM     29  C   UNL A   1      36.095  31.511  29.591  1.00  0.00     0.188 C 
BRANCH  29  30
ATOM     30  O   UNL A   1      35.186  32.244  30.373  1.00  0.00    -0.376 OA
BRANCH  30  31
ATOM     31  C   UNL A   1      35.138  31.979  31.759  1.00  0.00     0.202 C 
BRANCH  31  32
ATOM     32  C   UNL A   1      35.149  33.138  32.772  1.00  0.00     0.261 C 
BRANCH  32  33
ATOM     33  O   UNL A   1      36.180  33.147  33.775  1.00  0.00    -0.460 OA
BRANCH  33  34
ATOM     34  C   UNL A   1      37.298  33.871  33.531  1.00  0.00     0.338 C 
ATOM     35  O   UNL A   1      37.586  34.945  34.037  1.00  0.00    -0.246 OA
BRANCH  34  36
ATOM     36  C   UNL A   1      38.227  33.028  32.735  1.00  0.00     0.060 A 
ATOM     37  C   UNL A   1      38.849  31.926  33.341  1.00  0.00     0.016 A 
ATOM     38  C   UNL A   1      38.468  33.309  31.389  1.00  0.00     0.016 A 
ATOM     39  C   UNL A   1      39.729  31.118  32.610  1.00  0.00     0.010 A 
ATOM     40  C   UNL A   1      39.367  32.514  30.665  1.00  0.00     0.010 A 
ATOM     41  C   UNL A   1      40.024  31.428  31.276  1.00  0.00    -0.014 A 
BRANCH  41  42
ATOM     42  C   UNL A   1      41.144  30.747  30.569  1.00  0.00     0.031 A 
ATOM     43  C   UNL A   1      42.443  31.493  30.403  1.00  0.00     0.074 A 
ATOM     44  C   UNL A   1      41.021  29.501  30.076  1.00  0.00     0.049 A 
ATOM     45  N   UNL A   1      43.517  31.160  29.735  1.00  0.00    -0.248 NA
ATOM     46  C   UNL A   1      42.531  32.796  31.078  1.00  0.00     0.031 C 
ATOM     47  C   UNL A   1      39.841  28.651  30.213  1.00  0.00     0.029 A 
ATOM     48  N   UNL A   1      41.900  28.740  29.342  1.00  0.00    -0.354 N 
ATOM     49  C   UNL A   1      44.404  32.220  29.894  1.00  0.00     0.074 A 
ATOM     50  C   UNL A   1      43.727  33.216  30.697  1.00  0.00     0.031 C 
ATOM     51  C   UNL A   1      40.061  27.492  29.565  1.00  0.00     0.029 A 
ATOM     52  C   UNL A   1      41.377  27.536  28.926  1.00  0.00     0.049 A 
ATOM     53  H   UNL A   1      42.818  29.028  29.133  1.00  0.00     0.167 HD
ATOM     54  C   UNL A   1      45.666  32.350  29.416  1.00  0.00     0.034 A 
ATOM     55  C   UNL A   1      41.881  26.598  28.096  1.00  0.00     0.034 A 
ATOM     56  C   UNL A   1      46.326  31.355  28.605  1.00  0.00     0.049 A 
ATOM     57  C   UNL A   1      43.254  26.807  27.492  1.00  0.00     0.074 A 
ATOM     58  C   UNL A   1      47.612  31.377  28.093  1.00  0.00     0.029 A 
ATOM     59  N   UNL A   1      45.747  30.170  28.170  1.00  0.00    -0.354 N 
ATOM     60  N   UNL A   1      44.089  27.806  27.660  1.00  0.00    -0.248 NA
ATOM     61  C   UNL A   1      43.750  25.758  26.591  1.00  0.00     0.031 C 
ATOM     62  C   UNL A   1      47.778  30.254  27.276  1.00  0.00     0.029 A 
ATOM     63  C   UNL A   1      46.633  29.477  27.359  1.00  0.00     0.049 A 
ATOM     64  H   UNL A   1      44.840  29.866  28.403  1.00  0.00     0.167 HD
ATOM     65  C   UNL A   1      45.221  27.487  26.911  1.00  0.00     0.074 A 
ATOM     66  C   UNL A   1      44.967  26.199  26.305  1.00  0.00     0.031 C 
ATOM     67  C   UNL A   1      46.369  28.194  26.745  1.00  0.00     0.034 A 
BRANCH  54  68
ATOM     68  C   UNL A   1      46.391  33.645  29.706  1.00  0.00     0.023 A 
ATOM     69  C   UNL A   1      46.272  34.768  28.869  1.00  0.00     0.031 A 
ATOM     70  C   UNL A   1      47.237  33.746  30.825  1.00  0.00     0.131 A 
ATOM     71  C   UNL A   1      47.041  35.914  29.123  1.00  0.00     0.055 A 
ATOM     72  C   UNL A   1      47.933  34.919  31.121  1.00  0.00     0.041 A 
ATOM     73  F   UNL A   1      47.412  32.698  31.647  1.00  0.00    -0.206 F 
ATOM     74  C   UNL A   1      47.849  36.008  30.259  1.00  0.00     0.022 A 
BRANCH  71  75
ATOM     75  S   UNL A   1      47.091  37.220  27.864  1.00  0.00     0.124 S 
ATOM     76  O   UNL A   1      48.124  38.104  28.398  1.00  0.00    -0.237 OA
ATOM     77  O   UNL A   1      47.443  36.480  26.658  1.00  0.00    -0.237 OA
ATOM     78  O   UNL A   1      45.738  37.771  27.887  1.00  0.00    -0.744 OA
ENDBRANCH  71  75
ENDBRANCH  54  68
BRANCH  55  79
ATOM     79  C   UNL A   1      41.073  25.396  27.727  1.00  0.00     0.023 A 
ATOM     80  C   UNL A   1      41.589  24.098  27.869  1.00  0.00     0.031 A 
ATOM     81  C   UNL A   1      39.791  25.535  27.166  1.00  0.00     0.131 A 
ATOM     82  C   UNL A   1      40.847  22.996  27.414  1.00  0.00     0.055 A 
ATOM     83  C   UNL A   1      39.032  24.432  26.771  1.00  0.00     0.041 A 
ATOM     84  F   UNL A   1      39.252  26.753  26.995  1.00  0.00    -0.206 F 
ATOM     85  C   UNL A   1      39.566  23.152  26.882  1.00  0.00     0.022 A 
BRANCH  82  86
ATOM     86  S   UNL A   1      41.622  21.356  27.441  1.00  0.00     0.124 S 
ATOM     87  O   UNL A   1      41.913  21.141  26.029  1.00  0.00    -0.237 OA
ATOM     88  O   UNL A   1      42.776  21.579  28.307  1.00  0.00    -0.237 OA
ATOM     89  O   UNL A   1      40.583  20.495  28.002  1.00  0.00    -0.744 OA
ENDBRANCH  82  86
ENDBRANCH  55  79
BRANCH  67  90
ATOM     90  C   UNL A   1      47.463  27.563  25.912  1.00  0.00     0.023 A 
ATOM     91  C   UNL A   1      48.535  26.863  26.495  1.00  0.00     0.031 A 
ATOM     92  C   UNL A   1      47.433  27.666  24.510  1.00  0.00     0.131 A 
ATOM     93  C   UNL A   1      49.558  26.345  25.684  1.00  0.00     0.055 A 
ATOM     94  C   UNL A   1      48.415  27.088  23.705  1.00  0.00     0.041 A 
ATOM     95  F   UNL A   1      46.438  28.325  23.894  1.00  0.00    -0.206 F 
ATOM     96  C   UNL A   1      49.493  26.435  24.292  1.00  0.00     0.022 A 
BRANCH  93  97
ATOM     97  S   UNL A   1      51.029  25.641  26.478  1.00  0.00     0.124 S 
ATOM     98  O   UNL A   1      51.536  26.779  27.239  1.00  0.00    -0.237 OA
ATOM     99  O   UNL A   1      50.468  24.548  27.264  1.00  0.00    -0.237 OA
ATOM    100  O   UNL A   1      51.864  25.229  25.350  1.00  0.00    -0.744 OA
ENDBRANCH  93  97
ENDBRANCH  67  90
ENDBRANCH  41  42
ENDBRANCH  34  36
ENDBRANCH  33  34
ENDBRANCH  32  33
ENDBRANCH  31  32
ENDBRANCH  30  31
ENDBRANCH  29  30
ENDBRANCH   1  29
TORSDOF 24
ENDMDL
MODEL 2
REMARK VINA RESULT:      -9.8      5.776      8.435
REMARK SMILES Cn1ccnc1[C@@H]1[C@@H](C(=O)OCCOCCOCCOC(=O)c2ccc(-c3c4nc(c(-c5cc(S(=O)(=O)[O-])ccc5F)c5ccc([nH]5)c(-c5cc(S(=O)(=O)[O-])ccc5F)c5nc(c(-c6cc(S(=O)(=O)[O-])ccc6F)c6ccc3[nH]6)C=C5)C=C4)cc2)CC(=O)N1CCc1ccccc1F
REMARK SMILES IDX 15 1 14 2 13 3 12 4 11 5 9 6 10 7 8 8 7 9 89 10 86 11 87 12
REMARK SMILES IDX 88 13 6 14 1 15 2 16 3 17 4 18 5 19 90 20 91 21 92 22 93 23
REMARK SMILES IDX 97 24 94 25 96 26 98 27 95 28 16 29 17 30 18 31 19 32 20 33
REMARK SMILES IDX 21 34 22 35 23 36 24 37 85 38 25 39 84 40 26 41 27 42 28 43
REMARK SMILES IDX 78 44 29 45 83 46 77 47 79 48 30 49 82 50 76 51 75 52 31 54
REMARK SMILES IDX 63 55 43 56 62 57 44 58 47 59 61 60 80 61 45 62 46 63 60 65
REMARK SMILES IDX 81 66 48 67 32 68 33 69 41 70 34 71 40 72 42 73 39 74 35 75
REMARK SMILES IDX 36 76 37 77 38 78 64 79 65 80 73 81 66 82 72 83 74 84 71 85
REMARK SMILES IDX 67 86 68 87 69 88 70 89 49 90 50 91 58 92 51 93 57 94 59 95
REMARK SMILES IDX 56 96 52 97 53 98 54 99 55 100
REMARK H PARENT 79 53 47 64
REMARK Flexibility Score: inf
ROOT
ATOM      1  C   UNL A   1      39.643  32.974  39.717  1.00  0.00     0.188 C 
ENDROOT
BRANCH   1   2
ATOM      2  O   UNL A   1      38.374  32.393  39.998  1.00  0.00    -0.376 OA
BRANCH   2   3
ATOM      3  C   UNL A   1      37.335  32.407  39.035  1.00  0.00     0.202 C 
BRANCH   3   4
ATOM      4  C   UNL A   1      37.455  33.312  37.796  1.00  0.00     0.261 C 
BRANCH   4   5
ATOM      5  O   UNL A   1      37.127  32.731  36.520  1.00  0.00    -0.463 OA
BRANCH   5   6
ATOM      6  C   UNL A   1      37.754  33.294  35.454  1.00  0.00     0.312 C 
ATOM      7  O   UNL A   1      37.492  34.407  35.016  1.00  0.00    -0.252 OA
BRANCH   6   8
ATOM      8  C   UNL A   1      38.839  32.431  34.837  1.00  0.00     0.139 C 
ATOM      9  C   UNL A   1      38.175  31.575  33.782  1.00  0.00     0.166 C 
ATOM     10  N   UNL A   1      39.070  30.452  33.590  1.00  0.00    -0.331 N 
ATOM     11  C   UNL A   1      39.583  31.389  35.677  1.00  0.00     0.118 C 
ATOM     12  C   UNL A   1      39.855  30.263  34.715  1.00  0.00     0.224 C 
ATOM     13  O   UNL A   1      40.591  29.316  34.938  1.00  0.00    -0.275 OA
BRANCH   9  14
ATOM     14  C   UNL A   1      37.781  32.325  32.557  1.00  0.00     0.132 A 
ATOM     15  C   UNL A   1      40.001  33.342  31.852  1.00  0.00     0.151 C 
ATOM     16  N   UNL A   1      38.595  33.053  31.723  1.00  0.00    -0.336 N 
ATOM     17  C   UNL A   1      37.814  33.532  30.702  1.00  0.00     0.107 A 
ATOM     18  C   UNL A   1      36.533  33.170  31.024  1.00  0.00     0.131 A 
ATOM     19  N   UNL A   1      36.523  32.428  32.167  1.00  0.00    -0.239 NA
ENDBRANCH   9  14
BRANCH  10  20
ATOM     20  C   UNL A   1      38.868  29.393  32.604  1.00  0.00     0.125 C 
BRANCH  20  21
ATOM     21  C   UNL A   1      39.970  29.321  31.528  1.00  0.00     0.060 C 
BRANCH  21  22
ATOM     22  C   UNL A   1      39.423  29.232  30.124  1.00  0.00    -0.010 A 
ATOM     23  C   UNL A   1      38.357  30.045  29.709  1.00  0.00     0.007 A 
ATOM     24  C   UNL A   1      40.058  28.425  29.174  1.00  0.00     0.126 A 
ATOM     25  C   UNL A   1      38.011  30.115  28.357  1.00  0.00     0.000 A 
ATOM     26  C   UNL A   1      39.699  28.470  27.831  1.00  0.00     0.039 A 
ATOM     27  F   UNL A   1      41.075  27.635  29.548  1.00  0.00    -0.207 F 
ATOM     28  C   UNL A   1      38.690  29.338  27.418  1.00  0.00     0.003 A 
ENDBRANCH  21  22
ENDBRANCH  20  21
ENDBRANCH  10  20
ENDBRANCH   6   8
ENDBRANCH   5   6
ENDBRANCH   4   5
ENDBRANCH   3   4
ENDBRANCH   2   3
ENDBRANCH   1   2
BRANCH   1  29
ATOM     29  C   UNL A   1      40.652  33.212  40.851  1.00  0.00     0.188 C 
BRANCH  29  30
ATOM     30  O   UNL A   1      42.002  33.104  40.474  1.00  0.00    -0.376 OA
BRANCH  30  31
ATOM     31  C   UNL A   1      42.887  34.128  40.876  1.00  0.00     0.202 C 
BRANCH  31  32
ATOM     32  C   UNL A   1      42.471  35.606  40.759  1.00  0.00     0.261 C 
BRANCH  32  33
ATOM     33  O   UNL A   1      42.823  36.312  39.556  1.00  0.00    -0.460 OA
BRANCH  33  34
ATOM     34  C   UNL A   1      41.849  36.539  38.644  1.00  0.00     0.338 C 
ATOM     35  O   UNL A   1      40.918  37.322  38.763  1.00  0.00    -0.246 OA
BRANCH  34  36
ATOM     36  C   UNL A   1      42.234  35.860  37.380  1.00  0.00     0.060 A 
ATOM     37  C   UNL A   1      41.243  35.253  36.593  1.00  0.00     0.016 A 
ATOM     38  C   UNL A   1      43.565  35.841  36.959  1.00  0.00     0.016 A 
ATOM     39  C   UNL A   1      41.583  34.607  35.398  1.00  0.00     0.010 A 
ATOM     40  C   UNL A   1      43.907  35.172  35.775  1.00  0.00     0.010 A 
ATOM     41  C   UNL A   1      42.924  34.530  34.999  1.00  0.00    -0.014 A 
BRANCH  41  42
ATOM     42  C   UNL A   1      43.331  33.631  33.883  1.00  0.00     0.031 A 
ATOM     43  C   UNL A   1      43.390  34.204  32.490  1.00  0.00     0.074 A 
ATOM     44  C   UNL A   1      43.634  32.336  34.086  1.00  0.00     0.049 A 
ATOM     45  N   UNL A   1      43.607  33.604  31.349  1.00  0.00    -0.248 NA
ATOM     46  C   UNL A   1      43.164  35.653  32.377  1.00  0.00     0.031 C 
ATOM     47  C   UNL A   1      43.667  31.670  35.386  1.00  0.00     0.029 A 
ATOM     48  N   UNL A   1      43.956  31.343  33.191  1.00  0.00    -0.354 N 
ATOM     49  C   UNL A   1      43.526  34.596  30.378  1.00  0.00     0.074 A 
ATOM     50  C   UNL A   1      43.211  35.831  31.066  1.00  0.00     0.031 C 
ATOM     51  C   UNL A   1      43.971  30.372  35.202  1.00  0.00     0.029 A 
ATOM     52  C   UNL A   1      44.107  30.103  33.771  1.00  0.00     0.049 A 
ATOM     53  H   UNL A   1      44.070  31.503  32.226  1.00  0.00     0.167 HD
ATOM     54  C   UNL A   1      43.700  34.490  29.037  1.00  0.00     0.034 A 
ATOM     55  C   UNL A   1      44.292  28.888  33.211  1.00  0.00     0.034 A 
ATOM     56  C   UNL A   1      44.001  33.251  28.361  1.00  0.00     0.049 A 
ATOM     57  C   UNL A   1      44.384  28.775  31.705  1.00  0.00     0.074 A 
ATOM     58  C   UNL A   1      44.222  33.039  27.011  1.00  0.00     0.029 A 
ATOM     59  N   UNL A   1      44.102  32.010  28.978  1.00  0.00    -0.354 N 
ATOM     60  N   UNL A   1      44.321  29.722  30.797  1.00  0.00    -0.248 NA
ATOM     61  C   UNL A   1      44.579  27.428  31.150  1.00  0.00     0.031 C 
ATOM     62  C   UNL A   1      44.366  31.664  26.800  1.00  0.00     0.029 A 
ATOM     63  C   UNL A   1      44.337  31.025  28.030  1.00  0.00     0.049 A 
ATOM     64  H   UNL A   1      44.019  31.853  29.946  1.00  0.00     0.167 HD
ATOM     65  C   UNL A   1      44.500  29.086  29.568  1.00  0.00     0.074 A 
ATOM     66  C   UNL A   1      44.690  27.681  29.854  1.00  0.00     0.031 C 
ATOM     67  C   UNL A   1      44.513  29.619  28.319  1.00  0.00     0.034 A 
BRANCH  54  68
ATOM     68  C   UNL A   1      43.504  35.738  28.208  1.00  0.00     0.023 A 
ATOM     69  C   UNL A   1      44.586  36.530  27.786  1.00  0.00     0.031 A 
ATOM     70  C   UNL A   1      42.208  36.157  27.857  1.00  0.00     0.131 A 
ATOM     71  C   UNL A   1      44.349  37.733  27.104  1.00  0.00     0.055 A 
ATOM     72  C   UNL A   1      41.983  37.310  27.103  1.00  0.00     0.041 A 
ATOM     73  F   UNL A   1      41.132  35.458  28.253  1.00  0.00    -0.206 F 
ATOM     74  C   UNL A   1      43.057  38.115  26.735  1.00  0.00     0.022 A 
BRANCH  71  75
ATOM     75  S   UNL A   1      45.739  38.870  26.844  1.00  0.00     0.124 S 
ATOM     76  O   UNL A   1      46.615  38.074  25.989  1.00  0.00    -0.237 OA
ATOM     77  O   UNL A   1      45.094  40.014  26.211  1.00  0.00    -0.237 OA
ATOM     78  O   UNL A   1      46.246  39.106  28.194  1.00  0.00    -0.744 OA
ENDBRANCH  71  75
ENDBRANCH  54  68
BRANCH  55  79
ATOM     79  C   UNL A   1      44.343  27.660  34.062  1.00  0.00     0.023 A 
ATOM     80  C   UNL A   1      43.174  26.961  34.405  1.00  0.00     0.031 A 
ATOM     81  C   UNL A   1      45.561  27.206  34.598  1.00  0.00     0.131 A 
ATOM     82  C   UNL A   1      43.243  25.875  35.293  1.00  0.00     0.055 A 
ATOM     83  C   UNL A   1      45.631  26.089  35.433  1.00  0.00     0.041 A 
ATOM     84  F   UNL A   1      46.708  27.844  34.316  1.00  0.00    -0.206 F 
ATOM     85  C   UNL A   1      44.465  25.424  35.796  1.00  0.00     0.022 A 
BRANCH  82  86
ATOM     86  S   UNL A   1      41.695  25.116  35.859  1.00  0.00     0.124 S 
ATOM     87  O   UNL A   1      41.799  23.774  35.297  1.00  0.00    -0.237 OA
ATOM     88  O   UNL A   1      41.821  25.216  37.309  1.00  0.00    -0.237 OA
ATOM     89  O   UNL A   1      40.662  25.963  35.265  1.00  0.00    -0.744 OA
ENDBRANCH  82  86
ENDBRANCH  55  79
BRANCH  67  90
ATOM     90  C   UNL A   1      44.793  28.683  27.164  1.00  0.00     0.023 A 
ATOM     91  C   UNL A   1      46.102  28.343  26.780  1.00  0.00     0.031 A 
ATOM     92  C   UNL A   1      43.729  28.123  26.435  1.00  0.00     0.131 A 
ATOM     93  C   UNL A   1      46.314  27.516  25.664  1.00  0.00     0.055 A 
ATOM     94  C   UNL A   1      43.943  27.246  25.370  1.00  0.00     0.041 A 
ATOM     95  F   UNL A   1      42.456  28.413  26.750  1.00  0.00    -0.206 F 
ATOM     96  C   UNL A   1      45.241  26.950  24.970  1.00  0.00     0.022 A 
BRANCH  93  97
ATOM     97  S   UNL A   1      48.008  27.274  25.065  1.00  0.00     0.124 S 
ATOM     98  O   UNL A   1      47.789  26.954  23.658  1.00  0.00    -0.237 OA
ATOM     99  O   UNL A   1      48.624  28.569  25.337  1.00  0.00    -0.237 OA
ATOM    100  O   UNL A   1      48.506  26.168  25.882  1.00  0.00    -0.744 OA
ENDBRANCH  93  97
ENDBRANCH  67  90
ENDBRANCH  41  42
ENDBRANCH  34  36
ENDBRANCH  33  34
ENDBRANCH  32  33
ENDBRANCH  31  32
ENDBRANCH  30  31
ENDBRANCH  29  30
ENDBRANCH   1  29
TORSDOF 24
ENDMDL
MODEL 3
REMARK VINA RESULT:      -9.6      7.751     14.684
REMARK SMILES Cn1ccnc1[C@@H]1[C@@H](C(=O)OCCOCCOCCOC(=O)c2ccc(-c3c4nc(c(-c5cc(S(=O)(=O)[O-])ccc5F)c5ccc([nH]5)c(-c5cc(S(=O)(=O)[O-])ccc5F)c5nc(c(-c6cc(S(=O)(=O)[O-])ccc6F)c6ccc3[nH]6)C=C5)C=C4)cc2)CC(=O)N1CCc1ccccc1F
REMARK SMILES IDX 15 1 14 2 13 3 12 4 11 5 9 6 10 7 8 8 7 9 89 10 86 11 87 12
REMARK SMILES IDX 88 13 6 14 1 15 2 16 3 17 4 18 5 19 90 20 91 21 92 22 93 23
REMARK SMILES IDX 97 24 94 25 96 26 98 27 95 28 16 29 17 30 18 31 19 32 20 33
REMARK SMILES IDX 21 34 22 35 23 36 24 37 85 38 25 39 84 40 26 41 27 42 28 43
REMARK SMILES IDX 78 44 29 45 83 46 77 47 79 48 30 49 82 50 76 51 75 52 31 54
REMARK SMILES IDX 63 55 43 56 62 57 44 58 47 59 61 60 80 61 45 62 46 63 60 65
REMARK SMILES IDX 81 66 48 67 32 68 33 69 41 70 34 71 40 72 42 73 39 74 35 75
REMARK SMILES IDX 36 76 37 77 38 78 64 79 65 80 73 81 66 82 72 83 74 84 71 85
REMARK SMILES IDX 67 86 68 87 69 88 70 89 49 90 50 91 58 92 51 93 57 94 59 95
REMARK SMILES IDX 56 96 52 97 53 98 54 99 55 100
REMARK H PARENT 79 53 47 64
REMARK Flexibility Score: inf
ROOT
ATOM      1  C   UNL A   1      51.834  26.351  35.367  1.00  0.00     0.188 C 
ENDROOT
BRANCH   1   2
ATOM      2  O   UNL A   1      52.908  25.853  34.576  1.00  0.00    -0.376 OA
BRANCH   2   3
ATOM      3  C   UNL A   1      52.960  24.491  34.188  1.00  0.00     0.202 C 
BRANCH   3   4
ATOM      4  C   UNL A   1      52.278  23.423  35.061  1.00  0.00     0.261 C 
BRANCH   4   5
ATOM      5  O   UNL A   1      50.891  23.140  34.793  1.00  0.00    -0.463 OA
BRANCH   5   6
ATOM      6  C   UNL A   1      50.664  22.001  34.087  1.00  0.00     0.312 C 
ATOM      7  O   UNL A   1      50.805  21.909  32.874  1.00  0.00    -0.252 OA
BRANCH   6   8
ATOM      8  C   UNL A   1      50.225  20.817  34.929  1.00  0.00     0.139 C 
ATOM      9  C   UNL A   1      49.294  21.354  35.992  1.00  0.00     0.166 C 
ATOM     10  N   UNL A   1      49.308  20.357  37.043  1.00  0.00    -0.331 N 
ATOM     11  C   UNL A   1      51.241  20.026  35.758  1.00  0.00     0.118 C 
ATOM     12  C   UNL A   1      50.475  19.613  36.987  1.00  0.00     0.224 C 
ATOM     13  O   UNL A   1      50.866  18.809  37.817  1.00  0.00    -0.275 OA
BRANCH   9  14
ATOM     14  C   UNL A   1      47.955  21.753  35.477  1.00  0.00     0.132 A 
ATOM     15  C   UNL A   1      47.213  19.625  34.301  1.00  0.00     0.151 C 
ATOM     16  N   UNL A   1      47.062  20.978  34.777  1.00  0.00    -0.336 N 
ATOM     17  C   UNL A   1      45.947  21.741  34.546  1.00  0.00     0.107 A 
ATOM     18  C   UNL A   1      46.258  22.990  35.016  1.00  0.00     0.131 A 
ATOM     19  N   UNL A   1      47.496  22.987  35.586  1.00  0.00    -0.239 NA
ENDBRANCH   9  14
BRANCH  10  20
ATOM     20  C   UNL A   1      48.493  20.420  38.254  1.00  0.00     0.125 C 
BRANCH  20  21
ATOM     21  C   UNL A   1      47.204  19.574  38.185  1.00  0.00     0.060 C 
BRANCH  21  22
ATOM     22  C   UNL A   1      47.168  18.465  39.208  1.00  0.00    -0.010 A 
ATOM     23  C   UNL A   1      48.158  18.359  40.197  1.00  0.00     0.007 A 
ATOM     24  C   UNL A   1      46.072  17.598  39.263  1.00  0.00     0.126 A 
ATOM     25  C   UNL A   1      47.992  17.473  41.266  1.00  0.00     0.000 A 
ATOM     26  C   UNL A   1      45.916  16.696  40.309  1.00  0.00     0.039 A 
ATOM     27  F   UNL A   1      45.116  17.677  38.325  1.00  0.00    -0.207 F 
ATOM     28  C   UNL A   1      46.866  16.652  41.327  1.00  0.00     0.003 A 
ENDBRANCH  21  22
ENDBRANCH  20  21
ENDBRANCH  10  20
ENDBRANCH   6   8
ENDBRANCH   5   6
ENDBRANCH   4   5
ENDBRANCH   3   4
ENDBRANCH   2   3
ENDBRANCH   1   2
BRANCH   1  29
ATOM     29  C   UNL A   1      51.809  26.097  36.882  1.00  0.00     0.188 C 
BRANCH  29  30
ATOM     30  O   UNL A   1      50.960  26.948  37.610  1.00  0.00    -0.376 OA
BRANCH  30  31
ATOM     31  C   UNL A   1      49.901  26.365  38.338  1.00  0.00     0.202 C 
BRANCH  31  32
ATOM     32  C   UNL A   1      48.619  27.169  38.625  1.00  0.00     0.261 C 
BRANCH  32  33
ATOM     33  O   UNL A   1      47.653  27.297  37.567  1.00  0.00    -0.460 OA
BRANCH  33  34
ATOM     34  C   UNL A   1      46.673  26.366  37.485  1.00  0.00     0.338 C 
ATOM     35  O   UNL A   1      46.474  25.458  38.279  1.00  0.00    -0.246 OA
BRANCH  34  36
ATOM     36  C   UNL A   1      45.735  26.777  36.409  1.00  0.00     0.060 A 
ATOM     37  C   UNL A   1      45.990  27.951  35.683  1.00  0.00     0.016 A 
ATOM     38  C   UNL A   1      44.621  25.996  36.099  1.00  0.00     0.016 A 
ATOM     39  C   UNL A   1      45.120  28.357  34.664  1.00  0.00     0.010 A 
ATOM     40  C   UNL A   1      43.737  26.417  35.096  1.00  0.00     0.010 A 
ATOM     41  C   UNL A   1      43.966  27.612  34.388  1.00  0.00    -0.014 A 
BRANCH  41  42
ATOM     42  C   UNL A   1      42.904  28.162  33.499  1.00  0.00     0.031 A 
ATOM     43  C   UNL A   1      41.888  29.101  34.097  1.00  0.00     0.074 A 
ATOM     44  C   UNL A   1      42.829  27.839  32.195  1.00  0.00     0.049 A 
ATOM     45  N   UNL A   1      40.814  29.619  33.561  1.00  0.00    -0.248 NA
ATOM     46  C   UNL A   1      42.118  29.497  35.495  1.00  0.00     0.031 C 
ATOM     47  C   UNL A   1      43.776  26.985  31.481  1.00  0.00     0.029 A 
ATOM     48  N   UNL A   1      41.897  28.178  31.242  1.00  0.00    -0.354 N 
ATOM     49  C   UNL A   1      40.227  30.389  34.560  1.00  0.00     0.074 A 
ATOM     50  C   UNL A   1      41.053  30.244  35.741  1.00  0.00     0.031 C 
ATOM     51  C   UNL A   1      43.365  26.852  30.206  1.00  0.00     0.029 A 
ATOM     52  C   UNL A   1      42.102  27.567  30.025  1.00  0.00     0.049 A 
ATOM     53  H   UNL A   1      41.154  28.801  31.414  1.00  0.00     0.167 HD
ATOM     54  C   UNL A   1      39.105  31.149  34.499  1.00  0.00     0.034 A 
ATOM     55  C   UNL A   1      41.340  27.553  28.910  1.00  0.00     0.034 A 
ATOM     56  C   UNL A   1      38.284  31.276  33.319  1.00  0.00     0.049 A 
ATOM     57  C   UNL A   1      40.040  28.328  28.894  1.00  0.00     0.074 A 
ATOM     58  C   UNL A   1      37.143  32.040  33.144  1.00  0.00     0.029 A 
ATOM     59  N   UNL A   1      38.500  30.608  32.121  1.00  0.00    -0.354 N 
ATOM     60  N   UNL A   1      39.502  29.064  29.839  1.00  0.00    -0.248 NA
ATOM     61  C   UNL A   1      39.249  28.272  27.657  1.00  0.00     0.031 C 
ATOM     62  C   UNL A   1      36.620  31.765  31.876  1.00  0.00     0.029 A 
ATOM     63  C   UNL A   1      37.489  30.907  31.220  1.00  0.00     0.049 A 
ATOM     64  H   UNL A   1      39.259  30.009  31.938  1.00  0.00     0.167 HD
ATOM     65  C   UNL A   1      38.327  29.583  29.296  1.00  0.00     0.074 A 
ATOM     66  C   UNL A   1      38.244  29.089  27.940  1.00  0.00     0.031 C 
ATOM     67  C   UNL A   1      37.404  30.400  29.868  1.00  0.00     0.034 A 
BRANCH  54  68
ATOM     68  C   UNL A   1      38.668  31.850  35.765  1.00  0.00     0.023 A 
ATOM     69  C   UNL A   1      38.086  31.154  36.838  1.00  0.00     0.031 A 
ATOM     70  C   UNL A   1      38.813  33.243  35.887  1.00  0.00     0.131 A 
ATOM     71  C   UNL A   1      37.604  31.859  37.951  1.00  0.00     0.055 A 
ATOM     72  C   UNL A   1      38.412  33.929  37.034  1.00  0.00     0.041 A 
ATOM     73  F   UNL A   1      39.339  33.967  34.886  1.00  0.00    -0.206 F 
ATOM     74  C   UNL A   1      37.789  33.239  38.070  1.00  0.00     0.022 A 
BRANCH  71  75
ATOM     75  S   UNL A   1      36.595  30.972  39.170  1.00  0.00     0.124 S 
ATOM     76  O   UNL A   1      35.460  31.878  39.328  1.00  0.00    -0.237 OA
ATOM     77  O   UNL A   1      36.317  29.712  38.490  1.00  0.00    -0.237 OA
ATOM     78  O   UNL A   1      37.471  30.873  40.335  1.00  0.00    -0.744 OA
ENDBRANCH  71  75
ENDBRANCH  54  68
BRANCH  55  79
ATOM     79  C   UNL A   1      41.743  26.735  27.727  1.00  0.00     0.023 A 
ATOM     80  C   UNL A   1      41.664  25.333  27.748  1.00  0.00     0.031 A 
ATOM     81  C   UNL A   1      42.274  27.344  26.576  1.00  0.00     0.131 A 
ATOM     82  C   UNL A   1      42.150  24.587  26.662  1.00  0.00     0.055 A 
ATOM     83  C   UNL A   1      42.701  26.601  25.474  1.00  0.00     0.041 A 
ATOM     84  F   UNL A   1      42.386  28.681  26.505  1.00  0.00    -0.206 F 
ATOM     85  C   UNL A   1      42.652  25.211  25.519  1.00  0.00     0.022 A 
BRANCH  82  86
ATOM     86  S   UNL A   1      42.205  22.779  26.804  1.00  0.00     0.124 S 
ATOM     87  O   UNL A   1      41.109  22.520  27.731  1.00  0.00    -0.237 OA
ATOM     88  O   UNL A   1      41.989  22.359  25.423  1.00  0.00    -0.237 OA
ATOM     89  O   UNL A   1      43.543  22.518  27.330  1.00  0.00    -0.744 OA
ENDBRANCH  82  86
ENDBRANCH  55  79
BRANCH  67  90
ATOM     90  C   UNL A   1      36.246  30.855  29.007  1.00  0.00     0.023 A 
ATOM     91  C   UNL A   1      35.335  29.946  28.441  1.00  0.00     0.031 A 
ATOM     92  C   UNL A   1      36.054  32.224  28.747  1.00  0.00     0.131 A 
ATOM     93  C   UNL A   1      34.311  30.411  27.600  1.00  0.00     0.055 A 
ATOM     94  C   UNL A   1      34.992  32.687  27.968  1.00  0.00     0.041 A 
ATOM     95  F   UNL A   1      36.894  33.141  29.256  1.00  0.00    -0.206 F 
ATOM     96  C   UNL A   1      34.122  31.778  27.377  1.00  0.00     0.022 A 
BRANCH  93  97
ATOM     97  S   UNL A   1      33.290  29.201  26.715  1.00  0.00     0.124 S 
ATOM     98  O   UNL A   1      32.950  29.926  25.495  1.00  0.00    -0.237 OA
ATOM     99  O   UNL A   1      34.206  28.077  26.554  1.00  0.00    -0.237 OA
ATOM    100  O   UNL A   1      32.171  28.964  27.627  1.00  0.00    -0.744 OA
ENDBRANCH  93  97
ENDBRANCH  67  90
ENDBRANCH  41  42
ENDBRANCH  34  36
ENDBRANCH  33  34
ENDBRANCH  32  33
ENDBRANCH  31  32
ENDBRANCH  30  31
ENDBRANCH  29  30
ENDBRANCH   1  29
TORSDOF 24
ENDMDL
