MODEL 1
REMARK VINA RESULT:     -10.3      0.000      0.000
REMARK SMILES Cc1ccc(F)c(-c2ncccc2C(=O)OCCOCCOCCOC(=O)c2ccc(-c3c4nc(c(-c5cc(S(=O)(=O)[O-])ccc5F)c5ccc([nH]5)c(-c5cc(S(=O)(=O)[O-])ccc5F)c5nc(c(-c6cc(S(=O)(=O)[O-])ccc6F)c6ccc3[nH]6)C=C5)C=C4)cc2)c1
REMARK SMILES IDX 21 1 20 2 19 3 18 4 17 5 16 6 14 7 15 8 13 9 8 10 9 11 10 12
REMARK SMILES IDX 12 13 11 14 7 15 1 16 2 17 3 18 91 19 4 20 5 21 6 22 22 23
REMARK SMILES IDX 23 24 24 25 25 26 26 27 27 28 28 29 29 30 90 31 30 32 89 33
REMARK SMILES IDX 31 34 32 35 33 36 83 37 34 38 88 39 82 40 84 41 35 42 87 43
REMARK SMILES IDX 81 44 80 45 36 47 68 48 48 49 67 50 49 51 52 52 66 53 85 54
REMARK SMILES IDX 50 55 51 56 65 58 86 59 53 60 37 61 38 62 46 63 39 64 45 65
REMARK SMILES IDX 47 66 44 67 40 68 41 69 42 70 43 71 69 72 70 73 78 74 71 75
REMARK SMILES IDX 77 76 79 77 76 78 72 79 73 80 74 81 75 82 54 83 55 84 63 85
REMARK SMILES IDX 56 86 62 87 64 88 61 89 57 90 58 91 59 92 60 93
REMARK H PARENT 84 46 52 57
REMARK Flexibility Score: inf
ROOT
ATOM      1  C   UNL A   1      38.063  23.349  25.853  1.00  0.00     0.188 C 
ENDROOT
BRANCH   1   2
ATOM      2  C   UNL A   1      36.545  23.497  26.049  1.00  0.00     0.188 C 
BRANCH   2   3
ATOM      3  O   UNL A   1      35.895  24.042  24.901  1.00  0.00    -0.376 OA
BRANCH   3   4
ATOM      4  C   UNL A   1      35.853  23.147  23.789  1.00  0.00     0.202 C 
BRANCH   4   5
ATOM      5  C   UNL A   1      34.543  23.307  23.018  1.00  0.00     0.261 C 
BRANCH   5   6
ATOM      6  O   UNL A   1      34.282  24.667  22.630  1.00  0.00    -0.460 OA
BRANCH   6   7
ATOM      7  C   UNL A   1      33.007  25.107  22.756  1.00  0.00     0.340 C 
ATOM      8  O   UNL A   1      32.010  24.479  22.449  1.00  0.00    -0.246 OA
BRANCH   7   9
ATOM      9  C   UNL A   1      33.042  26.447  23.395  1.00  0.00     0.086 A 
ATOM     10  C   UNL A   1      32.544  26.658  24.687  1.00  0.00     0.088 A 
ATOM     11  N   UNL A   1      32.634  27.866  25.307  1.00  0.00    -0.255 NA
ATOM     12  C   UNL A   1      33.200  28.888  24.627  1.00  0.00     0.112 A 
ATOM     13  C   UNL A   1      33.633  27.527  22.725  1.00  0.00     0.019 A 
ATOM     14  C   UNL A   1      33.713  28.768  23.348  1.00  0.00     0.021 A 
BRANCH  10  15
ATOM     15  C   UNL A   1      32.005  25.583  25.520  1.00  0.00     0.037 A 
ATOM     16  C   UNL A   1      33.355  22.575  27.448  1.00  0.00     0.044 C 
ATOM     17  C   UNL A   1      32.401  23.552  26.823  1.00  0.00    -0.050 A 
ATOM     18  C   UNL A   1      31.023  23.322  26.867  1.00  0.00     0.006 A 
ATOM     19  C   UNL A   1      32.873  24.715  26.201  1.00  0.00     0.016 A 
ATOM     20  C   UNL A   1      30.138  24.229  26.282  1.00  0.00     0.040 A 
ATOM     21  C   UNL A   1      30.633  25.338  25.598  1.00  0.00     0.132 A 
ATOM     22  F   UNL A   1      29.766  26.151  24.977  1.00  0.00    -0.206 F 
ENDBRANCH  10  15
ENDBRANCH   7   9
ENDBRANCH   6   7
ENDBRANCH   5   6
ENDBRANCH   4   5
ENDBRANCH   3   4
ENDBRANCH   2   3
ENDBRANCH   1   2
BRANCH   1  23
ATOM     23  O   UNL A   1      38.691  22.096  26.115  1.00  0.00    -0.376 OA
BRANCH  23  24
ATOM     24  C   UNL A   1      38.263  20.963  25.380  1.00  0.00     0.202 C 
BRANCH  24  25
ATOM     25  C   UNL A   1      39.054  19.667  25.586  1.00  0.00     0.261 C 
BRANCH  25  26
ATOM     26  O   UNL A   1      39.994  19.696  26.669  1.00  0.00    -0.460 OA
BRANCH  26  27
ATOM     27  C   UNL A   1      41.297  19.720  26.285  1.00  0.00     0.338 C 
ATOM     28  O   UNL A   1      41.918  18.814  25.758  1.00  0.00    -0.246 OA
BRANCH  27  29
ATOM     29  C   UNL A   1      41.865  21.069  26.517  1.00  0.00     0.060 A 
ATOM     30  C   UNL A   1      42.039  21.504  27.837  1.00  0.00     0.016 A 
ATOM     31  C   UNL A   1      42.156  21.927  25.453  1.00  0.00     0.016 A 
ATOM     32  C   UNL A   1      42.480  22.806  28.098  1.00  0.00     0.010 A 
ATOM     33  C   UNL A   1      42.587  23.233  25.716  1.00  0.00     0.010 A 
ATOM     34  C   UNL A   1      42.729  23.691  27.040  1.00  0.00    -0.014 A 
BRANCH  34  35
ATOM     35  C   UNL A   1      42.980  25.137  27.292  1.00  0.00     0.031 A 
ATOM     36  C   UNL A   1      44.360  25.683  27.061  1.00  0.00     0.074 A 
ATOM     37  C   UNL A   1      42.014  25.965  27.730  1.00  0.00     0.049 A 
ATOM     38  N   UNL A   1      44.818  26.887  27.281  1.00  0.00    -0.248 NA
ATOM     39  C   UNL A   1      45.341  24.754  26.483  1.00  0.00     0.031 C 
ATOM     40  C   UNL A   1      40.612  25.606  27.875  1.00  0.00     0.029 A 
ATOM     41  N   UNL A   1      42.063  27.270  28.155  1.00  0.00    -0.354 N 
ATOM     42  C   UNL A   1      46.126  26.880  26.816  1.00  0.00     0.074 A 
ATOM     43  C   UNL A   1      46.411  25.527  26.382  1.00  0.00     0.031 C 
ATOM     44  C   UNL A   1      39.946  26.623  28.448  1.00  0.00     0.029 A 
ATOM     45  C   UNL A   1      40.877  27.718  28.694  1.00  0.00     0.049 A 
ATOM     46  H   UNL A   1      42.869  27.832  28.083  1.00  0.00     0.167 HD
ATOM     47  C   UNL A   1      46.995  27.915  26.722  1.00  0.00     0.034 A 
ATOM     48  C   UNL A   1      40.574  28.871  29.322  1.00  0.00     0.034 A 
ATOM     49  C   UNL A   1      46.722  29.248  27.199  1.00  0.00     0.049 A 
ATOM     50  C   UNL A   1      41.626  29.948  29.403  1.00  0.00     0.074 A 
ATOM     51  C   UNL A   1      47.545  30.360  27.172  1.00  0.00     0.029 A 
ATOM     52  N   UNL A   1      45.540  29.646  27.811  1.00  0.00    -0.354 N 
ATOM     53  N   UNL A   1      42.853  29.935  28.939  1.00  0.00    -0.248 NA
ATOM     54  C   UNL A   1      41.241  31.207  30.053  1.00  0.00     0.031 C 
ATOM     55  C   UNL A   1      46.887  31.410  27.825  1.00  0.00     0.029 A 
ATOM     56  C   UNL A   1      45.627  30.975  28.199  1.00  0.00     0.049 A 
ATOM     57  H   UNL A   1      44.755  29.069  27.950  1.00  0.00     0.167 HD
ATOM     58  C   UNL A   1      43.361  31.208  29.180  1.00  0.00     0.074 A 
ATOM     59  C   UNL A   1      42.313  31.956  29.841  1.00  0.00     0.031 C 
ATOM     60  C   UNL A   1      44.579  31.716  28.859  1.00  0.00     0.034 A 
BRANCH  47  61
ATOM     61  C   UNL A   1      48.332  27.617  26.097  1.00  0.00     0.023 A 
ATOM     62  C   UNL A   1      48.530  27.740  24.710  1.00  0.00     0.031 A 
ATOM     63  C   UNL A   1      49.403  27.158  26.882  1.00  0.00     0.131 A 
ATOM     64  C   UNL A   1      49.748  27.342  24.141  1.00  0.00     0.055 A 
ATOM     65  C   UNL A   1      50.637  26.832  26.317  1.00  0.00     0.041 A 
ATOM     66  F   UNL A   1      49.259  26.997  28.206  1.00  0.00    -0.206 F 
ATOM     67  C   UNL A   1      50.811  26.911  24.937  1.00  0.00     0.022 A 
BRANCH  64  68
ATOM     68  S   UNL A   1      49.877  27.270  22.333  1.00  0.00     0.124 S 
ATOM     69  O   UNL A   1      48.875  26.258  22.007  1.00  0.00    -0.237 OA
ATOM     70  O   UNL A   1      49.558  28.636  21.937  1.00  0.00    -0.237 OA
ATOM     71  O   UNL A   1      51.261  26.861  22.105  1.00  0.00    -0.744 OA
ENDBRANCH  64  68
ENDBRANCH  47  61
BRANCH  48  72
ATOM     72  C   UNL A   1      39.234  29.075  29.946  1.00  0.00     0.023 A 
ATOM     73  C   UNL A   1      38.242  29.836  29.309  1.00  0.00     0.031 A 
ATOM     74  C   UNL A   1      38.963  28.588  31.237  1.00  0.00     0.131 A 
ATOM     75  C   UNL A   1      37.052  30.144  29.988  1.00  0.00     0.055 A 
ATOM     76  C   UNL A   1      37.758  28.856  31.890  1.00  0.00     0.041 A 
ATOM     77  F   UNL A   1      39.876  27.852  31.892  1.00  0.00    -0.206 F 
ATOM     78  C   UNL A   1      36.801  29.654  31.271  1.00  0.00     0.022 A 
BRANCH  75  79
ATOM     79  S   UNL A   1      35.884  31.297  29.213  1.00  0.00     0.124 S 
ATOM     80  O   UNL A   1      35.140  31.789  30.367  1.00  0.00    -0.237 OA
ATOM     81  O   UNL A   1      36.784  32.251  28.574  1.00  0.00    -0.237 OA
ATOM     82  O   UNL A   1      35.126  30.447  28.297  1.00  0.00    -0.744 OA
ENDBRANCH  75  79
ENDBRANCH  48  72
BRANCH  60  83
ATOM     83  C   UNL A   1      44.809  33.176  29.160  1.00  0.00     0.023 A 
ATOM     84  C   UNL A   1      44.459  34.187  28.249  1.00  0.00     0.031 A 
ATOM     85  C   UNL A   1      45.412  33.556  30.372  1.00  0.00     0.131 A 
ATOM     86  C   UNL A   1      44.766  35.525  28.538  1.00  0.00     0.055 A 
ATOM     87  C   UNL A   1      45.661  34.895  30.681  1.00  0.00     0.041 A 
ATOM     88  F   UNL A   1      45.769  32.632  31.278  1.00  0.00    -0.206 F 
ATOM     89  C   UNL A   1      45.350  35.886  29.756  1.00  0.00     0.022 A 
BRANCH  86  90
ATOM     90  S   UNL A   1      44.468  36.782  27.265  1.00  0.00     0.124 S 
ATOM     91  O   UNL A   1      43.315  36.233  26.560  1.00  0.00    -0.237 OA
ATOM     92  O   UNL A   1      44.218  37.980  28.060  1.00  0.00    -0.237 OA
ATOM     93  O   UNL A   1      45.714  36.798  26.500  1.00  0.00    -0.744 OA
ENDBRANCH  86  90
ENDBRANCH  60  83
ENDBRANCH  34  35
ENDBRANCH  27  29
ENDBRANCH  26  27
ENDBRANCH  25  26
ENDBRANCH  24  25
ENDBRANCH  23  24
ENDBRANCH   1  23
TORSDOF 21
ENDMDL
MODEL 2
REMARK VINA RESULT:     -10.3      1.382      2.442
REMARK SMILES Cc1ccc(F)c(-c2ncccc2C(=O)OCCOCCOCCOC(=O)c2ccc(-c3c4nc(c(-c5cc(S(=O)(=O)[O-])ccc5F)c5ccc([nH]5)c(-c5cc(S(=O)(=O)[O-])ccc5F)c5nc(c(-c6cc(S(=O)(=O)[O-])ccc6F)c6ccc3[nH]6)C=C5)C=C4)cc2)c1
REMARK SMILES IDX 21 1 20 2 19 3 18 4 17 5 16 6 14 7 15 8 13 9 8 10 9 11 10 12
REMARK SMILES IDX 12 13 11 14 7 15 1 16 2 17 3 18 91 19 4 20 5 21 6 22 22 23
REMARK SMILES IDX 23 24 24 25 25 26 26 27 27 28 28 29 29 30 90 31 30 32 89 33
REMARK SMILES IDX 31 34 32 35 33 36 83 37 34 38 88 39 82 40 84 41 35 42 87 43
REMARK SMILES IDX 81 44 80 45 36 47 68 48 48 49 67 50 49 51 52 52 66 53 85 54
REMARK SMILES IDX 50 55 51 56 65 58 86 59 53 60 37 61 38 62 46 63 39 64 45 65
REMARK SMILES IDX 47 66 44 67 40 68 41 69 42 70 43 71 69 72 70 73 78 74 71 75
REMARK SMILES IDX 77 76 79 77 76 78 72 79 73 80 74 81 75 82 54 83 55 84 63 85
REMARK SMILES IDX 56 86 62 87 64 88 61 89 57 90 58 91 59 92 60 93
REMARK H PARENT 84 46 52 57
REMARK Flexibility Score: inf
ROOT
ATOM      1  C   UNL A   1      37.052  22.751  25.100  1.00  0.00     0.188 C 
ENDROOT
BRANCH   1   2
ATOM      2  C   UNL A   1      35.594  22.263  25.110  1.00  0.00     0.188 C 
BRANCH   2   3
ATOM      3  O   UNL A   1      35.154  21.876  26.412  1.00  0.00    -0.376 OA
BRANCH   3   4
ATOM      4  C   UNL A   1      34.542  22.936  27.147  1.00  0.00     0.202 C 
BRANCH   4   5
ATOM      5  C   UNL A   1      33.195  22.490  27.715  1.00  0.00     0.261 C 
BRANCH   5   6
ATOM      6  O   UNL A   1      32.150  23.456  27.506  1.00  0.00    -0.460 OA
BRANCH   6   7
ATOM      7  C   UNL A   1      31.052  23.036  26.834  1.00  0.00     0.340 C 
ATOM      8  O   UNL A   1      29.909  23.084  27.251  1.00  0.00    -0.246 OA
BRANCH   7   9
ATOM      9  C   UNL A   1      31.481  22.582  25.487  1.00  0.00     0.086 A 
ATOM     10  C   UNL A   1      31.582  23.470  24.410  1.00  0.00     0.088 A 
ATOM     11  N   UNL A   1      32.039  23.078  23.190  1.00  0.00    -0.255 NA
ATOM     12  C   UNL A   1      32.375  21.779  23.026  1.00  0.00     0.112 A 
ATOM     13  C   UNL A   1      31.849  21.244  25.284  1.00  0.00     0.019 A 
ATOM     14  C   UNL A   1      32.302  20.835  24.034  1.00  0.00     0.021 A 
BRANCH  10  15
ATOM     15  C   UNL A   1      31.327  24.906  24.533  1.00  0.00     0.037 A 
ATOM     16  C   UNL A   1      28.559  27.361  23.586  1.00  0.00     0.044 C 
ATOM     17  C   UNL A   1      29.869  26.815  24.075  1.00  0.00    -0.050 A 
ATOM     18  C   UNL A   1      30.901  27.682  24.449  1.00  0.00     0.006 A 
ATOM     19  C   UNL A   1      30.075  25.434  24.180  1.00  0.00     0.016 A 
ATOM     20  C   UNL A   1      32.120  27.172  24.901  1.00  0.00     0.040 A 
ATOM     21  C   UNL A   1      32.331  25.795  24.919  1.00  0.00     0.132 A 
ATOM     22  F   UNL A   1      33.538  25.334  25.281  1.00  0.00    -0.206 F 
ENDBRANCH  10  15
ENDBRANCH   7   9
ENDBRANCH   6   7
ENDBRANCH   5   6
ENDBRANCH   4   5
ENDBRANCH   3   4
ENDBRANCH   2   3
ENDBRANCH   1   2
BRANCH   1  23
ATOM     23  O   UNL A   1      38.116  21.802  25.088  1.00  0.00    -0.376 OA
BRANCH  23  24
ATOM     24  C   UNL A   1      37.788  20.426  25.009  1.00  0.00     0.202 C 
BRANCH  24  25
ATOM     25  C   UNL A   1      38.881  19.430  25.413  1.00  0.00     0.261 C 
BRANCH  25  26
ATOM     26  O   UNL A   1      39.681  19.831  26.534  1.00  0.00    -0.460 OA
BRANCH  26  27
ATOM     27  C   UNL A   1      41.021  19.798  26.311  1.00  0.00     0.338 C 
ATOM     28  O   UNL A   1      41.668  18.851  25.898  1.00  0.00    -0.246 OA
BRANCH  27  29
ATOM     29  C   UNL A   1      41.606  21.136  26.560  1.00  0.00     0.060 A 
ATOM     30  C   UNL A   1      41.700  21.590  27.882  1.00  0.00     0.016 A 
ATOM     31  C   UNL A   1      41.991  21.968  25.505  1.00  0.00     0.016 A 
ATOM     32  C   UNL A   1      42.156  22.885  28.152  1.00  0.00     0.010 A 
ATOM     33  C   UNL A   1      42.437  23.267  25.777  1.00  0.00     0.010 A 
ATOM     34  C   UNL A   1      42.499  23.745  27.100  1.00  0.00    -0.014 A 
BRANCH  34  35
ATOM     35  C   UNL A   1      42.770  25.189  27.346  1.00  0.00     0.031 A 
ATOM     36  C   UNL A   1      44.154  25.717  27.105  1.00  0.00     0.074 A 
ATOM     37  C   UNL A   1      41.816  26.030  27.787  1.00  0.00     0.049 A 
ATOM     38  N   UNL A   1      44.629  26.916  27.317  1.00  0.00    -0.248 NA
ATOM     39  C   UNL A   1      45.120  24.774  26.523  1.00  0.00     0.031 C 
ATOM     40  C   UNL A   1      40.412  25.688  27.942  1.00  0.00     0.029 A 
ATOM     41  N   UNL A   1      41.884  27.335  28.208  1.00  0.00    -0.354 N 
ATOM     42  C   UNL A   1      45.933  26.892  26.844  1.00  0.00     0.074 A 
ATOM     43  C   UNL A   1      46.199  25.534  26.413  1.00  0.00     0.031 C 
ATOM     44  C   UNL A   1      39.762  26.715  28.516  1.00  0.00     0.029 A 
ATOM     45  C   UNL A   1      40.707  27.799  28.753  1.00  0.00     0.049 A 
ATOM     46  H   UNL A   1      42.696  27.887  28.129  1.00  0.00     0.167 HD
ATOM     47  C   UNL A   1      46.814  27.916  26.742  1.00  0.00     0.034 A 
ATOM     48  C   UNL A   1      40.422  28.957  29.379  1.00  0.00     0.034 A 
ATOM     49  C   UNL A   1      46.560  29.253  27.217  1.00  0.00     0.049 A 
ATOM     50  C   UNL A   1      41.487  30.022  29.450  1.00  0.00     0.074 A 
ATOM     51  C   UNL A   1      47.397  30.355  27.181  1.00  0.00     0.029 A 
ATOM     52  N   UNL A   1      45.388  29.668  27.835  1.00  0.00    -0.354 N 
ATOM     53  N   UNL A   1      42.712  29.993  28.978  1.00  0.00    -0.248 NA
ATOM     54  C   UNL A   1      41.122  31.288  30.099  1.00  0.00     0.031 C 
ATOM     55  C   UNL A   1      46.756  31.415  27.834  1.00  0.00     0.029 A 
ATOM     56  C   UNL A   1      45.493  30.996  28.217  1.00  0.00     0.049 A 
ATOM     57  H   UNL A   1      44.596  29.100  27.980  1.00  0.00     0.167 HD
ATOM     58  C   UNL A   1      43.237  31.260  29.213  1.00  0.00     0.074 A 
ATOM     59  C   UNL A   1      42.202  32.023  29.878  1.00  0.00     0.031 C 
ATOM     60  C   UNL A   1      44.458  31.753  28.882  1.00  0.00     0.034 A 
BRANCH  47  61
ATOM     61  C   UNL A   1      48.144  27.599  26.110  1.00  0.00     0.023 A 
ATOM     62  C   UNL A   1      48.337  27.724  24.722  1.00  0.00     0.031 A 
ATOM     63  C   UNL A   1      49.212  27.121  26.888  1.00  0.00     0.131 A 
ATOM     64  C   UNL A   1      49.546  27.309  24.146  1.00  0.00     0.055 A 
ATOM     65  C   UNL A   1      50.438  26.779  26.316  1.00  0.00     0.041 A 
ATOM     66  F   UNL A   1      49.072  26.958  28.212  1.00  0.00    -0.206 F 
ATOM     67  C   UNL A   1      50.606  26.859  24.935  1.00  0.00     0.022 A 
BRANCH  64  68
ATOM     68  S   UNL A   1      49.665  27.241  22.337  1.00  0.00     0.124 S 
ATOM     69  O   UNL A   1      48.792  26.111  22.027  1.00  0.00    -0.237 OA
ATOM     70  O   UNL A   1      49.176  28.555  21.937  1.00  0.00    -0.237 OA
ATOM     71  O   UNL A   1      51.087  27.005  22.097  1.00  0.00    -0.744 OA
ENDBRANCH  64  68
ENDBRANCH  47  61
BRANCH  48  72
ATOM     72  C   UNL A   1      39.089  29.181  30.010  1.00  0.00     0.023 A 
ATOM     73  C   UNL A   1      38.114  29.979  29.393  1.00  0.00     0.031 A 
ATOM     74  C   UNL A   1      38.808  28.671  31.291  1.00  0.00     0.131 A 
ATOM     75  C   UNL A   1      36.933  30.300  30.082  1.00  0.00     0.055 A 
ATOM     76  C   UNL A   1      37.612  28.954  31.953  1.00  0.00     0.041 A 
ATOM     77  F   UNL A   1      39.704  27.900  31.927  1.00  0.00    -0.206 F 
ATOM     78  C   UNL A   1      36.672  29.788  31.355  1.00  0.00     0.022 A 
BRANCH  75  79
ATOM     79  S   UNL A   1      35.792  31.497  29.336  1.00  0.00     0.124 S 
ATOM     80  O   UNL A   1      35.097  32.018  30.507  1.00  0.00    -0.237 OA
ATOM     81  O   UNL A   1      36.712  32.416  28.673  1.00  0.00    -0.237 OA
ATOM     82  O   UNL A   1      34.978  30.678  28.440  1.00  0.00    -0.744 OA
ENDBRANCH  75  79
ENDBRANCH  48  72
BRANCH  60  83
ATOM     83  C   UNL A   1      44.708  33.210  29.177  1.00  0.00     0.023 A 
ATOM     84  C   UNL A   1      44.322  34.226  28.285  1.00  0.00     0.031 A 
ATOM     85  C   UNL A   1      45.366  33.584  30.362  1.00  0.00     0.131 A 
ATOM     86  C   UNL A   1      44.647  35.562  28.565  1.00  0.00     0.055 A 
ATOM     87  C   UNL A   1      45.635  34.920  30.664  1.00  0.00     0.041 A 
ATOM     88  F   UNL A   1      45.760  32.655  31.248  1.00  0.00    -0.206 F 
ATOM     89  C   UNL A   1      45.287  35.916  29.756  1.00  0.00     0.022 A 
BRANCH  86  90
ATOM     90  S   UNL A   1      44.298  36.824  27.311  1.00  0.00     0.124 S 
ATOM     91  O   UNL A   1      43.829  37.940  28.126  1.00  0.00    -0.237 OA
ATOM     92  O   UNL A   1      45.600  37.003  26.676  1.00  0.00    -0.237 OA
ATOM     93  O   UNL A   1      43.280  36.199  26.468  1.00  0.00    -0.744 OA
ENDBRANCH  86  90
ENDBRANCH  60  83
ENDBRANCH  34  35
ENDBRANCH  27  29
ENDBRANCH  26  27
ENDBRANCH  25  26
ENDBRANCH  24  25
ENDBRANCH  23  24
ENDBRANCH   1  23
TORSDOF 21
ENDMDL
MODEL 3
REMARK VINA RESULT:     -10.2      2.128      3.240
REMARK SMILES Cc1ccc(F)c(-c2ncccc2C(=O)OCCOCCOCCOC(=O)c2ccc(-c3c4nc(c(-c5cc(S(=O)(=O)[O-])ccc5F)c5ccc([nH]5)c(-c5cc(S(=O)(=O)[O-])ccc5F)c5nc(c(-c6cc(S(=O)(=O)[O-])ccc6F)c6ccc3[nH]6)C=C5)C=C4)cc2)c1
REMARK SMILES IDX 21 1 20 2 19 3 18 4 17 5 16 6 14 7 15 8 13 9 8 10 9 11 10 12
REMARK SMILES IDX 12 13 11 14 7 15 1 16 2 17 3 18 91 19 4 20 5 21 6 22 22 23
REMARK SMILES IDX 23 24 24 25 25 26 26 27 27 28 28 29 29 30 90 31 30 32 89 33
REMARK SMILES IDX 31 34 32 35 33 36 83 37 34 38 88 39 82 40 84 41 35 42 87 43
REMARK SMILES IDX 81 44 80 45 36 47 68 48 48 49 67 50 49 51 52 52 66 53 85 54
REMARK SMILES IDX 50 55 51 56 65 58 86 59 53 60 37 61 38 62 46 63 39 64 45 65
REMARK SMILES IDX 47 66 44 67 40 68 41 69 42 70 43 71 69 72 70 73 78 74 71 75
REMARK SMILES IDX 77 76 79 77 76 78 72 79 73 80 74 81 75 82 54 83 55 84 63 85
REMARK SMILES IDX 56 86 62 87 64 88 61 89 57 90 58 91 59 92 60 93
REMARK H PARENT 84 46 52 57
REMARK Flexibility Score: inf
ROOT
ATOM      1  C   UNL A   1      35.223  23.197  23.923  1.00  0.00     0.188 C 
ENDROOT
BRANCH   1   2
ATOM      2  C   UNL A   1      34.099  23.146  22.875  1.00  0.00     0.188 C 
BRANCH   2   3
ATOM      3  O   UNL A   1      33.085  22.196  23.205  1.00  0.00    -0.376 OA
BRANCH   3   4
ATOM      4  C   UNL A   1      31.759  22.717  23.107  1.00  0.00     0.202 C 
BRANCH   4   5
ATOM      5  C   UNL A   1      31.649  24.050  23.847  1.00  0.00     0.261 C 
BRANCH   5   6
ATOM      6  O   UNL A   1      30.918  25.044  23.106  1.00  0.00    -0.460 OA
BRANCH   6   7
ATOM      7  C   UNL A   1      31.647  25.949  22.410  1.00  0.00     0.340 C 
ATOM      8  O   UNL A   1      31.791  25.958  21.201  1.00  0.00    -0.246 OA
BRANCH   7   9
ATOM      9  C   UNL A   1      32.169  26.957  23.367  1.00  0.00     0.086 A 
ATOM     10  C   UNL A   1      31.408  28.068  23.750  1.00  0.00     0.088 A 
ATOM     11  N   UNL A   1      31.850  28.960  24.679  1.00  0.00    -0.255 NA
ATOM     12  C   UNL A   1      33.075  28.764  25.215  1.00  0.00     0.112 A 
ATOM     13  C   UNL A   1      33.430  26.779  23.952  1.00  0.00     0.019 A 
ATOM     14  C   UNL A   1      33.893  27.696  24.890  1.00  0.00     0.021 A 
BRANCH  10  15
ATOM     15  C   UNL A   1      30.039  28.297  23.288  1.00  0.00     0.037 A 
ATOM     16  C   UNL A   1      28.189  30.859  21.143  1.00  0.00     0.044 C 
ATOM     17  C   UNL A   1      28.458  29.699  22.057  1.00  0.00    -0.050 A 
ATOM     18  C   UNL A   1      27.397  28.979  22.617  1.00  0.00     0.006 A 
ATOM     19  C   UNL A   1      29.770  29.309  22.353  1.00  0.00     0.016 A 
ATOM     20  C   UNL A   1      27.650  27.903  23.470  1.00  0.00     0.040 A 
ATOM     21  C   UNL A   1      28.962  27.584  23.815  1.00  0.00     0.132 A 
ATOM     22  F   UNL A   1      29.173  26.597  24.698  1.00  0.00    -0.206 F 
ENDBRANCH  10  15
ENDBRANCH   7   9
ENDBRANCH   6   7
ENDBRANCH   5   6
ENDBRANCH   4   5
ENDBRANCH   3   4
ENDBRANCH   2   3
ENDBRANCH   1   2
BRANCH   1  23
ATOM     23  O   UNL A   1      36.229  22.187  23.932  1.00  0.00    -0.376 OA
BRANCH  23  24
ATOM     24  C   UNL A   1      36.302  21.322  25.051  1.00  0.00     0.202 C 
BRANCH  24  25
ATOM     25  C   UNL A   1      37.672  20.707  25.361  1.00  0.00     0.261 C 
BRANCH  25  26
ATOM     26  O   UNL A   1      38.769  21.632  25.338  1.00  0.00    -0.460 OA
BRANCH  26  27
ATOM     27  C   UNL A   1      39.606  21.540  26.404  1.00  0.00     0.338 C 
ATOM     28  O   UNL A   1      40.140  20.529  26.827  1.00  0.00    -0.246 OA
BRANCH  27  29
ATOM     29  C   UNL A   1      39.867  22.889  26.957  1.00  0.00     0.060 A 
ATOM     30  C   UNL A   1      39.128  23.970  26.461  1.00  0.00     0.016 A 
ATOM     31  C   UNL A   1      40.877  23.105  27.899  1.00  0.00     0.016 A 
ATOM     32  C   UNL A   1      39.412  25.273  26.885  1.00  0.00     0.010 A 
ATOM     33  C   UNL A   1      41.166  24.411  28.315  1.00  0.00     0.010 A 
ATOM     34  C   UNL A   1      40.452  25.507  27.793  1.00  0.00    -0.014 A 
BRANCH  34  35
ATOM     35  C   UNL A   1      40.918  26.891  28.087  1.00  0.00     0.031 A 
ATOM     36  C   UNL A   1      42.377  27.211  27.936  1.00  0.00     0.074 A 
ATOM     37  C   UNL A   1      40.075  27.858  28.494  1.00  0.00     0.049 A 
ATOM     38  N   UNL A   1      43.011  28.323  28.203  1.00  0.00    -0.248 NA
ATOM     39  C   UNL A   1      43.226  26.144  27.388  1.00  0.00     0.031 C 
ATOM     40  C   UNL A   1      38.629  27.727  28.562  1.00  0.00     0.029 A 
ATOM     41  N   UNL A   1      40.310  29.133  28.948  1.00  0.00    -0.354 N 
ATOM     42  C   UNL A   1      44.323  28.112  27.803  1.00  0.00     0.074 A 
ATOM     43  C   UNL A   1      44.410  26.736  27.356  1.00  0.00     0.031 C 
ATOM     44  C   UNL A   1      38.105  28.830  29.123  1.00  0.00     0.029 A 
ATOM     45  C   UNL A   1      39.184  29.758  29.437  1.00  0.00     0.049 A 
ATOM     46  H   UNL A   1      41.198  29.559  28.928  1.00  0.00     0.167 HD
ATOM     47  C   UNL A   1      45.350  28.995  27.774  1.00  0.00     0.034 A 
ATOM     48  C   UNL A   1      39.037  30.936  30.073  1.00  0.00     0.034 A 
ATOM     49  C   UNL A   1      45.268  30.348  28.265  1.00  0.00     0.049 A 
ATOM     50  C   UNL A   1      40.242  31.829  30.229  1.00  0.00     0.074 A 
ATOM     51  C   UNL A   1      46.259  31.313  28.302  1.00  0.00     0.029 A 
ATOM     52  N   UNL A   1      44.136  30.923  28.826  1.00  0.00    -0.354 N 
ATOM     53  N   UNL A   1      41.474  31.625  29.826  1.00  0.00    -0.248 NA
ATOM     54  C   UNL A   1      40.030  33.126  30.885  1.00  0.00     0.031 C 
ATOM     55  C   UNL A   1      45.745  32.448  28.943  1.00  0.00     0.029 A 
ATOM     56  C   UNL A   1      44.413  32.216  29.245  1.00  0.00     0.049 A 
ATOM     57  H   UNL A   1      43.261  30.478  28.914  1.00  0.00     0.167 HD
ATOM     58  C   UNL A   1      42.166  32.797  30.118  1.00  0.00     0.074 A 
ATOM     59  C   UNL A   1      41.218  33.695  30.742  1.00  0.00     0.031 C 
ATOM     60  C   UNL A   1      43.464  33.108  29.868  1.00  0.00     0.034 A 
BRANCH  47  61
ATOM     61  C   UNL A   1      46.652  28.493  27.210  1.00  0.00     0.023 A 
ATOM     62  C   UNL A   1      46.848  28.380  25.822  1.00  0.00     0.031 A 
ATOM     63  C   UNL A   1      47.690  28.078  28.062  1.00  0.00     0.131 A 
ATOM     64  C   UNL A   1      48.024  27.799  25.327  1.00  0.00     0.055 A 
ATOM     65  C   UNL A   1      48.888  27.568  27.561  1.00  0.00     0.041 A 
ATOM     66  F   UNL A   1      47.545  28.141  29.394  1.00  0.00    -0.206 F 
ATOM     67  C   UNL A   1      49.055  27.413  26.186  1.00  0.00     0.022 A 
BRANCH  64  68
ATOM     68  S   UNL A   1      48.131  27.431  23.555  1.00  0.00     0.124 S 
ATOM     69  O   UNL A   1      47.942  25.983  23.542  1.00  0.00    -0.237 OA
ATOM     70  O   UNL A   1      47.039  28.223  23.000  1.00  0.00    -0.237 OA
ATOM     71  O   UNL A   1      49.474  27.880  23.193  1.00  0.00    -0.744 OA
ENDBRANCH  64  68
ENDBRANCH  47  61
BRANCH  48  72
ATOM     72  C   UNL A   1      37.717  31.346  30.634  1.00  0.00     0.023 A 
ATOM     73  C   UNL A   1      36.784  32.054  29.861  1.00  0.00     0.031 A 
ATOM     74  C   UNL A   1      37.410  31.114  31.987  1.00  0.00     0.131 A 
ATOM     75  C   UNL A   1      35.621  32.563  30.461  1.00  0.00     0.055 A 
ATOM     76  C   UNL A   1      36.229  31.581  32.568  1.00  0.00     0.041 A 
ATOM     77  F   UNL A   1      38.265  30.440  32.772  1.00  0.00    -0.206 F 
ATOM     78  C   UNL A   1      35.334  32.326  31.807  1.00  0.00     0.022 A 
BRANCH  75  79
ATOM     79  S   UNL A   1      34.542  33.645  29.481  1.00  0.00     0.124 S 
ATOM     80  O   UNL A   1      33.894  32.692  28.589  1.00  0.00    -0.237 OA
ATOM     81  O   UNL A   1      33.697  34.239  30.512  1.00  0.00    -0.237 OA
ATOM     82  O   UNL A   1      35.479  34.566  28.838  1.00  0.00    -0.744 OA
ENDBRANCH  75  79
ENDBRANCH  48  72
BRANCH  60  83
ATOM     83  C   UNL A   1      43.908  34.507  30.211  1.00  0.00     0.023 A 
ATOM     84  C   UNL A   1      43.728  35.582  29.323  1.00  0.00     0.031 A 
ATOM     85  C   UNL A   1      44.545  34.761  31.439  1.00  0.00     0.131 A 
ATOM     86  C   UNL A   1      44.230  36.851  29.652  1.00  0.00     0.055 A 
ATOM     87  C   UNL A   1      44.989  36.038  31.786  1.00  0.00     0.041 A 
ATOM     88  F   UNL A   1      44.745  33.771  32.323  1.00  0.00    -0.206 F 
ATOM     89  C   UNL A   1      44.845  37.088  30.885  1.00  0.00     0.022 A 
BRANCH  86  90
ATOM     90  S   UNL A   1      44.145  38.170  28.410  1.00  0.00     0.124 S 
ATOM     91  O   UNL A   1      45.485  38.743  28.485  1.00  0.00    -0.237 OA
ATOM     92  O   UNL A   1      43.835  37.432  27.191  1.00  0.00    -0.237 OA
ATOM     93  O   UNL A   1      43.071  39.034  28.900  1.00  0.00    -0.744 OA
ENDBRANCH  86  90
ENDBRANCH  60  83
ENDBRANCH  34  35
ENDBRANCH  27  29
ENDBRANCH  26  27
ENDBRANCH  25  26
ENDBRANCH  24  25
ENDBRANCH  23  24
ENDBRANCH   1  23
TORSDOF 21
ENDMDL
