MODEL 1
REMARK VINA RESULT:     -10.4      0.000      0.000
REMARK SMILES O=C(CSc1ccc(NC(=O)c2cccc3ccccc23)cc1)OCCOCCOCCOC(=O)c1ccc(-c2c3nc(c(-c4cc(S(=O)(=O)[O-])ccc4F)c4ccc([nH]4)c(-c4cc(S(=O)(=O)[O-])ccc4F)c4nc(c(-c5cc(S(=O)(=O)[O-])ccc5F)c5ccc2[nH]5)C=C4)C=C3)cc1
REMARK SMILES IDX 28 1 27 2 26 3 25 4 24 5 2 6 1 7 3 8 4 9 5 10 6 11 23 12
REMARK SMILES IDX 7 13 22 14 8 15 9 16 10 17 11 19 12 20 13 21 21 22 14 23
REMARK SMILES IDX 16 24 20 25 15 26 17 27 19 28 18 29 29 30 30 31 31 32 32 33
REMARK SMILES IDX 33 34 34 35 35 36 36 37 37 38 98 39 38 40 97 41 39 42 40 43
REMARK SMILES IDX 41 44 91 45 42 46 96 47 90 48 92 49 43 50 95 51 89 52 88 53
REMARK SMILES IDX 44 55 76 56 56 57 75 58 57 59 60 60 74 61 93 62 58 63 59 64
REMARK SMILES IDX 73 66 94 67 61 68 45 69 46 70 54 71 47 72 53 73 55 74 52 75
REMARK SMILES IDX 48 76 49 77 50 78 51 79 77 80 78 81 86 82 79 83 85 84 87 85
REMARK SMILES IDX 84 86 80 87 81 88 82 89 83 90 62 91 63 92 71 93 64 94 70 95
REMARK SMILES IDX 72 96 69 97 65 98 66 99 67 100 68 101
REMARK H PARENT 9 18 92 54 60 65
REMARK Flexibility Score: inf
ROOT
ATOM      1  C   UNL A   1      43.983  18.804  25.008  1.00  0.00     0.188 C 
ENDROOT
BRANCH   1   2
ATOM      2  O   UNL A   1      42.585  19.059  25.083  1.00  0.00    -0.376 OA
BRANCH   2   3
ATOM      3  C   UNL A   1      42.059  19.850  26.150  1.00  0.00     0.202 C 
BRANCH   3   4
ATOM      4  C   UNL A   1      40.548  19.953  26.382  1.00  0.00     0.261 C 
BRANCH   4   5
ATOM      5  O   UNL A   1      39.657  19.486  25.353  1.00  0.00    -0.463 OA
BRANCH   5   6
ATOM      6  C   UNL A   1      38.371  19.903  25.309  1.00  0.00     0.316 C 
ATOM      7  O   UNL A   1      37.458  19.149  24.987  1.00  0.00    -0.251 OA
BRANCH   6   8
ATOM      8  C   UNL A   1      38.149  21.327  25.776  1.00  0.00     0.197 C 
BRANCH   8   9
ATOM      9  S   UNL A   1      37.359  22.361  24.495  1.00  0.00    -0.114 SA
BRANCH   9  10
ATOM     10  C   UNL A   1      35.830  22.786  25.314  1.00  0.00     0.008 A 
ATOM     11  C   UNL A   1      35.110  23.945  25.008  1.00  0.00     0.017 A 
ATOM     12  C   UNL A   1      35.306  21.899  26.256  1.00  0.00     0.017 A 
ATOM     13  C   UNL A   1      33.830  24.151  25.524  1.00  0.00     0.027 A 
ATOM     14  C   UNL A   1      34.040  22.125  26.801  1.00  0.00     0.027 A 
ATOM     15  C   UNL A   1      33.266  23.213  26.380  1.00  0.00     0.041 A 
BRANCH  15  16
ATOM     16  N   UNL A   1      31.948  23.269  26.849  1.00  0.00    -0.322 N 
ATOM     17  C   UNL A   1      30.901  24.118  26.591  1.00  0.00     0.256 C 
ATOM     18  H   UNL A   1      31.730  22.557  27.494  1.00  0.00     0.170 HD
ATOM     19  O   UNL A   1      29.867  23.987  27.252  1.00  0.00    -0.269 OA
BRANCH  17  20
ATOM     20  C   UNL A   1      30.903  25.149  25.528  1.00  0.00     0.048 A 
ATOM     21  C   UNL A   1      30.645  24.662  24.236  1.00  0.00     0.014 A 
ATOM     22  C   UNL A   1      31.301  26.502  25.732  1.00  0.00    -0.006 A 
ATOM     23  C   UNL A   1      30.774  25.493  23.131  1.00  0.00     0.001 A 
ATOM     24  C   UNL A   1      31.443  27.329  24.586  1.00  0.00    -0.018 A 
ATOM     25  C   UNL A   1      31.578  27.094  26.991  1.00  0.00     0.009 A 
ATOM     26  C   UNL A   1      31.182  26.813  23.307  1.00  0.00     0.009 A 
ATOM     27  C   UNL A   1      31.850  28.665  24.720  1.00  0.00     0.009 A 
ATOM     28  C   UNL A   1      31.944  28.438  27.111  1.00  0.00     0.001 A 
ATOM     29  C   UNL A   1      32.091  29.222  25.975  1.00  0.00     0.001 A 
ENDBRANCH  17  20
ENDBRANCH  15  16
ENDBRANCH   9  10
ENDBRANCH   8   9
ENDBRANCH   6   8
ENDBRANCH   5   6
ENDBRANCH   4   5
ENDBRANCH   3   4
ENDBRANCH   2   3
ENDBRANCH   1   2
BRANCH   1  30
ATOM     30  C   UNL A   1      44.773  19.823  24.184  1.00  0.00     0.188 C 
BRANCH  30  31
ATOM     31  O   UNL A   1      45.592  20.717  24.928  1.00  0.00    -0.376 OA
BRANCH  31  32
ATOM     32  C   UNL A   1      45.074  22.028  25.147  1.00  0.00     0.202 C 
BRANCH  32  33
ATOM     33  C   UNL A   1      45.860  23.208  24.550  1.00  0.00     0.261 C 
BRANCH  33  34
ATOM     34  O   UNL A   1      46.381  24.132  25.530  1.00  0.00    -0.460 OA
BRANCH  34  35
ATOM     35  C   UNL A   1      46.337  25.437  25.170  1.00  0.00     0.338 C 
ATOM     36  O   UNL A   1      47.005  25.977  24.295  1.00  0.00    -0.246 OA
BRANCH  35  37
ATOM     37  C   UNL A   1      45.280  26.168  25.895  1.00  0.00     0.060 A 
ATOM     38  C   UNL A   1      45.253  27.566  25.810  1.00  0.00     0.016 A 
ATOM     39  C   UNL A   1      44.475  25.503  26.821  1.00  0.00     0.016 A 
ATOM     40  C   UNL A   1      44.462  28.308  26.693  1.00  0.00     0.010 A 
ATOM     41  C   UNL A   1      43.688  26.250  27.709  1.00  0.00     0.010 A 
ATOM     42  C   UNL A   1      43.713  27.657  27.683  1.00  0.00    -0.014 A 
BRANCH  42  43
ATOM     43  C   UNL A   1      43.120  28.438  28.804  1.00  0.00     0.031 A 
ATOM     44  C   UNL A   1      43.944  28.667  30.047  1.00  0.00     0.074 A 
ATOM     45  C   UNL A   1      41.881  28.956  28.723  1.00  0.00     0.049 A 
ATOM     46  N   UNL A   1      43.617  29.263  31.166  1.00  0.00    -0.248 NA
ATOM     47  C   UNL A   1      45.318  28.148  30.020  1.00  0.00     0.031 C 
ATOM     48  C   UNL A   1      40.998  28.855  27.562  1.00  0.00     0.029 A 
ATOM     49  N   UNL A   1      41.148  29.665  29.643  1.00  0.00    -0.354 N 
ATOM     50  C   UNL A   1      44.743  29.188  31.980  1.00  0.00     0.074 A 
ATOM     51  C   UNL A   1      45.746  28.454  31.236  1.00  0.00     0.031 C 
ATOM     52  C   UNL A   1      39.836  29.469  27.845  1.00  0.00     0.029 A 
ATOM     53  C   UNL A   1      39.878  29.975  29.218  1.00  0.00     0.049 A 
ATOM     54  H   UNL A   1      41.500  29.926  30.525  1.00  0.00     0.167 HD
ATOM     55  C   UNL A   1      44.931  29.690  33.228  1.00  0.00     0.034 A 
ATOM     56  C   UNL A   1      38.858  30.573  29.868  1.00  0.00     0.034 A 
ATOM     57  C   UNL A   1      43.924  30.409  33.970  1.00  0.00     0.049 A 
ATOM     58  C   UNL A   1      39.055  31.037  31.294  1.00  0.00     0.074 A 
ATOM     59  C   UNL A   1      44.018  30.967  35.234  1.00  0.00     0.029 A 
ATOM     60  N   UNL A   1      42.632  30.658  33.526  1.00  0.00    -0.354 N 
ATOM     61  N   UNL A   1      40.126  30.963  32.050  1.00  0.00    -0.248 NA
ATOM     62  C   UNL A   1      37.903  31.674  31.948  1.00  0.00     0.031 C 
ATOM     63  C   UNL A   1      42.766  31.491  35.580  1.00  0.00     0.029 A 
ATOM     64  C   UNL A   1      41.911  31.330  34.502  1.00  0.00     0.049 A 
ATOM     65  H   UNL A   1      42.279  30.397  32.644  1.00  0.00     0.167 HD
ATOM     66  C   UNL A   1      39.784  31.577  33.254  1.00  0.00     0.074 A 
ATOM     67  C   UNL A   1      38.413  32.021  33.120  1.00  0.00     0.031 C 
ATOM     68  C   UNL A   1      40.539  31.763  34.368  1.00  0.00     0.034 A 
BRANCH  55  69
ATOM     69  C   UNL A   1      46.266  29.425  33.883  1.00  0.00     0.023 A 
ATOM     70  C   UNL A   1      47.372  30.267  33.678  1.00  0.00     0.031 A 
ATOM     71  C   UNL A   1      46.444  28.292  34.697  1.00  0.00     0.131 A 
ATOM     72  C   UNL A   1      48.623  29.925  34.214  1.00  0.00     0.055 A 
ATOM     73  C   UNL A   1      47.672  27.999  35.294  1.00  0.00     0.041 A 
ATOM     74  F   UNL A   1      45.430  27.439  34.913  1.00  0.00    -0.206 F 
ATOM     75  C   UNL A   1      48.775  28.808  35.041  1.00  0.00     0.022 A 
BRANCH  72  76
ATOM     76  S   UNL A   1      50.080  30.873  33.694  1.00  0.00     0.124 S 
ATOM     77  O   UNL A   1      51.042  29.809  33.421  1.00  0.00    -0.237 OA
ATOM     78  O   UNL A   1      49.584  31.600  32.532  1.00  0.00    -0.237 OA
ATOM     79  O   UNL A   1      50.388  31.696  34.862  1.00  0.00    -0.744 OA
ENDBRANCH  72  76
ENDBRANCH  55  69
BRANCH  56  80
ATOM     80  C   UNL A   1      37.533  30.739  29.206  1.00  0.00     0.023 A 
ATOM     81  C   UNL A   1      36.935  32.004  29.086  1.00  0.00     0.031 A 
ATOM     82  C   UNL A   1      36.813  29.623  28.745  1.00  0.00     0.131 A 
ATOM     83  C   UNL A   1      35.635  32.116  28.566  1.00  0.00     0.055 A 
ATOM     84  C   UNL A   1      35.542  29.746  28.180  1.00  0.00     0.041 A 
ATOM     85  F   UNL A   1      37.338  28.391  28.838  1.00  0.00    -0.206 F 
ATOM     86  C   UNL A   1      34.941  30.997  28.101  1.00  0.00     0.022 A 
BRANCH  83  87
ATOM     87  S   UNL A   1      34.830  33.742  28.586  1.00  0.00     0.124 S 
ATOM     88  O   UNL A   1      33.732  33.517  29.518  1.00  0.00    -0.237 OA
ATOM     89  O   UNL A   1      35.907  34.607  29.058  1.00  0.00    -0.237 OA
ATOM     90  O   UNL A   1      34.438  33.943  27.193  1.00  0.00    -0.744 OA
ENDBRANCH  83  87
ENDBRANCH  56  80
BRANCH  68  91
ATOM     91  C   UNL A   1      39.911  32.531  35.508  1.00  0.00     0.023 A 
ATOM     92  C   UNL A   1      39.126  31.899  36.489  1.00  0.00     0.031 A 
ATOM     93  C   UNL A   1      40.091  33.923  35.603  1.00  0.00     0.131 A 
ATOM     94  C   UNL A   1      38.504  32.666  37.489  1.00  0.00     0.055 A 
ATOM     95  C   UNL A   1      39.517  34.672  36.632  1.00  0.00     0.041 A 
ATOM     96  F   UNL A   1      40.829  34.581  34.694  1.00  0.00    -0.206 F 
ATOM     97  C   UNL A   1      38.707  34.046  37.575  1.00  0.00     0.022 A 
BRANCH  94  98
ATOM     98  S   UNL A   1      37.346  31.849  38.622  1.00  0.00     0.124 S 
ATOM     99  O   UNL A   1      37.198  30.533  38.011  1.00  0.00    -0.237 OA
ATOM    100  O   UNL A   1      38.071  31.886  39.888  1.00  0.00    -0.237 OA
ATOM    101  O   UNL A   1      36.156  32.696  38.566  1.00  0.00    -0.744 OA
ENDBRANCH  94  98
ENDBRANCH  68  91
ENDBRANCH  42  43
ENDBRANCH  35  37
ENDBRANCH  34  35
ENDBRANCH  33  34
ENDBRANCH  32  33
ENDBRANCH  31  32
ENDBRANCH  30  31
ENDBRANCH   1  30
TORSDOF 24
ENDMDL
MODEL 2
REMARK VINA RESULT:     -10.0      4.750      7.887
REMARK SMILES O=C(CSc1ccc(NC(=O)c2cccc3ccccc23)cc1)OCCOCCOCCOC(=O)c1ccc(-c2c3nc(c(-c4cc(S(=O)(=O)[O-])ccc4F)c4ccc([nH]4)c(-c4cc(S(=O)(=O)[O-])ccc4F)c4nc(c(-c5cc(S(=O)(=O)[O-])ccc5F)c5ccc2[nH]5)C=C4)C=C3)cc1
REMARK SMILES IDX 28 1 27 2 26 3 25 4 24 5 2 6 1 7 3 8 4 9 5 10 6 11 23 12
REMARK SMILES IDX 7 13 22 14 8 15 9 16 10 17 11 19 12 20 13 21 21 22 14 23
REMARK SMILES IDX 16 24 20 25 15 26 17 27 19 28 18 29 29 30 30 31 31 32 32 33
REMARK SMILES IDX 33 34 34 35 35 36 36 37 37 38 98 39 38 40 97 41 39 42 40 43
REMARK SMILES IDX 41 44 91 45 42 46 96 47 90 48 92 49 43 50 95 51 89 52 88 53
REMARK SMILES IDX 44 55 76 56 56 57 75 58 57 59 60 60 74 61 93 62 58 63 59 64
REMARK SMILES IDX 73 66 94 67 61 68 45 69 46 70 54 71 47 72 53 73 55 74 52 75
REMARK SMILES IDX 48 76 49 77 50 78 51 79 77 80 78 81 86 82 79 83 85 84 87 85
REMARK SMILES IDX 84 86 80 87 81 88 82 89 83 90 62 91 63 92 71 93 64 94 70 95
REMARK SMILES IDX 72 96 69 97 65 98 66 99 67 100 68 101
REMARK H PARENT 9 18 92 54 60 65
REMARK Flexibility Score: inf
ROOT
ATOM      1  C   UNL A   1      44.138  23.246  24.248  1.00  0.00     0.188 C 
ENDROOT
BRANCH   1   2
ATOM      2  O   UNL A   1      44.517  22.009  23.655  1.00  0.00    -0.376 OA
BRANCH   2   3
ATOM      3  C   UNL A   1      45.299  21.070  24.396  1.00  0.00     0.202 C 
BRANCH   3   4
ATOM      4  C   UNL A   1      44.635  19.911  25.146  1.00  0.00     0.261 C 
BRANCH   4   5
ATOM      5  O   UNL A   1      43.217  19.716  25.000  1.00  0.00    -0.463 OA
BRANCH   5   6
ATOM      6  C   UNL A   1      42.384  19.873  26.055  1.00  0.00     0.316 C 
ATOM      7  O   UNL A   1      42.278  19.017  26.928  1.00  0.00    -0.251 OA
BRANCH   6   8
ATOM      8  C   UNL A   1      41.680  21.213  26.113  1.00  0.00     0.197 C 
BRANCH   8   9
ATOM      9  S   UNL A   1      41.022  21.579  27.777  1.00  0.00    -0.114 SA
BRANCH   9  10
ATOM     10  C   UNL A   1      41.352  23.330  27.883  1.00  0.00     0.008 A 
ATOM     11  C   UNL A   1      42.362  23.857  28.693  1.00  0.00     0.017 A 
ATOM     12  C   UNL A   1      40.609  24.201  27.084  1.00  0.00     0.017 A 
ATOM     13  C   UNL A   1      42.721  25.203  28.609  1.00  0.00     0.027 A 
ATOM     14  C   UNL A   1      40.944  25.557  27.028  1.00  0.00     0.027 A 
ATOM     15  C   UNL A   1      42.049  26.048  27.734  1.00  0.00     0.041 A 
BRANCH  15  16
ATOM     16  N   UNL A   1      42.413  27.377  27.489  1.00  0.00    -0.322 N 
ATOM     17  C   UNL A   1      42.007  28.571  28.030  1.00  0.00     0.256 C 
ATOM     18  H   UNL A   1      43.098  27.474  26.788  1.00  0.00     0.170 HD
ATOM     19  O   UNL A   1      42.430  29.615  27.526  1.00  0.00    -0.269 OA
BRANCH  17  20
ATOM     20  C   UNL A   1      41.135  28.696  29.221  1.00  0.00     0.048 A 
ATOM     21  C   UNL A   1      41.756  28.376  30.440  1.00  0.00     0.014 A 
ATOM     22  C   UNL A   1      39.733  28.945  29.159  1.00  0.00    -0.006 A 
ATOM     23  C   UNL A   1      41.013  28.298  31.610  1.00  0.00     0.001 A 
ATOM     24  C   UNL A   1      38.991  28.843  30.366  1.00  0.00    -0.018 A 
ATOM     25  C   UNL A   1      39.012  29.280  27.986  1.00  0.00     0.009 A 
ATOM     26  C   UNL A   1      39.638  28.519  31.568  1.00  0.00     0.009 A 
ATOM     27  C   UNL A   1      37.604  29.058  30.367  1.00  0.00     0.009 A 
ATOM     28  C   UNL A   1      37.636  29.531  28.010  1.00  0.00     0.001 A 
ATOM     29  C   UNL A   1      36.929  29.409  29.199  1.00  0.00     0.001 A 
ENDBRANCH  17  20
ENDBRANCH  15  16
ENDBRANCH   9  10
ENDBRANCH   8   9
ENDBRANCH   6   8
ENDBRANCH   5   6
ENDBRANCH   4   5
ENDBRANCH   3   4
ENDBRANCH   2   3
ENDBRANCH   1   2
BRANCH   1  30
ATOM     30  C   UNL A   1      45.184  23.847  25.191  1.00  0.00     0.188 C 
BRANCH  30  31
ATOM     31  O   UNL A   1      45.900  24.967  24.686  1.00  0.00    -0.376 OA
BRANCH  31  32
ATOM     32  C   UNL A   1      47.322  24.854  24.650  1.00  0.00     0.202 C 
BRANCH  32  33
ATOM     33  C   UNL A   1      48.111  25.478  25.813  1.00  0.00     0.261 C 
BRANCH  33  34
ATOM     34  O   UNL A   1      49.108  26.441  25.406  1.00  0.00    -0.460 OA
BRANCH  34  35
ATOM     35  C   UNL A   1      48.626  27.523  24.750  1.00  0.00     0.338 C 
ATOM     36  O   UNL A   1      48.701  27.741  23.545  1.00  0.00    -0.246 OA
BRANCH  35  37
ATOM     37  C   UNL A   1      47.871  28.416  25.649  1.00  0.00     0.060 A 
ATOM     38  C   UNL A   1      48.548  29.029  26.711  1.00  0.00     0.016 A 
ATOM     39  C   UNL A   1      46.477  28.465  25.580  1.00  0.00     0.016 A 
ATOM     40  C   UNL A   1      47.829  29.644  27.741  1.00  0.00     0.010 A 
ATOM     41  C   UNL A   1      45.759  29.077  26.617  1.00  0.00     0.010 A 
ATOM     42  C   UNL A   1      46.428  29.627  27.728  1.00  0.00    -0.014 A 
BRANCH  42  43
ATOM     43  C   UNL A   1      45.666  30.001  28.952  1.00  0.00     0.031 A 
ATOM     44  C   UNL A   1      44.990  31.349  29.006  1.00  0.00     0.074 A 
ATOM     45  C   UNL A   1      45.555  29.160  29.995  1.00  0.00     0.049 A 
ATOM     46  N   UNL A   1      44.326  31.910  29.984  1.00  0.00    -0.248 NA
ATOM     47  C   UNL A   1      45.082  32.171  27.791  1.00  0.00     0.031 C 
ATOM     48  C   UNL A   1      46.114  27.810  30.056  1.00  0.00     0.029 A 
ATOM     49  N   UNL A   1      44.938  29.323  31.212  1.00  0.00    -0.354 N 
ATOM     50  C   UNL A   1      43.923  33.154  29.506  1.00  0.00     0.074 A 
ATOM     51  C   UNL A   1      44.454  33.275  28.164  1.00  0.00     0.031 C 
ATOM     52  C   UNL A   1      45.824  27.272  31.254  1.00  0.00     0.029 A 
ATOM     53  C   UNL A   1      45.092  28.251  32.059  1.00  0.00     0.049 A 
ATOM     54  H   UNL A   1      44.433  30.133  31.455  1.00  0.00     0.167 HD
ATOM     55  C   UNL A   1      43.174  34.104  30.122  1.00  0.00     0.034 A 
ATOM     56  C   UNL A   1      44.711  28.087  33.343  1.00  0.00     0.034 A 
ATOM     57  C   UNL A   1      42.659  33.984  31.465  1.00  0.00     0.049 A 
ATOM     58  C   UNL A   1      43.964  29.198  34.045  1.00  0.00     0.074 A 
ATOM     59  C   UNL A   1      41.882  34.884  32.175  1.00  0.00     0.029 A 
ATOM     60  N   UNL A   1      42.881  32.904  32.309  1.00  0.00    -0.354 N 
ATOM     61  N   UNL A   1      43.587  30.367  33.580  1.00  0.00    -0.248 NA
ATOM     62  C   UNL A   1      43.585  28.960  35.444  1.00  0.00     0.031 C 
ATOM     63  C   UNL A   1      41.693  34.381  33.468  1.00  0.00     0.029 A 
ATOM     64  C   UNL A   1      42.285  33.130  33.542  1.00  0.00     0.049 A 
ATOM     65  H   UNL A   1      43.386  32.094  32.069  1.00  0.00     0.167 HD
ATOM     66  C   UNL A   1      42.895  30.985  34.621  1.00  0.00     0.074 A 
ATOM     67  C   UNL A   1      42.901  30.057  35.732  1.00  0.00     0.031 C 
ATOM     68  C   UNL A   1      42.302  32.206  34.652  1.00  0.00     0.034 A 
BRANCH  55  69
ATOM     69  C   UNL A   1      42.917  35.381  29.357  1.00  0.00     0.023 A 
ATOM     70  C   UNL A   1      43.840  36.442  29.355  1.00  0.00     0.031 A 
ATOM     71  C   UNL A   1      41.714  35.554  28.649  1.00  0.00     0.131 A 
ATOM     72  C   UNL A   1      43.514  37.652  28.725  1.00  0.00     0.055 A 
ATOM     73  C   UNL A   1      41.430  36.733  27.957  1.00  0.00     0.041 A 
ATOM     74  F   UNL A   1      40.785  34.585  28.632  1.00  0.00    -0.206 F 
ATOM     75  C   UNL A   1      42.325  37.798  28.005  1.00  0.00     0.022 A 
BRANCH  72  76
ATOM     76  S   UNL A   1      44.596  39.085  28.985  1.00  0.00     0.124 S 
ATOM     77  O   UNL A   1      45.566  38.554  29.938  1.00  0.00    -0.237 OA
ATOM     78  O   UNL A   1      45.098  39.348  27.641  1.00  0.00    -0.237 OA
ATOM     79  O   UNL A   1      43.695  40.102  29.524  1.00  0.00    -0.744 OA
ENDBRANCH  72  76
ENDBRANCH  55  69
BRANCH  56  80
ATOM     80  C   UNL A   1      45.059  26.839  34.081  1.00  0.00     0.023 A 
ATOM     81  C   UNL A   1      44.287  25.675  33.943  1.00  0.00     0.031 A 
ATOM     82  C   UNL A   1      46.130  26.816  34.992  1.00  0.00     0.131 A 
ATOM     83  C   UNL A   1      44.566  24.552  34.739  1.00  0.00     0.055 A 
ATOM     84  C   UNL A   1      46.436  25.680  35.743  1.00  0.00     0.041 A 
ATOM     85  F   UNL A   1      46.898  27.903  35.164  1.00  0.00    -0.206 F 
ATOM     86  C   UNL A   1      45.643  24.543  35.628  1.00  0.00     0.022 A 
BRANCH  83  87
ATOM     87  S   UNL A   1      43.444  23.129  34.656  1.00  0.00     0.124 S 
ATOM     88  O   UNL A   1      44.195  22.117  35.389  1.00  0.00    -0.237 OA
ATOM     89  O   UNL A   1      42.250  23.647  35.318  1.00  0.00    -0.237 OA
ATOM     90  O   UNL A   1      43.304  22.889  33.222  1.00  0.00    -0.744 OA
ENDBRANCH  83  87
ENDBRANCH  56  80
BRANCH  68  91
ATOM     91  C   UNL A   1      41.560  32.582  35.914  1.00  0.00     0.023 A 
ATOM     92  C   UNL A   1      40.222  32.206  36.133  1.00  0.00     0.031 A 
ATOM     93  C   UNL A   1      42.201  33.345  36.907  1.00  0.00     0.131 A 
ATOM     94  C   UNL A   1      39.552  32.641  37.288  1.00  0.00     0.055 A 
ATOM     95  C   UNL A   1      41.548  33.725  38.080  1.00  0.00     0.041 A 
ATOM     96  F   UNL A   1      43.477  33.735  36.753  1.00  0.00    -0.206 F 
ATOM     97  C   UNL A   1      40.211  33.385  38.270  1.00  0.00     0.022 A 
BRANCH  94  98
ATOM     98  S   UNL A   1      37.777  32.301  37.449  1.00  0.00     0.124 S 
ATOM     99  O   UNL A   1      37.225  33.017  36.304  1.00  0.00    -0.237 OA
ATOM    100  O   UNL A   1      37.730  30.844  37.373  1.00  0.00    -0.237 OA
ATOM    101  O   UNL A   1      37.437  32.863  38.755  1.00  0.00    -0.744 OA
ENDBRANCH  94  98
ENDBRANCH  68  91
ENDBRANCH  42  43
ENDBRANCH  35  37
ENDBRANCH  34  35
ENDBRANCH  33  34
ENDBRANCH  32  33
ENDBRANCH  31  32
ENDBRANCH  30  31
ENDBRANCH   1  30
TORSDOF 24
ENDMDL
MODEL 3
REMARK VINA RESULT:      -9.9      4.936      6.504
REMARK SMILES O=C(CSc1ccc(NC(=O)c2cccc3ccccc23)cc1)OCCOCCOCCOC(=O)c1ccc(-c2c3nc(c(-c4cc(S(=O)(=O)[O-])ccc4F)c4ccc([nH]4)c(-c4cc(S(=O)(=O)[O-])ccc4F)c4nc(c(-c5cc(S(=O)(=O)[O-])ccc5F)c5ccc2[nH]5)C=C4)C=C3)cc1
REMARK SMILES IDX 28 1 27 2 26 3 25 4 24 5 2 6 1 7 3 8 4 9 5 10 6 11 23 12
REMARK SMILES IDX 7 13 22 14 8 15 9 16 10 17 11 19 12 20 13 21 21 22 14 23
REMARK SMILES IDX 16 24 20 25 15 26 17 27 19 28 18 29 29 30 30 31 31 32 32 33
REMARK SMILES IDX 33 34 34 35 35 36 36 37 37 38 98 39 38 40 97 41 39 42 40 43
REMARK SMILES IDX 41 44 91 45 42 46 96 47 90 48 92 49 43 50 95 51 89 52 88 53
REMARK SMILES IDX 44 55 76 56 56 57 75 58 57 59 60 60 74 61 93 62 58 63 59 64
REMARK SMILES IDX 73 66 94 67 61 68 45 69 46 70 54 71 47 72 53 73 55 74 52 75
REMARK SMILES IDX 48 76 49 77 50 78 51 79 77 80 78 81 86 82 79 83 85 84 87 85
REMARK SMILES IDX 84 86 80 87 81 88 82 89 83 90 62 91 63 92 71 93 64 94 70 95
REMARK SMILES IDX 72 96 69 97 65 98 66 99 67 100 68 101
REMARK H PARENT 9 18 92 54 60 65
REMARK Flexibility Score: inf
ROOT
ATOM      1  C   UNL A   1      39.213  22.191  26.124  1.00  0.00     0.188 C 
ENDROOT
BRANCH   1   2
ATOM      2  O   UNL A   1      38.668  21.063  25.449  1.00  0.00    -0.376 OA
BRANCH   2   3
ATOM      3  C   UNL A   1      37.486  21.204  24.660  1.00  0.00     0.202 C 
BRANCH   3   4
ATOM      4  C   UNL A   1      36.680  22.507  24.674  1.00  0.00     0.261 C 
BRANCH   4   5
ATOM      5  O   UNL A   1      35.377  22.506  25.285  1.00  0.00    -0.463 OA
BRANCH   5   6
ATOM      6  C   UNL A   1      34.940  21.432  25.983  1.00  0.00     0.316 C 
ATOM      7  O   UNL A   1      34.733  21.487  27.191  1.00  0.00    -0.251 OA
BRANCH   6   8
ATOM      8  C   UNL A   1      34.641  20.208  25.141  1.00  0.00     0.197 C 
BRANCH   8   9
ATOM      9  S   UNL A   1      32.863  19.794  25.128  1.00  0.00    -0.114 SA
BRANCH   9  10
ATOM     10  C   UNL A   1      32.161  21.374  24.681  1.00  0.00     0.008 A 
ATOM     11  C   UNL A   1      32.262  21.903  23.391  1.00  0.00     0.017 A 
ATOM     12  C   UNL A   1      31.438  22.080  25.642  1.00  0.00     0.017 A 
ATOM     13  C   UNL A   1      31.543  23.042  23.025  1.00  0.00     0.027 A 
ATOM     14  C   UNL A   1      30.748  23.242  25.286  1.00  0.00     0.027 A 
ATOM     15  C   UNL A   1      30.738  23.685  23.957  1.00  0.00     0.041 A 
BRANCH  15  16
ATOM     16  N   UNL A   1      29.888  24.756  23.656  1.00  0.00    -0.322 N 
ATOM     17  C   UNL A   1      29.872  26.073  24.044  1.00  0.00     0.256 C 
ATOM     18  H   UNL A   1      29.154  24.515  23.045  1.00  0.00     0.170 HD
ATOM     19  O   UNL A   1      28.914  26.771  23.701  1.00  0.00    -0.269 OA
BRANCH  17  20
ATOM     20  C   UNL A   1      30.960  26.735  24.800  1.00  0.00     0.048 A 
ATOM     21  C   UNL A   1      30.725  26.859  26.180  1.00  0.00     0.014 A 
ATOM     22  C   UNL A   1      32.085  27.363  24.192  1.00  0.00    -0.006 A 
ATOM     23  C   UNL A   1      31.589  27.598  26.978  1.00  0.00     0.001 A 
ATOM     24  C   UNL A   1      32.945  28.127  25.025  1.00  0.00    -0.018 A 
ATOM     25  C   UNL A   1      32.416  27.295  22.815  1.00  0.00     0.009 A 
ATOM     26  C   UNL A   1      32.683  28.236  26.400  1.00  0.00     0.009 A 
ATOM     27  C   UNL A   1      34.060  28.786  24.482  1.00  0.00     0.009 A 
ATOM     28  C   UNL A   1      33.552  27.925  22.296  1.00  0.00     0.001 A 
ATOM     29  C   UNL A   1      34.369  28.679  23.127  1.00  0.00     0.001 A 
ENDBRANCH  17  20
ENDBRANCH  15  16
ENDBRANCH   9  10
ENDBRANCH   8   9
ENDBRANCH   6   8
ENDBRANCH   5   6
ENDBRANCH   4   5
ENDBRANCH   3   4
ENDBRANCH   2   3
ENDBRANCH   1   2
BRANCH   1  30
ATOM     30  C   UNL A   1      40.483  21.899  26.928  1.00  0.00     0.188 C 
BRANCH  30  31
ATOM     31  O   UNL A   1      41.548  21.294  26.205  1.00  0.00    -0.376 OA
BRANCH  31  32
ATOM     32  C   UNL A   1      42.755  22.047  26.095  1.00  0.00     0.202 C 
BRANCH  32  33
ATOM     33  C   UNL A   1      42.862  23.337  26.925  1.00  0.00     0.261 C 
BRANCH  33  34
ATOM     34  O   UNL A   1      43.202  24.512  26.156  1.00  0.00    -0.460 OA
BRANCH  34  35
ATOM     35  C   UNL A   1      42.230  25.452  26.086  1.00  0.00     0.338 C 
ATOM     36  O   UNL A   1      41.037  25.257  25.879  1.00  0.00    -0.246 OA
BRANCH  35  37
ATOM     37  C   UNL A   1      42.747  26.797  26.400  1.00  0.00     0.060 A 
ATOM     38  C   UNL A   1      43.720  26.925  27.400  1.00  0.00     0.016 A 
ATOM     39  C   UNL A   1      42.119  27.931  25.879  1.00  0.00     0.016 A 
ATOM     40  C   UNL A   1      44.027  28.185  27.924  1.00  0.00     0.010 A 
ATOM     41  C   UNL A   1      42.424  29.191  26.411  1.00  0.00     0.010 A 
ATOM     42  C   UNL A   1      43.343  29.322  27.470  1.00  0.00    -0.014 A 
BRANCH  42  43
ATOM     43  C   UNL A   1      43.440  30.601  28.225  1.00  0.00     0.031 A 
ATOM     44  C   UNL A   1      44.580  31.542  27.921  1.00  0.00     0.074 A 
ATOM     45  C   UNL A   1      42.528  30.941  29.153  1.00  0.00     0.049 A 
ATOM     46  N   UNL A   1      44.899  32.677  28.490  1.00  0.00    -0.248 NA
ATOM     47  C   UNL A   1      45.481  31.140  26.831  1.00  0.00     0.031 C 
ATOM     48  C   UNL A   1      41.350  30.151  29.509  1.00  0.00     0.029 A 
ATOM     49  N   UNL A   1      42.456  32.041  29.974  1.00  0.00    -0.354 N 
ATOM     50  C   UNL A   1      46.040  33.126  27.830  1.00  0.00     0.074 A 
ATOM     51  C   UNL A   1      46.375  32.117  26.846  1.00  0.00     0.031 C 
ATOM     52  C   UNL A   1      40.679  30.787  30.486  1.00  0.00     0.029 A 
ATOM     53  C   UNL A   1      41.397  32.009  30.851  1.00  0.00     0.049 A 
ATOM     54  H   UNL A   1      43.103  32.782  29.938  1.00  0.00     0.167 HD
ATOM     55  C   UNL A   1      46.739  34.274  28.017  1.00  0.00     0.034 A 
ATOM     56  C   UNL A   1      41.060  32.853  31.848  1.00  0.00     0.034 A 
ATOM     57  C   UNL A   1      46.408  35.270  29.009  1.00  0.00     0.049 A 
ATOM     58  C   UNL A   1      41.910  34.076  32.107  1.00  0.00     0.074 A 
ATOM     59  C   UNL A   1      47.047  36.471  29.271  1.00  0.00     0.029 A 
ATOM     60  N   UNL A   1      45.359  35.177  29.912  1.00  0.00    -0.354 N 
ATOM     61  N   UNL A   1      42.984  34.489  31.474  1.00  0.00    -0.248 NA
ATOM     62  C   UNL A   1      41.494  34.949  33.213  1.00  0.00     0.031 C 
ATOM     63  C   UNL A   1      46.426  37.069  30.375  1.00  0.00     0.029 A 
ATOM     64  C   UNL A   1      45.352  36.280  30.753  1.00  0.00     0.049 A 
ATOM     65  H   UNL A   1      44.711  34.436  29.950  1.00  0.00     0.167 HD
ATOM     66  C   UNL A   1      43.346  35.690  32.084  1.00  0.00     0.074 A 
ATOM     67  C   UNL A   1      42.374  35.936  33.127  1.00  0.00     0.031 C 
ATOM     68  C   UNL A   1      44.385  36.517  31.801  1.00  0.00     0.034 A 
BRANCH  55  69
ATOM     69  C   UNL A   1      47.967  34.481  27.162  1.00  0.00     0.023 A 
ATOM     70  C   UNL A   1      49.242  34.068  27.584  1.00  0.00     0.031 A 
ATOM     71  C   UNL A   1      47.864  35.133  25.920  1.00  0.00     0.131 A 
ATOM     72  C   UNL A   1      50.371  34.379  26.810  1.00  0.00     0.055 A 
ATOM     73  C   UNL A   1      48.982  35.368  25.116  1.00  0.00     0.041 A 
ATOM     74  F   UNL A   1      46.675  35.568  25.472  1.00  0.00    -0.206 F 
ATOM     75  C   UNL A   1      50.247  35.005  25.567  1.00  0.00     0.022 A 
BRANCH  72  76
ATOM     76  S   UNL A   1      52.016  34.088  27.518  1.00  0.00     0.124 S 
ATOM     77  O   UNL A   1      51.685  33.712  28.890  1.00  0.00    -0.237 OA
ATOM     78  O   UNL A   1      52.540  33.023  26.671  1.00  0.00    -0.237 OA
ATOM     79  O   UNL A   1      52.683  35.381  27.378  1.00  0.00    -0.744 OA
ENDBRANCH  72  76
ENDBRANCH  55  69
BRANCH  56  80
ATOM     80  C   UNL A   1      39.885  32.563  32.718  1.00  0.00     0.023 A 
ATOM     81  C   UNL A   1      40.050  32.037  34.009  1.00  0.00     0.031 A 
ATOM     82  C   UNL A   1      38.574  32.743  32.243  1.00  0.00     0.131 A 
ATOM     83  C   UNL A   1      38.925  31.663  34.761  1.00  0.00     0.055 A 
ATOM     84  C   UNL A   1      37.457  32.418  33.014  1.00  0.00     0.041 A 
ATOM     85  F   UNL A   1      38.360  33.240  31.014  1.00  0.00    -0.206 F 
ATOM     86  C   UNL A   1      37.630  31.862  34.277  1.00  0.00     0.022 A 
BRANCH  83  87
ATOM     87  S   UNL A   1      39.182  30.829  36.352  1.00  0.00     0.124 S 
ATOM     88  O   UNL A   1      39.821  29.587  35.936  1.00  0.00    -0.237 OA
ATOM     89  O   UNL A   1      40.031  31.783  37.059  1.00  0.00    -0.237 OA
ATOM     90  O   UNL A   1      37.829  30.690  36.885  1.00  0.00    -0.744 OA
ENDBRANCH  83  87
ENDBRANCH  56  80
BRANCH  68  91
ATOM     91  C   UNL A   1      44.486  37.797  32.598  1.00  0.00     0.023 A 
ATOM     92  C   UNL A   1      43.788  38.961  32.232  1.00  0.00     0.031 A 
ATOM     93  C   UNL A   1      45.311  37.854  33.736  1.00  0.00     0.131 A 
ATOM     94  C   UNL A   1      43.970  40.147  32.963  1.00  0.00     0.055 A 
ATOM     95  C   UNL A   1      45.444  39.019  34.493  1.00  0.00     0.041 A 
ATOM     96  F   UNL A   1      46.005  36.774  34.134  1.00  0.00    -0.206 F 
ATOM     97  C   UNL A   1      44.783  40.180  34.099  1.00  0.00     0.022 A 
BRANCH  94  98
ATOM     98  S   UNL A   1      43.206  41.675  32.353  1.00  0.00     0.124 S 
ATOM     99  O   UNL A   1      43.977  41.940  31.144  1.00  0.00    -0.237 OA
ATOM    100  O   UNL A   1      41.819  41.270  32.149  1.00  0.00    -0.237 OA
ATOM    101  O   UNL A   1      43.419  42.624  33.444  1.00  0.00    -0.744 OA
ENDBRANCH  94  98
ENDBRANCH  68  91
ENDBRANCH  42  43
ENDBRANCH  35  37
ENDBRANCH  34  35
ENDBRANCH  33  34
ENDBRANCH  32  33
ENDBRANCH  31  32
ENDBRANCH  30  31
ENDBRANCH   1  30
TORSDOF 24
ENDMDL
