MODEL 1
REMARK VINA RESULT:      -8.9      0.000      0.000
REMARK SMILES CS(=O)(=O)c1ccc(/C=C(/C(=O)OCCOCCOCCOC(=O)c2ccc(-c3c4nc(c(-c5cc(S(=O)(=O)[O-])ccc5F)c5ccc([nH]5)c(-c5cc(S(=O)(=O)[O-])ccc5F)c5nc(c(-c6cc(S(=O)(=O)[O-])ccc6F)c6ccc3[nH]6)C=C5)C=C4)cc2)c2cccc(-c3ccc(S(C)(=O)=O)cc3)c2)cc1
REMARK SMILES IDX 17 1 16 2 15 3 14 4 13 5 11 6 12 7 10 8 9 9 8 10 5 11 6 12
REMARK SMILES IDX 105 13 7 14 104 15 2 16 1 17 3 18 4 19 88 20 89 21 103 22
REMARK SMILES IDX 90 23 92 24 91 25 93 26 94 27 102 28 95 29 101 30 96 31
REMARK SMILES IDX 97 32 98 33 99 34 100 35 18 36 19 37 20 38 21 39 22 40 23 41
REMARK SMILES IDX 24 42 25 43 26 44 87 45 27 46 86 47 28 48 29 49 30 50 80 51
REMARK SMILES IDX 31 52 85 53 79 54 81 55 32 56 84 57 78 58 77 59 33 61 65 62
REMARK SMILES IDX 45 63 64 64 46 65 49 66 63 67 82 68 47 69 48 70 62 72 83 73
REMARK SMILES IDX 50 74 34 75 35 76 43 77 36 78 42 79 44 80 41 81 37 82 38 83
REMARK SMILES IDX 39 84 40 85 66 86 67 87 75 88 68 89 74 90 76 91 73 92 69 93
REMARK SMILES IDX 70 94 71 95 72 96 51 97 52 98 60 99 53 100 59 101 61 102
REMARK SMILES IDX 58 103 54 104 55 105 56 106 57 107
REMARK H PARENT 81 60 49 71
REMARK Flexibility Score: inf
ROOT
ATOM      1  C   UNL A   1      49.435  27.768  26.748  1.00  0.00     0.188 C 
ENDROOT
BRANCH   1   2
ATOM      2  O   UNL A   1      49.279  26.454  27.232  1.00  0.00    -0.376 OA
BRANCH   2   3
ATOM      3  C   UNL A   1      48.456  25.562  26.501  1.00  0.00     0.202 C 
BRANCH   3   4
ATOM      4  C   UNL A   1      47.624  24.439  27.158  1.00  0.00     0.261 C 
BRANCH   4   5
ATOM      5  O   UNL A   1      46.779  23.648  26.313  1.00  0.00    -0.460 OA
BRANCH   5   6
ATOM      6  C   UNL A   1      45.819  24.306  25.612  1.00  0.00     0.338 C 
ATOM      7  O   UNL A   1      45.711  24.298  24.396  1.00  0.00    -0.246 OA
BRANCH   6   8
ATOM      8  C   UNL A   1      44.822  24.954  26.531  1.00  0.00     0.067 C 
ATOM      9  C   UNL A   1      44.797  26.307  26.638  1.00  0.00     0.024 C 
BRANCH   9  10
ATOM     10  C   UNL A   1      43.769  27.171  27.281  1.00  0.00    -0.025 A 
ATOM     11  C   UNL A   1      41.471  28.281  28.457  1.00  0.00     0.067 A 
ATOM     12  C   UNL A   1      42.592  28.024  29.241  1.00  0.00     0.021 A 
ATOM     13  C   UNL A   1      41.524  28.106  27.074  1.00  0.00     0.021 A 
ATOM     14  C   UNL A   1      43.752  27.521  28.639  1.00  0.00     0.009 A 
ATOM     15  C   UNL A   1      42.672  27.558  26.492  1.00  0.00     0.009 A 
BRANCH  11  16
ATOM     16  S   UNL A   1      39.918  28.672  29.229  1.00  0.00     0.175 S 
ATOM     17  C   UNL A   1      38.742  27.695  28.342  1.00  0.00     0.163 C 
ATOM     18  O   UNL A   1      39.629  30.070  28.959  1.00  0.00    -0.224 OA
ATOM     19  O   UNL A   1      39.973  28.174  30.588  1.00  0.00    -0.224 OA
ENDBRANCH  11  16
ENDBRANCH   9  10
BRANCH   8  20
ATOM     20  C   UNL A   1      43.867  24.069  27.225  1.00  0.00    -0.010 A 
ATOM     21  C   UNL A   1      44.173  23.532  28.485  1.00  0.00     0.009 A 
ATOM     22  C   UNL A   1      42.591  23.863  26.699  1.00  0.00     0.017 A 
ATOM     23  C   UNL A   1      43.212  22.826  29.207  1.00  0.00     0.001 A 
ATOM     24  C   UNL A   1      41.600  23.195  27.436  1.00  0.00    -0.018 A 
ATOM     25  C   UNL A   1      41.931  22.668  28.691  1.00  0.00     0.009 A 
BRANCH  24  26
ATOM     26  C   UNL A   1      40.238  23.113  26.906  1.00  0.00    -0.018 A 
ATOM     27  C   UNL A   1      39.385  24.230  26.928  1.00  0.00     0.010 A 
ATOM     28  C   UNL A   1      39.783  21.923  26.316  1.00  0.00     0.010 A 
ATOM     29  C   UNL A   1      38.106  24.159  26.377  1.00  0.00     0.021 A 
ATOM     30  C   UNL A   1      38.508  21.841  25.765  1.00  0.00     0.021 A 
ATOM     31  C   UNL A   1      37.674  22.957  25.812  1.00  0.00     0.067 A 
BRANCH  31  32
ATOM     32  S   UNL A   1      36.028  22.847  25.167  1.00  0.00     0.175 S 
ATOM     33  C   UNL A   1      35.183  21.884  26.394  1.00  0.00     0.163 C 
ATOM     34  O   UNL A   1      35.470  24.185  25.162  1.00  0.00    -0.224 OA
ATOM     35  O   UNL A   1      36.078  22.067  23.943  1.00  0.00    -0.224 OA
ENDBRANCH  31  32
ENDBRANCH  24  26
ENDBRANCH   8  20
ENDBRANCH   6   8
ENDBRANCH   5   6
ENDBRANCH   4   5
ENDBRANCH   3   4
ENDBRANCH   2   3
ENDBRANCH   1   2
BRANCH   1  36
ATOM     36  C   UNL A   1      48.813  27.973  25.348  1.00  0.00     0.188 C 
BRANCH  36  37
ATOM     37  O   UNL A   1      47.572  28.647  25.212  1.00  0.00    -0.376 OA
BRANCH  37  38
ATOM     38  C   UNL A   1      47.078  29.405  26.306  1.00  0.00     0.202 C 
BRANCH  38  39
ATOM     39  C   UNL A   1      45.774  30.221  26.199  1.00  0.00     0.261 C 
BRANCH  39  40
ATOM     40  O   UNL A   1      45.881  31.654  26.243  1.00  0.00    -0.460 OA
BRANCH  40  41
ATOM     41  C   UNL A   1      44.702  32.328  26.312  1.00  0.00     0.338 C 
ATOM     42  O   UNL A   1      43.978  32.626  25.382  1.00  0.00    -0.246 OA
BRANCH  41  43
ATOM     43  C   UNL A   1      44.309  32.483  27.734  1.00  0.00     0.060 A 
ATOM     44  C   UNL A   1      44.163  31.331  28.518  1.00  0.00     0.016 A 
ATOM     45  C   UNL A   1      44.049  33.740  28.281  1.00  0.00     0.016 A 
ATOM     46  C   UNL A   1      43.754  31.432  29.850  1.00  0.00     0.010 A 
ATOM     47  C   UNL A   1      43.613  33.838  29.610  1.00  0.00     0.010 A 
ATOM     48  C   UNL A   1      43.450  32.684  30.398  1.00  0.00    -0.014 A 
BRANCH  48  49
ATOM     49  C   UNL A   1      42.807  32.767  31.736  1.00  0.00     0.031 A 
ATOM     50  C   UNL A   1      41.307  32.864  31.811  1.00  0.00     0.074 A 
ATOM     51  C   UNL A   1      43.533  32.736  32.868  1.00  0.00     0.049 A 
ATOM     52  N   UNL A   1      40.534  32.998  32.857  1.00  0.00    -0.248 NA
ATOM     53  C   UNL A   1      40.590  32.809  30.529  1.00  0.00     0.031 C 
ATOM     54  C   UNL A   1      44.987  32.605  32.932  1.00  0.00     0.029 A 
ATOM     55  N   UNL A   1      43.147  32.814  34.185  1.00  0.00    -0.354 N 
ATOM     56  C   UNL A   1      39.236  33.055  32.362  1.00  0.00     0.074 A 
ATOM     57  C   UNL A   1      39.334  32.965  30.920  1.00  0.00     0.031 C 
ATOM     58  C   UNL A   1      45.368  32.596  34.221  1.00  0.00     0.029 A 
ATOM     59  C   UNL A   1      44.196  32.791  35.075  1.00  0.00     0.049 A 
ATOM     60  H   UNL A   1      42.204  32.880  34.465  1.00  0.00     0.167 HD
ATOM     61  C   UNL A   1      38.070  33.174  33.046  1.00  0.00     0.034 A 
ATOM     62  C   UNL A   1      44.214  32.948  36.415  1.00  0.00     0.034 A 
ATOM     63  C   UNL A   1      37.987  33.296  34.481  1.00  0.00     0.049 A 
ATOM     64  C   UNL A   1      42.910  33.188  37.146  1.00  0.00     0.074 A 
ATOM     65  C   UNL A   1      36.857  33.419  35.270  1.00  0.00     0.029 A 
ATOM     66  N   UNL A   1      39.076  33.336  35.344  1.00  0.00    -0.354 N 
ATOM     67  N   UNL A   1      41.687  33.234  36.667  1.00  0.00    -0.248 NA
ATOM     68  C   UNL A   1      42.992  33.403  38.598  1.00  0.00     0.031 C 
ATOM     69  C   UNL A   1      37.263  33.621  36.593  1.00  0.00     0.029 A 
ATOM     70  C   UNL A   1      38.644  33.524  36.649  1.00  0.00     0.049 A 
ATOM     71  H   UNL A   1      40.016  33.243  35.069  1.00  0.00     0.167 HD
ATOM     72  C   UNL A   1      40.857  33.455  37.766  1.00  0.00     0.074 A 
ATOM     73  C   UNL A   1      41.714  33.512  38.930  1.00  0.00     0.031 C 
ATOM     74  C   UNL A   1      39.506  33.593  37.807  1.00  0.00     0.034 A 
BRANCH  61  75
ATOM     75  C   UNL A   1      36.799  33.250  32.234  1.00  0.00     0.023 A 
ATOM     76  C   UNL A   1      36.007  34.411  32.204  1.00  0.00     0.031 A 
ATOM     77  C   UNL A   1      36.351  32.130  31.511  1.00  0.00     0.131 A 
ATOM     78  C   UNL A   1      34.776  34.401  31.532  1.00  0.00     0.055 A 
ATOM     79  C   UNL A   1      35.169  32.155  30.771  1.00  0.00     0.041 A 
ATOM     80  F   UNL A   1      37.051  30.984  31.524  1.00  0.00    -0.206 F 
ATOM     81  C   UNL A   1      34.365  33.290  30.792  1.00  0.00     0.022 A 
BRANCH  78  82
ATOM     82  S   UNL A   1      33.648  35.800  31.774  1.00  0.00     0.124 S 
ATOM     83  O   UNL A   1      33.574  36.355  30.424  1.00  0.00    -0.237 OA
ATOM     84  O   UNL A   1      32.440  35.151  32.264  1.00  0.00    -0.237 OA
ATOM     85  O   UNL A   1      34.347  36.639  32.746  1.00  0.00    -0.744 OA
ENDBRANCH  78  82
ENDBRANCH  61  75
BRANCH  62  86
ATOM     86  C   UNL A   1      45.507  32.953  37.165  1.00  0.00     0.023 A 
ATOM     87  C   UNL A   1      46.337  34.087  37.179  1.00  0.00     0.031 A 
ATOM     88  C   UNL A   1      45.967  31.795  37.818  1.00  0.00     0.131 A 
ATOM     89  C   UNL A   1      47.599  34.023  37.791  1.00  0.00     0.055 A 
ATOM     90  C   UNL A   1      47.196  31.757  38.479  1.00  0.00     0.041 A 
ATOM     91  F   UNL A   1      45.222  30.678  37.825  1.00  0.00    -0.206 F 
ATOM     92  C   UNL A   1      48.026  32.872  38.456  1.00  0.00     0.022 A 
BRANCH  89  93
ATOM     93  S   UNL A   1      48.722  35.438  37.617  1.00  0.00     0.124 S 
ATOM     94  O   UNL A   1      49.858  35.014  38.429  1.00  0.00    -0.237 OA
ATOM     95  O   UNL A   1      48.944  35.474  36.175  1.00  0.00    -0.237 OA
ATOM     96  O   UNL A   1      47.950  36.554  38.157  1.00  0.00    -0.744 OA
ENDBRANCH  89  93
ENDBRANCH  62  86
BRANCH  74  97
ATOM     97  C   UNL A   1      38.864  33.770  39.166  1.00  0.00     0.023 A 
ATOM     98  C   UNL A   1      38.297  32.692  39.870  1.00  0.00     0.031 A 
ATOM     99  C   UNL A   1      38.819  35.042  39.765  1.00  0.00     0.131 A 
ATOM    100  C   UNL A   1      37.660  32.917  41.102  1.00  0.00     0.055 A 
ATOM    101  C   UNL A   1      38.247  35.247  41.022  1.00  0.00     0.041 A 
ATOM    102  F   UNL A   1      39.338  36.111  39.140  1.00  0.00    -0.206 F 
ATOM    103  C   UNL A   1      37.651  34.184  41.692  1.00  0.00     0.022 A 
BRANCH 100 104
ATOM    104  S   UNL A   1      36.753  31.550  41.878  1.00  0.00     0.124 S 
ATOM    105  O   UNL A   1      37.623  30.414  41.600  1.00  0.00    -0.237 OA
ATOM    106  O   UNL A   1      36.681  31.974  43.272  1.00  0.00    -0.237 OA
ATOM    107  O   UNL A   1      35.475  31.541  41.166  1.00  0.00    -0.744 OA
ENDBRANCH 100 104
ENDBRANCH  74  97
ENDBRANCH  48  49
ENDBRANCH  41  43
ENDBRANCH  40  41
ENDBRANCH  39  40
ENDBRANCH  38  39
ENDBRANCH  37  38
ENDBRANCH  36  37
ENDBRANCH   1  36
TORSDOF 25
ENDMDL
MODEL 2
REMARK VINA RESULT:      -8.4      5.880     11.633
REMARK SMILES CS(=O)(=O)c1ccc(/C=C(/C(=O)OCCOCCOCCOC(=O)c2ccc(-c3c4nc(c(-c5cc(S(=O)(=O)[O-])ccc5F)c5ccc([nH]5)c(-c5cc(S(=O)(=O)[O-])ccc5F)c5nc(c(-c6cc(S(=O)(=O)[O-])ccc6F)c6ccc3[nH]6)C=C5)C=C4)cc2)c2cccc(-c3ccc(S(C)(=O)=O)cc3)c2)cc1
REMARK SMILES IDX 17 1 16 2 15 3 14 4 13 5 11 6 12 7 10 8 9 9 8 10 5 11 6 12
REMARK SMILES IDX 105 13 7 14 104 15 2 16 1 17 3 18 4 19 88 20 89 21 103 22
REMARK SMILES IDX 90 23 92 24 91 25 93 26 94 27 102 28 95 29 101 30 96 31
REMARK SMILES IDX 97 32 98 33 99 34 100 35 18 36 19 37 20 38 21 39 22 40 23 41
REMARK SMILES IDX 24 42 25 43 26 44 87 45 27 46 86 47 28 48 29 49 30 50 80 51
REMARK SMILES IDX 31 52 85 53 79 54 81 55 32 56 84 57 78 58 77 59 33 61 65 62
REMARK SMILES IDX 45 63 64 64 46 65 49 66 63 67 82 68 47 69 48 70 62 72 83 73
REMARK SMILES IDX 50 74 34 75 35 76 43 77 36 78 42 79 44 80 41 81 37 82 38 83
REMARK SMILES IDX 39 84 40 85 66 86 67 87 75 88 68 89 74 90 76 91 73 92 69 93
REMARK SMILES IDX 70 94 71 95 72 96 51 97 52 98 60 99 53 100 59 101 61 102
REMARK SMILES IDX 58 103 54 104 55 105 56 106 57 107
REMARK H PARENT 81 60 49 71
REMARK Flexibility Score: inf
ROOT
ATOM      1  C   UNL A   1      38.419  30.110  29.293  1.00  0.00     0.188 C 
ENDROOT
BRANCH   1   2
ATOM      2  O   UNL A   1      38.808  29.517  28.075  1.00  0.00    -0.376 OA
BRANCH   2   3
ATOM      3  C   UNL A   1      40.127  29.012  27.965  1.00  0.00     0.202 C 
BRANCH   3   4
ATOM      4  C   UNL A   1      40.705  28.416  26.663  1.00  0.00     0.261 C 
BRANCH   4   5
ATOM      5  O   UNL A   1      41.905  27.638  26.755  1.00  0.00    -0.460 OA
BRANCH   5   6
ATOM      6  C   UNL A   1      42.475  27.246  25.586  1.00  0.00     0.338 C 
ATOM      7  O   UNL A   1      42.686  27.976  24.629  1.00  0.00    -0.246 OA
BRANCH   6   8
ATOM      8  C   UNL A   1      42.933  25.816  25.656  1.00  0.00     0.067 C 
ATOM      9  C   UNL A   1      44.079  25.452  25.025  1.00  0.00     0.024 C 
BRANCH   9  10
ATOM     10  C   UNL A   1      44.845  24.182  25.147  1.00  0.00    -0.025 A 
ATOM     11  C   UNL A   1      45.836  21.556  25.004  1.00  0.00     0.067 A 
ATOM     12  C   UNL A   1      46.508  22.584  24.349  1.00  0.00     0.021 A 
ATOM     13  C   UNL A   1      44.747  21.840  25.828  1.00  0.00     0.021 A 
ATOM     14  C   UNL A   1      46.040  23.898  24.469  1.00  0.00     0.009 A 
ATOM     15  C   UNL A   1      44.260  23.149  25.900  1.00  0.00     0.009 A 
BRANCH  11  16
ATOM     16  S   UNL A   1      46.255  19.863  24.662  1.00  0.00     0.175 S 
ATOM     17  C   UNL A   1      44.849  19.244  23.786  1.00  0.00     0.163 C 
ATOM     18  O   UNL A   1      46.332  19.160  25.931  1.00  0.00    -0.224 OA
ATOM     19  O   UNL A   1      47.378  19.871  23.748  1.00  0.00    -0.224 OA
ENDBRANCH  11  16
ENDBRANCH   9  10
BRANCH   8  20
ATOM     20  C   UNL A   1      42.130  24.889  26.476  1.00  0.00    -0.010 A 
ATOM     21  C   UNL A   1      42.498  24.599  27.799  1.00  0.00     0.009 A 
ATOM     22  C   UNL A   1      40.920  24.392  25.991  1.00  0.00     0.017 A 
ATOM     23  C   UNL A   1      41.659  23.849  28.620  1.00  0.00     0.001 A 
ATOM     24  C   UNL A   1      40.044  23.675  26.822  1.00  0.00    -0.018 A 
ATOM     25  C   UNL A   1      40.434  23.399  28.138  1.00  0.00     0.009 A 
BRANCH  24  26
ATOM     26  C   UNL A   1      38.727  23.284  26.317  1.00  0.00    -0.018 A 
ATOM     27  C   UNL A   1      38.489  21.982  25.844  1.00  0.00     0.010 A 
ATOM     28  C   UNL A   1      37.661  24.199  26.349  1.00  0.00     0.010 A 
ATOM     29  C   UNL A   1      37.220  21.603  25.411  1.00  0.00     0.021 A 
ATOM     30  C   UNL A   1      36.391  23.831  25.917  1.00  0.00     0.021 A 
ATOM     31  C   UNL A   1      36.183  22.539  25.438  1.00  0.00     0.067 A 
BRANCH  31  32
ATOM     32  S   UNL A   1      34.585  22.077  24.831  1.00  0.00     0.175 S 
ATOM     33  C   UNL A   1      34.628  20.305  24.902  1.00  0.00     0.163 C 
ATOM     34  O   UNL A   1      33.600  22.556  25.781  1.00  0.00    -0.224 OA
ATOM     35  O   UNL A   1      34.507  22.467  23.433  1.00  0.00    -0.224 OA
ENDBRANCH  31  32
ENDBRANCH  24  26
ENDBRANCH   8  20
ENDBRANCH   6   8
ENDBRANCH   5   6
ENDBRANCH   4   5
ENDBRANCH   3   4
ENDBRANCH   2   3
ENDBRANCH   1   2
BRANCH   1  36
ATOM     36  C   UNL A   1      36.905  29.974  29.573  1.00  0.00     0.188 C 
BRANCH  36  37
ATOM     37  O   UNL A   1      35.962  30.523  28.665  1.00  0.00    -0.376 OA
BRANCH  37  38
ATOM     38  C   UNL A   1      35.279  31.715  29.021  1.00  0.00     0.202 C 
BRANCH  38  39
ATOM     39  C   UNL A   1      35.960  33.095  28.926  1.00  0.00     0.261 C 
BRANCH  39  40
ATOM     40  O   UNL A   1      36.047  33.877  30.129  1.00  0.00    -0.460 OA
BRANCH  40  41
ATOM     41  C   UNL A   1      36.955  33.444  31.044  1.00  0.00     0.338 C 
ATOM     42  O   UNL A   1      36.745  32.701  31.983  1.00  0.00    -0.246 OA
BRANCH  41  43
ATOM     43  C   UNL A   1      38.315  33.854  30.617  1.00  0.00     0.060 A 
ATOM     44  C   UNL A   1      38.472  34.445  29.355  1.00  0.00     0.016 A 
ATOM     45  C   UNL A   1      39.429  33.628  31.427  1.00  0.00     0.016 A 
ATOM     46  C   UNL A   1      39.741  34.807  28.899  1.00  0.00     0.010 A 
ATOM     47  C   UNL A   1      40.705  33.967  30.956  1.00  0.00     0.010 A 
ATOM     48  C   UNL A   1      40.871  34.546  29.685  1.00  0.00    -0.014 A 
BRANCH  48  49
ATOM     49  C   UNL A   1      42.229  34.728  29.109  1.00  0.00     0.031 A 
ATOM     50  C   UNL A   1      43.115  33.522  28.956  1.00  0.00     0.074 A 
ATOM     51  C   UNL A   1      42.665  35.935  28.705  1.00  0.00     0.049 A 
ATOM     52  N   UNL A   1      44.349  33.446  28.530  1.00  0.00    -0.248 NA
ATOM     53  C   UNL A   1      42.527  32.233  29.347  1.00  0.00     0.031 C 
ATOM     54  C   UNL A   1      41.891  37.172  28.762  1.00  0.00     0.029 A 
ATOM     55  N   UNL A   1      43.871  36.320  28.168  1.00  0.00    -0.354 N 
ATOM     56  C   UNL A   1      44.693  32.100  28.609  1.00  0.00     0.074 A 
ATOM     57  C   UNL A   1      43.542  31.406  29.148  1.00  0.00     0.031 C 
ATOM     58  C   UNL A   1      42.634  38.176  28.264  1.00  0.00     0.029 A 
ATOM     59  C   UNL A   1      43.963  37.670  27.918  1.00  0.00     0.049 A 
ATOM     60  H   UNL A   1      44.602  35.686  27.979  1.00  0.00     0.167 HD
ATOM     61  C   UNL A   1      45.861  31.500  28.267  1.00  0.00     0.034 A 
ATOM     62  C   UNL A   1      45.006  38.416  27.499  1.00  0.00     0.034 A 
ATOM     63  C   UNL A   1      47.012  32.208  27.763  1.00  0.00     0.049 A 
ATOM     64  C   UNL A   1      46.333  37.739  27.226  1.00  0.00     0.074 A 
ATOM     65  C   UNL A   1      48.240  31.694  27.385  1.00  0.00     0.029 A 
ATOM     66  N   UNL A   1      47.090  33.584  27.586  1.00  0.00    -0.354 N 
ATOM     67  N   UNL A   1      46.644  36.465  27.299  1.00  0.00    -0.248 NA
ATOM     68  C   UNL A   1      47.449  38.606  26.820  1.00  0.00     0.031 C 
ATOM     69  C   UNL A   1      49.085  32.762  27.065  1.00  0.00     0.029 A 
ATOM     70  C   UNL A   1      48.357  33.938  27.146  1.00  0.00     0.049 A 
ATOM     71  H   UNL A   1      46.353  34.216  27.748  1.00  0.00     0.167 HD
ATOM     72  C   UNL A   1      47.984  36.379  26.921  1.00  0.00     0.074 A 
ATOM     73  C   UNL A   1      48.413  37.723  26.602  1.00  0.00     0.031 C 
ATOM     74  C   UNL A   1      48.785  35.284  26.840  1.00  0.00     0.034 A 
BRANCH  61  75
ATOM     75  C   UNL A   1      45.966  30.012  28.501  1.00  0.00     0.023 A 
ATOM     76  C   UNL A   1      46.419  29.483  29.722  1.00  0.00     0.031 A 
ATOM     77  C   UNL A   1      45.645  29.108  27.472  1.00  0.00     0.131 A 
ATOM     78  C   UNL A   1      46.611  28.101  29.857  1.00  0.00     0.055 A 
ATOM     79  C   UNL A   1      45.754  27.728  27.643  1.00  0.00     0.041 A 
ATOM     80  F   UNL A   1      45.233  29.555  26.274  1.00  0.00    -0.206 F 
ATOM     81  C   UNL A   1      46.256  27.217  28.835  1.00  0.00     0.022 A 
BRANCH  78  82
ATOM     82  S   UNL A   1      47.485  27.489  31.324  1.00  0.00     0.124 S 
ATOM     83  O   UNL A   1      48.647  28.373  31.364  1.00  0.00    -0.237 OA
ATOM     84  O   UNL A   1      46.500  27.682  32.381  1.00  0.00    -0.237 OA
ATOM     85  O   UNL A   1      47.781  26.098  30.991  1.00  0.00    -0.744 OA
ENDBRANCH  78  82
ENDBRANCH  61  75
BRANCH  62  86
ATOM     86  C   UNL A   1      44.879  39.899  27.367  1.00  0.00     0.023 A 
ATOM     87  C   UNL A   1      44.560  40.496  26.135  1.00  0.00     0.031 A 
ATOM     88  C   UNL A   1      45.148  40.747  28.457  1.00  0.00     0.131 A 
ATOM     89  C   UNL A   1      44.565  41.896  26.012  1.00  0.00     0.055 A 
ATOM     90  C   UNL A   1      45.090  42.137  28.345  1.00  0.00     0.041 A 
ATOM     91  F   UNL A   1      45.471  40.232  29.653  1.00  0.00    -0.206 F 
ATOM     92  C   UNL A   1      44.811  42.719  27.113  1.00  0.00     0.022 A 
BRANCH  89  93
ATOM     93  S   UNL A   1      44.346  42.625  24.366  1.00  0.00     0.124 S 
ATOM     94  O   UNL A   1      43.003  42.175  24.020  1.00  0.00    -0.237 OA
ATOM     95  O   UNL A   1      44.493  44.051  24.643  1.00  0.00    -0.237 OA
ATOM     96  O   UNL A   1      45.426  42.029  23.583  1.00  0.00    -0.744 OA
ENDBRANCH  89  93
ENDBRANCH  62  86
BRANCH  74  97
ATOM     97  C   UNL A   1      50.198  35.489  26.339  1.00  0.00     0.023 A 
ATOM     98  C   UNL A   1      51.298  35.557  27.214  1.00  0.00     0.031 A 
ATOM     99  C   UNL A   1      50.446  35.619  24.960  1.00  0.00     0.131 A 
ATOM    100  C   UNL A   1      52.584  35.807  26.705  1.00  0.00     0.055 A 
ATOM    101  C   UNL A   1      51.736  35.798  24.456  1.00  0.00     0.041 A 
ATOM    102  F   UNL A   1      49.436  35.570  24.076  1.00  0.00    -0.206 F 
ATOM    103  C   UNL A   1      52.812  35.906  25.330  1.00  0.00     0.022 A 
BRANCH 100 104
ATOM    104  S   UNL A   1      53.941  36.103  27.872  1.00  0.00     0.124 S 
ATOM    105  O   UNL A   1      53.247  36.735  28.988  1.00  0.00    -0.237 OA
ATOM    106  O   UNL A   1      54.445  34.756  28.114  1.00  0.00    -0.237 OA
ATOM    107  O   UNL A   1      54.846  36.979  27.129  1.00  0.00    -0.744 OA
ENDBRANCH 100 104
ENDBRANCH  74  97
ENDBRANCH  48  49
ENDBRANCH  41  43
ENDBRANCH  40  41
ENDBRANCH  39  40
ENDBRANCH  38  39
ENDBRANCH  37  38
ENDBRANCH  36  37
ENDBRANCH   1  36
TORSDOF 25
ENDMDL
MODEL 3
REMARK VINA RESULT:      -8.3      4.117     11.670
REMARK SMILES CS(=O)(=O)c1ccc(/C=C(/C(=O)OCCOCCOCCOC(=O)c2ccc(-c3c4nc(c(-c5cc(S(=O)(=O)[O-])ccc5F)c5ccc([nH]5)c(-c5cc(S(=O)(=O)[O-])ccc5F)c5nc(c(-c6cc(S(=O)(=O)[O-])ccc6F)c6ccc3[nH]6)C=C5)C=C4)cc2)c2cccc(-c3ccc(S(C)(=O)=O)cc3)c2)cc1
REMARK SMILES IDX 17 1 16 2 15 3 14 4 13 5 11 6 12 7 10 8 9 9 8 10 5 11 6 12
REMARK SMILES IDX 105 13 7 14 104 15 2 16 1 17 3 18 4 19 88 20 89 21 103 22
REMARK SMILES IDX 90 23 92 24 91 25 93 26 94 27 102 28 95 29 101 30 96 31
REMARK SMILES IDX 97 32 98 33 99 34 100 35 18 36 19 37 20 38 21 39 22 40 23 41
REMARK SMILES IDX 24 42 25 43 26 44 87 45 27 46 86 47 28 48 29 49 30 50 80 51
REMARK SMILES IDX 31 52 85 53 79 54 81 55 32 56 84 57 78 58 77 59 33 61 65 62
REMARK SMILES IDX 45 63 64 64 46 65 49 66 63 67 82 68 47 69 48 70 62 72 83 73
REMARK SMILES IDX 50 74 34 75 35 76 43 77 36 78 42 79 44 80 41 81 37 82 38 83
REMARK SMILES IDX 39 84 40 85 66 86 67 87 75 88 68 89 74 90 76 91 73 92 69 93
REMARK SMILES IDX 70 94 71 95 72 96 51 97 52 98 60 99 53 100 59 101 61 102
REMARK SMILES IDX 58 103 54 104 55 105 56 106 57 107
REMARK H PARENT 81 60 49 71
REMARK Flexibility Score: inf
ROOT
ATOM      1  C   UNL A   1      34.453  35.479  33.598  1.00  0.00     0.188 C 
ENDROOT
BRANCH   1   2
ATOM      2  O   UNL A   1      35.790  35.041  33.693  1.00  0.00    -0.376 OA
BRANCH   2   3
ATOM      3  C   UNL A   1      36.107  33.746  33.216  1.00  0.00     0.202 C 
BRANCH   3   4
ATOM      4  C   UNL A   1      37.240  33.465  32.205  1.00  0.00     0.261 C 
BRANCH   4   5
ATOM      5  O   UNL A   1      38.133  34.538  31.882  1.00  0.00    -0.460 OA
BRANCH   5   6
ATOM      6  C   UNL A   1      39.229  34.686  32.671  1.00  0.00     0.338 C 
ATOM      7  O   UNL A   1      39.205  34.850  33.881  1.00  0.00    -0.246 OA
BRANCH   6   8
ATOM      8  C   UNL A   1      40.496  34.501  31.883  1.00  0.00     0.067 C 
ATOM      9  C   UNL A   1      40.433  34.433  30.528  1.00  0.00     0.024 C 
BRANCH   9  10
ATOM     10  C   UNL A   1      41.546  34.493  29.541  1.00  0.00    -0.025 A 
ATOM     11  C   UNL A   1      43.957  34.885  28.153  1.00  0.00     0.067 A 
ATOM     12  C   UNL A   1      43.579  33.599  28.530  1.00  0.00     0.021 A 
ATOM     13  C   UNL A   1      43.091  35.960  28.351  1.00  0.00     0.021 A 
ATOM     14  C   UNL A   1      42.351  33.405  29.174  1.00  0.00     0.009 A 
ATOM     15  C   UNL A   1      41.889  35.759  29.038  1.00  0.00     0.009 A 
BRANCH  11  16
ATOM     16  S   UNL A   1      45.609  35.189  27.571  1.00  0.00     0.175 S 
ATOM     17  C   UNL A   1      46.306  33.573  27.403  1.00  0.00     0.163 C 
ATOM     18  O   UNL A   1      46.332  35.877  28.627  1.00  0.00    -0.224 OA
ATOM     19  O   UNL A   1      45.503  35.766  26.247  1.00  0.00    -0.224 OA
ENDBRANCH  11  16
ENDBRANCH   9  10
BRANCH   8  20
ATOM     20  C   UNL A   1      41.763  34.471  32.637  1.00  0.00    -0.010 A 
ATOM     21  C   UNL A   1      41.828  34.960  33.951  1.00  0.00     0.009 A 
ATOM     22  C   UNL A   1      42.882  33.830  32.103  1.00  0.00     0.017 A 
ATOM     23  C   UNL A   1      42.981  34.790  34.715  1.00  0.00     0.001 A 
ATOM     24  C   UNL A   1      44.032  33.610  32.878  1.00  0.00    -0.018 A 
ATOM     25  C   UNL A   1      44.072  34.109  34.186  1.00  0.00     0.009 A 
BRANCH  24  26
ATOM     26  C   UNL A   1      45.134  32.820  32.326  1.00  0.00    -0.018 A 
ATOM     27  C   UNL A   1      46.101  33.409  31.493  1.00  0.00     0.010 A 
ATOM     28  C   UNL A   1      45.269  31.466  32.671  1.00  0.00     0.010 A 
ATOM     29  C   UNL A   1      47.175  32.661  31.012  1.00  0.00     0.021 A 
ATOM     30  C   UNL A   1      46.336  30.711  32.194  1.00  0.00     0.021 A 
ATOM     31  C   UNL A   1      47.275  31.311  31.357  1.00  0.00     0.067 A 
BRANCH  31  32
ATOM     32  S   UNL A   1      48.604  30.346  30.697  1.00  0.00     0.175 S 
ATOM     33  C   UNL A   1      48.438  28.801  31.553  1.00  0.00     0.163 C 
ATOM     34  O   UNL A   1      48.330  30.127  29.289  1.00  0.00    -0.224 OA
ATOM     35  O   UNL A   1      49.853  30.958  31.115  1.00  0.00    -0.224 OA
ENDBRANCH  31  32
ENDBRANCH  24  26
ENDBRANCH   8  20
ENDBRANCH   6   8
ENDBRANCH   5   6
ENDBRANCH   4   5
ENDBRANCH   3   4
ENDBRANCH   2   3
ENDBRANCH   1   2
BRANCH   1  36
ATOM     36  C   UNL A   1      34.203  36.391  32.376  1.00  0.00     0.188 C 
BRANCH  36  37
ATOM     37  O   UNL A   1      33.406  35.930  31.296  1.00  0.00    -0.376 OA
BRANCH  37  38
ATOM     38  C   UNL A   1      33.691  34.663  30.723  1.00  0.00     0.202 C 
BRANCH  38  39
ATOM     39  C   UNL A   1      34.184  34.527  29.269  1.00  0.00     0.261 C 
BRANCH  39  40
ATOM     40  O   UNL A   1      35.384  33.769  29.043  1.00  0.00    -0.460 OA
BRANCH  40  41
ATOM     41  C   UNL A   1      35.199  32.460  28.722  1.00  0.00     0.338 C 
ATOM     42  O   UNL A   1      34.260  31.985  28.113  1.00  0.00    -0.246 OA
BRANCH  41  43
ATOM     43  C   UNL A   1      36.426  31.695  29.053  1.00  0.00     0.060 A 
ATOM     44  C   UNL A   1      36.292  30.469  29.718  1.00  0.00     0.016 A 
ATOM     45  C   UNL A   1      37.694  32.193  28.750  1.00  0.00     0.016 A 
ATOM     46  C   UNL A   1      37.425  29.739  30.085  1.00  0.00     0.010 A 
ATOM     47  C   UNL A   1      38.831  31.471  29.143  1.00  0.00     0.010 A 
ATOM     48  C   UNL A   1      38.704  30.247  29.823  1.00  0.00    -0.014 A 
BRANCH  48  49
ATOM     49  C   UNL A   1      39.897  29.580  30.407  1.00  0.00     0.031 A 
ATOM     50  C   UNL A   1      40.511  28.423  29.666  1.00  0.00     0.074 A 
ATOM     51  C   UNL A   1      40.443  30.000  31.562  1.00  0.00     0.049 A 
ATOM     52  N   UNL A   1      41.516  27.658  30.004  1.00  0.00    -0.248 NA
ATOM     53  C   UNL A   1      39.898  28.084  28.374  1.00  0.00     0.031 C 
ATOM     54  C   UNL A   1      39.968  31.132  32.355  1.00  0.00     0.029 A 
ATOM     55  N   UNL A   1      41.520  29.523  32.272  1.00  0.00    -0.354 N 
ATOM     56  C   UNL A   1      41.654  26.737  28.971  1.00  0.00     0.074 A 
ATOM     57  C   UNL A   1      40.611  27.028  28.010  1.00  0.00     0.031 C 
ATOM     58  C   UNL A   1      40.759  31.272  33.433  1.00  0.00     0.029 A 
ATOM     59  C   UNL A   1      41.753  30.199  33.448  1.00  0.00     0.049 A 
ATOM     60  H   UNL A   1      42.073  28.767  31.966  1.00  0.00     0.167 HD
ATOM     61  C   UNL A   1      42.564  25.740  28.839  1.00  0.00     0.034 A 
ATOM     62  C   UNL A   1      42.637  29.957  34.438  1.00  0.00     0.034 A 
ATOM     63  C   UNL A   1      43.577  25.438  29.819  1.00  0.00     0.049 A 
ATOM     64  C   UNL A   1      43.572  28.771  34.318  1.00  0.00     0.074 A 
ATOM     65  C   UNL A   1      44.547  24.452  29.779  1.00  0.00     0.029 A 
ATOM     66  N   UNL A   1      43.741  26.102  31.029  1.00  0.00    -0.354 N 
ATOM     67  N   UNL A   1      43.697  27.911  33.334  1.00  0.00    -0.248 NA
ATOM     68  C   UNL A   1      44.480  28.524  35.448  1.00  0.00     0.031 C 
ATOM     69  C   UNL A   1      45.237  24.462  30.996  1.00  0.00     0.029 A 
ATOM     70  C   UNL A   1      44.767  25.518  31.760  1.00  0.00     0.049 A 
ATOM     71  H   UNL A   1      43.208  26.874  31.325  1.00  0.00     0.167 HD
ATOM     72  C   UNL A   1      44.716  27.039  33.717  1.00  0.00     0.074 A 
ATOM     73  C   UNL A   1      45.184  27.491  35.009  1.00  0.00     0.031 C 
ATOM     74  C   UNL A   1      45.222  25.966  33.056  1.00  0.00     0.034 A 
BRANCH  61  75
ATOM     75  C   UNL A   1      42.449  24.859  27.617  1.00  0.00     0.023 A 
ATOM     76  C   UNL A   1      41.634  23.715  27.602  1.00  0.00     0.031 A 
ATOM     77  C   UNL A   1      43.198  25.149  26.461  1.00  0.00     0.131 A 
ATOM     78  C   UNL A   1      41.645  22.862  26.488  1.00  0.00     0.055 A 
ATOM     79  C   UNL A   1      43.136  24.344  25.323  1.00  0.00     0.041 A 
ATOM     80  F   UNL A   1      44.015  26.214  26.426  1.00  0.00    -0.206 F 
ATOM     81  C   UNL A   1      42.370  23.184  25.338  1.00  0.00     0.022 A 
BRANCH  78  82
ATOM     82  S   UNL A   1      40.830  21.248  26.627  1.00  0.00     0.124 S 
ATOM     83  O   UNL A   1      41.719  20.401  25.835  1.00  0.00    -0.237 OA
ATOM     84  O   UNL A   1      40.839  21.013  28.065  1.00  0.00    -0.237 OA
ATOM     85  O   UNL A   1      39.513  21.478  26.038  1.00  0.00    -0.744 OA
ENDBRANCH  78  82
ENDBRANCH  61  75
BRANCH  62  86
ATOM     86  C   UNL A   1      42.654  30.804  35.670  1.00  0.00     0.023 A 
ATOM     87  C   UNL A   1      41.463  31.169  36.319  1.00  0.00     0.031 A 
ATOM     88  C   UNL A   1      43.862  31.323  36.172  1.00  0.00     0.131 A 
ATOM     89  C   UNL A   1      41.501  32.063  37.402  1.00  0.00     0.055 A 
ATOM     90  C   UNL A   1      43.899  32.161  37.288  1.00  0.00     0.041 A 
ATOM     91  F   UNL A   1      45.029  31.019  35.584  1.00  0.00    -0.206 F 
ATOM     92  C   UNL A   1      42.712  32.547  37.901  1.00  0.00     0.022 A 
BRANCH  89  93
ATOM     93  S   UNL A   1      39.933  32.667  38.086  1.00  0.00     0.124 S 
ATOM     94  O   UNL A   1      38.960  31.898  37.317  1.00  0.00    -0.237 OA
ATOM     95  O   UNL A   1      40.060  32.312  39.497  1.00  0.00    -0.237 OA
ATOM     96  O   UNL A   1      39.965  34.099  37.800  1.00  0.00    -0.744 OA
ENDBRANCH  89  93
ENDBRANCH  62  86
BRANCH  74  97
ATOM     97  C   UNL A   1      46.379  25.232  33.699  1.00  0.00     0.023 A 
ATOM     98  C   UNL A   1      47.718  25.534  33.392  1.00  0.00     0.031 A 
ATOM     99  C   UNL A   1      46.134  24.212  34.637  1.00  0.00     0.131 A 
ATOM    100  C   UNL A   1      48.756  24.785  33.972  1.00  0.00     0.055 A 
ATOM    101  C   UNL A   1      47.172  23.518  35.262  1.00  0.00     0.041 A 
ATOM    102  F   UNL A   1      44.877  23.874  34.967  1.00  0.00    -0.206 F 
ATOM    103  C   UNL A   1      48.492  23.794  34.921  1.00  0.00     0.022 A 
BRANCH 100 104
ATOM    104  S   UNL A   1      50.454  25.053  33.391  1.00  0.00     0.124 S 
ATOM    105  O   UNL A   1      51.219  24.193  34.287  1.00  0.00    -0.237 OA
ATOM    106  O   UNL A   1      50.381  24.620  32.000  1.00  0.00    -0.237 OA
ATOM    107  O   UNL A   1      50.660  26.488  33.584  1.00  0.00    -0.744 OA
ENDBRANCH 100 104
ENDBRANCH  74  97
ENDBRANCH  48  49
ENDBRANCH  41  43
ENDBRANCH  40  41
ENDBRANCH  39  40
ENDBRANCH  38  39
ENDBRANCH  37  38
ENDBRANCH  36  37
ENDBRANCH   1  36
TORSDOF 25
ENDMDL
