MODEL 1
REMARK VINA RESULT:      -8.6      0.000      0.000
REMARK SMILES C#CCN(CC(=O)OCCOCCOCCOC(=O)c1ccc(-c2c3nc(c(-c4cc(S(=O)(=O)[O-])ccc4F)c4ccc([nH]4)c(-c4cc(S(=O)(=O)[O-])ccc4F)c4nc(c(-c5cc(S(=O)(=O)[O-])ccc5F)c5ccc2[nH]5)C=C4)C=C3)cc1)C(=O)N1CCC[C@@H]1C1CCCC1
REMARK SMILES IDX 12 1 11 2 10 3 9 4 8 5 6 6 7 7 5 8 4 9 3 10 2 11 1 12 83 13
REMARK SMILES IDX 84 14 85 15 86 16 89 17 87 18 88 19 90 20 91 21 94 22 92 23
REMARK SMILES IDX 93 24 13 25 14 26 15 27 16 28 17 29 18 30 19 31 20 32 21 33
REMARK SMILES IDX 82 34 22 35 81 36 23 37 24 38 25 39 75 40 26 41 80 42 74 43
REMARK SMILES IDX 76 44 27 45 79 46 73 47 72 48 28 50 60 51 40 52 59 53 41 54
REMARK SMILES IDX 44 55 58 56 77 57 42 58 43 59 57 61 78 62 45 63 29 64 30 65
REMARK SMILES IDX 38 66 31 67 37 68 39 69 36 70 32 71 33 72 34 73 35 74 61 75
REMARK SMILES IDX 62 76 70 77 63 78 69 79 71 80 68 81 64 82 65 83 66 84 67 85
REMARK SMILES IDX 46 86 47 87 55 88 48 89 54 90 56 91 53 92 49 93 50 94 51 95
REMARK SMILES IDX 52 96
REMARK H PARENT 76 49 44 60
REMARK Flexibility Score: inf
ROOT
ATOM      1  C   UNL A   1      35.708  30.478  27.746  1.00  0.00     0.188 C 
ENDROOT
BRANCH   1   2
ATOM      2  O   UNL A   1      35.258  29.152  28.026  1.00  0.00    -0.376 OA
BRANCH   2   3
ATOM      3  C   UNL A   1      34.294  28.604  27.129  1.00  0.00     0.202 C 
BRANCH   3   4
ATOM      4  C   UNL A   1      33.961  29.513  25.945  1.00  0.00     0.261 C 
BRANCH   4   5
ATOM      5  O   UNL A   1      32.576  29.927  25.940  1.00  0.00    -0.462 OA
BRANCH   5   6
ATOM      6  C   UNL A   1      31.714  28.935  25.579  1.00  0.00     0.325 C 
ATOM      7  O   UNL A   1      31.136  28.213  26.389  1.00  0.00    -0.250 OA
BRANCH   6   8
ATOM      8  C   UNL A   1      31.509  28.763  24.064  1.00  0.00     0.245 C 
BRANCH   8   9
ATOM      9  N   UNL A   1      30.983  27.498  23.534  1.00  0.00    -0.302 N 
BRANCH   9  10
ATOM     10  C   UNL A   1      29.571  27.271  23.661  1.00  0.00     0.211 C 
BRANCH  10  11
ATOM     11  C   UNL A   1      28.637  28.360  23.159  1.00  0.00    -0.085 C 
ATOM     12  C   UNL A   1      27.836  29.295  22.729  1.00  0.00     0.006 C 
ENDBRANCH  10  11
ENDBRANCH   9  10
BRANCH   9  13
ATOM     13  C   UNL A   1      31.637  26.472  22.921  1.00  0.00     0.321 C 
ATOM     14  O   UNL A   1      31.397  26.210  21.736  1.00  0.00    -0.248 OA
BRANCH  13  15
ATOM     15  N   UNL A   1      32.629  25.803  23.564  1.00  0.00    -0.321 N 
ATOM     16  C   UNL A   1      33.819  25.133  23.079  1.00  0.00     0.122 C 
ATOM     17  C   UNL A   1      32.378  25.459  24.958  1.00  0.00     0.090 C 
ATOM     18  C   UNL A   1      34.622  24.763  24.306  1.00  0.00     0.024 C 
ATOM     19  C   UNL A   1      33.780  25.223  25.485  1.00  0.00     0.027 C 
BRANCH  17  20
ATOM     20  C   UNL A   1      31.360  24.285  25.031  1.00  0.00     0.012 C 
ATOM     21  C   UNL A   1      31.935  22.884  25.264  1.00  0.00     0.006 C 
ATOM     22  C   UNL A   1      30.236  24.441  26.071  1.00  0.00     0.006 C 
ATOM     23  C   UNL A   1      30.777  22.114  25.876  1.00  0.00     0.000 C 
ATOM     24  C   UNL A   1      30.187  23.126  26.843  1.00  0.00     0.000 C 
ENDBRANCH  17  20
ENDBRANCH  13  15
ENDBRANCH   9  13
ENDBRANCH   8   9
ENDBRANCH   6   8
ENDBRANCH   5   6
ENDBRANCH   4   5
ENDBRANCH   3   4
ENDBRANCH   2   3
ENDBRANCH   1   2
BRANCH   1  25
ATOM     25  C   UNL A   1      35.997  31.365  28.959  1.00  0.00     0.188 C 
BRANCH  25  26
ATOM     26  O   UNL A   1      34.845  32.141  29.290  1.00  0.00    -0.376 OA
BRANCH  26  27
ATOM     27  C   UNL A   1      34.703  32.364  30.693  1.00  0.00     0.202 C 
BRANCH  27  28
ATOM     28  C   UNL A   1      35.493  33.604  31.113  1.00  0.00     0.261 C 
BRANCH  28  29
ATOM     29  O   UNL A   1      36.834  33.633  30.584  1.00  0.00    -0.460 OA
BRANCH  29  30
ATOM     30  C   UNL A   1      37.804  33.922  31.491  1.00  0.00     0.338 C 
ATOM     31  O   UNL A   1      37.717  33.818  32.695  1.00  0.00    -0.246 OA
BRANCH  30  32
ATOM     32  C   UNL A   1      39.046  34.316  30.780  1.00  0.00     0.060 A 
ATOM     33  C   UNL A   1      40.218  34.383  31.525  1.00  0.00     0.016 A 
ATOM     34  C   UNL A   1      39.081  34.624  29.413  1.00  0.00     0.016 A 
ATOM     35  C   UNL A   1      41.429  34.670  30.888  1.00  0.00     0.010 A 
ATOM     36  C   UNL A   1      40.299  34.959  28.787  1.00  0.00     0.010 A 
ATOM     37  C   UNL A   1      41.500  34.956  29.512  1.00  0.00    -0.014 A 
BRANCH  37  38
ATOM     38  C   UNL A   1      42.836  35.282  28.910  1.00  0.00     0.031 A 
ATOM     39  C   UNL A   1      43.822  34.160  28.683  1.00  0.00     0.074 A 
ATOM     40  C   UNL A   1      43.133  36.511  28.428  1.00  0.00     0.049 A 
ATOM     41  N   UNL A   1      44.983  34.185  28.079  1.00  0.00    -0.248 NA
ATOM     42  C   UNL A   1      43.423  32.826  29.157  1.00  0.00     0.031 C 
ATOM     43  C   UNL A   1      42.236  37.664  28.437  1.00  0.00     0.029 A 
ATOM     44  N   UNL A   1      44.262  36.991  27.796  1.00  0.00    -0.354 N 
ATOM     45  C   UNL A   1      45.427  32.868  28.066  1.00  0.00     0.074 A 
ATOM     46  C   UNL A   1      44.393  32.066  28.681  1.00  0.00     0.031 C 
ATOM     47  C   UNL A   1      42.824  38.695  27.805  1.00  0.00     0.029 A 
ATOM     48  C   UNL A   1      44.186  38.321  27.430  1.00  0.00     0.049 A 
ATOM     49  H   UNL A   1      45.054  36.433  27.621  1.00  0.00     0.167 HD
ATOM     50  C   UNL A   1      46.613  32.365  27.644  1.00  0.00     0.034 A 
ATOM     51  C   UNL A   1      45.116  39.154  26.905  1.00  0.00     0.034 A 
ATOM     52  C   UNL A   1      47.716  33.175  27.205  1.00  0.00     0.049 A 
ATOM     53  C   UNL A   1      46.511  38.611  26.664  1.00  0.00     0.074 A 
ATOM     54  C   UNL A   1      49.021  32.792  26.955  1.00  0.00     0.029 A 
ATOM     55  N   UNL A   1      47.657  34.547  27.006  1.00  0.00    -0.354 N 
ATOM     56  N   UNL A   1      46.940  37.371  26.731  1.00  0.00    -0.248 NA
ATOM     57  C   UNL A   1      47.559  39.584  26.317  1.00  0.00     0.031 C 
ATOM     58  C   UNL A   1      49.770  33.945  26.686  1.00  0.00     0.029 A 
ATOM     59  C   UNL A   1      48.914  35.034  26.688  1.00  0.00     0.049 A 
ATOM     60  H   UNL A   1      46.843  35.094  27.080  1.00  0.00     0.167 HD
ATOM     61  C   UNL A   1      48.301  37.422  26.436  1.00  0.00     0.074 A 
ATOM     62  C   UNL A   1      48.615  38.804  26.148  1.00  0.00     0.031 C 
ATOM     63  C   UNL A   1      49.217  36.419  26.418  1.00  0.00     0.034 A 
BRANCH  50  64
ATOM     64  C   UNL A   1      46.804  30.886  27.840  1.00  0.00     0.023 A 
ATOM     65  C   UNL A   1      46.419  29.955  26.860  1.00  0.00     0.031 A 
ATOM     66  C   UNL A   1      47.249  30.403  29.083  1.00  0.00     0.131 A 
ATOM     67  C   UNL A   1      46.423  28.587  27.167  1.00  0.00     0.055 A 
ATOM     68  C   UNL A   1      47.311  29.038  29.359  1.00  0.00     0.041 A 
ATOM     69  F   UNL A   1      47.583  31.255  30.065  1.00  0.00    -0.206 F 
ATOM     70  C   UNL A   1      46.883  28.121  28.403  1.00  0.00     0.022 A 
BRANCH  67  71
ATOM     71  S   UNL A   1      45.673  27.426  25.991  1.00  0.00     0.124 S 
ATOM     72  O   UNL A   1      45.346  28.310  24.873  1.00  0.00    -0.237 OA
ATOM     73  O   UNL A   1      46.751  26.472  25.757  1.00  0.00    -0.237 OA
ATOM     74  O   UNL A   1      44.520  26.899  26.717  1.00  0.00    -0.744 OA
ENDBRANCH  67  71
ENDBRANCH  50  64
BRANCH  51  75
ATOM     75  C   UNL A   1      44.847  40.619  26.697  1.00  0.00     0.023 A 
ATOM     76  C   UNL A   1      44.350  41.118  25.477  1.00  0.00     0.031 A 
ATOM     77  C   UNL A   1      45.222  41.565  27.673  1.00  0.00     0.131 A 
ATOM     78  C   UNL A   1      44.300  42.507  25.248  1.00  0.00     0.055 A 
ATOM     79  C   UNL A   1      45.101  42.941  27.467  1.00  0.00     0.041 A 
ATOM     80  F   UNL A   1      45.737  41.166  28.846  1.00  0.00    -0.206 F 
ATOM     81  C   UNL A   1      44.655  43.420  26.241  1.00  0.00     0.022 A 
BRANCH  78  82
ATOM     82  S   UNL A   1      43.900  43.112  23.581  1.00  0.00     0.124 S 
ATOM     83  O   UNL A   1      44.741  42.261  22.746  1.00  0.00    -0.237 OA
ATOM     84  O   UNL A   1      42.464  42.869  23.507  1.00  0.00    -0.237 OA
ATOM     85  O   UNL A   1      44.290  44.520  23.627  1.00  0.00    -0.744 OA
ENDBRANCH  78  82
ENDBRANCH  51  75
BRANCH  63  86
ATOM     86  C   UNL A   1      50.640  36.780  26.070  1.00  0.00     0.023 A 
ATOM     87  C   UNL A   1      51.574  37.134  27.060  1.00  0.00     0.031 A 
ATOM     88  C   UNL A   1      51.073  36.741  24.733  1.00  0.00     0.131 A 
ATOM     89  C   UNL A   1      52.886  37.473  26.694  1.00  0.00     0.055 A 
ATOM     90  C   UNL A   1      52.393  37.028  24.381  1.00  0.00     0.041 A 
ATOM     91  F   UNL A   1      50.223  36.407  23.749  1.00  0.00    -0.206 F 
ATOM     92  C   UNL A   1      53.305  37.405  25.363  1.00  0.00     0.022 A 
BRANCH  89  93
ATOM     93  S   UNL A   1      54.027  38.059  27.976  1.00  0.00     0.124 S 
ATOM     94  O   UNL A   1      55.295  38.112  27.254  1.00  0.00    -0.237 OA
ATOM     95  O   UNL A   1      53.450  39.348  28.345  1.00  0.00    -0.237 OA
ATOM     96  O   UNL A   1      53.944  37.027  29.008  1.00  0.00    -0.744 OA
ENDBRANCH  89  93
ENDBRANCH  63  86
ENDBRANCH  37  38
ENDBRANCH  30  32
ENDBRANCH  29  30
ENDBRANCH  28  29
ENDBRANCH  27  28
ENDBRANCH  26  27
ENDBRANCH  25  26
ENDBRANCH   1  25
TORSDOF 26
ENDMDL
MODEL 2
REMARK VINA RESULT:      -8.2      1.864      2.437
REMARK SMILES C#CCN(CC(=O)OCCOCCOCCOC(=O)c1ccc(-c2c3nc(c(-c4cc(S(=O)(=O)[O-])ccc4F)c4ccc([nH]4)c(-c4cc(S(=O)(=O)[O-])ccc4F)c4nc(c(-c5cc(S(=O)(=O)[O-])ccc5F)c5ccc2[nH]5)C=C4)C=C3)cc1)C(=O)N1CCC[C@@H]1C1CCCC1
REMARK SMILES IDX 12 1 11 2 10 3 9 4 8 5 6 6 7 7 5 8 4 9 3 10 2 11 1 12 83 13
REMARK SMILES IDX 84 14 85 15 86 16 89 17 87 18 88 19 90 20 91 21 94 22 92 23
REMARK SMILES IDX 93 24 13 25 14 26 15 27 16 28 17 29 18 30 19 31 20 32 21 33
REMARK SMILES IDX 82 34 22 35 81 36 23 37 24 38 25 39 75 40 26 41 80 42 74 43
REMARK SMILES IDX 76 44 27 45 79 46 73 47 72 48 28 50 60 51 40 52 59 53 41 54
REMARK SMILES IDX 44 55 58 56 77 57 42 58 43 59 57 61 78 62 45 63 29 64 30 65
REMARK SMILES IDX 38 66 31 67 37 68 39 69 36 70 32 71 33 72 34 73 35 74 61 75
REMARK SMILES IDX 62 76 70 77 63 78 69 79 71 80 68 81 64 82 65 83 66 84 67 85
REMARK SMILES IDX 46 86 47 87 55 88 48 89 54 90 56 91 53 92 49 93 50 94 51 95
REMARK SMILES IDX 52 96
REMARK H PARENT 76 49 44 60
REMARK Flexibility Score: inf
ROOT
ATOM      1  C   UNL A   1      34.467  31.407  27.698  1.00  0.00     0.188 C 
ENDROOT
BRANCH   1   2
ATOM      2  O   UNL A   1      33.406  30.450  27.721  1.00  0.00    -0.376 OA
BRANCH   2   3
ATOM      3  C   UNL A   1      32.355  30.644  26.776  1.00  0.00     0.202 C 
BRANCH   3   4
ATOM      4  C   UNL A   1      32.480  29.776  25.522  1.00  0.00     0.261 C 
BRANCH   4   5
ATOM      5  O   UNL A   1      32.452  28.363  25.826  1.00  0.00    -0.462 OA
BRANCH   5   6
ATOM      6  C   UNL A   1      33.654  27.746  25.655  1.00  0.00     0.325 C 
ATOM      7  O   UNL A   1      34.665  28.047  26.288  1.00  0.00    -0.250 OA
BRANCH   6   8
ATOM      8  C   UNL A   1      33.677  26.633  24.594  1.00  0.00     0.245 C 
BRANCH   8   9
ATOM      9  N   UNL A   1      32.462  26.323  23.830  1.00  0.00    -0.302 N 
BRANCH   9  10
ATOM     10  C   UNL A   1      31.877  27.389  23.067  1.00  0.00     0.211 C 
BRANCH  10  11
ATOM     11  C   UNL A   1      30.380  27.610  23.203  1.00  0.00    -0.085 C 
ATOM     12  C   UNL A   1      29.095  27.800  23.320  1.00  0.00     0.006 C 
ENDBRANCH  10  11
ENDBRANCH   9  10
BRANCH   9  13
ATOM     13  C   UNL A   1      31.777  25.150  23.723  1.00  0.00     0.321 C 
ATOM     14  O   UNL A   1      31.652  24.609  22.617  1.00  0.00    -0.248 OA
BRANCH  13  15
ATOM     15  N   UNL A   1      31.323  24.511  24.832  1.00  0.00    -0.321 N 
ATOM     16  C   UNL A   1      30.785  25.004  26.083  1.00  0.00     0.122 C 
ATOM     17  C   UNL A   1      31.635  23.090  24.931  1.00  0.00     0.090 C 
ATOM     18  C   UNL A   1      30.271  23.791  26.826  1.00  0.00     0.024 C 
ATOM     19  C   UNL A   1      30.604  22.609  25.933  1.00  0.00     0.027 C 
BRANCH  17  20
ATOM     20  C   UNL A   1      33.139  22.909  25.281  1.00  0.00     0.012 C 
ATOM     21  C   UNL A   1      33.462  22.268  26.635  1.00  0.00     0.006 C 
ATOM     22  C   UNL A   1      33.974  22.125  24.252  1.00  0.00     0.006 C 
ATOM     23  C   UNL A   1      34.851  21.685  26.438  1.00  0.00     0.000 C 
ATOM     24  C   UNL A   1      34.760  21.087  25.045  1.00  0.00     0.000 C 
ENDBRANCH  17  20
ENDBRANCH  13  15
ENDBRANCH   9  13
ENDBRANCH   8   9
ENDBRANCH   6   8
ENDBRANCH   5   6
ENDBRANCH   4   5
ENDBRANCH   3   4
ENDBRANCH   2   3
ENDBRANCH   1   2
BRANCH   1  25
ATOM     25  C   UNL A   1      34.116  32.818  28.176  1.00  0.00     0.188 C 
BRANCH  25  26
ATOM     26  O   UNL A   1      35.008  33.224  29.215  1.00  0.00    -0.376 OA
BRANCH  26  27
ATOM     27  C   UNL A   1      35.650  32.127  29.864  1.00  0.00     0.202 C 
BRANCH  27  28
ATOM     28  C   UNL A   1      36.224  32.573  31.210  1.00  0.00     0.261 C 
BRANCH  28  29
ATOM     29  O   UNL A   1      36.942  33.822  31.139  1.00  0.00    -0.460 OA
BRANCH  29  30
ATOM     30  C   UNL A   1      37.982  33.938  32.004  1.00  0.00     0.338 C 
ATOM     31  O   UNL A   1      37.952  33.728  33.197  1.00  0.00    -0.246 OA
BRANCH  30  32
ATOM     32  C   UNL A   1      39.215  34.287  31.253  1.00  0.00     0.060 A 
ATOM     33  C   UNL A   1      40.413  34.301  31.959  1.00  0.00     0.016 A 
ATOM     34  C   UNL A   1      39.216  34.603  29.888  1.00  0.00     0.016 A 
ATOM     35  C   UNL A   1      41.613  34.544  31.283  1.00  0.00     0.010 A 
ATOM     36  C   UNL A   1      40.425  34.893  29.224  1.00  0.00     0.010 A 
ATOM     37  C   UNL A   1      41.648  34.837  29.907  1.00  0.00    -0.014 A 
BRANCH  37  38
ATOM     38  C   UNL A   1      42.976  35.113  29.262  1.00  0.00     0.031 A 
ATOM     39  C   UNL A   1      43.845  33.945  28.861  1.00  0.00     0.074 A 
ATOM     40  C   UNL A   1      43.356  36.359  28.893  1.00  0.00     0.049 A 
ATOM     41  N   UNL A   1      44.971  33.937  28.194  1.00  0.00    -0.248 NA
ATOM     42  C   UNL A   1      43.353  32.605  29.219  1.00  0.00     0.031 C 
ATOM     43  C   UNL A   1      42.567  37.574  29.075  1.00  0.00     0.029 A 
ATOM     44  N   UNL A   1      44.490  36.808  28.246  1.00  0.00    -0.354 N 
ATOM     45  C   UNL A   1      45.294  32.597  28.018  1.00  0.00     0.074 A 
ATOM     46  C   UNL A   1      44.226  31.822  28.609  1.00  0.00     0.031 C 
ATOM     47  C   UNL A   1      43.212  38.615  28.518  1.00  0.00     0.029 A 
ATOM     48  C   UNL A   1      44.514  38.172  28.024  1.00  0.00     0.049 A 
ATOM     49  H   UNL A   1      45.219  36.208  27.966  1.00  0.00     0.167 HD
ATOM     50  C   UNL A   1      46.406  32.046  27.475  1.00  0.00     0.034 A 
ATOM     51  C   UNL A   1      45.487  38.975  27.533  1.00  0.00     0.034 A 
ATOM     52  C   UNL A   1      47.554  32.803  27.057  1.00  0.00     0.049 A 
ATOM     53  C   UNL A   1      46.814  38.347  27.153  1.00  0.00     0.074 A 
ATOM     54  C   UNL A   1      48.805  32.342  26.689  1.00  0.00     0.029 A 
ATOM     55  N   UNL A   1      47.608  34.189  27.004  1.00  0.00    -0.354 N 
ATOM     56  N   UNL A   1      47.133  37.076  27.066  1.00  0.00    -0.248 NA
ATOM     57  C   UNL A   1      47.925  39.261  26.846  1.00  0.00     0.031 C 
ATOM     58  C   UNL A   1      49.639  33.450  26.496  1.00  0.00     0.029 A 
ATOM     59  C   UNL A   1      48.886  34.601  26.662  1.00  0.00     0.049 A 
ATOM     60  H   UNL A   1      46.850  34.791  27.183  1.00  0.00     0.167 HD
ATOM     61  C   UNL A   1      48.476  37.044  26.695  1.00  0.00     0.074 A 
ATOM     62  C   UNL A   1      48.897  38.419  26.533  1.00  0.00     0.031 C 
ATOM     63  C   UNL A   1      49.296  35.977  26.519  1.00  0.00     0.034 A 
BRANCH  50  64
ATOM     64  C   UNL A   1      46.475  30.543  27.506  1.00  0.00     0.023 A 
ATOM     65  C   UNL A   1      45.705  29.751  26.637  1.00  0.00     0.031 A 
ATOM     66  C   UNL A   1      47.217  29.903  28.514  1.00  0.00     0.131 A 
ATOM     67  C   UNL A   1      45.643  28.364  26.838  1.00  0.00     0.055 A 
ATOM     68  C   UNL A   1      47.200  28.518  28.668  1.00  0.00     0.041 A 
ATOM     69  F   UNL A   1      47.930  30.621  29.396  1.00  0.00    -0.206 F 
ATOM     70  C   UNL A   1      46.399  27.741  27.836  1.00  0.00     0.022 A 
BRANCH  67  71
ATOM     71  S   UNL A   1      44.442  27.396  25.882  1.00  0.00     0.124 S 
ATOM     72  O   UNL A   1      43.896  26.510  26.908  1.00  0.00    -0.237 OA
ATOM     73  O   UNL A   1      43.538  28.423  25.377  1.00  0.00    -0.237 OA
ATOM     74  O   UNL A   1      45.263  26.736  24.870  1.00  0.00    -0.744 OA
ENDBRANCH  67  71
ENDBRANCH  50  64
BRANCH  51  75
ATOM     75  C   UNL A   1      45.340  40.472  27.494  1.00  0.00     0.023 A 
ATOM     76  C   UNL A   1      45.294  41.245  28.671  1.00  0.00     0.031 A 
ATOM     77  C   UNL A   1      45.097  41.139  26.277  1.00  0.00     0.131 A 
ATOM     78  C   UNL A   1      44.955  42.611  28.608  1.00  0.00     0.055 A 
ATOM     79  C   UNL A   1      44.834  42.510  26.215  1.00  0.00     0.041 A 
ATOM     80  F   UNL A   1      45.089  40.463  25.119  1.00  0.00    -0.206 F 
ATOM     81  C   UNL A   1      44.743  43.251  27.387  1.00  0.00     0.022 A 
BRANCH  78  82
ATOM     82  S   UNL A   1      44.653  43.518  30.155  1.00  0.00     0.124 S 
ATOM     83  O   UNL A   1      43.558  42.751  30.739  1.00  0.00    -0.237 OA
ATOM     84  O   UNL A   1      45.944  43.410  30.826  1.00  0.00    -0.237 OA
ATOM     85  O   UNL A   1      44.299  44.861  29.699  1.00  0.00    -0.744 OA
ENDBRANCH  78  82
ENDBRANCH  51  75
BRANCH  63  86
ATOM     86  C   UNL A   1      50.726  36.253  26.125  1.00  0.00     0.023 A 
ATOM     87  C   UNL A   1      51.767  36.245  27.070  1.00  0.00     0.031 A 
ATOM     88  C   UNL A   1      51.054  36.499  24.780  1.00  0.00     0.131 A 
ATOM     89  C   UNL A   1      53.082  36.517  26.665  1.00  0.00     0.055 A 
ATOM     90  C   UNL A   1      52.372  36.717  24.374  1.00  0.00     0.041 A 
ATOM     91  F   UNL A   1      50.100  36.516  23.835  1.00  0.00    -0.206 F 
ATOM     92  C   UNL A   1      53.393  36.735  25.320  1.00  0.00     0.022 A 
BRANCH  89  93
ATOM     93  S   UNL A   1      54.379  36.637  27.927  1.00  0.00     0.124 S 
ATOM     94  O   UNL A   1      54.387  35.289  28.486  1.00  0.00    -0.237 OA
ATOM     95  O   UNL A   1      55.550  37.008  27.139  1.00  0.00    -0.237 OA
ATOM     96  O   UNL A   1      53.886  37.679  28.827  1.00  0.00    -0.744 OA
ENDBRANCH  89  93
ENDBRANCH  63  86
ENDBRANCH  37  38
ENDBRANCH  30  32
ENDBRANCH  29  30
ENDBRANCH  28  29
ENDBRANCH  27  28
ENDBRANCH  26  27
ENDBRANCH  25  26
ENDBRANCH   1  25
TORSDOF 26
ENDMDL
MODEL 3
REMARK VINA RESULT:      -8.2      9.264     17.165
REMARK SMILES C#CCN(CC(=O)OCCOCCOCCOC(=O)c1ccc(-c2c3nc(c(-c4cc(S(=O)(=O)[O-])ccc4F)c4ccc([nH]4)c(-c4cc(S(=O)(=O)[O-])ccc4F)c4nc(c(-c5cc(S(=O)(=O)[O-])ccc5F)c5ccc2[nH]5)C=C4)C=C3)cc1)C(=O)N1CCC[C@@H]1C1CCCC1
REMARK SMILES IDX 12 1 11 2 10 3 9 4 8 5 6 6 7 7 5 8 4 9 3 10 2 11 1 12 83 13
REMARK SMILES IDX 84 14 85 15 86 16 89 17 87 18 88 19 90 20 91 21 94 22 92 23
REMARK SMILES IDX 93 24 13 25 14 26 15 27 16 28 17 29 18 30 19 31 20 32 21 33
REMARK SMILES IDX 82 34 22 35 81 36 23 37 24 38 25 39 75 40 26 41 80 42 74 43
REMARK SMILES IDX 76 44 27 45 79 46 73 47 72 48 28 50 60 51 40 52 59 53 41 54
REMARK SMILES IDX 44 55 58 56 77 57 42 58 43 59 57 61 78 62 45 63 29 64 30 65
REMARK SMILES IDX 38 66 31 67 37 68 39 69 36 70 32 71 33 72 34 73 35 74 61 75
REMARK SMILES IDX 62 76 70 77 63 78 69 79 71 80 68 81 64 82 65 83 66 84 67 85
REMARK SMILES IDX 46 86 47 87 55 88 48 89 54 90 56 91 53 92 49 93 50 94 51 95
REMARK SMILES IDX 52 96
REMARK H PARENT 76 49 44 60
REMARK Flexibility Score: inf
ROOT
ATOM      1  C   UNL A   1      46.548  21.811  37.337  1.00  0.00     0.188 C 
ENDROOT
BRANCH   1   2
ATOM      2  O   UNL A   1      47.061  20.527  37.699  1.00  0.00    -0.376 OA
BRANCH   2   3
ATOM      3  C   UNL A   1      48.245  20.515  38.494  1.00  0.00     0.202 C 
BRANCH   3   4
ATOM      4  C   UNL A   1      49.536  20.397  37.682  1.00  0.00     0.261 C 
BRANCH   4   5
ATOM      5  O   UNL A   1      49.322  19.782  36.392  1.00  0.00    -0.462 OA
BRANCH   5   6
ATOM      6  C   UNL A   1      50.430  19.778  35.600  1.00  0.00     0.325 C 
ATOM      7  O   UNL A   1      51.316  18.929  35.681  1.00  0.00    -0.250 OA
BRANCH   6   8
ATOM      8  C   UNL A   1      50.515  20.928  34.582  1.00  0.00     0.245 C 
BRANCH   8   9
ATOM      9  N   UNL A   1      51.602  21.910  34.673  1.00  0.00    -0.302 N 
BRANCH   9  10
ATOM     10  C   UNL A   1      52.945  21.413  34.563  1.00  0.00     0.211 C 
BRANCH  10  11
ATOM     11  C   UNL A   1      53.474  21.125  33.167  1.00  0.00    -0.085 C 
ATOM     12  C   UNL A   1      53.928  20.877  31.970  1.00  0.00     0.006 C 
ENDBRANCH  10  11
ENDBRANCH   9  10
BRANCH   9  13
ATOM     13  C   UNL A   1      51.544  23.260  34.850  1.00  0.00     0.321 C 
ATOM     14  O   UNL A   1      51.757  23.743  35.969  1.00  0.00    -0.248 OA
BRANCH  13  15
ATOM     15  N   UNL A   1      51.364  24.089  33.790  1.00  0.00    -0.321 N 
ATOM     16  C   UNL A   1      50.538  23.982  32.605  1.00  0.00     0.122 C 
ATOM     17  C   UNL A   1      52.328  25.174  33.649  1.00  0.00     0.090 C 
ATOM     18  C   UNL A   1      50.624  25.323  31.911  1.00  0.00     0.024 C 
ATOM     19  C   UNL A   1      51.581  26.146  32.756  1.00  0.00     0.027 C 
BRANCH  17  20
ATOM     20  C   UNL A   1      53.684  24.606  33.142  1.00  0.00     0.012 C 
ATOM     21  C   UNL A   1      54.229  25.184  31.832  1.00  0.00     0.006 C 
ATOM     22  C   UNL A   1      54.854  24.686  34.139  1.00  0.00     0.006 C 
ATOM     23  C   UNL A   1      55.726  24.933  31.921  1.00  0.00     0.000 C 
ATOM     24  C   UNL A   1      56.029  25.278  33.368  1.00  0.00     0.000 C 
ENDBRANCH  17  20
ENDBRANCH  13  15
ENDBRANCH   9  13
ENDBRANCH   8   9
ENDBRANCH   6   8
ENDBRANCH   5   6
ENDBRANCH   4   5
ENDBRANCH   3   4
ENDBRANCH   2   3
ENDBRANCH   1   2
BRANCH   1  25
ATOM     25  C   UNL A   1      46.394  22.080  35.838  1.00  0.00     0.188 C 
BRANCH  25  26
ATOM     26  O   UNL A   1      47.662  22.390  35.259  1.00  0.00    -0.376 OA
BRANCH  26  27
ATOM     27  C   UNL A   1      47.836  23.782  35.000  1.00  0.00     0.202 C 
BRANCH  27  28
ATOM     28  C   UNL A   1      48.394  24.484  36.239  1.00  0.00     0.261 C 
BRANCH  28  29
ATOM     29  O   UNL A   1      47.724  25.724  36.544  1.00  0.00    -0.460 OA
BRANCH  29  30
ATOM     30  C   UNL A   1      46.445  25.595  36.980  1.00  0.00     0.338 C 
ATOM     31  O   UNL A   1      46.086  25.080  38.017  1.00  0.00    -0.246 OA
BRANCH  30  32
ATOM     32  C   UNL A   1      45.525  26.263  36.024  1.00  0.00     0.060 A 
ATOM     33  C   UNL A   1      44.242  25.743  35.899  1.00  0.00     0.016 A 
ATOM     34  C   UNL A   1      45.897  27.372  35.252  1.00  0.00     0.016 A 
ATOM     35  C   UNL A   1      43.312  26.383  35.074  1.00  0.00     0.010 A 
ATOM     36  C   UNL A   1      44.968  27.983  34.386  1.00  0.00     0.010 A 
ATOM     37  C   UNL A   1      43.648  27.515  34.308  1.00  0.00    -0.014 A 
BRANCH  37  38
ATOM     38  C   UNL A   1      42.599  28.126  33.425  1.00  0.00     0.031 A 
ATOM     39  C   UNL A   1      41.638  29.125  34.025  1.00  0.00     0.074 A 
ATOM     40  C   UNL A   1      42.576  27.931  32.086  1.00  0.00     0.049 A 
ATOM     41  N   UNL A   1      40.729  29.860  33.437  1.00  0.00    -0.248 NA
ATOM     42  C   UNL A   1      41.752  29.360  35.474  1.00  0.00     0.031 C 
ATOM     43  C   UNL A   1      43.523  27.113  31.332  1.00  0.00     0.029 A 
ATOM     44  N   UNL A   1      41.745  28.440  31.108  1.00  0.00    -0.354 N 
ATOM     45  C   UNL A   1      40.197  30.669  34.434  1.00  0.00     0.074 A 
ATOM     46  C   UNL A   1      40.914  30.367  35.652  1.00  0.00     0.031 C 
ATOM     47  C   UNL A   1      43.253  27.211  30.018  1.00  0.00     0.029 A 
ATOM     48  C   UNL A   1      42.048  28.014  29.828  1.00  0.00     0.049 A 
ATOM     49  H   UNL A   1      41.001  29.054  31.305  1.00  0.00     0.167 HD
ATOM     50  C   UNL A   1      39.163  31.542  34.371  1.00  0.00     0.034 A 
ATOM     51  C   UNL A   1      41.404  28.204  28.653  1.00  0.00     0.034 A 
ATOM     52  C   UNL A   1      38.325  31.711  33.216  1.00  0.00     0.049 A 
ATOM     53  C   UNL A   1      40.111  28.996  28.662  1.00  0.00     0.074 A 
ATOM     54  C   UNL A   1      37.135  32.406  33.108  1.00  0.00     0.029 A 
ATOM     55  N   UNL A   1      38.564  31.131  31.978  1.00  0.00    -0.354 N 
ATOM     56  N   UNL A   1      39.575  29.695  29.637  1.00  0.00    -0.248 NA
ATOM     57  C   UNL A   1      39.312  28.991  27.426  1.00  0.00     0.031 C 
ATOM     58  C   UNL A   1      36.611  32.176  31.829  1.00  0.00     0.029 A 
ATOM     59  C   UNL A   1      37.515  31.407  31.115  1.00  0.00     0.049 A 
ATOM     60  H   UNL A   1      39.359  30.601  31.746  1.00  0.00     0.167 HD
ATOM     61  C   UNL A   1      38.383  30.208  29.128  1.00  0.00     0.074 A 
ATOM     62  C   UNL A   1      38.297  29.776  27.751  1.00  0.00     0.031 C 
ATOM     63  C   UNL A   1      37.434  30.957  29.747  1.00  0.00     0.034 A 
BRANCH  50  64
ATOM     64  C   UNL A   1      38.791  32.211  35.667  1.00  0.00     0.023 A 
ATOM     65  C   UNL A   1      38.241  31.489  36.740  1.00  0.00     0.031 A 
ATOM     66  C   UNL A   1      38.860  33.612  35.769  1.00  0.00     0.131 A 
ATOM     67  C   UNL A   1      37.720  32.180  37.843  1.00  0.00     0.055 A 
ATOM     68  C   UNL A   1      38.397  34.287  36.897  1.00  0.00     0.041 A 
ATOM     69  F   UNL A   1      39.334  34.346  34.750  1.00  0.00    -0.206 F 
ATOM     70  C   UNL A   1      37.810  33.573  37.936  1.00  0.00     0.022 A 
BRANCH  67  71
ATOM     71  S   UNL A   1      36.779  31.254  39.088  1.00  0.00     0.124 S 
ATOM     72  O   UNL A   1      35.522  32.000  39.122  1.00  0.00    -0.237 OA
ATOM     73  O   UNL A   1      36.713  29.919  38.507  1.00  0.00    -0.237 OA
ATOM     74  O   UNL A   1      37.597  31.370  40.293  1.00  0.00    -0.744 OA
ENDBRANCH  67  71
ENDBRANCH  50  64
BRANCH  51  75
ATOM     75  C   UNL A   1      41.851  27.535  27.381  1.00  0.00     0.023 A 
ATOM     76  C   UNL A   1      41.809  26.136  27.223  1.00  0.00     0.031 A 
ATOM     77  C   UNL A   1      42.466  28.279  26.355  1.00  0.00     0.131 A 
ATOM     78  C   UNL A   1      42.419  25.530  26.107  1.00  0.00     0.055 A 
ATOM     79  C   UNL A   1      43.004  27.679  25.214  1.00  0.00     0.041 A 
ATOM     80  F   UNL A   1      42.575  29.613  26.452  1.00  0.00    -0.206 F 
ATOM     81  C   UNL A   1      42.999  26.294  25.094  1.00  0.00     0.022 A 
BRANCH  78  82
ATOM     82  S   UNL A   1      42.573  23.720  26.060  1.00  0.00     0.124 S 
ATOM     83  O   UNL A   1      41.192  23.298  26.268  1.00  0.00    -0.237 OA
ATOM     84  O   UNL A   1      43.119  23.498  24.725  1.00  0.00    -0.237 OA
ATOM     85  O   UNL A   1      43.487  23.427  27.162  1.00  0.00    -0.744 OA
ENDBRANCH  78  82
ENDBRANCH  51  75
BRANCH  63  86
ATOM     86  C   UNL A   1      36.227  31.361  28.937  1.00  0.00     0.023 A 
ATOM     87  C   UNL A   1      35.313  30.410  28.450  1.00  0.00     0.031 A 
ATOM     88  C   UNL A   1      35.974  32.719  28.674  1.00  0.00     0.131 A 
ATOM     89  C   UNL A   1      34.208  30.826  27.692  1.00  0.00     0.055 A 
ATOM     90  C   UNL A   1      34.845  33.131  27.964  1.00  0.00     0.041 A 
ATOM     91  F   UNL A   1      36.813  33.669  29.117  1.00  0.00    -0.206 F 
ATOM     92  C   UNL A   1      33.960  32.182  27.461  1.00  0.00     0.022 A 
BRANCH  89  93
ATOM     93  S   UNL A   1      33.125  29.568  26.961  1.00  0.00     0.124 S 
ATOM     94  O   UNL A   1      33.550  28.358  27.657  1.00  0.00    -0.237 OA
ATOM     95  O   UNL A   1      31.795  30.064  27.298  1.00  0.00    -0.237 OA
ATOM     96  O   UNL A   1      33.459  29.614  25.538  1.00  0.00    -0.744 OA
ENDBRANCH  89  93
ENDBRANCH  63  86
ENDBRANCH  37  38
ENDBRANCH  30  32
ENDBRANCH  29  30
ENDBRANCH  28  29
ENDBRANCH  27  28
ENDBRANCH  26  27
ENDBRANCH  25  26
ENDBRANCH   1  25
TORSDOF 26
ENDMDL
