MODEL 1
REMARK VINA RESULT:     -10.4      0.000      0.000
REMARK SMILES C[C@@](NC(=O)c1cc(Br)c[nH]1)(C(=O)OCCOCCOCCOC(=O)c1ccc(-c2c3nc(c(-c4cc(S(=O)(=O)[O-])ccc4F)c4ccc([nH]4)c(-c4cc(S(=O)(=O)[O-])ccc4F)c4nc(c(-c5cc(S(=O)(=O)[O-])ccc5F)c5ccc2[nH]5)C=C4)C=C3)cc1)C(F)(F)F
REMARK SMILES IDX 19 1 18 2 17 3 16 4 15 5 14 6 12 7 13 8 2 9 1 10 3 11 4 12
REMARK SMILES IDX 5 14 6 15 7 16 11 17 8 18 10 19 9 21 89 22 90 23 91 24 92 25
REMARK SMILES IDX 20 26 21 27 22 28 23 29 24 30 25 31 26 32 27 33 88 34 28 35
REMARK SMILES IDX 87 36 29 37 30 38 31 39 81 40 32 41 86 42 80 43 82 44 33 45
REMARK SMILES IDX 85 46 79 47 78 48 34 50 66 51 46 52 65 53 47 54 50 55 64 56
REMARK SMILES IDX 83 57 48 58 49 59 63 61 84 62 51 63 35 64 36 65 44 66 37 67
REMARK SMILES IDX 43 68 45 69 42 70 38 71 39 72 40 73 41 74 67 75 68 76 76 77
REMARK SMILES IDX 69 78 75 79 77 80 74 81 70 82 71 83 72 84 73 85 52 86 53 87
REMARK SMILES IDX 61 88 54 89 60 90 62 91 59 92 55 93 56 94 57 95 58 96
REMARK H PARENT 3 13 11 20 82 49 50 60
REMARK Flexibility Score: inf
ROOT
ATOM      1  C   UNL A   1      34.169  20.884  24.834  1.00  0.00     0.188 C 
ENDROOT
BRANCH   1   2
ATOM      2  C   UNL A   1      32.653  20.621  24.863  1.00  0.00     0.188 C 
BRANCH   2   3
ATOM      3  O   UNL A   1      31.852  21.772  24.652  1.00  0.00    -0.376 OA
BRANCH   3   4
ATOM      4  C   UNL A   1      31.044  22.153  25.754  1.00  0.00     0.202 C 
BRANCH   4   5
ATOM      5  C   UNL A   1      31.121  23.640  26.097  1.00  0.00     0.261 C 
BRANCH   5   6
ATOM      6  O   UNL A   1      31.381  24.594  25.043  1.00  0.00    -0.461 OA
BRANCH   6   7
ATOM      7  C   UNL A   1      32.280  25.605  25.177  1.00  0.00     0.341 C 
ATOM      8  O   UNL A   1      32.085  26.619  25.831  1.00  0.00    -0.249 OA
BRANCH   7   9
ATOM      9  C   UNL A   1      33.496  25.379  24.267  1.00  0.00     0.231 C 
ATOM     10  C   UNL A   1      33.262  24.283  23.206  1.00  0.00     0.058 C 
BRANCH   9  11
ATOM     11  N   UNL A   1      33.982  26.633  23.590  1.00  0.00    -0.328 N 
ATOM     12  C   UNL A   1      33.386  27.348  22.586  1.00  0.00     0.268 C 
ATOM     13  H   UNL A   1      34.844  26.986  23.912  1.00  0.00     0.165 HD
ATOM     14  O   UNL A   1      34.070  27.681  21.624  1.00  0.00    -0.268 OA
BRANCH  12  15
ATOM     15  C   UNL A   1      32.014  27.763  22.754  1.00  0.00     0.105 A 
ATOM     16  C   UNL A   1      31.522  29.030  23.034  1.00  0.00     0.049 A 
ATOM     17  N   UNL A   1      30.923  26.910  22.763  1.00  0.00    -0.356 N 
ATOM     18  C   UNL A   1      30.117  28.937  23.087  1.00  0.00     0.036 A 
ATOM     19  C   UNL A   1      29.761  27.628  22.897  1.00  0.00     0.098 A 
ATOM     20  H   UNL A   1      30.974  25.930  22.684  1.00  0.00     0.166 HD
ATOM     21  Br  UNL A   1      28.963  30.395  23.291  1.00  0.00    -0.049 Br
ENDBRANCH  12  15
ENDBRANCH   9  11
BRANCH   9  22
ATOM     22  C   UNL A   1      34.574  24.859  25.242  1.00  0.00     0.422 C 
ATOM     23  F   UNL A   1      34.158  23.788  25.953  1.00  0.00    -0.168 F 
ATOM     24  F   UNL A   1      35.676  24.472  24.546  1.00  0.00    -0.168 F 
ATOM     25  F   UNL A   1      34.984  25.811  26.109  1.00  0.00    -0.168 F 
ENDBRANCH   9  22
ENDBRANCH   7   9
ENDBRANCH   6   7
ENDBRANCH   5   6
ENDBRANCH   4   5
ENDBRANCH   3   4
ENDBRANCH   2   3
ENDBRANCH   1   2
BRANCH   1  26
ATOM     26  O   UNL A   1      35.102  19.820  24.728  1.00  0.00    -0.376 OA
BRANCH  26  27
ATOM     27  C   UNL A   1      36.461  20.058  25.059  1.00  0.00     0.202 C 
BRANCH  27  28
ATOM     28  C   UNL A   1      37.129  21.387  24.667  1.00  0.00     0.261 C 
BRANCH  28  29
ATOM     29  O   UNL A   1      37.661  22.161  25.751  1.00  0.00    -0.460 OA
BRANCH  29  30
ATOM     30  C   UNL A   1      38.949  21.896  26.092  1.00  0.00     0.338 C 
ATOM     31  O   UNL A   1      39.623  20.953  25.714  1.00  0.00    -0.246 OA
BRANCH  30  32
ATOM     32  C   UNL A   1      39.504  23.073  26.805  1.00  0.00     0.060 A 
ATOM     33  C   UNL A   1      38.882  24.320  26.623  1.00  0.00     0.016 A 
ATOM     34  C   UNL A   1      40.592  22.951  27.669  1.00  0.00     0.016 A 
ATOM     35  C   UNL A   1      39.342  25.447  27.304  1.00  0.00     0.010 A 
ATOM     36  C   UNL A   1      41.086  24.091  28.309  1.00  0.00     0.010 A 
ATOM     37  C   UNL A   1      40.480  25.346  28.109  1.00  0.00    -0.014 A 
BRANCH  37  38
ATOM     38  C   UNL A   1      41.218  26.572  28.503  1.00  0.00     0.031 A 
ATOM     39  C   UNL A   1      40.421  27.670  29.149  1.00  0.00     0.074 A 
ATOM     40  C   UNL A   1      42.531  26.728  28.268  1.00  0.00     0.049 A 
ATOM     41  N   UNL A   1      40.760  28.903  29.414  1.00  0.00    -0.248 NA
ATOM     42  C   UNL A   1      39.042  27.324  29.528  1.00  0.00     0.031 C 
ATOM     43  C   UNL A   1      43.421  25.711  27.717  1.00  0.00     0.029 A 
ATOM     44  N   UNL A   1      43.336  27.828  28.440  1.00  0.00    -0.354 N 
ATOM     45  C   UNL A   1      39.626  29.489  29.969  1.00  0.00     0.074 A 
ATOM     46  C   UNL A   1      38.590  28.481  29.980  1.00  0.00     0.031 C 
ATOM     47  C   UNL A   1      44.642  26.250  27.550  1.00  0.00     0.029 A 
ATOM     48  C   UNL A   1      44.605  27.661  27.935  1.00  0.00     0.049 A 
ATOM     49  H   UNL A   1      43.035  28.655  28.881  1.00  0.00     0.167 HD
ATOM     50  C   UNL A   1      39.465  30.756  30.418  1.00  0.00     0.034 A 
ATOM     51  C   UNL A   1      45.595  28.559  27.751  1.00  0.00     0.034 A 
ATOM     52  C   UNL A   1      40.505  31.753  30.372  1.00  0.00     0.049 A 
ATOM     53  C   UNL A   1      45.371  29.998  28.164  1.00  0.00     0.074 A 
ATOM     54  C   UNL A   1      40.462  33.064  30.808  1.00  0.00     0.029 A 
ATOM     55  N   UNL A   1      41.770  31.553  29.832  1.00  0.00    -0.354 N 
ATOM     56  N   UNL A   1      44.298  30.550  28.685  1.00  0.00    -0.248 NA
ATOM     57  C   UNL A   1      46.487  30.933  27.962  1.00  0.00     0.031 C 
ATOM     58  C   UNL A   1      41.671  33.678  30.459  1.00  0.00     0.029 A 
ATOM     59  C   UNL A   1      42.502  32.727  29.888  1.00  0.00     0.049 A 
ATOM     60  H   UNL A   1      42.098  30.700  29.466  1.00  0.00     0.167 HD
ATOM     61  C   UNL A   1      44.622  31.889  28.900  1.00  0.00     0.074 A 
ATOM     62  C   UNL A   1      45.990  32.059  28.453  1.00  0.00     0.031 C 
ATOM     63  C   UNL A   1      43.865  32.883  29.432  1.00  0.00     0.034 A 
BRANCH  50  64
ATOM     64  C   UNL A   1      38.089  31.138  30.911  1.00  0.00     0.023 A 
ATOM     65  C   UNL A   1      37.124  31.700  30.057  1.00  0.00     0.031 A 
ATOM     66  C   UNL A   1      37.771  31.015  32.275  1.00  0.00     0.131 A 
ATOM     67  C   UNL A   1      35.930  32.205  30.590  1.00  0.00     0.055 A 
ATOM     68  C   UNL A   1      36.540  31.434  32.783  1.00  0.00     0.041 A 
ATOM     69  F   UNL A   1      38.663  30.514  33.143  1.00  0.00    -0.206 F 
ATOM     70  C   UNL A   1      35.618  32.053  31.944  1.00  0.00     0.022 A 
BRANCH  67  71
ATOM     71  S   UNL A   1      34.875  33.232  29.528  1.00  0.00     0.124 S 
ATOM     72  O   UNL A   1      33.990  33.858  30.508  1.00  0.00    -0.237 OA
ATOM     73  O   UNL A   1      35.841  34.112  28.883  1.00  0.00    -0.237 OA
ATOM     74  O   UNL A   1      34.227  32.261  28.647  1.00  0.00    -0.744 OA
ENDBRANCH  67  71
ENDBRANCH  50  64
BRANCH  51  75
ATOM     75  C   UNL A   1      46.858  28.150  27.070  1.00  0.00     0.023 A 
ATOM     76  C   UNL A   1      46.954  28.093  25.671  1.00  0.00     0.031 A 
ATOM     77  C   UNL A   1      47.988  27.779  27.824  1.00  0.00     0.131 A 
ATOM     78  C   UNL A   1      48.145  27.648  25.070  1.00  0.00     0.055 A 
ATOM     79  C   UNL A   1      49.183  27.384  27.221  1.00  0.00     0.041 A 
ATOM     80  F   UNL A   1      47.948  27.811  29.165  1.00  0.00    -0.206 F 
ATOM     81  C   UNL A   1      49.263  27.308  25.835  1.00  0.00     0.022 A 
BRANCH  78  82
ATOM     82  S   UNL A   1      48.194  27.460  23.266  1.00  0.00     0.124 S 
ATOM     83  O   UNL A   1      49.517  27.983  22.949  1.00  0.00    -0.237 OA
ATOM     84  O   UNL A   1      48.016  26.020  23.106  1.00  0.00    -0.237 OA
ATOM     85  O   UNL A   1      47.071  28.277  22.809  1.00  0.00    -0.744 OA
ENDBRANCH  78  82
ENDBRANCH  51  75
BRANCH  63  86
ATOM     86  C   UNL A   1      44.512  34.234  29.620  1.00  0.00     0.023 A 
ATOM     87  C   UNL A   1      44.375  35.268  28.679  1.00  0.00     0.031 A 
ATOM     88  C   UNL A   1      45.241  34.498  30.795  1.00  0.00     0.131 A 
ATOM     89  C   UNL A   1      44.985  36.511  28.916  1.00  0.00     0.055 A 
ATOM     90  C   UNL A   1      45.799  35.752  31.049  1.00  0.00     0.041 A 
ATOM     91  F   UNL A   1      45.403  33.545  31.727  1.00  0.00    -0.206 F 
ATOM     92  C   UNL A   1      45.679  36.764  30.104  1.00  0.00     0.022 A 
BRANCH  89  93
ATOM     93  S   UNL A   1      44.910  37.785  27.627  1.00  0.00     0.124 S 
ATOM     94  O   UNL A   1      43.714  37.397  26.886  1.00  0.00    -0.237 OA
ATOM     95  O   UNL A   1      44.807  39.015  28.406  1.00  0.00    -0.237 OA
ATOM     96  O   UNL A   1      46.169  37.616  26.903  1.00  0.00    -0.744 OA
ENDBRANCH  89  93
ENDBRANCH  63  86
ENDBRANCH  37  38
ENDBRANCH  30  32
ENDBRANCH  29  30
ENDBRANCH  28  29
ENDBRANCH  27  28
ENDBRANCH  26  27
ENDBRANCH   1  26
TORSDOF 23
ENDMDL
MODEL 2
REMARK VINA RESULT:     -10.2      1.484      7.661
REMARK SMILES C[C@@](NC(=O)c1cc(Br)c[nH]1)(C(=O)OCCOCCOCCOC(=O)c1ccc(-c2c3nc(c(-c4cc(S(=O)(=O)[O-])ccc4F)c4ccc([nH]4)c(-c4cc(S(=O)(=O)[O-])ccc4F)c4nc(c(-c5cc(S(=O)(=O)[O-])ccc5F)c5ccc2[nH]5)C=C4)C=C3)cc1)C(F)(F)F
REMARK SMILES IDX 19 1 18 2 17 3 16 4 15 5 14 6 12 7 13 8 2 9 1 10 3 11 4 12
REMARK SMILES IDX 5 14 6 15 7 16 11 17 8 18 10 19 9 21 89 22 90 23 91 24 92 25
REMARK SMILES IDX 20 26 21 27 22 28 23 29 24 30 25 31 26 32 27 33 88 34 28 35
REMARK SMILES IDX 87 36 29 37 30 38 31 39 81 40 32 41 86 42 80 43 82 44 33 45
REMARK SMILES IDX 85 46 79 47 78 48 34 50 66 51 46 52 65 53 47 54 50 55 64 56
REMARK SMILES IDX 83 57 48 58 49 59 63 61 84 62 51 63 35 64 36 65 44 66 37 67
REMARK SMILES IDX 43 68 45 69 42 70 38 71 39 72 40 73 41 74 67 75 68 76 76 77
REMARK SMILES IDX 69 78 75 79 77 80 74 81 70 82 71 83 72 84 73 85 52 86 53 87
REMARK SMILES IDX 61 88 54 89 60 90 62 91 59 92 55 93 56 94 57 95 58 96
REMARK H PARENT 3 13 11 20 82 49 50 60
REMARK Flexibility Score: inf
ROOT
ATOM      1  C   UNL A   1      37.338  21.552  25.199  1.00  0.00     0.188 C 
ENDROOT
BRANCH   1   2
ATOM      2  C   UNL A   1      35.927  21.202  25.704  1.00  0.00     0.188 C 
BRANCH   2   3
ATOM      3  O   UNL A   1      35.285  20.165  24.983  1.00  0.00    -0.376 OA
BRANCH   3   4
ATOM      4  C   UNL A   1      33.953  20.446  24.582  1.00  0.00     0.202 C 
BRANCH   4   5
ATOM      5  C   UNL A   1      33.577  21.924  24.664  1.00  0.00     0.261 C 
BRANCH   5   6
ATOM      6  O   UNL A   1      32.569  22.445  23.770  1.00  0.00    -0.461 OA
BRANCH   6   7
ATOM      7  C   UNL A   1      32.848  23.366  22.809  1.00  0.00     0.341 C 
ATOM      8  O   UNL A   1      33.519  23.140  21.811  1.00  0.00    -0.249 OA
BRANCH   7   9
ATOM      9  C   UNL A   1      32.353  24.758  23.224  1.00  0.00     0.231 C 
ATOM     10  C   UNL A   1      31.969  25.647  22.022  1.00  0.00     0.058 C 
BRANCH   9  11
ATOM     11  N   UNL A   1      31.209  24.723  24.203  1.00  0.00    -0.328 N 
ATOM     12  C   UNL A   1      30.744  25.727  25.009  1.00  0.00     0.268 C 
ATOM     13  H   UNL A   1      30.732  23.864  24.273  1.00  0.00     0.165 HD
ATOM     14  O   UNL A   1      30.538  25.475  26.192  1.00  0.00    -0.268 OA
BRANCH  12  15
ATOM     15  C   UNL A   1      30.421  27.000  24.411  1.00  0.00     0.105 A 
ATOM     16  C   UNL A   1      29.367  27.317  23.567  1.00  0.00     0.049 A 
ATOM     17  N   UNL A   1      31.202  28.140  24.503  1.00  0.00    -0.356 N 
ATOM     18  C   UNL A   1      29.465  28.689  23.261  1.00  0.00     0.036 A 
ATOM     19  C   UNL A   1      30.589  29.188  23.863  1.00  0.00     0.098 A 
ATOM     20  H   UNL A   1      32.071  28.192  24.964  1.00  0.00     0.166 HD
ATOM     21  Br  UNL A   1      28.200  29.650  22.273  1.00  0.00    -0.049 Br
ENDBRANCH  12  15
ENDBRANCH   9  11
BRANCH   9  22
ATOM     22  C   UNL A   1      33.594  25.390  23.892  1.00  0.00     0.422 C 
ATOM     23  F   UNL A   1      33.659  26.727  23.706  1.00  0.00    -0.168 F 
ATOM     24  F   UNL A   1      33.554  25.176  25.234  1.00  0.00    -0.168 F 
ATOM     25  F   UNL A   1      34.747  24.844  23.450  1.00  0.00    -0.168 F 
ENDBRANCH   9  22
ENDBRANCH   7   9
ENDBRANCH   6   7
ENDBRANCH   5   6
ENDBRANCH   4   5
ENDBRANCH   3   4
ENDBRANCH   2   3
ENDBRANCH   1   2
BRANCH   1  26
ATOM     26  O   UNL A   1      38.492  20.919  25.731  1.00  0.00    -0.376 OA
BRANCH  26  27
ATOM     27  C   UNL A   1      38.780  19.582  25.355  1.00  0.00     0.202 C 
BRANCH  27  28
ATOM     28  C   UNL A   1      40.119  18.938  25.756  1.00  0.00     0.261 C 
BRANCH  28  29
ATOM     29  O   UNL A   1      41.242  19.828  25.825  1.00  0.00    -0.460 OA
BRANCH  29  30
ATOM     30  C   UNL A   1      41.719  20.085  27.071  1.00  0.00     0.338 C 
ATOM     31  O   UNL A   1      42.292  19.301  27.808  1.00  0.00    -0.246 OA
BRANCH  30  32
ATOM     32  C   UNL A   1      41.662  21.548  27.308  1.00  0.00     0.060 A 
ATOM     33  C   UNL A   1      41.187  22.376  26.276  1.00  0.00     0.016 A 
ATOM     34  C   UNL A   1      42.031  22.099  28.535  1.00  0.00     0.016 A 
ATOM     35  C   UNL A   1      41.076  23.754  26.467  1.00  0.00     0.010 A 
ATOM     36  C   UNL A   1      41.971  23.485  28.708  1.00  0.00     0.010 A 
ATOM     37  C   UNL A   1      41.519  24.318  27.666  1.00  0.00    -0.014 A 
BRANCH  37  38
ATOM     38  C   UNL A   1      41.795  25.774  27.740  1.00  0.00     0.031 A 
ATOM     39  C   UNL A   1      43.109  26.249  27.189  1.00  0.00     0.074 A 
ATOM     40  C   UNL A   1      40.938  26.642  28.304  1.00  0.00     0.049 A 
ATOM     41  N   UNL A   1      43.688  27.415  27.293  1.00  0.00    -0.248 NA
ATOM     42  C   UNL A   1      43.884  25.253  26.430  1.00  0.00     0.031 C 
ATOM     43  C   UNL A   1      39.607  26.315  28.805  1.00  0.00     0.029 A 
ATOM     44  N   UNL A   1      41.084  27.981  28.575  1.00  0.00    -0.354 N 
ATOM     45  C   UNL A   1      44.907  27.286  26.635  1.00  0.00     0.074 A 
ATOM     46  C   UNL A   1      44.989  25.924  26.157  1.00  0.00     0.031 C 
ATOM     47  C   UNL A   1      39.074  27.414  29.368  1.00  0.00     0.029 A 
ATOM     48  C   UNL A   1      40.048  28.506  29.312  1.00  0.00     0.049 A 
ATOM     49  H   UNL A   1      41.856  28.513  28.273  1.00  0.00     0.167 HD
ATOM     50  C   UNL A   1      45.872  28.219  26.456  1.00  0.00     0.034 A 
ATOM     51  C   UNL A   1      39.929  29.706  29.918  1.00  0.00     0.034 A 
ATOM     52  C   UNL A   1      45.781  29.564  26.965  1.00  0.00     0.049 A 
ATOM     53  C   UNL A   1      41.057  30.707  29.797  1.00  0.00     0.074 A 
ATOM     54  C   UNL A   1      46.689  30.599  26.836  1.00  0.00     0.029 A 
ATOM     55  N   UNL A   1      44.725  30.052  27.726  1.00  0.00    -0.354 N 
ATOM     56  N   UNL A   1      42.210  30.582  29.177  1.00  0.00    -0.248 NA
ATOM     57  C   UNL A   1      40.871  32.006  30.457  1.00  0.00     0.031 C 
ATOM     58  C   UNL A   1      46.220  31.684  27.586  1.00  0.00     0.029 A 
ATOM     59  C   UNL A   1      44.977  31.359  28.107  1.00  0.00     0.049 A 
ATOM     60  H   UNL A   1      43.915  29.543  27.958  1.00  0.00     0.167 HD
ATOM     61  C   UNL A   1      42.870  31.797  29.349  1.00  0.00     0.074 A 
ATOM     62  C   UNL A   1      41.988  32.641  30.129  1.00  0.00     0.031 C 
ATOM     63  C   UNL A   1      44.089  32.186  28.892  1.00  0.00     0.034 A 
BRANCH  50  64
ATOM     64  C   UNL A   1      47.133  27.773  25.754  1.00  0.00     0.023 A 
ATOM     65  C   UNL A   1      47.364  28.047  24.395  1.00  0.00     0.031 A 
ATOM     66  C   UNL A   1      48.080  26.990  26.439  1.00  0.00     0.131 A 
ATOM     67  C   UNL A   1      48.458  27.461  23.741  1.00  0.00     0.055 A 
ATOM     68  C   UNL A   1      49.216  26.488  25.803  1.00  0.00     0.041 A 
ATOM     69  F   UNL A   1      47.899  26.670  27.730  1.00  0.00    -0.206 F 
ATOM     70  C   UNL A   1      49.401  26.705  24.441  1.00  0.00     0.022 A 
BRANCH  67  71
ATOM     71  S   UNL A   1      48.526  27.544  21.929  1.00  0.00     0.124 S 
ATOM     72  O   UNL A   1      49.669  28.429  21.717  1.00  0.00    -0.237 OA
ATOM     73  O   UNL A   1      48.721  26.148  21.558  1.00  0.00    -0.237 OA
ATOM     74  O   UNL A   1      47.231  28.115  21.562  1.00  0.00    -0.744 OA
ENDBRANCH  67  71
ENDBRANCH  50  64
BRANCH  51  75
ATOM     75  C   UNL A   1      38.736  30.000  30.765  1.00  0.00     0.023 A 
ATOM     76  C   UNL A   1      37.711  30.850  30.322  1.00  0.00     0.031 A 
ATOM     77  C   UNL A   1      38.625  29.449  32.056  1.00  0.00     0.131 A 
ATOM     78  C   UNL A   1      36.632  31.146  31.174  1.00  0.00     0.055 A 
ATOM     79  C   UNL A   1      37.528  29.708  32.879  1.00  0.00     0.041 A 
ATOM     80  F   UNL A   1      39.580  28.634  32.530  1.00  0.00    -0.206 F 
ATOM     81  C   UNL A   1      36.527  30.570  32.442  1.00  0.00     0.022 A 
BRANCH  78  82
ATOM     82  S   UNL A   1      35.391  32.349  30.623  1.00  0.00     0.124 S 
ATOM     83  O   UNL A   1      34.944  31.761  29.367  1.00  0.00    -0.237 OA
ATOM     84  O   UNL A   1      34.433  32.322  31.723  1.00  0.00    -0.237 OA
ATOM     85  O   UNL A   1      36.154  33.590  30.496  1.00  0.00    -0.744 OA
ENDBRANCH  78  82
ENDBRANCH  51  75
BRANCH  63  86
ATOM     86  C   UNL A   1      44.521  33.606  29.167  1.00  0.00     0.023 A 
ATOM     87  C   UNL A   1      44.146  34.678  28.339  1.00  0.00     0.031 A 
ATOM     88  C   UNL A   1      45.287  33.891  30.313  1.00  0.00     0.131 A 
ATOM     89  C   UNL A   1      44.564  35.981  28.654  1.00  0.00     0.055 A 
ATOM     90  C   UNL A   1      45.653  35.195  30.649  1.00  0.00     0.041 A 
ATOM     91  F   UNL A   1      45.674  32.905  31.138  1.00  0.00    -0.206 F 
ATOM     92  C   UNL A   1      45.297  36.248  29.814  1.00  0.00     0.022 A 
BRANCH  89  93
ATOM     93  S   UNL A   1      44.183  37.327  27.499  1.00  0.00     0.124 S 
ATOM     94  O   UNL A   1      45.433  37.454  26.758  1.00  0.00    -0.237 OA
ATOM     95  O   UNL A   1      43.050  36.790  26.752  1.00  0.00    -0.237 OA
ATOM     96  O   UNL A   1      43.866  38.454  28.377  1.00  0.00    -0.744 OA
ENDBRANCH  89  93
ENDBRANCH  63  86
ENDBRANCH  37  38
ENDBRANCH  30  32
ENDBRANCH  29  30
ENDBRANCH  28  29
ENDBRANCH  27  28
ENDBRANCH  26  27
ENDBRANCH   1  26
TORSDOF 23
ENDMDL
MODEL 3
REMARK VINA RESULT:     -10.1      1.959      2.614
REMARK SMILES C[C@@](NC(=O)c1cc(Br)c[nH]1)(C(=O)OCCOCCOCCOC(=O)c1ccc(-c2c3nc(c(-c4cc(S(=O)(=O)[O-])ccc4F)c4ccc([nH]4)c(-c4cc(S(=O)(=O)[O-])ccc4F)c4nc(c(-c5cc(S(=O)(=O)[O-])ccc5F)c5ccc2[nH]5)C=C4)C=C3)cc1)C(F)(F)F
REMARK SMILES IDX 19 1 18 2 17 3 16 4 15 5 14 6 12 7 13 8 2 9 1 10 3 11 4 12
REMARK SMILES IDX 5 14 6 15 7 16 11 17 8 18 10 19 9 21 89 22 90 23 91 24 92 25
REMARK SMILES IDX 20 26 21 27 22 28 23 29 24 30 25 31 26 32 27 33 88 34 28 35
REMARK SMILES IDX 87 36 29 37 30 38 31 39 81 40 32 41 86 42 80 43 82 44 33 45
REMARK SMILES IDX 85 46 79 47 78 48 34 50 66 51 46 52 65 53 47 54 50 55 64 56
REMARK SMILES IDX 83 57 48 58 49 59 63 61 84 62 51 63 35 64 36 65 44 66 37 67
REMARK SMILES IDX 43 68 45 69 42 70 38 71 39 72 40 73 41 74 67 75 68 76 76 77
REMARK SMILES IDX 69 78 75 79 77 80 74 81 70 82 71 83 72 84 73 85 52 86 53 87
REMARK SMILES IDX 61 88 54 89 60 90 62 91 59 92 55 93 56 94 57 95 58 96
REMARK H PARENT 3 13 11 20 82 49 50 60
REMARK Flexibility Score: inf
ROOT
ATOM      1  C   UNL A   1      34.664  21.233  24.638  1.00  0.00     0.188 C 
ENDROOT
BRANCH   1   2
ATOM      2  C   UNL A   1      33.255  21.656  25.090  1.00  0.00     0.188 C 
BRANCH   2   3
ATOM      3  O   UNL A   1      33.018  23.053  25.044  1.00  0.00    -0.376 OA
BRANCH   3   4
ATOM      4  C   UNL A   1      34.087  23.862  25.507  1.00  0.00     0.202 C 
BRANCH   4   5
ATOM      5  C   UNL A   1      34.106  25.269  24.912  1.00  0.00     0.261 C 
BRANCH   5   6
ATOM      6  O   UNL A   1      32.878  25.837  24.405  1.00  0.00    -0.461 OA
BRANCH   6   7
ATOM      7  C   UNL A   1      32.849  26.980  23.671  1.00  0.00     0.341 C 
ATOM      8  O   UNL A   1      33.831  27.489  23.148  1.00  0.00    -0.249 OA
BRANCH   7   9
ATOM      9  C   UNL A   1      31.460  27.630  23.724  1.00  0.00     0.231 C 
ATOM     10  C   UNL A   1      30.517  27.135  22.607  1.00  0.00     0.058 C 
BRANCH   9  11
ATOM     11  N   UNL A   1      30.776  27.479  25.057  1.00  0.00    -0.328 N 
ATOM     12  C   UNL A   1      31.341  27.375  26.300  1.00  0.00     0.268 C 
ATOM     13  H   UNL A   1      29.791  27.453  25.032  1.00  0.00     0.165 HD
ATOM     14  O   UNL A   1      30.942  26.487  27.047  1.00  0.00    -0.268 OA
BRANCH  12  15
ATOM     15  C   UNL A   1      32.300  28.372  26.710  1.00  0.00     0.105 A 
ATOM     16  C   UNL A   1      33.651  28.212  26.983  1.00  0.00     0.049 A 
ATOM     17  N   UNL A   1      31.996  29.689  27.008  1.00  0.00    -0.356 N 
ATOM     18  C   UNL A   1      34.167  29.476  27.328  1.00  0.00     0.036 A 
ATOM     19  C   UNL A   1      33.140  30.382  27.318  1.00  0.00     0.098 A 
ATOM     20  H   UNL A   1      31.090  30.074  26.998  1.00  0.00     0.166 HD
ATOM     21  Br  UNL A   1      35.975  29.835  27.646  1.00  0.00    -0.049 Br
ENDBRANCH  12  15
ENDBRANCH   9  11
BRANCH   9  22
ATOM     22  C   UNL A   1      31.756  29.121  23.454  1.00  0.00     0.422 C 
ATOM     23  F   UNL A   1      30.855  29.943  24.035  1.00  0.00    -0.168 F 
ATOM     24  F   UNL A   1      32.976  29.447  23.959  1.00  0.00    -0.168 F 
ATOM     25  F   UNL A   1      31.800  29.404  22.134  1.00  0.00    -0.168 F 
ENDBRANCH   9  22
ENDBRANCH   7   9
ENDBRANCH   6   7
ENDBRANCH   5   6
ENDBRANCH   4   5
ENDBRANCH   3   4
ENDBRANCH   2   3
ENDBRANCH   1   2
BRANCH   1  26
ATOM     26  O   UNL A   1      35.158  19.926  24.887  1.00  0.00    -0.376 OA
BRANCH  26  27
ATOM     27  C   UNL A   1      36.560  19.710  24.902  1.00  0.00     0.202 C 
BRANCH  27  28
ATOM     28  C   UNL A   1      37.522  20.861  24.555  1.00  0.00     0.261 C 
BRANCH  28  29
ATOM     29  O   UNL A   1      37.986  21.641  25.666  1.00  0.00    -0.460 OA
BRANCH  29  30
ATOM     30  C   UNL A   1      39.235  21.349  26.115  1.00  0.00     0.338 C 
ATOM     31  O   UNL A   1      39.875  20.338  25.882  1.00  0.00    -0.246 OA
BRANCH  30  32
ATOM     32  C   UNL A   1      39.814  22.567  26.733  1.00  0.00     0.060 A 
ATOM     33  C   UNL A   1      39.404  23.822  26.253  1.00  0.00     0.016 A 
ATOM     34  C   UNL A   1      40.716  22.483  27.794  1.00  0.00     0.016 A 
ATOM     35  C   UNL A   1      39.889  24.995  26.830  1.00  0.00     0.010 A 
ATOM     36  C   UNL A   1      41.243  23.657  28.338  1.00  0.00     0.010 A 
ATOM     37  C   UNL A   1      40.852  24.916  27.841  1.00  0.00    -0.014 A 
BRANCH  37  38
ATOM     38  C   UNL A   1      41.670  26.107  28.177  1.00  0.00     0.031 A 
ATOM     39  C   UNL A   1      40.985  27.217  28.924  1.00  0.00     0.074 A 
ATOM     40  C   UNL A   1      42.956  26.225  27.809  1.00  0.00     0.049 A 
ATOM     41  N   UNL A   1      41.393  28.432  29.175  1.00  0.00    -0.248 NA
ATOM     42  C   UNL A   1      39.642  26.909  29.440  1.00  0.00     0.031 C 
ATOM     43  C   UNL A   1      43.747  25.191  27.148  1.00  0.00     0.029 A 
ATOM     44  N   UNL A   1      43.814  27.293  27.915  1.00  0.00    -0.354 N 
ATOM     45  C   UNL A   1      40.346  29.043  29.856  1.00  0.00     0.074 A 
ATOM     46  C   UNL A   1      39.281  28.070  29.958  1.00  0.00     0.031 C 
ATOM     47  C   UNL A   1      44.963  25.692  26.864  1.00  0.00     0.029 A 
ATOM     48  C   UNL A   1      45.015  27.095  27.276  1.00  0.00     0.049 A 
ATOM     49  H   UNL A   1      43.590  28.120  28.400  1.00  0.00     0.167 HD
ATOM     50  C   UNL A   1      40.277  30.305  30.344  1.00  0.00     0.034 A 
ATOM     51  C   UNL A   1      46.013  27.963  27.005  1.00  0.00     0.034 A 
ATOM     52  C   UNL A   1      41.341  31.267  30.207  1.00  0.00     0.049 A 
ATOM     53  C   UNL A   1      45.884  29.399  27.466  1.00  0.00     0.074 A 
ATOM     54  C   UNL A   1      41.391  32.569  30.669  1.00  0.00     0.029 A 
ATOM     55  N   UNL A   1      42.535  31.036  29.533  1.00  0.00    -0.354 N 
ATOM     56  N   UNL A   1      44.892  29.976  28.107  1.00  0.00    -0.248 NA
ATOM     57  C   UNL A   1      47.005  30.300  27.165  1.00  0.00     0.031 C 
ATOM     58  C   UNL A   1      42.578  33.149  30.206  1.00  0.00     0.029 A 
ATOM     59  C   UNL A   1      43.311  32.184  29.533  1.00  0.00     0.049 A 
ATOM     60  H   UNL A   1      42.792  30.181  29.118  1.00  0.00     0.167 HD
ATOM     61  C   UNL A   1      45.285  31.297  28.312  1.00  0.00     0.074 A 
ATOM     62  C   UNL A   1      46.603  31.432  27.726  1.00  0.00     0.031 C 
ATOM     63  C   UNL A   1      44.623  32.304  28.938  1.00  0.00     0.034 A 
BRANCH  50  64
ATOM     64  C   UNL A   1      38.975  30.721  30.985  1.00  0.00     0.023 A 
ATOM     65  C   UNL A   1      37.994  31.439  30.278  1.00  0.00     0.031 A 
ATOM     66  C   UNL A   1      38.750  30.468  32.350  1.00  0.00     0.131 A 
ATOM     67  C   UNL A   1      36.885  31.961  30.958  1.00  0.00     0.055 A 
ATOM     68  C   UNL A   1      37.597  30.911  32.999  1.00  0.00     0.041 A 
ATOM     69  F   UNL A   1      39.664  29.815  33.085  1.00  0.00    -0.206 F 
ATOM     70  C   UNL A   1      36.665  31.680  32.309  1.00  0.00     0.022 A 
BRANCH  67  71
ATOM     71  S   UNL A   1      35.835  33.168  30.100  1.00  0.00     0.124 S 
ATOM     72  O   UNL A   1      36.688  33.555  28.978  1.00  0.00    -0.237 OA
ATOM     73  O   UNL A   1      34.657  32.378  29.766  1.00  0.00    -0.237 OA
ATOM     74  O   UNL A   1      35.625  34.213  31.101  1.00  0.00    -0.744 OA
ENDBRANCH  67  71
ENDBRANCH  50  64
BRANCH  51  75
ATOM     75  C   UNL A   1      47.182  27.527  26.188  1.00  0.00     0.023 A 
ATOM     76  C   UNL A   1      47.266  27.810  24.815  1.00  0.00     0.031 A 
ATOM     77  C   UNL A   1      48.227  26.789  26.774  1.00  0.00     0.131 A 
ATOM     78  C   UNL A   1      48.358  27.332  24.069  1.00  0.00     0.055 A 
ATOM     79  C   UNL A   1      49.333  26.358  26.038  1.00  0.00     0.041 A 
ATOM     80  F   UNL A   1      48.194  26.487  28.081  1.00  0.00    -0.206 F 
ATOM     81  C   UNL A   1      49.397  26.622  24.675  1.00  0.00     0.022 A 
BRANCH  78  82
ATOM     82  S   UNL A   1      48.372  27.600  22.275  1.00  0.00     0.124 S 
ATOM     83  O   UNL A   1      48.631  26.254  21.776  1.00  0.00    -0.237 OA
ATOM     84  O   UNL A   1      47.033  28.127  22.036  1.00  0.00    -0.237 OA
ATOM     85  O   UNL A   1      49.459  28.558  22.083  1.00  0.00    -0.744 OA
ENDBRANCH  78  82
ENDBRANCH  51  75
BRANCH  63  86
ATOM     86  C   UNL A   1      45.333  33.628  29.083  1.00  0.00     0.023 A 
ATOM     87  C   UNL A   1      45.159  34.677  28.163  1.00  0.00     0.031 A 
ATOM     88  C   UNL A   1      46.166  33.853  30.196  1.00  0.00     0.131 A 
ATOM     89  C   UNL A   1      45.833  35.893  28.359  1.00  0.00     0.055 A 
ATOM     90  C   UNL A   1      46.790  35.083  30.411  1.00  0.00     0.041 A 
ATOM     91  F   UNL A   1      46.368  32.886  31.104  1.00  0.00    -0.206 F 
ATOM     92  C   UNL A   1      46.631  36.109  29.486  1.00  0.00     0.022 A 
BRANCH  89  93
ATOM     93  S   UNL A   1      45.700  37.183  27.089  1.00  0.00     0.124 S 
ATOM     94  O   UNL A   1      46.490  36.619  26.000  1.00  0.00    -0.237 OA
ATOM     95  O   UNL A   1      44.260  37.254  26.863  1.00  0.00    -0.237 OA
ATOM     96  O   UNL A   1      46.283  38.360  27.732  1.00  0.00    -0.744 OA
ENDBRANCH  89  93
ENDBRANCH  63  86
ENDBRANCH  37  38
ENDBRANCH  30  32
ENDBRANCH  29  30
ENDBRANCH  28  29
ENDBRANCH  27  28
ENDBRANCH  26  27
ENDBRANCH   1  26
TORSDOF 23
ENDMDL
