MODEL 1
REMARK VINA RESULT:     -11.6      0.000      0.000
REMARK SMILES O=C(OCCOCCOCCOC(=O)[C@@H]1[C@H](C(=O)Nc2ccc(Cn3cncn3)cc2)[C@@H]2C=C[C@H]1CC2)c1ccc(-c2c3nc(c(-c4cc(S(=O)(=O)[O-])ccc4F)c4ccc([nH]4)c(-c4cc(S(=O)(=O)[O-])ccc4F)c4nc(c(-c5cc(S(=O)(=O)[O-])ccc5F)c5ccc2[nH]5)C=C4)C=C3)cc1
REMARK SMILES IDX 8 1 7 2 6 3 5 4 4 5 3 6 2 7 1 8 38 9 39 10 100 11 40 12
REMARK SMILES IDX 99 13 41 14 42 15 43 16 93 17 44 18 98 19 92 20 94 21 45 22
REMARK SMILES IDX 97 23 91 24 90 25 46 27 78 28 58 29 77 30 59 31 62 32 76 33
REMARK SMILES IDX 95 34 60 35 61 36 75 38 96 39 63 40 47 41 48 42 56 43 49 44
REMARK SMILES IDX 55 45 57 46 54 47 50 48 51 49 52 50 53 51 79 52 80 53 88 54
REMARK SMILES IDX 81 55 87 56 89 57 86 58 82 59 83 60 84 61 85 62 64 63 65 64
REMARK SMILES IDX 73 65 66 66 72 67 74 68 71 69 67 70 68 71 69 72 70 73 9 74
REMARK SMILES IDX 10 75 11 76 12 77 13 78 14 79 15 80 16 81 35 82 32 83 34 84
REMARK SMILES IDX 36 85 33 86 37 87 17 88 18 89 19 90 20 92 21 93 31 94 22 95
REMARK SMILES IDX 30 96 23 97 24 98 25 99 26 100 29 101 27 102 28 103
REMARK H PARENT 94 26 62 37 19 91
REMARK Flexibility Score: inf
ROOT
ATOM      1  C   UNL A   1      36.247  22.656  23.132  1.00  0.00     0.188 C 
ENDROOT
BRANCH   1   2
ATOM      2  C   UNL A   1      37.084  22.410  24.402  1.00  0.00     0.188 C 
BRANCH   2   3
ATOM      3  O   UNL A   1      37.510  21.072  24.588  1.00  0.00    -0.376 OA
BRANCH   3   4
ATOM      4  C   UNL A   1      38.623  20.867  25.442  1.00  0.00     0.202 C 
BRANCH   4   5
ATOM      5  C   UNL A   1      39.108  22.068  26.261  1.00  0.00     0.261 C 
BRANCH   5   6
ATOM      6  O   UNL A   1      40.525  22.194  26.465  1.00  0.00    -0.460 OA
BRANCH   6   7
ATOM      7  C   UNL A   1      41.360  23.242  26.568  1.00  0.00     0.338 C 
ATOM      8  O   UNL A   1      42.501  23.131  26.121  1.00  0.00    -0.246 OA
BRANCH   7   9
ATOM      9  C   UNL A   1      41.041  24.483  27.316  1.00  0.00     0.060 A 
ATOM     10  C   UNL A   1      39.989  25.350  27.027  1.00  0.00     0.016 A 
ATOM     11  C   UNL A   1      41.962  24.824  28.331  1.00  0.00     0.016 A 
ATOM     12  C   UNL A   1      39.942  26.597  27.633  1.00  0.00     0.010 A 
ATOM     13  C   UNL A   1      41.925  26.071  28.929  1.00  0.00     0.010 A 
ATOM     14  C   UNL A   1      40.959  26.977  28.509  1.00  0.00    -0.014 A 
BRANCH  14  15
ATOM     15  C   UNL A   1      41.009  28.365  28.935  1.00  0.00     0.031 A 
ATOM     16  C   UNL A   1      42.111  29.162  28.359  1.00  0.00     0.074 A 
ATOM     17  C   UNL A   1      40.061  28.892  29.736  1.00  0.00     0.049 A 
ATOM     18  N   UNL A   1      43.129  29.668  28.972  1.00  0.00    -0.248 NA
ATOM     19  C   UNL A   1      42.173  29.283  26.896  1.00  0.00     0.031 C 
ATOM     20  C   UNL A   1      38.808  28.256  30.152  1.00  0.00     0.029 A 
ATOM     21  N   UNL A   1      39.956  30.149  30.251  1.00  0.00    -0.354 N 
ATOM     22  C   UNL A   1      43.812  30.405  28.012  1.00  0.00     0.074 A 
ATOM     23  C   UNL A   1      43.322  29.941  26.743  1.00  0.00     0.031 C 
ATOM     24  C   UNL A   1      37.976  29.198  30.645  1.00  0.00     0.029 A 
ATOM     25  C   UNL A   1      38.673  30.474  30.684  1.00  0.00     0.049 A 
ATOM     26  H   UNL A   1      40.717  30.771  30.310  1.00  0.00     0.167 HD
ATOM     27  C   UNL A   1      44.496  31.533  28.354  1.00  0.00     0.034 A 
ATOM     28  C   UNL A   1      38.188  31.711  30.965  1.00  0.00     0.034 A 
ATOM     29  C   UNL A   1      44.794  31.548  29.776  1.00  0.00     0.049 A 
ATOM     30  C   UNL A   1      39.352  32.582  31.267  1.00  0.00     0.074 A 
ATOM     31  C   UNL A   1      45.420  30.663  30.639  1.00  0.00     0.029 A 
ATOM     32  N   UNL A   1      44.117  32.427  30.596  1.00  0.00    -0.354 N 
ATOM     33  N   UNL A   1      40.114  32.422  32.314  1.00  0.00    -0.248 NA
ATOM     34  C   UNL A   1      39.958  33.332  30.176  1.00  0.00     0.031 C 
ATOM     35  C   UNL A   1      44.682  30.746  31.857  1.00  0.00     0.029 A 
ATOM     36  C   UNL A   1      43.705  31.730  31.703  1.00  0.00     0.049 A 
ATOM     37  H   UNL A   1      43.958  33.382  30.418  1.00  0.00     0.167 HD
ATOM     38  C   UNL A   1      41.404  32.644  31.856  1.00  0.00     0.074 A 
ATOM     39  C   UNL A   1      41.235  33.314  30.569  1.00  0.00     0.031 C 
ATOM     40  C   UNL A   1      42.474  32.005  32.419  1.00  0.00     0.034 A 
BRANCH  27  41
ATOM     41  C   UNL A   1      44.490  32.805  27.516  1.00  0.00     0.023 A 
ATOM     42  C   UNL A   1      43.954  33.948  28.132  1.00  0.00     0.031 A 
ATOM     43  C   UNL A   1      44.633  32.888  26.111  1.00  0.00     0.131 A 
ATOM     44  C   UNL A   1      43.377  34.974  27.368  1.00  0.00     0.055 A 
ATOM     45  C   UNL A   1      44.131  33.955  25.357  1.00  0.00     0.041 A 
ATOM     46  F   UNL A   1      45.202  31.932  25.371  1.00  0.00    -0.206 F 
ATOM     47  C   UNL A   1      43.446  34.980  25.981  1.00  0.00     0.022 A 
BRANCH  44  48
ATOM     48  S   UNL A   1      42.310  36.152  28.231  1.00  0.00     0.124 S 
ATOM     49  O   UNL A   1      42.747  35.957  29.610  1.00  0.00    -0.237 OA
ATOM     50  O   UNL A   1      42.693  37.412  27.604  1.00  0.00    -0.237 OA
ATOM     51  O   UNL A   1      40.965  35.680  27.921  1.00  0.00    -0.744 OA
ENDBRANCH  44  48
ENDBRANCH  27  41
BRANCH  28  52
ATOM     52  C   UNL A   1      36.811  32.211  30.687  1.00  0.00     0.023 A 
ATOM     53  C   UNL A   1      36.019  32.861  31.657  1.00  0.00     0.031 A 
ATOM     54  C   UNL A   1      36.327  32.243  29.357  1.00  0.00     0.131 A 
ATOM     55  C   UNL A   1      34.806  33.488  31.284  1.00  0.00     0.055 A 
ATOM     56  C   UNL A   1      35.119  32.845  28.998  1.00  0.00     0.041 A 
ATOM     57  F   UNL A   1      37.053  31.764  28.336  1.00  0.00    -0.206 F 
ATOM     58  C   UNL A   1      34.355  33.478  29.961  1.00  0.00     0.022 A 
BRANCH  55  59
ATOM     59  S   UNL A   1      33.833  34.428  32.506  1.00  0.00     0.124 S 
ATOM     60  O   UNL A   1      34.842  35.273  33.125  1.00  0.00    -0.237 OA
ATOM     61  O   UNL A   1      32.843  35.102  31.666  1.00  0.00    -0.237 OA
ATOM     62  O   UNL A   1      33.281  33.388  33.374  1.00  0.00    -0.744 OA
ENDBRANCH  55  59
ENDBRANCH  28  52
BRANCH  40  63
ATOM     63  C   UNL A   1      42.300  31.344  33.769  1.00  0.00     0.023 A 
ATOM     64  C   UNL A   1      42.113  29.959  33.972  1.00  0.00     0.031 A 
ATOM     65  C   UNL A   1      42.440  32.156  34.911  1.00  0.00     0.131 A 
ATOM     66  C   UNL A   1      42.051  29.440  35.280  1.00  0.00     0.055 A 
ATOM     67  C   UNL A   1      42.395  31.637  36.203  1.00  0.00     0.041 A 
ATOM     68  F   UNL A   1      42.657  33.476  34.787  1.00  0.00    -0.206 F 
ATOM     69  C   UNL A   1      42.192  30.276  36.393  1.00  0.00     0.022 A 
BRANCH  66  70
ATOM     70  S   UNL A   1      41.768  27.664  35.561  1.00  0.00     0.124 S 
ATOM     71  O   UNL A   1      43.113  27.100  35.587  1.00  0.00    -0.237 OA
ATOM     72  O   UNL A   1      41.048  27.660  36.832  1.00  0.00    -0.237 OA
ATOM     73  O   UNL A   1      40.961  27.262  34.407  1.00  0.00    -0.744 OA
ENDBRANCH  66  70
ENDBRANCH  40  63
ENDBRANCH  14  15
ENDBRANCH   7   9
ENDBRANCH   6   7
ENDBRANCH   5   6
ENDBRANCH   4   5
ENDBRANCH   3   4
ENDBRANCH   2   3
ENDBRANCH   1   2
BRANCH   1  74
ATOM     74  O   UNL A   1      35.187  23.602  23.192  1.00  0.00    -0.376 OA
BRANCH  74  75
ATOM     75  C   UNL A   1      33.931  23.248  22.624  1.00  0.00     0.202 C 
BRANCH  75  76
ATOM     76  C   UNL A   1      32.792  24.262  22.768  1.00  0.00     0.261 C 
BRANCH  76  77
ATOM     77  O   UNL A   1      33.219  25.553  23.260  1.00  0.00    -0.463 OA
BRANCH  77  78
ATOM     78  C   UNL A   1      32.304  26.359  23.827  1.00  0.00     0.310 C 
ATOM     79  O   UNL A   1      31.126  26.387  23.475  1.00  0.00    -0.252 OA
BRANCH  78  80
ATOM     80  C   UNL A   1      32.827  27.365  24.861  1.00  0.00     0.119 C 
ATOM     81  C   UNL A   1      32.549  26.859  26.282  1.00  0.00     0.100 C 
ATOM     82  C   UNL A   1      32.842  28.941  24.874  1.00  0.00     0.026 C 
ATOM     83  C   UNL A   1      32.841  27.987  27.306  1.00  0.00     0.025 C 
ATOM     84  C   UNL A   1      31.866  29.594  25.848  1.00  0.00    -0.027 C 
ATOM     85  C   UNL A   1      34.183  29.332  25.568  1.00  0.00     0.009 C 
ATOM     86  C   UNL A   1      31.853  29.095  27.095  1.00  0.00    -0.027 C 
ATOM     87  C   UNL A   1      34.230  28.633  26.967  1.00  0.00     0.009 C 
BRANCH  81  88
ATOM     88  C   UNL A   1      31.277  26.023  26.510  1.00  0.00     0.228 C 
ATOM     89  O   UNL A   1      30.228  26.654  26.737  1.00  0.00    -0.274 OA
ATOM     90  N   UNL A   1      31.089  24.682  26.398  1.00  0.00    -0.326 N 
ATOM     91  H   UNL A   1      30.132  24.456  26.448  1.00  0.00     0.169 HD
BRANCH  90  92
ATOM     92  C   UNL A   1      31.867  23.523  26.232  1.00  0.00     0.041 A 
ATOM     93  C   UNL A   1      31.245  22.421  25.640  1.00  0.00     0.026 A 
ATOM     94  C   UNL A   1      33.183  23.359  26.632  1.00  0.00     0.026 A 
ATOM     95  C   UNL A   1      31.987  21.288  25.269  1.00  0.00     0.008 A 
ATOM     96  C   UNL A   1      33.926  22.222  26.308  1.00  0.00     0.008 A 
ATOM     97  C   UNL A   1      33.356  21.212  25.547  1.00  0.00    -0.026 A 
BRANCH  97  98
ATOM     98  C   UNL A   1      34.233  20.102  25.033  1.00  0.00     0.181 C 
BRANCH  98  99
ATOM     99  N   UNL A   1      33.482  18.885  24.825  1.00  0.00    -0.249 N 
ATOM    100  C   UNL A   1      33.249  18.255  23.642  1.00  0.00     0.220 A 
ATOM    101  N   UNL A   1      32.970  18.186  25.856  1.00  0.00    -0.160 NA
ATOM    102  N   UNL A   1      32.589  17.143  23.860  1.00  0.00    -0.224 NA
ATOM    103  C   UNL A   1      32.442  17.137  25.220  1.00  0.00     0.246 A 
ENDBRANCH  98  99
ENDBRANCH  97  98
ENDBRANCH  90  92
ENDBRANCH  81  88
ENDBRANCH  78  80
ENDBRANCH  77  78
ENDBRANCH  76  77
ENDBRANCH  75  76
ENDBRANCH  74  75
ENDBRANCH   1  74
TORSDOF 24
ENDMDL
MODEL 2
REMARK VINA RESULT:     -11.6      4.027      9.073
REMARK SMILES O=C(OCCOCCOCCOC(=O)[C@@H]1[C@H](C(=O)Nc2ccc(Cn3cncn3)cc2)[C@@H]2C=C[C@H]1CC2)c1ccc(-c2c3nc(c(-c4cc(S(=O)(=O)[O-])ccc4F)c4ccc([nH]4)c(-c4cc(S(=O)(=O)[O-])ccc4F)c4nc(c(-c5cc(S(=O)(=O)[O-])ccc5F)c5ccc2[nH]5)C=C4)C=C3)cc1
REMARK SMILES IDX 8 1 7 2 6 3 5 4 4 5 3 6 2 7 1 8 38 9 39 10 100 11 40 12
REMARK SMILES IDX 99 13 41 14 42 15 43 16 93 17 44 18 98 19 92 20 94 21 45 22
REMARK SMILES IDX 97 23 91 24 90 25 46 27 78 28 58 29 77 30 59 31 62 32 76 33
REMARK SMILES IDX 95 34 60 35 61 36 75 38 96 39 63 40 47 41 48 42 56 43 49 44
REMARK SMILES IDX 55 45 57 46 54 47 50 48 51 49 52 50 53 51 79 52 80 53 88 54
REMARK SMILES IDX 81 55 87 56 89 57 86 58 82 59 83 60 84 61 85 62 64 63 65 64
REMARK SMILES IDX 73 65 66 66 72 67 74 68 71 69 67 70 68 71 69 72 70 73 9 74
REMARK SMILES IDX 10 75 11 76 12 77 13 78 14 79 15 80 16 81 35 82 32 83 34 84
REMARK SMILES IDX 36 85 33 86 37 87 17 88 18 89 19 90 20 92 21 93 31 94 22 95
REMARK SMILES IDX 30 96 23 97 24 98 25 99 26 100 29 101 27 102 28 103
REMARK H PARENT 94 26 62 37 19 91
REMARK Flexibility Score: inf
ROOT
ATOM      1  C   UNL A   1      31.703  28.095  27.806  1.00  0.00     0.188 C 
ENDROOT
BRANCH   1   2
ATOM      2  C   UNL A   1      32.429  29.037  26.826  1.00  0.00     0.188 C 
BRANCH   2   3
ATOM      3  O   UNL A   1      32.654  30.348  27.312  1.00  0.00    -0.376 OA
BRANCH   3   4
ATOM      4  C   UNL A   1      33.978  30.847  27.221  1.00  0.00     0.202 C 
BRANCH   4   5
ATOM      5  C   UNL A   1      35.094  29.985  27.820  1.00  0.00     0.261 C 
BRANCH   5   6
ATOM      6  O   UNL A   1      35.558  30.332  29.135  1.00  0.00    -0.460 OA
BRANCH   6   7
ATOM      7  C   UNL A   1      36.451  29.789  29.980  1.00  0.00     0.338 C 
ATOM      8  O   UNL A   1      36.344  30.027  31.183  1.00  0.00    -0.246 OA
BRANCH   7   9
ATOM      9  C   UNL A   1      37.651  29.033  29.541  1.00  0.00     0.060 A 
ATOM     10  C   UNL A   1      38.201  27.939  30.205  1.00  0.00     0.016 A 
ATOM     11  C   UNL A   1      38.310  29.562  28.410  1.00  0.00     0.016 A 
ATOM     12  C   UNL A   1      39.456  27.475  29.840  1.00  0.00     0.010 A 
ATOM     13  C   UNL A   1      39.567  29.110  28.049  1.00  0.00     0.010 A 
ATOM     14  C   UNL A   1      40.162  28.124  28.826  1.00  0.00    -0.014 A 
BRANCH  14  15
ATOM     15  C   UNL A   1      41.559  27.769  28.634  1.00  0.00     0.031 A 
ATOM     16  C   UNL A   1      41.793  26.515  27.889  1.00  0.00     0.074 A 
ATOM     17  C   UNL A   1      42.555  28.580  29.041  1.00  0.00     0.049 A 
ATOM     18  N   UNL A   1      42.300  25.413  28.332  1.00  0.00    -0.248 NA
ATOM     19  C   UNL A   1      41.256  26.421  26.524  1.00  0.00     0.031 C 
ATOM     20  C   UNL A   1      42.423  29.945  29.559  1.00  0.00     0.029 A 
ATOM     21  N   UNL A   1      43.904  28.406  28.968  1.00  0.00    -0.354 N 
ATOM     22  C   UNL A   1      42.400  24.579  27.224  1.00  0.00     0.074 A 
ATOM     23  C   UNL A   1      41.542  25.154  26.225  1.00  0.00     0.031 C 
ATOM     24  C   UNL A   1      43.630  30.549  29.526  1.00  0.00     0.029 A 
ATOM     25  C   UNL A   1      44.631  29.586  29.095  1.00  0.00     0.049 A 
ATOM     26  H   UNL A   1      44.327  27.526  28.836  1.00  0.00     0.167 HD
ATOM     27  C   UNL A   1      43.405  23.664  27.128  1.00  0.00     0.034 A 
ATOM     28  C   UNL A   1      45.938  29.787  28.781  1.00  0.00     0.034 A 
ATOM     29  C   UNL A   1      43.971  23.376  28.435  1.00  0.00     0.049 A 
ATOM     30  C   UNL A   1      46.604  28.460  28.805  1.00  0.00     0.074 A 
ATOM     31  C   UNL A   1      43.440  22.966  29.646  1.00  0.00     0.029 A 
ATOM     32  N   UNL A   1      45.234  23.845  28.738  1.00  0.00    -0.354 N 
ATOM     33  N   UNL A   1      46.763  27.757  29.892  1.00  0.00    -0.248 NA
ATOM     34  C   UNL A   1      46.674  27.697  27.566  1.00  0.00     0.031 C 
ATOM     35  C   UNL A   1      44.185  23.672  30.638  1.00  0.00     0.029 A 
ATOM     36  C   UNL A   1      45.178  24.406  29.988  1.00  0.00     0.049 A 
ATOM     37  H   UNL A   1      46.029  23.787  28.161  1.00  0.00     0.167 HD
ATOM     38  C   UNL A   1      46.505  26.448  29.515  1.00  0.00     0.074 A 
ATOM     39  C   UNL A   1      46.574  26.458  28.055  1.00  0.00     0.031 C 
ATOM     40  C   UNL A   1      45.973  25.548  30.397  1.00  0.00     0.034 A 
BRANCH  27  41
ATOM     41  C   UNL A   1      44.165  23.383  25.838  1.00  0.00     0.023 A 
ATOM     42  C   UNL A   1      44.139  22.054  25.383  1.00  0.00     0.031 A 
ATOM     43  C   UNL A   1      45.156  24.203  25.249  1.00  0.00     0.131 A 
ATOM     44  C   UNL A   1      45.184  21.541  24.600  1.00  0.00     0.055 A 
ATOM     45  C   UNL A   1      46.149  23.704  24.400  1.00  0.00     0.041 A 
ATOM     46  F   UNL A   1      45.274  25.510  25.499  1.00  0.00    -0.206 F 
ATOM     47  C   UNL A   1      46.202  22.352  24.116  1.00  0.00     0.022 A 
BRANCH  44  48
ATOM     48  S   UNL A   1      45.310  19.742  24.460  1.00  0.00     0.124 S 
ATOM     49  O   UNL A   1      44.504  19.503  23.267  1.00  0.00    -0.237 OA
ATOM     50  O   UNL A   1      46.750  19.556  24.315  1.00  0.00    -0.237 OA
ATOM     51  O   UNL A   1      44.739  19.265  25.715  1.00  0.00    -0.744 OA
ENDBRANCH  44  48
ENDBRANCH  27  41
BRANCH  28  52
ATOM     52  C   UNL A   1      46.532  31.017  28.184  1.00  0.00     0.023 A 
ATOM     53  C   UNL A   1      45.878  31.784  27.198  1.00  0.00     0.031 A 
ATOM     54  C   UNL A   1      47.698  31.585  28.751  1.00  0.00     0.131 A 
ATOM     55  C   UNL A   1      46.398  33.044  26.813  1.00  0.00     0.055 A 
ATOM     56  C   UNL A   1      48.218  32.818  28.353  1.00  0.00     0.041 A 
ATOM     57  F   UNL A   1      48.332  31.001  29.779  1.00  0.00    -0.206 F 
ATOM     58  C   UNL A   1      47.564  33.558  27.385  1.00  0.00     0.022 A 
BRANCH  55  59
ATOM     59  S   UNL A   1      45.501  34.095  25.624  1.00  0.00     0.124 S 
ATOM     60  O   UNL A   1      44.641  34.885  26.493  1.00  0.00    -0.237 OA
ATOM     61  O   UNL A   1      46.587  34.811  24.956  1.00  0.00    -0.237 OA
ATOM     62  O   UNL A   1      44.801  33.130  24.777  1.00  0.00    -0.744 OA
ENDBRANCH  55  59
ENDBRANCH  28  52
BRANCH  40  63
ATOM     63  C   UNL A   1      46.008  25.871  31.875  1.00  0.00     0.023 A 
ATOM     64  C   UNL A   1      44.902  26.319  32.630  1.00  0.00     0.031 A 
ATOM     65  C   UNL A   1      47.203  25.604  32.569  1.00  0.00     0.131 A 
ATOM     66  C   UNL A   1      45.026  26.504  34.020  1.00  0.00     0.055 A 
ATOM     67  C   UNL A   1      47.318  25.771  33.947  1.00  0.00     0.041 A 
ATOM     68  F   UNL A   1      48.282  25.140  31.915  1.00  0.00    -0.206 F 
ATOM     69  C   UNL A   1      46.229  26.231  34.678  1.00  0.00     0.022 A 
BRANCH  66  70
ATOM     70  S   UNL A   1      43.622  27.121  35.003  1.00  0.00     0.124 S 
ATOM     71  O   UNL A   1      42.541  26.198  34.679  1.00  0.00    -0.237 OA
ATOM     72  O   UNL A   1      44.141  27.047  36.367  1.00  0.00    -0.237 OA
ATOM     73  O   UNL A   1      43.431  28.484  34.501  1.00  0.00    -0.744 OA
ENDBRANCH  66  70
ENDBRANCH  40  63
ENDBRANCH  14  15
ENDBRANCH   7   9
ENDBRANCH   6   7
ENDBRANCH   5   6
ENDBRANCH   4   5
ENDBRANCH   3   4
ENDBRANCH   2   3
ENDBRANCH   1   2
BRANCH   1  74
ATOM     74  O   UNL A   1      30.820  27.114  27.274  1.00  0.00    -0.376 OA
BRANCH  74  75
ATOM     75  C   UNL A   1      31.273  26.317  26.187  1.00  0.00     0.202 C 
BRANCH  75  76
ATOM     76  C   UNL A   1      31.193  24.797  26.359  1.00  0.00     0.261 C 
BRANCH  76  77
ATOM     77  O   UNL A   1      30.600  24.112  25.231  1.00  0.00    -0.463 OA
BRANCH  77  78
ATOM     78  C   UNL A   1      31.415  23.565  24.312  1.00  0.00     0.310 C 
ATOM     79  O   UNL A   1      31.003  23.046  23.276  1.00  0.00    -0.252 OA
BRANCH  78  80
ATOM     80  C   UNL A   1      32.903  23.487  24.677  1.00  0.00     0.119 C 
ATOM     81  C   UNL A   1      33.701  24.522  23.876  1.00  0.00     0.100 C 
ATOM     82  C   UNL A   1      33.839  22.261  25.002  1.00  0.00     0.026 C 
ATOM     83  C   UNL A   1      35.220  24.266  24.054  1.00  0.00     0.025 C 
ATOM     84  C   UNL A   1      34.861  21.918  23.923  1.00  0.00    -0.027 C 
ATOM     85  C   UNL A   1      34.810  22.771  26.110  1.00  0.00     0.009 C 
ATOM     86  C   UNL A   1      35.562  22.949  23.423  1.00  0.00    -0.027 C 
ATOM     87  C   UNL A   1      35.525  24.058  25.580  1.00  0.00     0.009 C 
BRANCH  81  88
ATOM     88  C   UNL A   1      33.214  24.863  22.456  1.00  0.00     0.228 C 
ATOM     89  O   UNL A   1      33.638  24.142  21.533  1.00  0.00    -0.274 OA
ATOM     90  N   UNL A   1      32.294  25.777  22.050  1.00  0.00    -0.326 N 
ATOM     91  H   UNL A   1      32.074  25.655  21.098  1.00  0.00     0.169 HD
BRANCH  90  92
ATOM     92  C   UNL A   1      31.566  26.847  22.597  1.00  0.00     0.041 A 
ATOM     93  C   UNL A   1      32.286  27.992  22.945  1.00  0.00     0.026 A 
ATOM     94  C   UNL A   1      30.205  26.862  22.855  1.00  0.00     0.026 A 
ATOM     95  C   UNL A   1      31.625  29.171  23.326  1.00  0.00     0.008 A 
ATOM     96  C   UNL A   1      29.536  28.013  23.274  1.00  0.00     0.008 A 
ATOM     97  C   UNL A   1      30.231  29.204  23.429  1.00  0.00    -0.026 A 
BRANCH  97  98
ATOM     98  C   UNL A   1      29.460  30.472  23.673  1.00  0.00     0.181 C 
BRANCH  98  99
ATOM     99  N   UNL A   1      28.844  30.962  22.461  1.00  0.00    -0.249 N 
ATOM    100  C   UNL A   1      28.170  32.132  22.297  1.00  0.00     0.220 A 
ATOM    101  N   UNL A   1      28.948  30.294  21.297  1.00  0.00    -0.160 NA
ATOM    102  N   UNL A   1      27.818  32.262  21.040  1.00  0.00    -0.224 NA
ATOM    103  C   UNL A   1      28.314  31.124  20.465  1.00  0.00     0.246 A 
ENDBRANCH  98  99
ENDBRANCH  97  98
ENDBRANCH  90  92
ENDBRANCH  81  88
ENDBRANCH  78  80
ENDBRANCH  77  78
ENDBRANCH  76  77
ENDBRANCH  75  76
ENDBRANCH  74  75
ENDBRANCH   1  74
TORSDOF 24
ENDMDL
MODEL 3
REMARK VINA RESULT:     -11.3      2.668      7.671
REMARK SMILES O=C(OCCOCCOCCOC(=O)[C@@H]1[C@H](C(=O)Nc2ccc(Cn3cncn3)cc2)[C@@H]2C=C[C@H]1CC2)c1ccc(-c2c3nc(c(-c4cc(S(=O)(=O)[O-])ccc4F)c4ccc([nH]4)c(-c4cc(S(=O)(=O)[O-])ccc4F)c4nc(c(-c5cc(S(=O)(=O)[O-])ccc5F)c5ccc2[nH]5)C=C4)C=C3)cc1
REMARK SMILES IDX 8 1 7 2 6 3 5 4 4 5 3 6 2 7 1 8 38 9 39 10 100 11 40 12
REMARK SMILES IDX 99 13 41 14 42 15 43 16 93 17 44 18 98 19 92 20 94 21 45 22
REMARK SMILES IDX 97 23 91 24 90 25 46 27 78 28 58 29 77 30 59 31 62 32 76 33
REMARK SMILES IDX 95 34 60 35 61 36 75 38 96 39 63 40 47 41 48 42 56 43 49 44
REMARK SMILES IDX 55 45 57 46 54 47 50 48 51 49 52 50 53 51 79 52 80 53 88 54
REMARK SMILES IDX 81 55 87 56 89 57 86 58 82 59 83 60 84 61 85 62 64 63 65 64
REMARK SMILES IDX 73 65 66 66 72 67 74 68 71 69 67 70 68 71 69 72 70 73 9 74
REMARK SMILES IDX 10 75 11 76 12 77 13 78 14 79 15 80 16 81 35 82 32 83 34 84
REMARK SMILES IDX 36 85 33 86 37 87 17 88 18 89 19 90 20 92 21 93 31 94 22 95
REMARK SMILES IDX 30 96 23 97 24 98 25 99 26 100 29 101 27 102 28 103
REMARK H PARENT 94 26 62 37 19 91
REMARK Flexibility Score: inf
ROOT
ATOM      1  C   UNL A   1      35.646  20.880  25.466  1.00  0.00     0.188 C 
ENDROOT
BRANCH   1   2
ATOM      2  C   UNL A   1      36.721  19.901  24.956  1.00  0.00     0.188 C 
BRANCH   2   3
ATOM      3  O   UNL A   1      38.047  20.398  24.990  1.00  0.00    -0.376 OA
BRANCH   3   4
ATOM      4  C   UNL A   1      38.207  21.781  25.257  1.00  0.00     0.202 C 
BRANCH   4   5
ATOM      5  C   UNL A   1      39.274  22.177  26.283  1.00  0.00     0.261 C 
BRANCH   5   6
ATOM      6  O   UNL A   1      39.202  23.506  26.826  1.00  0.00    -0.460 OA
BRANCH   6   7
ATOM      7  C   UNL A   1      40.124  24.422  27.169  1.00  0.00     0.338 C 
ATOM      8  O   UNL A   1      41.313  24.113  27.102  1.00  0.00    -0.246 OA
BRANCH   7   9
ATOM      9  C   UNL A   1      39.796  25.742  27.763  1.00  0.00     0.060 A 
ATOM     10  C   UNL A   1      40.041  26.977  27.165  1.00  0.00     0.016 A 
ATOM     11  C   UNL A   1      39.291  25.696  29.080  1.00  0.00     0.016 A 
ATOM     12  C   UNL A   1      39.923  28.137  27.916  1.00  0.00     0.010 A 
ATOM     13  C   UNL A   1      39.183  26.850  29.836  1.00  0.00     0.010 A 
ATOM     14  C   UNL A   1      39.583  28.053  29.266  1.00  0.00    -0.014 A 
BRANCH  14  15
ATOM     15  C   UNL A   1      39.703  29.254  30.076  1.00  0.00     0.031 A 
ATOM     16  C   UNL A   1      38.442  29.988  30.304  1.00  0.00     0.074 A 
ATOM     17  C   UNL A   1      40.875  29.612  30.637  1.00  0.00     0.049 A 
ATOM     18  N   UNL A   1      38.116  31.159  29.868  1.00  0.00    -0.248 NA
ATOM     19  C   UNL A   1      37.346  29.271  30.970  1.00  0.00     0.031 C 
ATOM     20  C   UNL A   1      42.110  28.824  30.675  1.00  0.00     0.029 A 
ATOM     21  N   UNL A   1      41.179  30.701  31.397  1.00  0.00    -0.354 N 
ATOM     22  C   UNL A   1      36.879  31.437  30.439  1.00  0.00     0.074 A 
ATOM     23  C   UNL A   1      36.368  30.174  30.895  1.00  0.00     0.031 C 
ATOM     24  C   UNL A   1      42.938  29.343  31.606  1.00  0.00     0.029 A 
ATOM     25  C   UNL A   1      42.344  30.556  32.146  1.00  0.00     0.049 A 
ATOM     26  H   UNL A   1      40.626  31.516  31.416  1.00  0.00     0.167 HD
ATOM     27  C   UNL A   1      36.527  32.716  30.751  1.00  0.00     0.034 A 
ATOM     28  C   UNL A   1      42.749  31.319  33.195  1.00  0.00     0.034 A 
ATOM     29  C   UNL A   1      37.329  33.672  30.006  1.00  0.00     0.049 A 
ATOM     30  C   UNL A   1      42.061  32.630  33.076  1.00  0.00     0.074 A 
ATOM     31  C   UNL A   1      37.601  33.860  28.661  1.00  0.00     0.029 A 
ATOM     32  N   UNL A   1      38.288  34.407  30.672  1.00  0.00    -0.354 N 
ATOM     33  N   UNL A   1      42.293  33.476  32.110  1.00  0.00    -0.248 NA
ATOM     34  C   UNL A   1      40.784  32.806  33.753  1.00  0.00     0.031 C 
ATOM     35  C   UNL A   1      38.972  34.255  28.611  1.00  0.00     0.029 A 
ATOM     36  C   UNL A   1      39.435  34.368  29.921  1.00  0.00     0.049 A 
ATOM     37  H   UNL A   1      38.170  34.875  31.530  1.00  0.00     0.167 HD
ATOM     38  C   UNL A   1      41.047  33.979  31.767  1.00  0.00     0.074 A 
ATOM     39  C   UNL A   1      40.177  33.623  32.886  1.00  0.00     0.031 C 
ATOM     40  C   UNL A   1      40.771  34.375  30.488  1.00  0.00     0.034 A 
BRANCH  27  41
ATOM     41  C   UNL A   1      35.799  33.097  32.034  1.00  0.00     0.023 A 
ATOM     42  C   UNL A   1      34.668  33.916  31.881  1.00  0.00     0.031 A 
ATOM     43  C   UNL A   1      36.314  33.018  33.349  1.00  0.00     0.131 A 
ATOM     44  C   UNL A   1      34.257  34.775  32.912  1.00  0.00     0.055 A 
ATOM     45  C   UNL A   1      35.845  33.816  34.398  1.00  0.00     0.041 A 
ATOM     46  F   UNL A   1      37.331  32.224  33.695  1.00  0.00    -0.206 F 
ATOM     47  C   UNL A   1      34.848  34.745  34.169  1.00  0.00     0.022 A 
BRANCH  44  48
ATOM     48  S   UNL A   1      33.113  36.106  32.476  1.00  0.00     0.124 S 
ATOM     49  O   UNL A   1      31.843  35.389  32.481  1.00  0.00    -0.237 OA
ATOM     50  O   UNL A   1      33.326  37.050  33.568  1.00  0.00    -0.237 OA
ATOM     51  O   UNL A   1      33.587  36.544  31.167  1.00  0.00    -0.744 OA
ENDBRANCH  44  48
ENDBRANCH  27  41
BRANCH  28  52
ATOM     52  C   UNL A   1      43.455  30.846  34.420  1.00  0.00     0.023 A 
ATOM     53  C   UNL A   1      43.270  29.558  34.964  1.00  0.00     0.031 A 
ATOM     54  C   UNL A   1      44.515  31.611  34.963  1.00  0.00     0.131 A 
ATOM     55  C   UNL A   1      44.110  29.097  36.006  1.00  0.00     0.055 A 
ATOM     56  C   UNL A   1      45.328  31.159  36.004  1.00  0.00     0.041 A 
ATOM     57  F   UNL A   1      44.860  32.799  34.442  1.00  0.00    -0.206 F 
ATOM     58  C   UNL A   1      45.133  29.893  36.526  1.00  0.00     0.022 A 
BRANCH  55  59
ATOM     59  S   UNL A   1      43.954  27.394  36.639  1.00  0.00     0.124 S 
ATOM     60  O   UNL A   1      42.592  27.374  37.151  1.00  0.00    -0.237 OA
ATOM     61  O   UNL A   1      44.214  26.591  35.444  1.00  0.00    -0.237 OA
ATOM     62  O   UNL A   1      44.998  27.314  37.660  1.00  0.00    -0.744 OA
ENDBRANCH  55  59
ENDBRANCH  28  52
BRANCH  40  63
ATOM     63  C   UNL A   1      41.922  34.610  29.534  1.00  0.00     0.023 A 
ATOM     64  C   UNL A   1      42.829  33.617  29.102  1.00  0.00     0.031 A 
ATOM     65  C   UNL A   1      42.034  35.888  28.956  1.00  0.00     0.131 A 
ATOM     66  C   UNL A   1      43.811  33.929  28.142  1.00  0.00     0.055 A 
ATOM     67  C   UNL A   1      42.996  36.190  27.994  1.00  0.00     0.041 A 
ATOM     68  F   UNL A   1      41.179  36.868  29.297  1.00  0.00    -0.206 F 
ATOM     69  C   UNL A   1      43.895  35.211  27.589  1.00  0.00     0.022 A 
BRANCH  66  70
ATOM     70  S   UNL A   1      45.014  32.673  27.603  1.00  0.00     0.124 S 
ATOM     71  O   UNL A   1      46.085  32.775  28.588  1.00  0.00    -0.237 OA
ATOM     72  O   UNL A   1      44.222  31.447  27.643  1.00  0.00    -0.237 OA
ATOM     73  O   UNL A   1      45.382  33.114  26.256  1.00  0.00    -0.744 OA
ENDBRANCH  66  70
ENDBRANCH  40  63
ENDBRANCH  14  15
ENDBRANCH   7   9
ENDBRANCH   6   7
ENDBRANCH   5   6
ENDBRANCH   4   5
ENDBRANCH   3   4
ENDBRANCH   2   3
ENDBRANCH   1   2
BRANCH   1  74
ATOM     74  O   UNL A   1      34.394  20.353  25.886  1.00  0.00    -0.376 OA
BRANCH  74  75
ATOM     75  C   UNL A   1      33.580  19.695  24.922  1.00  0.00     0.202 C 
BRANCH  75  76
ATOM     76  C   UNL A   1      32.159  20.236  24.728  1.00  0.00     0.261 C 
BRANCH  76  77
ATOM     77  O   UNL A   1      32.058  21.254  23.705  1.00  0.00    -0.463 OA
BRANCH  77  78
ATOM     78  C   UNL A   1      31.889  22.532  24.086  1.00  0.00     0.310 C 
ATOM     79  O   UNL A   1      30.792  23.088  24.098  1.00  0.00    -0.252 OA
BRANCH  78  80
ATOM     80  C   UNL A   1      33.165  23.331  24.381  1.00  0.00     0.119 C 
ATOM     81  C   UNL A   1      33.247  23.668  25.875  1.00  0.00     0.100 C 
ATOM     82  C   UNL A   1      33.910  24.454  23.563  1.00  0.00     0.026 C 
ATOM     83  C   UNL A   1      34.390  24.686  26.120  1.00  0.00     0.025 C 
ATOM     84  C   UNL A   1      33.798  25.862  24.139  1.00  0.00    -0.027 C 
ATOM     85  C   UNL A   1      35.428  24.202  23.814  1.00  0.00     0.009 C 
ATOM     86  C   UNL A   1      34.031  25.982  25.457  1.00  0.00    -0.027 C 
ATOM     87  C   UNL A   1      35.675  24.201  25.360  1.00  0.00     0.009 C 
BRANCH  81  88
ATOM     88  C   UNL A   1      31.927  23.906  26.631  1.00  0.00     0.228 C 
ATOM     89  O   UNL A   1      31.644  23.092  27.529  1.00  0.00    -0.274 OA
ATOM     90  N   UNL A   1      31.054  24.944  26.546  1.00  0.00    -0.326 N 
ATOM     91  H   UNL A   1      30.385  24.900  27.267  1.00  0.00     0.169 HD
BRANCH  90  92
ATOM     92  C   UNL A   1      30.829  26.062  25.725  1.00  0.00     0.041 A 
ATOM     93  C   UNL A   1      31.252  27.302  26.213  1.00  0.00     0.026 A 
ATOM     94  C   UNL A   1      30.199  26.057  24.492  1.00  0.00     0.026 A 
ATOM     95  C   UNL A   1      31.236  28.442  25.393  1.00  0.00     0.008 A 
ATOM     96  C   UNL A   1      30.136  27.191  23.680  1.00  0.00     0.008 A 
ATOM     97  C   UNL A   1      30.733  28.374  24.089  1.00  0.00    -0.026 A 
BRANCH  97  98
ATOM     98  C   UNL A   1      30.838  29.514  23.114  1.00  0.00     0.181 C 
BRANCH  98  99
ATOM     99  N   UNL A   1      29.542  30.083  22.819  1.00  0.00    -0.249 N 
ATOM    100  C   UNL A   1      28.925  31.104  23.471  1.00  0.00     0.220 A 
ATOM    101  N   UNL A   1      28.814  29.670  21.764  1.00  0.00    -0.160 NA
ATOM    102  N   UNL A   1      27.792  31.386  22.872  1.00  0.00    -0.224 NA
ATOM    103  C   UNL A   1      27.765  30.492  21.837  1.00  0.00     0.246 A 
ENDBRANCH  98  99
ENDBRANCH  97  98
ENDBRANCH  90  92
ENDBRANCH  81  88
ENDBRANCH  78  80
ENDBRANCH  77  78
ENDBRANCH  76  77
ENDBRANCH  75  76
ENDBRANCH  74  75
ENDBRANCH   1  74
TORSDOF 24
ENDMDL
