MODEL 1
REMARK VINA RESULT:     -11.4      0.000      0.000
REMARK SMILES O=C(OCCOCCOCCOC(=O)c1ccc(-c2c3nc(c(-c4cc(S(=O)(=O)[O-])ccc4F)c4ccc([nH]4)c(-c4cc(S(=O)(=O)[O-])ccc4F)c4nc(c(-c5cc(S(=O)(=O)[O-])ccc5F)c5ccc2[nH]5)C=C4)C=C3)cc1)C1=Cc2c(ccc(Cl)c2Sc2ccccc2)O[C@H]1C(F)(F)F
REMARK SMILES IDX 8 1 7 2 6 3 5 4 4 5 3 6 2 7 1 8 78 9 79 10 95 11 80 12 94 13
REMARK SMILES IDX 81 14 86 15 82 16 84 17 83 18 85 19 96 20 97 21 98 22 99 23
REMARK SMILES IDX 87 24 88 25 89 26 93 27 90 28 92 29 91 30 9 31 10 32 11 33
REMARK SMILES IDX 12 34 13 35 14 36 15 37 16 38 77 39 17 40 76 41 18 42 19 43
REMARK SMILES IDX 20 44 70 45 21 46 75 47 69 48 71 49 22 50 74 51 68 52 67 53
REMARK SMILES IDX 23 55 55 56 35 57 54 58 36 59 39 60 53 61 72 62 37 63 38 64
REMARK SMILES IDX 52 66 73 67 40 68 24 69 25 70 33 71 26 72 32 73 34 74 31 75
REMARK SMILES IDX 27 76 28 77 29 78 30 79 56 80 57 81 65 82 58 83 64 84 66 85
REMARK SMILES IDX 63 86 59 87 60 88 61 89 62 90 41 91 42 92 50 93 43 94 49 95
REMARK SMILES IDX 51 96 48 97 44 98 45 99 46 100 47 101
REMARK H PARENT 71 54 39 65
REMARK Flexibility Score: inf
ROOT
ATOM      1  C   UNL A   1      32.977  29.534  24.299  1.00  0.00     0.188 C 
ENDROOT
BRANCH   1   2
ATOM      2  C   UNL A   1      32.026  28.861  23.284  1.00  0.00     0.188 C 
BRANCH   2   3
ATOM      3  O   UNL A   1      32.598  27.903  22.402  1.00  0.00    -0.376 OA
BRANCH   3   4
ATOM      4  C   UNL A   1      31.789  26.762  22.161  1.00  0.00     0.202 C 
BRANCH   4   5
ATOM      5  C   UNL A   1      32.296  25.423  22.757  1.00  0.00     0.261 C 
BRANCH   5   6
ATOM      6  O   UNL A   1      31.227  24.465  22.906  1.00  0.00    -0.460 OA
BRANCH   6   7
ATOM      7  C   UNL A   1      30.274  24.815  23.815  1.00  0.00     0.338 C 
ATOM      8  O   UNL A   1      29.213  25.378  23.588  1.00  0.00    -0.246 OA
BRANCH   7   9
ATOM      9  C   UNL A   1      30.643  24.228  25.110  1.00  0.00     0.087 C 
ATOM     10  C   UNL A   1      31.181  23.028  24.889  1.00  0.00     0.028 C 
ATOM     11  C   UNL A   1      30.866  25.050  26.332  1.00  0.00     0.316 C 
ATOM     12  C   UNL A   1      32.251  22.542  25.711  1.00  0.00     0.033 A 
ATOM     13  O   UNL A   1      31.967  24.543  27.159  1.00  0.00    -0.475 OA
ATOM     14  C   UNL A   1      32.632  23.388  26.789  1.00  0.00     0.129 A 
ATOM     15  C   UNL A   1      33.041  21.446  25.247  1.00  0.00     0.042 A 
ATOM     16  C   UNL A   1      33.816  23.133  27.470  1.00  0.00     0.049 A 
ATOM     17  C   UNL A   1      34.257  21.257  25.953  1.00  0.00     0.055 A 
ATOM     18  C   UNL A   1      34.630  22.084  27.040  1.00  0.00     0.025 A 
ATOM     19  Cl  UNL A   1      35.437  20.070  25.490  1.00  0.00    -0.083 Cl
BRANCH  11  20
ATOM     20  C   UNL A   1      31.053  26.559  26.025  1.00  0.00     0.430 C 
ATOM     21  F   UNL A   1      32.255  26.824  25.462  1.00  0.00    -0.167 F 
ATOM     22  F   UNL A   1      30.127  27.003  25.141  1.00  0.00    -0.167 F 
ATOM     23  F   UNL A   1      30.944  27.312  27.143  1.00  0.00    -0.167 F 
ENDBRANCH  11  20
BRANCH  15  24
ATOM     24  S   UNL A   1      32.654  20.261  23.853  1.00  0.00    -0.088 SA
BRANCH  24  25
ATOM     25  C   UNL A   1      32.937  18.488  24.099  1.00  0.00     0.012 A 
ATOM     26  C   UNL A   1      33.641  17.734  23.155  1.00  0.00     0.015 A 
ATOM     27  C   UNL A   1      32.332  17.735  25.116  1.00  0.00     0.015 A 
ATOM     28  C   UNL A   1      33.892  16.356  23.339  1.00  0.00     0.001 A 
ATOM     29  C   UNL A   1      32.615  16.369  25.346  1.00  0.00     0.001 A 
ATOM     30  C   UNL A   1      33.441  15.687  24.472  1.00  0.00     0.000 A 
ENDBRANCH  24  25
ENDBRANCH  15  24
ENDBRANCH   7   9
ENDBRANCH   6   7
ENDBRANCH   5   6
ENDBRANCH   4   5
ENDBRANCH   3   4
ENDBRANCH   2   3
ENDBRANCH   1   2
BRANCH   1  31
ATOM     31  O   UNL A   1      32.670  29.571  25.685  1.00  0.00    -0.376 OA
BRANCH  31  32
ATOM     32  C   UNL A   1      31.891  30.653  26.149  1.00  0.00     0.202 C 
BRANCH  32  33
ATOM     33  C   UNL A   1      32.578  31.352  27.336  1.00  0.00     0.261 C 
BRANCH  33  34
ATOM     34  O   UNL A   1      34.024  31.382  27.241  1.00  0.00    -0.460 OA
BRANCH  34  35
ATOM     35  C   UNL A   1      34.718  31.661  28.383  1.00  0.00     0.338 C 
ATOM     36  O   UNL A   1      34.275  32.239  29.360  1.00  0.00    -0.246 OA
BRANCH  35  37
ATOM     37  C   UNL A   1      36.059  30.973  28.376  1.00  0.00     0.060 A 
ATOM     38  C   UNL A   1      36.107  29.601  28.073  1.00  0.00     0.016 A 
ATOM     39  C   UNL A   1      37.269  31.650  28.597  1.00  0.00     0.016 A 
ATOM     40  C   UNL A   1      37.324  28.898  28.093  1.00  0.00     0.010 A 
ATOM     41  C   UNL A   1      38.489  30.945  28.628  1.00  0.00     0.010 A 
ATOM     42  C   UNL A   1      38.517  29.550  28.450  1.00  0.00    -0.014 A 
BRANCH  42  43
ATOM     43  C   UNL A   1      39.618  28.743  29.073  1.00  0.00     0.031 A 
ATOM     44  C   UNL A   1      40.054  29.185  30.457  1.00  0.00     0.074 A 
ATOM     45  C   UNL A   1      40.222  27.678  28.506  1.00  0.00     0.049 A 
ATOM     46  N   UNL A   1      40.929  28.661  31.276  1.00  0.00    -0.248 NA
ATOM     47  C   UNL A   1      39.399  30.396  30.979  1.00  0.00     0.031 C 
ATOM     48  C   UNL A   1      39.921  27.117  27.192  1.00  0.00     0.029 A 
ATOM     49  N   UNL A   1      41.232  26.868  28.987  1.00  0.00    -0.354 N 
ATOM     50  C   UNL A   1      40.908  29.465  32.413  1.00  0.00     0.074 A 
ATOM     51  C   UNL A   1      39.970  30.533  32.160  1.00  0.00     0.031 C 
ATOM     52  C   UNL A   1      40.722  26.055  26.974  1.00  0.00     0.029 A 
ATOM     53  C   UNL A   1      41.613  25.864  28.122  1.00  0.00     0.049 A 
ATOM     54  H   UNL A   1      41.645  26.998  29.871  1.00  0.00     0.167 HD
ATOM     55  C   UNL A   1      41.597  29.338  33.572  1.00  0.00     0.034 A 
ATOM     56  C   UNL A   1      42.567  24.910  28.243  1.00  0.00     0.034 A 
ATOM     57  C   UNL A   1      42.595  28.330  33.807  1.00  0.00     0.049 A 
ATOM     58  C   UNL A   1      43.403  24.845  29.512  1.00  0.00     0.074 A 
ATOM     59  C   UNL A   1      43.378  28.138  34.931  1.00  0.00     0.029 A 
ATOM     60  N   UNL A   1      42.973  27.362  32.887  1.00  0.00    -0.354 N 
ATOM     61  N   UNL A   1      43.334  25.585  30.595  1.00  0.00    -0.248 NA
ATOM     62  C   UNL A   1      44.441  23.804  29.572  1.00  0.00     0.031 C 
ATOM     63  C   UNL A   1      44.284  27.107  34.661  1.00  0.00     0.029 A 
ATOM     64  C   UNL A   1      44.001  26.592  33.406  1.00  0.00     0.049 A 
ATOM     65  H   UNL A   1      42.571  27.242  31.997  1.00  0.00     0.167 HD
ATOM     66  C   UNL A   1      44.285  25.064  31.477  1.00  0.00     0.074 A 
ATOM     67  C   UNL A   1      44.903  23.943  30.805  1.00  0.00     0.031 C 
ATOM     68  C   UNL A   1      44.611  25.469  32.733  1.00  0.00     0.034 A 
BRANCH  55  69
ATOM     69  C   UNL A   1      41.333  30.382  34.631  1.00  0.00     0.023 A 
ATOM     70  C   UNL A   1      40.148  30.372  35.392  1.00  0.00     0.031 A 
ATOM     71  C   UNL A   1      42.229  31.447  34.817  1.00  0.00     0.131 A 
ATOM     72  C   UNL A   1      39.852  31.454  36.234  1.00  0.00     0.055 A 
ATOM     73  C   UNL A   1      41.969  32.475  35.724  1.00  0.00     0.041 A 
ATOM     74  F   UNL A   1      43.357  31.526  34.095  1.00  0.00    -0.206 F 
ATOM     75  C   UNL A   1      40.766  32.492  36.425  1.00  0.00     0.022 A 
BRANCH  72  76
ATOM     76  S   UNL A   1      38.183  31.573  36.934  1.00  0.00     0.124 S 
ATOM     77  O   UNL A   1      37.810  30.165  37.045  1.00  0.00    -0.237 OA
ATOM     78  O   UNL A   1      38.417  32.273  38.192  1.00  0.00    -0.237 OA
ATOM     79  O   UNL A   1      37.443  32.330  35.927  1.00  0.00    -0.744 OA
ENDBRANCH  72  76
ENDBRANCH  55  69
BRANCH  56  80
ATOM     80  C   UNL A   1      42.838  23.930  27.141  1.00  0.00     0.023 A 
ATOM     81  C   UNL A   1      42.190  22.679  27.095  1.00  0.00     0.031 A 
ATOM     82  C   UNL A   1      43.837  24.178  26.184  1.00  0.00     0.131 A 
ATOM     83  C   UNL A   1      42.590  21.710  26.157  1.00  0.00     0.055 A 
ATOM     84  C   UNL A   1      44.189  23.233  25.215  1.00  0.00     0.041 A 
ATOM     85  F   UNL A   1      44.505  25.343  26.186  1.00  0.00    -0.206 F 
ATOM     86  C   UNL A   1      43.576  21.984  25.208  1.00  0.00     0.022 A 
BRANCH  83  87
ATOM     87  S   UNL A   1      41.884  20.039  26.266  1.00  0.00     0.124 S 
ATOM     88  O   UNL A   1      42.240  19.654  27.626  1.00  0.00    -0.237 OA
ATOM     89  O   UNL A   1      40.468  20.290  26.019  1.00  0.00    -0.237 OA
ATOM     90  O   UNL A   1      42.577  19.306  25.208  1.00  0.00    -0.744 OA
ENDBRANCH  83  87
ENDBRANCH  56  80
BRANCH  68  91
ATOM     91  C   UNL A   1      45.632  24.653  33.496  1.00  0.00     0.023 A 
ATOM     92  C   UNL A   1      46.994  24.999  33.540  1.00  0.00     0.031 A 
ATOM     93  C   UNL A   1      45.225  23.502  34.198  1.00  0.00     0.131 A 
ATOM     94  C   UNL A   1      47.906  24.171  34.214  1.00  0.00     0.055 A 
ATOM     95  C   UNL A   1      46.125  22.720  34.922  1.00  0.00     0.041 A 
ATOM     96  F   UNL A   1      43.937  23.120  34.195  1.00  0.00    -0.206 F 
ATOM     97  C   UNL A   1      47.478  23.044  34.920  1.00  0.00     0.022 A 
BRANCH  94  98
ATOM     98  S   UNL A   1      49.681  24.521  34.066  1.00  0.00     0.124 S 
ATOM     99  O   UNL A   1      49.862  24.575  32.619  1.00  0.00    -0.237 OA
ATOM    100  O   UNL A   1      49.807  25.793  34.772  1.00  0.00    -0.237 OA
ATOM    101  O   UNL A   1      50.313  23.380  34.728  1.00  0.00    -0.744 OA
ENDBRANCH  94  98
ENDBRANCH  68  91
ENDBRANCH  42  43
ENDBRANCH  35  37
ENDBRANCH  34  35
ENDBRANCH  33  34
ENDBRANCH  32  33
ENDBRANCH  31  32
ENDBRANCH   1  31
TORSDOF 23
ENDMDL
MODEL 2
REMARK VINA RESULT:     -11.3      2.190      3.433
REMARK SMILES O=C(OCCOCCOCCOC(=O)c1ccc(-c2c3nc(c(-c4cc(S(=O)(=O)[O-])ccc4F)c4ccc([nH]4)c(-c4cc(S(=O)(=O)[O-])ccc4F)c4nc(c(-c5cc(S(=O)(=O)[O-])ccc5F)c5ccc2[nH]5)C=C4)C=C3)cc1)C1=Cc2c(ccc(Cl)c2Sc2ccccc2)O[C@H]1C(F)(F)F
REMARK SMILES IDX 8 1 7 2 6 3 5 4 4 5 3 6 2 7 1 8 78 9 79 10 95 11 80 12 94 13
REMARK SMILES IDX 81 14 86 15 82 16 84 17 83 18 85 19 96 20 97 21 98 22 99 23
REMARK SMILES IDX 87 24 88 25 89 26 93 27 90 28 92 29 91 30 9 31 10 32 11 33
REMARK SMILES IDX 12 34 13 35 14 36 15 37 16 38 77 39 17 40 76 41 18 42 19 43
REMARK SMILES IDX 20 44 70 45 21 46 75 47 69 48 71 49 22 50 74 51 68 52 67 53
REMARK SMILES IDX 23 55 55 56 35 57 54 58 36 59 39 60 53 61 72 62 37 63 38 64
REMARK SMILES IDX 52 66 73 67 40 68 24 69 25 70 33 71 26 72 32 73 34 74 31 75
REMARK SMILES IDX 27 76 28 77 29 78 30 79 56 80 57 81 65 82 58 83 64 84 66 85
REMARK SMILES IDX 63 86 59 87 60 88 61 89 62 90 41 91 42 92 50 93 43 94 49 95
REMARK SMILES IDX 51 96 48 97 44 98 45 99 46 100 47 101
REMARK H PARENT 71 54 39 65
REMARK Flexibility Score: inf
ROOT
ATOM      1  C   UNL A   1      31.646  25.440  27.071  1.00  0.00     0.188 C 
ENDROOT
BRANCH   1   2
ATOM      2  C   UNL A   1      31.921  23.967  26.691  1.00  0.00     0.188 C 
BRANCH   2   3
ATOM      3  O   UNL A   1      33.147  23.404  27.138  1.00  0.00    -0.376 OA
BRANCH   3   4
ATOM      4  C   UNL A   1      33.372  22.067  26.723  1.00  0.00     0.202 C 
BRANCH   4   5
ATOM      5  C   UNL A   1      34.833  21.555  26.815  1.00  0.00     0.261 C 
BRANCH   5   6
ATOM      6  O   UNL A   1      35.134  20.605  25.771  1.00  0.00    -0.460 OA
BRANCH   6   7
ATOM      7  C   UNL A   1      36.299  20.843  25.106  1.00  0.00     0.338 C 
ATOM      8  O   UNL A   1      37.305  20.149  25.112  1.00  0.00    -0.246 OA
BRANCH   7   9
ATOM      9  C   UNL A   1      36.084  21.987  24.209  1.00  0.00     0.087 C 
ATOM     10  C   UNL A   1      34.897  21.843  23.621  1.00  0.00     0.028 C 
ATOM     11  C   UNL A   1      36.805  23.281  24.371  1.00  0.00     0.316 C 
ATOM     12  C   UNL A   1      34.081  22.985  23.327  1.00  0.00     0.033 A 
ATOM     13  O   UNL A   1      35.954  24.440  24.072  1.00  0.00    -0.475 OA
ATOM     14  C   UNL A   1      34.654  24.249  23.642  1.00  0.00     0.129 A 
ATOM     15  C   UNL A   1      32.694  22.794  23.041  1.00  0.00     0.042 A 
ATOM     16  C   UNL A   1      33.849  25.381  23.642  1.00  0.00     0.049 A 
ATOM     17  C   UNL A   1      31.914  23.978  23.094  1.00  0.00     0.055 A 
ATOM     18  C   UNL A   1      32.484  25.240  23.387  1.00  0.00     0.025 A 
ATOM     19  Cl  UNL A   1      30.187  23.974  22.907  1.00  0.00    -0.083 Cl
BRANCH  11  20
ATOM     20  C   UNL A   1      37.481  23.434  25.758  1.00  0.00     0.430 C 
ATOM     21  F   UNL A   1      36.585  23.682  26.742  1.00  0.00    -0.167 F 
ATOM     22  F   UNL A   1      38.123  22.297  26.123  1.00  0.00    -0.167 F 
ATOM     23  F   UNL A   1      38.389  24.435  25.763  1.00  0.00    -0.167 F 
ENDBRANCH  11  20
BRANCH  15  24
ATOM     24  S   UNL A   1      31.821  21.198  22.609  1.00  0.00    -0.088 SA
BRANCH  24  25
ATOM     25  C   UNL A   1      32.357  19.659  23.400  1.00  0.00     0.012 A 
ATOM     26  C   UNL A   1      32.667  18.528  22.637  1.00  0.00     0.015 A 
ATOM     27  C   UNL A   1      32.318  19.438  24.784  1.00  0.00     0.015 A 
ATOM     28  C   UNL A   1      33.108  17.325  23.233  1.00  0.00     0.001 A 
ATOM     29  C   UNL A   1      32.807  18.262  25.399  1.00  0.00     0.001 A 
ATOM     30  C   UNL A   1      33.249  17.214  24.613  1.00  0.00     0.000 A 
ENDBRANCH  24  25
ENDBRANCH  15  24
ENDBRANCH   7   9
ENDBRANCH   6   7
ENDBRANCH   5   6
ENDBRANCH   4   5
ENDBRANCH   3   4
ENDBRANCH   2   3
ENDBRANCH   1   2
BRANCH   1  31
ATOM     31  O   UNL A   1      30.915  26.300  26.209  1.00  0.00    -0.376 OA
BRANCH  31  32
ATOM     32  C   UNL A   1      31.453  27.581  25.958  1.00  0.00     0.202 C 
BRANCH  32  33
ATOM     33  C   UNL A   1      32.909  27.668  26.452  1.00  0.00     0.261 C 
BRANCH  33  34
ATOM     34  O   UNL A   1      33.113  28.643  27.504  1.00  0.00    -0.460 OA
BRANCH  34  35
ATOM     35  C   UNL A   1      33.832  29.760  27.188  1.00  0.00     0.338 C 
ATOM     36  O   UNL A   1      33.406  30.732  26.588  1.00  0.00    -0.246 OA
BRANCH  35  37
ATOM     37  C   UNL A   1      35.179  29.740  27.862  1.00  0.00     0.060 A 
ATOM     38  C   UNL A   1      36.329  29.882  27.066  1.00  0.00     0.016 A 
ATOM     39  C   UNL A   1      35.338  29.652  29.254  1.00  0.00     0.016 A 
ATOM     40  C   UNL A   1      37.614  29.829  27.634  1.00  0.00     0.010 A 
ATOM     41  C   UNL A   1      36.626  29.589  29.825  1.00  0.00     0.010 A 
ATOM     42  C   UNL A   1      37.773  29.602  29.012  1.00  0.00    -0.014 A 
BRANCH  42  43
ATOM     43  C   UNL A   1      39.030  28.934  29.489  1.00  0.00     0.031 A 
ATOM     44  C   UNL A   1      39.579  29.434  30.810  1.00  0.00     0.074 A 
ATOM     45  C   UNL A   1      39.679  27.943  28.843  1.00  0.00     0.049 A 
ATOM     46  N   UNL A   1      40.604  29.021  31.511  1.00  0.00    -0.248 NA
ATOM     47  C   UNL A   1      38.857  30.564  31.418  1.00  0.00     0.031 C 
ATOM     48  C   UNL A   1      39.285  27.341  27.573  1.00  0.00     0.029 A 
ATOM     49  N   UNL A   1      40.828  27.260  29.190  1.00  0.00    -0.354 N 
ATOM     50  C   UNL A   1      40.630  29.826  32.648  1.00  0.00     0.074 A 
ATOM     51  C   UNL A   1      39.550  30.775  32.521  1.00  0.00     0.031 C 
ATOM     52  C   UNL A   1      40.172  26.378  27.249  1.00  0.00     0.029 A 
ATOM     53  C   UNL A   1      41.214  26.300  28.277  1.00  0.00     0.049 A 
ATOM     54  H   UNL A   1      41.330  27.443  30.017  1.00  0.00     0.167 HD
ATOM     55  C   UNL A   1      41.467  29.788  33.712  1.00  0.00     0.034 A 
ATOM     56  C   UNL A   1      42.280  25.465  28.273  1.00  0.00     0.034 A 
ATOM     57  C   UNL A   1      42.598  28.905  33.815  1.00  0.00     0.049 A 
ATOM     58  C   UNL A   1      43.268  25.507  29.428  1.00  0.00     0.074 A 
ATOM     59  C   UNL A   1      43.530  28.815  34.832  1.00  0.00     0.029 A 
ATOM     60  N   UNL A   1      42.969  27.982  32.848  1.00  0.00    -0.354 N 
ATOM     61  N   UNL A   1      43.249  26.242  30.516  1.00  0.00    -0.248 NA
ATOM     62  C   UNL A   1      44.420  24.594  29.352  1.00  0.00     0.031 C 
ATOM     63  C   UNL A   1      44.510  27.894  34.444  1.00  0.00     0.029 A 
ATOM     64  C   UNL A   1      44.135  27.340  33.230  1.00  0.00     0.049 A 
ATOM     65  H   UNL A   1      42.477  27.809  32.013  1.00  0.00     0.167 HD
ATOM     66  C   UNL A   1      44.355  25.842  31.270  1.00  0.00     0.074 A 
ATOM     67  C   UNL A   1      45.012  24.796  30.519  1.00  0.00     0.031 C 
ATOM     68  C   UNL A   1      44.785  26.292  32.479  1.00  0.00     0.034 A 
BRANCH  55  69
ATOM     69  C   UNL A   1      41.216  30.802  34.803  1.00  0.00     0.023 A 
ATOM     70  C   UNL A   1      40.081  30.723  35.632  1.00  0.00     0.031 A 
ATOM     71  C   UNL A   1      42.069  31.907  34.955  1.00  0.00     0.131 A 
ATOM     72  C   UNL A   1      39.783  31.776  36.509  1.00  0.00     0.055 A 
ATOM     73  C   UNL A   1      41.814  32.908  35.894  1.00  0.00     0.041 A 
ATOM     74  F   UNL A   1      43.147  32.053  34.169  1.00  0.00    -0.206 F 
ATOM     75  C   UNL A   1      40.655  32.855  36.664  1.00  0.00     0.022 A 
BRANCH  72  76
ATOM     76  S   UNL A   1      38.155  31.802  37.308  1.00  0.00     0.124 S 
ATOM     77  O   UNL A   1      37.785  30.389  37.265  1.00  0.00    -0.237 OA
ATOM     78  O   UNL A   1      38.459  32.344  38.627  1.00  0.00    -0.237 OA
ATOM     79  O   UNL A   1      37.363  32.674  36.442  1.00  0.00    -0.744 OA
ENDBRANCH  72  76
ENDBRANCH  55  69
BRANCH  56  80
ATOM     80  C   UNL A   1      42.525  24.515  27.138  1.00  0.00     0.023 A 
ATOM     81  C   UNL A   1      42.036  23.194  27.168  1.00  0.00     0.031 A 
ATOM     82  C   UNL A   1      43.354  24.874  26.062  1.00  0.00     0.131 A 
ATOM     83  C   UNL A   1      42.428  22.272  26.181  1.00  0.00     0.055 A 
ATOM     84  C   UNL A   1      43.692  23.971  25.049  1.00  0.00     0.041 A 
ATOM     85  F   UNL A   1      43.868  26.113  25.985  1.00  0.00    -0.206 F 
ATOM     86  C   UNL A   1      43.242  22.656  25.113  1.00  0.00     0.022 A 
BRANCH  83  87
ATOM     87  S   UNL A   1      41.953  20.528  26.369  1.00  0.00     0.124 S 
ATOM     88  O   UNL A   1      40.508  20.593  26.188  1.00  0.00    -0.237 OA
ATOM     89  O   UNL A   1      42.706  19.890  25.295  1.00  0.00    -0.237 OA
ATOM     90  O   UNL A   1      42.399  20.196  27.720  1.00  0.00    -0.744 OA
ENDBRANCH  83  87
ENDBRANCH  56  80
BRANCH  68  91
ATOM     91  C   UNL A   1      45.980  25.606  33.104  1.00  0.00     0.023 A 
ATOM     92  C   UNL A   1      45.854  24.476  33.931  1.00  0.00     0.031 A 
ATOM     93  C   UNL A   1      47.276  26.099  32.860  1.00  0.00     0.131 A 
ATOM     94  C   UNL A   1      46.994  23.917  34.533  1.00  0.00     0.055 A 
ATOM     95  C   UNL A   1      48.411  25.498  33.407  1.00  0.00     0.041 A 
ATOM     96  F   UNL A   1      47.463  27.174  32.078  1.00  0.00    -0.206 F 
ATOM     97  C   UNL A   1      48.273  24.410  34.262  1.00  0.00     0.022 A 
BRANCH  94  98
ATOM     98  S   UNL A   1      46.777  22.603  35.766  1.00  0.00     0.124 S 
ATOM     99  O   UNL A   1      48.154  22.191  36.017  1.00  0.00    -0.237 OA
ATOM    100  O   UNL A   1      46.114  23.309  36.859  1.00  0.00    -0.237 OA
ATOM    101  O   UNL A   1      45.950  21.615  35.075  1.00  0.00    -0.744 OA
ENDBRANCH  94  98
ENDBRANCH  68  91
ENDBRANCH  42  43
ENDBRANCH  35  37
ENDBRANCH  34  35
ENDBRANCH  33  34
ENDBRANCH  32  33
ENDBRANCH  31  32
ENDBRANCH   1  31
TORSDOF 23
ENDMDL
MODEL 3
REMARK VINA RESULT:     -11.2      3.803      6.083
REMARK SMILES O=C(OCCOCCOCCOC(=O)c1ccc(-c2c3nc(c(-c4cc(S(=O)(=O)[O-])ccc4F)c4ccc([nH]4)c(-c4cc(S(=O)(=O)[O-])ccc4F)c4nc(c(-c5cc(S(=O)(=O)[O-])ccc5F)c5ccc2[nH]5)C=C4)C=C3)cc1)C1=Cc2c(ccc(Cl)c2Sc2ccccc2)O[C@H]1C(F)(F)F
REMARK SMILES IDX 8 1 7 2 6 3 5 4 4 5 3 6 2 7 1 8 78 9 79 10 95 11 80 12 94 13
REMARK SMILES IDX 81 14 86 15 82 16 84 17 83 18 85 19 96 20 97 21 98 22 99 23
REMARK SMILES IDX 87 24 88 25 89 26 93 27 90 28 92 29 91 30 9 31 10 32 11 33
REMARK SMILES IDX 12 34 13 35 14 36 15 37 16 38 77 39 17 40 76 41 18 42 19 43
REMARK SMILES IDX 20 44 70 45 21 46 75 47 69 48 71 49 22 50 74 51 68 52 67 53
REMARK SMILES IDX 23 55 55 56 35 57 54 58 36 59 39 60 53 61 72 62 37 63 38 64
REMARK SMILES IDX 52 66 73 67 40 68 24 69 25 70 33 71 26 72 32 73 34 74 31 75
REMARK SMILES IDX 27 76 28 77 29 78 30 79 56 80 57 81 65 82 58 83 64 84 66 85
REMARK SMILES IDX 63 86 59 87 60 88 61 89 62 90 41 91 42 92 50 93 43 94 49 95
REMARK SMILES IDX 51 96 48 97 44 98 45 99 46 100 47 101
REMARK H PARENT 71 54 39 65
REMARK Flexibility Score: inf
ROOT
ATOM      1  C   UNL A   1      32.162  29.223  26.101  1.00  0.00     0.188 C 
ENDROOT
BRANCH   1   2
ATOM      2  C   UNL A   1      31.944  28.200  27.238  1.00  0.00     0.188 C 
BRANCH   2   3
ATOM      3  O   UNL A   1      31.392  26.941  26.875  1.00  0.00    -0.376 OA
BRANCH   3   4
ATOM      4  C   UNL A   1      32.349  25.935  26.585  1.00  0.00     0.202 C 
BRANCH   4   5
ATOM      5  C   UNL A   1      31.918  24.474  26.874  1.00  0.00     0.261 C 
BRANCH   5   6
ATOM      6  O   UNL A   1      30.628  24.172  26.299  1.00  0.00    -0.460 OA
BRANCH   6   7
ATOM      7  C   UNL A   1      30.584  23.016  25.579  1.00  0.00     0.338 C 
ATOM      8  O   UNL A   1      30.175  21.929  25.957  1.00  0.00    -0.246 OA
BRANCH   7   9
ATOM      9  C   UNL A   1      30.935  23.334  24.188  1.00  0.00     0.087 C 
ATOM     10  C   UNL A   1      30.517  24.572  23.921  1.00  0.00     0.028 C 
ATOM     11  C   UNL A   1      32.013  22.620  23.447  1.00  0.00     0.316 C 
ATOM     12  C   UNL A   1      31.270  25.429  23.052  1.00  0.00     0.033 A 
ATOM     13  O   UNL A   1      32.777  23.512  22.567  1.00  0.00    -0.475 OA
ATOM     14  C   UNL A   1      32.426  24.846  22.463  1.00  0.00     0.129 A 
ATOM     15  C   UNL A   1      31.012  26.834  23.067  1.00  0.00     0.042 A 
ATOM     16  C   UNL A   1      33.352  25.663  21.828  1.00  0.00     0.049 A 
ATOM     17  C   UNL A   1      32.011  27.622  22.440  1.00  0.00     0.055 A 
ATOM     18  C   UNL A   1      33.152  27.044  21.834  1.00  0.00     0.025 A 
ATOM     19  Cl  UNL A   1      31.978  29.359  22.445  1.00  0.00    -0.083 Cl
BRANCH  11  20
ATOM     20  C   UNL A   1      32.958  21.813  24.374  1.00  0.00     0.430 C 
ATOM     21  F   UNL A   1      33.129  22.408  25.578  1.00  0.00    -0.167 F 
ATOM     22  F   UNL A   1      32.458  20.582  24.639  1.00  0.00    -0.167 F 
ATOM     23  F   UNL A   1      34.179  21.647  23.818  1.00  0.00    -0.167 F 
ENDBRANCH  11  20
BRANCH  15  24
ATOM     24  S   UNL A   1      29.538  27.723  23.799  1.00  0.00    -0.088 SA
BRANCH  24  25
ATOM     25  C   UNL A   1      29.043  29.323  23.109  1.00  0.00     0.012 A 
ATOM     26  C   UNL A   1      28.507  29.416  21.821  1.00  0.00     0.015 A 
ATOM     27  C   UNL A   1      29.326  30.555  23.715  1.00  0.00     0.015 A 
ATOM     28  C   UNL A   1      28.094  30.651  21.273  1.00  0.00     0.001 A 
ATOM     29  C   UNL A   1      28.872  31.795  23.208  1.00  0.00     0.001 A 
ATOM     30  C   UNL A   1      28.209  31.834  21.995  1.00  0.00     0.000 A 
ENDBRANCH  24  25
ENDBRANCH  15  24
ENDBRANCH   7   9
ENDBRANCH   6   7
ENDBRANCH   5   6
ENDBRANCH   4   5
ENDBRANCH   3   4
ENDBRANCH   2   3
ENDBRANCH   1   2
BRANCH   1  31
ATOM     31  O   UNL A   1      33.071  30.305  26.245  1.00  0.00    -0.376 OA
BRANCH  31  32
ATOM     32  C   UNL A   1      33.607  30.536  27.530  1.00  0.00     0.202 C 
BRANCH  32  33
ATOM     33  C   UNL A   1      34.210  31.950  27.625  1.00  0.00     0.261 C 
BRANCH  33  34
ATOM     34  O   UNL A   1      33.222  33.000  27.769  1.00  0.00    -0.460 OA
BRANCH  34  35
ATOM     35  C   UNL A   1      33.536  34.042  28.592  1.00  0.00     0.338 C 
ATOM     36  O   UNL A   1      32.905  35.080  28.696  1.00  0.00    -0.246 OA
BRANCH  35  37
ATOM     37  C   UNL A   1      34.656  33.669  29.528  1.00  0.00     0.060 A 
ATOM     38  C   UNL A   1      35.936  34.200  29.287  1.00  0.00     0.016 A 
ATOM     39  C   UNL A   1      34.469  32.868  30.666  1.00  0.00     0.016 A 
ATOM     40  C   UNL A   1      37.028  33.853  30.102  1.00  0.00     0.010 A 
ATOM     41  C   UNL A   1      35.565  32.510  31.478  1.00  0.00     0.010 A 
ATOM     42  C   UNL A   1      36.866  32.941  31.159  1.00  0.00    -0.014 A 
BRANCH  42  43
ATOM     43  C   UNL A   1      38.046  32.116  31.583  1.00  0.00     0.031 A 
ATOM     44  C   UNL A   1      38.642  32.469  32.932  1.00  0.00     0.074 A 
ATOM     45  C   UNL A   1      38.590  31.108  30.870  1.00  0.00     0.049 A 
ATOM     46  N   UNL A   1      39.618  31.907  33.598  1.00  0.00    -0.248 NA
ATOM     47  C   UNL A   1      38.040  33.624  33.617  1.00  0.00     0.031 C 
ATOM     48  C   UNL A   1      38.137  30.636  29.565  1.00  0.00     0.029 A 
ATOM     49  N   UNL A   1      39.662  30.289  31.164  1.00  0.00    -0.354 N 
ATOM     50  C   UNL A   1      39.727  32.627  34.785  1.00  0.00     0.074 A 
ATOM     51  C   UNL A   1      38.751  33.690  34.727  1.00  0.00     0.031 C 
ATOM     52  C   UNL A   1      38.920  29.610  29.174  1.00  0.00     0.029 A 
ATOM     53  C   UNL A   1      39.948  29.357  30.188  1.00  0.00     0.049 A 
ATOM     54  H   UNL A   1      40.179  30.365  31.999  1.00  0.00     0.167 HD
ATOM     55  C   UNL A   1      40.554  32.434  35.840  1.00  0.00     0.034 A 
ATOM     56  C   UNL A   1      40.922  28.419  30.123  1.00  0.00     0.034 A 
ATOM     57  C   UNL A   1      41.587  31.434  35.878  1.00  0.00     0.049 A 
ATOM     58  C   UNL A   1      41.908  28.283  31.272  1.00  0.00     0.074 A 
ATOM     59  C   UNL A   1      42.504  31.181  36.881  1.00  0.00     0.029 A 
ATOM     60  N   UNL A   1      41.862  30.543  34.850  1.00  0.00    -0.354 N 
ATOM     61  N   UNL A   1      41.963  28.942  32.407  1.00  0.00    -0.248 NA
ATOM     62  C   UNL A   1      42.960  27.263  31.130  1.00  0.00     0.031 C 
ATOM     63  C   UNL A   1      43.384  30.192  36.428  1.00  0.00     0.029 A 
ATOM     64  C   UNL A   1      42.956  29.761  35.183  1.00  0.00     0.049 A 
ATOM     65  H   UNL A   1      41.355  30.478  34.008  1.00  0.00     0.167 HD
ATOM     66  C   UNL A   1      43.021  28.381  33.126  1.00  0.00     0.074 A 
ATOM     67  C   UNL A   1      43.568  27.325  32.304  1.00  0.00     0.031 C 
ATOM     68  C   UNL A   1      43.494  28.703  34.360  1.00  0.00     0.034 A 
BRANCH  55  69
ATOM     69  C   UNL A   1      40.408  33.394  36.996  1.00  0.00     0.023 A 
ATOM     70  C   UNL A   1      41.296  34.471  37.173  1.00  0.00     0.031 A 
ATOM     71  C   UNL A   1      39.429  33.176  37.980  1.00  0.00     0.131 A 
ATOM     72  C   UNL A   1      41.244  35.231  38.351  1.00  0.00     0.055 A 
ATOM     73  C   UNL A   1      39.327  33.993  39.107  1.00  0.00     0.041 A 
ATOM     74  F   UNL A   1      38.578  32.143  37.881  1.00  0.00    -0.206 F 
ATOM     75  C   UNL A   1      40.250  35.016  39.307  1.00  0.00     0.022 A 
BRANCH  72  76
ATOM     76  S   UNL A   1      42.603  36.382  38.697  1.00  0.00     0.124 S 
ATOM     77  O   UNL A   1      43.394  36.279  37.474  1.00  0.00    -0.237 OA
ATOM     78  O   UNL A   1      41.903  37.645  38.901  1.00  0.00    -0.237 OA
ATOM     79  O   UNL A   1      43.233  35.819  39.889  1.00  0.00    -0.744 OA
ENDBRANCH  72  76
ENDBRANCH  55  69
BRANCH  56  80
ATOM     80  C   UNL A   1      41.068  27.526  28.927  1.00  0.00     0.023 A 
ATOM     81  C   UNL A   1      42.061  27.758  27.954  1.00  0.00     0.031 A 
ATOM     82  C   UNL A   1      40.142  26.499  28.675  1.00  0.00     0.131 A 
ATOM     83  C   UNL A   1      42.065  27.019  26.758  1.00  0.00     0.055 A 
ATOM     84  C   UNL A   1      40.187  25.726  27.510  1.00  0.00     0.041 A 
ATOM     85  F   UNL A   1      39.160  26.240  29.554  1.00  0.00    -0.206 F 
ATOM     86  C   UNL A   1      41.142  25.995  26.536  1.00  0.00     0.022 A 
BRANCH  83  87
ATOM     87  S   UNL A   1      43.223  27.489  25.438  1.00  0.00     0.124 S 
ATOM     88  O   UNL A   1      43.709  26.188  24.993  1.00  0.00    -0.237 OA
ATOM     89  O   UNL A   1      42.354  28.203  24.509  1.00  0.00    -0.237 OA
ATOM     90  O   UNL A   1      44.208  28.320  26.128  1.00  0.00    -0.744 OA
ENDBRANCH  83  87
ENDBRANCH  56  80
BRANCH  68  91
ATOM     91  C   UNL A   1      44.611  27.858  34.931  1.00  0.00     0.023 A 
ATOM     92  C   UNL A   1      44.368  26.703  35.696  1.00  0.00     0.031 A 
ATOM     93  C   UNL A   1      45.952  28.220  34.699  1.00  0.00     0.131 A 
ATOM     94  C   UNL A   1      45.444  25.992  36.252  1.00  0.00     0.055 A 
ATOM     95  C   UNL A   1      47.018  27.471  35.198  1.00  0.00     0.041 A 
ATOM     96  F   UNL A   1      46.250  29.312  33.976  1.00  0.00    -0.206 F 
ATOM     97  C   UNL A   1      46.768  26.357  35.993  1.00  0.00     0.022 A 
BRANCH  94  98
ATOM     98  S   UNL A   1      45.093  24.641  37.413  1.00  0.00     0.124 S 
ATOM     99  O   UNL A   1      43.909  25.136  38.107  1.00  0.00    -0.237 OA
ATOM    100  O   UNL A   1      44.881  23.508  36.518  1.00  0.00    -0.237 OA
ATOM    101  O   UNL A   1      46.304  24.567  38.230  1.00  0.00    -0.744 OA
ENDBRANCH  94  98
ENDBRANCH  68  91
ENDBRANCH  42  43
ENDBRANCH  35  37
ENDBRANCH  34  35
ENDBRANCH  33  34
ENDBRANCH  32  33
ENDBRANCH  31  32
ENDBRANCH   1  31
TORSDOF 23
ENDMDL
