MODEL 1
REMARK VINA RESULT:      -9.1      0.000      0.000
REMARK SMILES Cc1c(C(=O)OCCOCCOCCOC(=O)c2ccc(-c3c4nc(c(-c5cc(S(=O)(=O)[O-])ccc5F)c5ccc([nH]5)c(-c5cc(S(=O)(=O)[O-])ccc5F)c5nc(c(-c6cc(S(=O)(=O)[O-])ccc6F)c6ccc3[nH]6)C=C5)C=C4)cc2)cccc1-n1c(C)cc(/C=C2/C(=O)NC(=S)N=C2O)c1C
REMARK SMILES IDX 10 1 9 2 8 3 7 4 6 5 4 6 5 7 3 8 1 9 2 10 84 11 81 12 83 13
REMARK SMILES IDX 82 14 85 15 86 16 100 17 87 18 88 19 89 20 101 21 90 22
REMARK SMILES IDX 91 23 92 24 98 25 93 26 94 27 97 28 95 29 96 31 99 32 11 34
REMARK SMILES IDX 12 35 13 36 14 37 15 38 16 39 17 40 18 41 19 42 80 43 20 44
REMARK SMILES IDX 79 45 21 46 22 47 23 48 73 49 24 50 78 51 72 52 74 53 25 54
REMARK SMILES IDX 77 55 71 56 70 57 26 59 58 60 38 61 57 62 39 63 42 64 56 65
REMARK SMILES IDX 75 66 40 67 41 68 55 70 76 71 43 72 27 73 28 74 36 75 29 76
REMARK SMILES IDX 35 77 37 78 34 79 30 80 31 81 32 82 33 83 59 84 60 85 68 86
REMARK SMILES IDX 61 87 67 88 69 89 66 90 62 91 63 92 64 93 65 94 44 95 45 96
REMARK SMILES IDX 53 97 46 98 52 99 54 100 51 101 47 102 48 103 49 104 50 105
REMARK H PARENT 94 30 99 33 74 58 42 69
REMARK Flexibility Score: inf
ROOT
ATOM      1  C   UNL A   1      51.779  29.464  38.448  1.00  0.00     0.188 C 
ENDROOT
BRANCH   1   2
ATOM      2  O   UNL A   1      50.451  29.839  38.885  1.00  0.00    -0.376 OA
BRANCH   2   3
ATOM      3  C   UNL A   1      49.325  30.000  38.020  1.00  0.00     0.202 C 
BRANCH   3   4
ATOM      4  C   UNL A   1      47.902  29.182  38.200  1.00  0.00     0.261 C 
BRANCH   4   5
ATOM      5  O   UNL A   1      46.632  28.863  37.091  1.00  0.00    -0.460 OA
BRANCH   5   6
ATOM      6  C   UNL A   1      46.203  29.218  35.778  1.00  0.00     0.338 C 
ATOM      7  O   UNL A   1      46.489  30.174  35.061  1.00  0.00    -0.246 OA
BRANCH   6   8
ATOM      8  C   UNL A   1      45.208  28.505  34.972  1.00  0.00     0.065 A 
ATOM      9  C   UNL A   1      47.058  26.899  34.597  1.00  0.00     0.047 C 
ATOM     10  C   UNL A   1      45.588  27.216  34.661  1.00  0.00    -0.012 A 
ATOM     11  C   UNL A   1      44.558  26.264  34.576  1.00  0.00     0.049 A 
ATOM     12  C   UNL A   1      43.818  28.788  35.202  1.00  0.00     0.016 A 
ATOM     13  C   UNL A   1      43.192  26.532  34.747  1.00  0.00     0.027 A 
ATOM     14  C   UNL A   1      42.817  27.819  35.069  1.00  0.00     0.003 A 
BRANCH  11  15
ATOM     15  N   UNL A   1      44.907  24.986  34.153  1.00  0.00    -0.318 N 
ATOM     16  C   UNL A   1      44.735  24.492  32.877  1.00  0.00     0.020 A 
ATOM     17  C   UNL A   1      45.053  23.955  35.061  1.00  0.00     0.027 A 
ATOM     18  C   UNL A   1      44.323  25.352  31.724  1.00  0.00     0.065 C 
ATOM     19  C   UNL A   1      44.941  23.130  32.954  1.00  0.00     0.031 A 
ATOM     20  C   UNL A   1      45.174  22.798  34.319  1.00  0.00    -0.003 A 
ATOM     21  C   UNL A   1      44.995  24.238  36.537  1.00  0.00     0.065 C 
BRANCH  20  22
ATOM     22  C   UNL A   1      45.284  21.478  34.833  1.00  0.00     0.029 C 
ATOM     23  C   UNL A   1      46.325  20.889  35.449  1.00  0.00     0.102 C 
ATOM     24  C   UNL A   1      46.031  19.605  36.120  1.00  0.00     0.262 C 
ATOM     25  C   UNL A   1      47.679  21.394  35.691  1.00  0.00     0.226 C 
ATOM     26  O   UNL A   1      45.058  18.900  35.882  1.00  0.00    -0.269 OA
ATOM     27  N   UNL A   1      46.934  19.284  37.098  1.00  0.00    -0.297 N 
ATOM     28  N   UNL A   1      48.494  20.990  36.595  1.00  0.00    -0.184 NA
ATOM     29  C   UNL A   1      48.089  19.963  37.404  1.00  0.00     0.203 C 
ATOM     30  H   UNL A   1      46.734  18.486  37.639  1.00  0.00     0.172 HD
ATOM     31  S   UNL A   1      48.971  19.429  38.728  1.00  0.00    -0.038 S 
BRANCH  25  32
ATOM     32  O   UNL A   1      48.127  22.329  34.849  1.00  0.00    -0.493 OA
ATOM     33  H   UNL A   1      47.877  23.225  34.967  1.00  0.00     0.295 HD
ENDBRANCH  25  32
ENDBRANCH  20  22
ENDBRANCH  11  15
ENDBRANCH   6   8
ENDBRANCH   5   6
ENDBRANCH   4   5
ENDBRANCH   3   4
ENDBRANCH   2   3
ENDBRANCH   1   2
BRANCH   1  34
ATOM     34  C   UNL A   1      52.121  28.058  37.941  1.00  0.00     0.188 C 
BRANCH  34  35
ATOM     35  O   UNL A   1      51.620  27.863  36.628  1.00  0.00    -0.376 OA
BRANCH  35  36
ATOM     36  C   UNL A   1      52.527  28.102  35.572  1.00  0.00     0.202 C 
BRANCH  36  37
ATOM     37  C   UNL A   1      52.258  27.210  34.349  1.00  0.00     0.261 C 
BRANCH  37  38
ATOM     38  O   UNL A   1      50.841  27.020  34.123  1.00  0.00    -0.460 OA
BRANCH  38  39
ATOM     39  C   UNL A   1      50.473  26.112  33.150  1.00  0.00     0.338 C 
ATOM     40  O   UNL A   1      50.657  24.910  33.262  1.00  0.00    -0.246 OA
BRANCH  39  41
ATOM     41  C   UNL A   1      49.750  26.802  32.028  1.00  0.00     0.060 A 
ATOM     42  C   UNL A   1      49.566  28.172  31.810  1.00  0.00     0.016 A 
ATOM     43  C   UNL A   1      48.985  26.004  31.258  1.00  0.00     0.016 A 
ATOM     44  C   UNL A   1      48.489  28.700  30.948  1.00  0.00     0.010 A 
ATOM     45  C   UNL A   1      47.822  26.583  30.751  1.00  0.00     0.010 A 
ATOM     46  C   UNL A   1      47.469  27.903  30.400  1.00  0.00    -0.014 A 
BRANCH  46  47
ATOM     47  C   UNL A   1      46.013  28.412  29.698  1.00  0.00     0.031 A 
ATOM     48  C   UNL A   1      44.389  28.631  30.240  1.00  0.00     0.074 A 
ATOM     49  C   UNL A   1      46.041  28.521  28.348  1.00  0.00     0.049 A 
ATOM     50  N   UNL A   1      43.331  28.146  29.604  1.00  0.00    -0.248 NA
ATOM     51  C   UNL A   1      43.838  29.240  31.519  1.00  0.00     0.031 C 
ATOM     52  C   UNL A   1      44.964  28.918  27.447  1.00  0.00     0.029 A 
ATOM     53  N   UNL A   1      47.036  28.056  27.493  1.00  0.00    -0.354 N 
ATOM     54  C   UNL A   1      42.169  28.403  30.352  1.00  0.00     0.074 A 
ATOM     55  C   UNL A   1      42.544  29.015  31.557  1.00  0.00     0.031 C 
ATOM     56  C   UNL A   1      45.196  28.370  26.246  1.00  0.00     0.029 A 
ATOM     57  C   UNL A   1      46.396  27.562  26.351  1.00  0.00     0.049 A 
ATOM     58  H   UNL A   1      48.006  28.074  27.660  1.00  0.00     0.167 HD
ATOM     59  C   UNL A   1      40.883  28.198  29.978  1.00  0.00     0.034 A 
ATOM     60  C   UNL A   1      46.573  26.269  25.962  1.00  0.00     0.034 A 
ATOM     61  C   UNL A   1      40.815  27.809  28.613  1.00  0.00     0.049 A 
ATOM     62  C   UNL A   1      45.271  25.491  25.871  1.00  0.00     0.074 A 
ATOM     63  C   UNL A   1      40.763  28.516  27.430  1.00  0.00     0.029 A 
ATOM     64  N   UNL A   1      41.248  26.544  28.312  1.00  0.00    -0.354 N 
ATOM     65  N   UNL A   1      44.093  25.962  26.185  1.00  0.00    -0.248 NA
ATOM     66  C   UNL A   1      45.212  24.077  25.494  1.00  0.00     0.031 C 
ATOM     67  C   UNL A   1      41.204  27.640  26.398  1.00  0.00     0.029 A 
ATOM     68  C   UNL A   1      41.449  26.402  26.963  1.00  0.00     0.049 A 
ATOM     69  H   UNL A   1      41.395  25.833  28.976  1.00  0.00     0.167 HD
ATOM     70  C   UNL A   1      43.169  24.949  26.138  1.00  0.00     0.074 A 
ATOM     71  C   UNL A   1      43.918  23.786  25.703  1.00  0.00     0.031 C 
ATOM     72  C   UNL A   1      41.861  25.100  26.498  1.00  0.00     0.034 A 
BRANCH  59  73
ATOM     73  C   UNL A   1      39.754  28.684  30.857  1.00  0.00     0.023 A 
ATOM     74  C   UNL A   1      39.749  30.015  31.294  1.00  0.00     0.031 A 
ATOM     75  C   UNL A   1      38.780  27.826  31.427  1.00  0.00     0.131 A 
ATOM     76  C   UNL A   1      38.890  30.425  32.330  1.00  0.00     0.055 A 
ATOM     77  C   UNL A   1      37.957  28.225  32.491  1.00  0.00     0.041 A 
ATOM     78  F   UNL A   1      38.680  26.544  31.037  1.00  0.00    -0.206 F 
ATOM     79  C   UNL A   1      38.025  29.530  32.962  1.00  0.00     0.022 A 
BRANCH  76  80
ATOM     80  S   UNL A   1      38.956  32.152  32.875  1.00  0.00     0.124 S 
ATOM     81  O   UNL A   1      38.738  32.033  34.313  1.00  0.00    -0.237 OA
ATOM     82  O   UNL A   1      40.295  32.552  32.457  1.00  0.00    -0.237 OA
ATOM     83  O   UNL A   1      37.862  32.787  32.139  1.00  0.00    -0.744 OA
ENDBRANCH  76  80
ENDBRANCH  59  73
BRANCH  60  84
ATOM     84  C   UNL A   1      47.938  25.713  26.270  1.00  0.00     0.023 A 
ATOM     85  C   UNL A   1      49.029  26.185  25.492  1.00  0.00     0.031 A 
ATOM     86  C   UNL A   1      48.253  24.995  27.433  1.00  0.00     0.131 A 
ATOM     87  C   UNL A   1      50.348  26.080  25.958  1.00  0.00     0.055 A 
ATOM     88  C   UNL A   1      49.584  24.802  27.842  1.00  0.00     0.041 A 
ATOM     89  F   UNL A   1      47.294  24.578  28.269  1.00  0.00    -0.206 F 
ATOM     90  C   UNL A   1      50.635  25.366  27.119  1.00  0.00     0.022 A 
BRANCH  87  91
ATOM     91  S   UNL A   1      51.662  27.100  25.212  1.00  0.00     0.124 S 
ATOM     92  O   UNL A   1      51.204  28.454  25.504  1.00  0.00    -0.237 OA
ATOM     93  O   UNL A   1      52.871  26.674  25.912  1.00  0.00    -0.237 OA
ATOM     94  O   UNL A   1      51.614  26.700  23.807  1.00  0.00    -0.744 OA
ENDBRANCH  87  91
ENDBRANCH  60  84
BRANCH  72  95
ATOM     95  C   UNL A   1      40.837  23.999  26.462  1.00  0.00     0.023 A 
ATOM     96  C   UNL A   1      41.226  22.661  26.343  1.00  0.00     0.031 A 
ATOM     97  C   UNL A   1      39.444  24.258  26.427  1.00  0.00     0.131 A 
ATOM     98  C   UNL A   1      40.262  21.647  26.249  1.00  0.00     0.055 A 
ATOM     99  C   UNL A   1      38.493  23.255  26.234  1.00  0.00     0.041 A 
ATOM    100  F   UNL A   1      38.941  25.486  26.618  1.00  0.00    -0.206 F 
ATOM    101  C   UNL A   1      38.900  21.934  26.154  1.00  0.00     0.022 A 
BRANCH  98 102
ATOM    102  S   UNL A   1      40.822  19.932  26.334  1.00  0.00     0.124 S 
ATOM    103  O   UNL A   1      42.102  19.981  25.635  1.00  0.00    -0.237 OA
ATOM    104  O   UNL A   1      40.894  19.720  27.777  1.00  0.00    -0.237 OA
ATOM    105  O   UNL A   1      39.766  19.191  25.649  1.00  0.00    -0.744 OA
ENDBRANCH  98 102
ENDBRANCH  72  95
ENDBRANCH  46  47
ENDBRANCH  39  41
ENDBRANCH  38  39
ENDBRANCH  37  38
ENDBRANCH  36  37
ENDBRANCH  35  36
ENDBRANCH  34  35
ENDBRANCH   1  34
TORSDOF 23
ENDMDL
MODEL 2
REMARK VINA RESULT:      -9.0      7.849     13.065
REMARK SMILES Cc1c(C(=O)OCCOCCOCCOC(=O)c2ccc(-c3c4nc(c(-c5cc(S(=O)(=O)[O-])ccc5F)c5ccc([nH]5)c(-c5cc(S(=O)(=O)[O-])ccc5F)c5nc(c(-c6cc(S(=O)(=O)[O-])ccc6F)c6ccc3[nH]6)C=C5)C=C4)cc2)cccc1-n1c(C)cc(/C=C2/C(=O)NC(=S)N=C2O)c1C
REMARK SMILES IDX 10 1 9 2 8 3 7 4 6 5 4 6 5 7 3 8 1 9 2 10 84 11 81 12 83 13
REMARK SMILES IDX 82 14 85 15 86 16 100 17 87 18 88 19 89 20 101 21 90 22
REMARK SMILES IDX 91 23 92 24 98 25 93 26 94 27 97 28 95 29 96 31 99 32 11 34
REMARK SMILES IDX 12 35 13 36 14 37 15 38 16 39 17 40 18 41 19 42 80 43 20 44
REMARK SMILES IDX 79 45 21 46 22 47 23 48 73 49 24 50 78 51 72 52 74 53 25 54
REMARK SMILES IDX 77 55 71 56 70 57 26 59 58 60 38 61 57 62 39 63 42 64 56 65
REMARK SMILES IDX 75 66 40 67 41 68 55 70 76 71 43 72 27 73 28 74 36 75 29 76
REMARK SMILES IDX 35 77 37 78 34 79 30 80 31 81 32 82 33 83 59 84 60 85 68 86
REMARK SMILES IDX 61 87 67 88 69 89 66 90 62 91 63 92 64 93 65 94 44 95 45 96
REMARK SMILES IDX 53 97 46 98 52 99 54 100 51 101 47 102 48 103 49 104 50 105
REMARK H PARENT 94 30 99 33 74 58 42 69
REMARK Flexibility Score: inf
ROOT
ATOM      1  C   UNL A   1      35.224  32.775  28.782  1.00  0.00     0.188 C 
ENDROOT
BRANCH   1   2
ATOM      2  O   UNL A   1      35.069  31.362  29.053  1.00  0.00    -0.376 OA
BRANCH   2   3
ATOM      3  C   UNL A   1      36.149  30.455  29.289  1.00  0.00     0.202 C 
BRANCH   3   4
ATOM      4  C   UNL A   1      37.173  29.918  28.111  1.00  0.00     0.261 C 
BRANCH   4   5
ATOM      5  O   UNL A   1      38.646  29.043  28.206  1.00  0.00    -0.460 OA
BRANCH   5   6
ATOM      6  C   UNL A   1      39.164  27.811  28.703  1.00  0.00     0.338 C 
ATOM      7  O   UNL A   1      39.193  27.342  29.837  1.00  0.00    -0.246 OA
BRANCH   6   8
ATOM      8  C   UNL A   1      39.882  26.799  27.924  1.00  0.00     0.065 A 
ATOM      9  C   UNL A   1      41.703  28.480  27.922  1.00  0.00     0.047 C 
ATOM     10  C   UNL A   1      41.234  27.054  27.822  1.00  0.00    -0.012 A 
ATOM     11  C   UNL A   1      42.080  25.932  27.784  1.00  0.00     0.049 A 
ATOM     12  C   UNL A   1      39.430  25.437  27.998  1.00  0.00     0.016 A 
ATOM     13  C   UNL A   1      41.653  24.595  27.806  1.00  0.00     0.027 A 
ATOM     14  C   UNL A   1      40.302  24.345  27.918  1.00  0.00     0.003 A 
BRANCH  11  15
ATOM     15  N   UNL A   1      43.434  26.164  27.569  1.00  0.00    -0.318 N 
ATOM     16  C   UNL A   1      44.075  26.077  26.352  1.00  0.00     0.020 A 
ATOM     17  C   UNL A   1      44.341  26.076  28.608  1.00  0.00     0.027 A 
ATOM     18  C   UNL A   1      43.342  25.908  25.058  1.00  0.00     0.065 C 
ATOM     19  C   UNL A   1      45.429  26.101  26.621  1.00  0.00     0.031 A 
ATOM     20  C   UNL A   1      45.595  26.134  28.034  1.00  0.00    -0.003 A 
ATOM     21  C   UNL A   1      43.854  25.887  30.018  1.00  0.00     0.065 C 
BRANCH  20  22
ATOM     22  C   UNL A   1      46.836  26.020  28.716  1.00  0.00     0.029 C 
ATOM     23  C   UNL A   1      47.467  26.919  29.492  1.00  0.00     0.102 C 
ATOM     24  C   UNL A   1      48.599  26.399  30.288  1.00  0.00     0.262 C 
ATOM     25  C   UNL A   1      47.113  28.309  29.793  1.00  0.00     0.226 C 
ATOM     26  O   UNL A   1      49.198  25.357  30.051  1.00  0.00    -0.269 OA
ATOM     27  N   UNL A   1      48.899  27.174  31.377  1.00  0.00    -0.297 N 
ATOM     28  N   UNL A   1      47.493  28.991  30.811  1.00  0.00    -0.184 NA
ATOM     29  C   UNL A   1      48.341  28.387  31.701  1.00  0.00     0.203 C 
ATOM     30  H   UNL A   1      49.584  26.824  31.991  1.00  0.00     0.172 HD
ATOM     31  S   UNL A   1      48.801  29.084  33.155  1.00  0.00    -0.038 S 
BRANCH  25  32
ATOM     32  O   UNL A   1      46.367  28.945  28.887  1.00  0.00    -0.493 OA
ATOM     33  H   UNL A   1      46.638  29.780  28.558  1.00  0.00     0.295 HD
ENDBRANCH  25  32
ENDBRANCH  20  22
ENDBRANCH  11  15
ENDBRANCH   6   8
ENDBRANCH   5   6
ENDBRANCH   4   5
ENDBRANCH   3   4
ENDBRANCH   2   3
ENDBRANCH   1   2
BRANCH   1  34
ATOM     34  C   UNL A   1      35.990  33.721  29.713  1.00  0.00     0.188 C 
BRANCH  34  35
ATOM     35  O   UNL A   1      35.880  33.295  31.062  1.00  0.00    -0.376 OA
BRANCH  35  36
ATOM     36  C   UNL A   1      34.842  33.880  31.820  1.00  0.00     0.202 C 
BRANCH  36  37
ATOM     37  C   UNL A   1      34.963  33.577  33.322  1.00  0.00     0.261 C 
BRANCH  37  38
ATOM     38  O   UNL A   1      36.293  33.126  33.674  1.00  0.00    -0.460 OA
BRANCH  38  39
ATOM     39  C   UNL A   1      36.812  33.569  34.874  1.00  0.00     0.338 C 
ATOM     40  O   UNL A   1      36.118  33.804  35.851  1.00  0.00    -0.246 OA
BRANCH  39  41
ATOM     41  C   UNL A   1      38.314  33.615  34.817  1.00  0.00     0.060 A 
ATOM     42  C   UNL A   1      39.223  33.932  35.833  1.00  0.00     0.016 A 
ATOM     43  C   UNL A   1      38.846  33.575  33.581  1.00  0.00     0.016 A 
ATOM     44  C   UNL A   1      40.606  34.370  35.550  1.00  0.00     0.010 A 
ATOM     45  C   UNL A   1      40.022  34.302  33.401  1.00  0.00     0.010 A 
ATOM     46  C   UNL A   1      41.083  34.659  34.260  1.00  0.00    -0.014 A 
BRANCH  46  47
ATOM     47  C   UNL A   1      42.502  35.481  33.834  1.00  0.00     0.031 A 
ATOM     48  C   UNL A   1      43.089  37.096  33.991  1.00  0.00     0.074 A 
ATOM     49  C   UNL A   1      43.336  34.790  33.021  1.00  0.00     0.049 A 
ATOM     50  N   UNL A   1      43.614  37.787  32.988  1.00  0.00    -0.248 NA
ATOM     51  C   UNL A   1      43.022  38.073  35.154  1.00  0.00     0.031 C 
ATOM     52  C   UNL A   1      44.619  35.212  32.467  1.00  0.00     0.029 A 
ATOM     53  N   UNL A   1      43.052  33.609  32.341  1.00  0.00    -0.354 N 
ATOM     54  C   UNL A   1      43.895  39.097  33.411  1.00  0.00     0.074 A 
ATOM     55  C   UNL A   1      43.446  39.243  34.732  1.00  0.00     0.031 C 
ATOM     56  C   UNL A   1      44.829  34.535  31.328  1.00  0.00     0.029 A 
ATOM     57  C   UNL A   1      43.667  33.700  31.088  1.00  0.00     0.049 A 
ATOM     58  H   UNL A   1      42.521  32.853  32.680  1.00  0.00     0.167 HD
ATOM     59  C   UNL A   1      44.565  40.060  32.732  1.00  0.00     0.034 A 
ATOM     60  C   UNL A   1      42.934  33.594  29.945  1.00  0.00     0.034 A 
ATOM     61  C   UNL A   1      45.115  39.534  31.531  1.00  0.00     0.049 A 
ATOM     62  C   UNL A   1      43.059  34.809  29.042  1.00  0.00     0.074 A 
ATOM     63  C   UNL A   1      46.296  38.885  31.238  1.00  0.00     0.029 A 
ATOM     64  N   UNL A   1      44.231  39.245  30.525  1.00  0.00    -0.354 N 
ATOM     65  N   UNL A   1      43.743  35.887  29.326  1.00  0.00    -0.248 NA
ATOM     66  C   UNL A   1      42.346  34.934  27.769  1.00  0.00     0.031 C 
ATOM     67  C   UNL A   1      46.091  38.169  30.025  1.00  0.00     0.029 A 
ATOM     68  C   UNL A   1      44.815  38.451  29.571  1.00  0.00     0.049 A 
ATOM     69  H   UNL A   1      43.300  39.565  30.491  1.00  0.00     0.167 HD
ATOM     70  C   UNL A   1      43.510  36.841  28.367  1.00  0.00     0.074 A 
ATOM     71  C   UNL A   1      42.627  36.198  27.414  1.00  0.00     0.031 C 
ATOM     72  C   UNL A   1      44.009  38.109  28.424  1.00  0.00     0.034 A 
BRANCH  59  73
ATOM     73  C   UNL A   1      44.910  41.364  33.413  1.00  0.00     0.023 A 
ATOM     74  C   UNL A   1      44.057  42.464  33.261  1.00  0.00     0.031 A 
ATOM     75  C   UNL A   1      46.149  41.607  34.057  1.00  0.00     0.131 A 
ATOM     76  C   UNL A   1      44.478  43.754  33.631  1.00  0.00     0.055 A 
ATOM     77  C   UNL A   1      46.587  42.900  34.382  1.00  0.00     0.041 A 
ATOM     78  F   UNL A   1      47.014  40.604  34.286  1.00  0.00    -0.206 F 
ATOM     79  C   UNL A   1      45.754  43.987  34.150  1.00  0.00     0.022 A 
BRANCH  76  80
ATOM     80  S   UNL A   1      43.341  45.142  33.376  1.00  0.00     0.124 S 
ATOM     81  O   UNL A   1      43.304  45.250  31.922  1.00  0.00    -0.237 OA
ATOM     82  O   UNL A   1      42.124  44.660  34.019  1.00  0.00    -0.237 OA
ATOM     83  O   UNL A   1      44.002  46.256  34.058  1.00  0.00    -0.744 OA
ENDBRANCH  76  80
ENDBRANCH  59  73
BRANCH  60  84
ATOM     84  C   UNL A   1      41.751  32.669  30.056  1.00  0.00     0.023 A 
ATOM     85  C   UNL A   1      41.980  31.372  30.589  1.00  0.00     0.031 A 
ATOM     86  C   UNL A   1      40.414  33.081  29.944  1.00  0.00     0.131 A 
ATOM     87  C   UNL A   1      40.929  30.617  31.129  1.00  0.00     0.055 A 
ATOM     88  C   UNL A   1      39.355  32.274  30.392  1.00  0.00     0.041 A 
ATOM     89  F   UNL A   1      40.104  34.315  29.526  1.00  0.00    -0.206 F 
ATOM     90  C   UNL A   1      39.610  31.049  31.009  1.00  0.00     0.022 A 
BRANCH  87  91
ATOM     91  S   UNL A   1      41.290  29.208  32.228  1.00  0.00     0.124 S 
ATOM     92  O   UNL A   1      41.936  28.267  31.320  1.00  0.00    -0.237 OA
ATOM     93  O   UNL A   1      42.146  29.784  33.261  1.00  0.00    -0.237 OA
ATOM     94  O   UNL A   1      39.960  28.827  32.700  1.00  0.00    -0.744 OA
ENDBRANCH  87  91
ENDBRANCH  60  84
BRANCH  72  95
ATOM     95  C   UNL A   1      43.757  39.170  27.388  1.00  0.00     0.023 A 
ATOM     96  C   UNL A   1      44.816  39.743  26.678  1.00  0.00     0.031 A 
ATOM     97  C   UNL A   1      42.472  39.723  27.163  1.00  0.00     0.131 A 
ATOM     98  C   UNL A   1      44.577  40.774  25.758  1.00  0.00     0.055 A 
ATOM     99  C   UNL A   1      42.255  40.814  26.322  1.00  0.00     0.041 A 
ATOM    100  F   UNL A   1      41.366  39.206  27.718  1.00  0.00    -0.206 F 
ATOM    101  C   UNL A   1      43.313  41.342  25.601  1.00  0.00     0.022 A 
BRANCH  98 102
ATOM    102  S   UNL A   1      45.946  41.308  24.706  1.00  0.00     0.124 S 
ATOM    103  O   UNL A   1      46.594  40.046  24.364  1.00  0.00    -0.237 OA
ATOM    104  O   UNL A   1      45.235  41.972  23.617  1.00  0.00    -0.237 OA
ATOM    105  O   UNL A   1      46.722  42.192  25.573  1.00  0.00    -0.744 OA
ENDBRANCH  98 102
ENDBRANCH  72  95
ENDBRANCH  46  47
ENDBRANCH  39  41
ENDBRANCH  38  39
ENDBRANCH  37  38
ENDBRANCH  36  37
ENDBRANCH  35  36
ENDBRANCH  34  35
ENDBRANCH   1  34
TORSDOF 23
ENDMDL
MODEL 3
REMARK VINA RESULT:      -8.7      9.578     16.695
REMARK SMILES Cc1c(C(=O)OCCOCCOCCOC(=O)c2ccc(-c3c4nc(c(-c5cc(S(=O)(=O)[O-])ccc5F)c5ccc([nH]5)c(-c5cc(S(=O)(=O)[O-])ccc5F)c5nc(c(-c6cc(S(=O)(=O)[O-])ccc6F)c6ccc3[nH]6)C=C5)C=C4)cc2)cccc1-n1c(C)cc(/C=C2/C(=O)NC(=S)N=C2O)c1C
REMARK SMILES IDX 10 1 9 2 8 3 7 4 6 5 4 6 5 7 3 8 1 9 2 10 84 11 81 12 83 13
REMARK SMILES IDX 82 14 85 15 86 16 100 17 87 18 88 19 89 20 101 21 90 22
REMARK SMILES IDX 91 23 92 24 98 25 93 26 94 27 97 28 95 29 96 31 99 32 11 34
REMARK SMILES IDX 12 35 13 36 14 37 15 38 16 39 17 40 18 41 19 42 80 43 20 44
REMARK SMILES IDX 79 45 21 46 22 47 23 48 73 49 24 50 78 51 72 52 74 53 25 54
REMARK SMILES IDX 77 55 71 56 70 57 26 59 58 60 38 61 57 62 39 63 42 64 56 65
REMARK SMILES IDX 75 66 40 67 41 68 55 70 76 71 43 72 27 73 28 74 36 75 29 76
REMARK SMILES IDX 35 77 37 78 34 79 30 80 31 81 32 82 33 83 59 84 60 85 68 86
REMARK SMILES IDX 61 87 67 88 69 89 66 90 62 91 63 92 64 93 65 94 44 95 45 96
REMARK SMILES IDX 53 97 46 98 52 99 54 100 51 101 47 102 48 103 49 104 50 105
REMARK H PARENT 94 30 99 33 74 58 42 69
REMARK Flexibility Score: inf
ROOT
ATOM      1  C   UNL A   1      35.026  33.116  28.238  1.00  0.00     0.188 C 
ENDROOT
BRANCH   1   2
ATOM      2  O   UNL A   1      33.684  32.659  27.948  1.00  0.00    -0.376 OA
BRANCH   2   3
ATOM      3  C   UNL A   1      33.319  31.296  27.720  1.00  0.00     0.202 C 
BRANCH   3   4
ATOM      4  C   UNL A   1      32.170  30.821  26.635  1.00  0.00     0.261 C 
BRANCH   4   5
ATOM      5  O   UNL A   1      31.559  29.266  26.242  1.00  0.00    -0.460 OA
BRANCH   5   6
ATOM      6  C   UNL A   1      31.614  27.916  26.696  1.00  0.00     0.338 C 
ATOM      7  O   UNL A   1      31.942  27.436  27.778  1.00  0.00    -0.246 OA
BRANCH   6   8
ATOM      8  C   UNL A   1      31.334  26.723  25.893  1.00  0.00     0.065 A 
ATOM      9  C   UNL A   1      33.659  27.041  25.097  1.00  0.00     0.047 C 
ATOM     10  C   UNL A   1      32.469  26.156  25.352  1.00  0.00    -0.012 A 
ATOM     11  C   UNL A   1      32.469  24.756  25.225  1.00  0.00     0.049 A 
ATOM     12  C   UNL A   1      30.250  25.869  26.298  1.00  0.00     0.016 A 
ATOM     13  C   UNL A   1      31.402  23.912  25.568  1.00  0.00     0.027 A 
ATOM     14  C   UNL A   1      30.273  24.481  26.118  1.00  0.00     0.003 A 
BRANCH  11  15
ATOM     15  N   UNL A   1      33.556  24.177  24.580  1.00  0.00    -0.318 N 
ATOM     16  C   UNL A   1      33.731  24.111  23.214  1.00  0.00     0.020 A 
ATOM     17  C   UNL A   1      34.341  23.237  25.220  1.00  0.00     0.027 A 
ATOM     18  C   UNL A   1      32.852  24.839  22.247  1.00  0.00     0.065 C 
ATOM     19  C   UNL A   1      34.769  23.226  22.996  1.00  0.00     0.031 A 
ATOM     20  C   UNL A   1      35.173  22.704  24.256  1.00  0.00    -0.003 A 
ATOM     21  C   UNL A   1      34.126  22.946  26.681  1.00  0.00     0.065 C 
BRANCH  20  22
ATOM     22  C   UNL A   1      36.113  21.655  24.445  1.00  0.00     0.029 C 
ATOM     23  C   UNL A   1      37.377  21.718  24.901  1.00  0.00     0.102 C 
ATOM     24  C   UNL A   1      37.997  20.423  25.253  1.00  0.00     0.262 C 
ATOM     25  C   UNL A   1      38.191  22.885  25.248  1.00  0.00     0.226 C 
ATOM     26  O   UNL A   1      37.605  19.331  24.860  1.00  0.00    -0.269 OA
ATOM     27  N   UNL A   1      39.047  20.543  26.124  1.00  0.00    -0.297 N 
ATOM     28  N   UNL A   1      39.210  22.901  26.029  1.00  0.00    -0.184 NA
ATOM     29  C   UNL A   1      39.611  21.712  26.575  1.00  0.00     0.203 C 
ATOM     30  H   UNL A   1      39.437  19.705  26.462  1.00  0.00     0.172 HD
ATOM     31  S   UNL A   1      40.819  21.590  27.731  1.00  0.00    -0.038 S 
BRANCH  25  32
ATOM     32  O   UNL A   1      37.874  24.035  24.648  1.00  0.00    -0.493 OA
ATOM     33  H   UNL A   1      38.550  24.588  24.307  1.00  0.00     0.295 HD
ENDBRANCH  25  32
ENDBRANCH  20  22
ENDBRANCH  11  15
ENDBRANCH   6   8
ENDBRANCH   5   6
ENDBRANCH   4   5
ENDBRANCH   3   4
ENDBRANCH   2   3
ENDBRANCH   1   2
BRANCH   1  34
ATOM     34  C   UNL A   1      35.956  32.393  29.219  1.00  0.00     0.188 C 
BRANCH  34  35
ATOM     35  O   UNL A   1      35.338  32.259  30.489  1.00  0.00    -0.376 OA
BRANCH  35  36
ATOM     36  C   UNL A   1      35.762  33.161  31.489  1.00  0.00     0.202 C 
BRANCH  36  37
ATOM     37  C   UNL A   1      35.916  32.491  32.864  1.00  0.00     0.261 C 
BRANCH  37  38
ATOM     38  O   UNL A   1      36.849  33.206  33.710  1.00  0.00    -0.460 OA
BRANCH  38  39
ATOM     39  C   UNL A   1      36.380  33.654  34.928  1.00  0.00     0.338 C 
ATOM     40  O   UNL A   1      35.198  33.871  35.144  1.00  0.00    -0.246 OA
BRANCH  39  41
ATOM     41  C   UNL A   1      37.497  33.728  35.932  1.00  0.00     0.060 A 
ATOM     42  C   UNL A   1      37.463  33.465  37.306  1.00  0.00     0.016 A 
ATOM     43  C   UNL A   1      38.615  34.347  35.506  1.00  0.00     0.016 A 
ATOM     44  C   UNL A   1      38.482  33.991  38.238  1.00  0.00     0.010 A 
ATOM     45  C   UNL A   1      39.318  35.063  36.474  1.00  0.00     0.010 A 
ATOM     46  C   UNL A   1      39.472  34.918  37.868  1.00  0.00    -0.014 A 
BRANCH  46  47
ATOM     47  C   UNL A   1      40.462  35.846  38.884  1.00  0.00     0.031 A 
ATOM     48  C   UNL A   1      40.323  37.364  39.693  1.00  0.00     0.074 A 
ATOM     49  C   UNL A   1      41.743  35.418  38.973  1.00  0.00     0.049 A 
ATOM     50  N   UNL A   1      41.249  38.312  39.638  1.00  0.00    -0.248 NA
ATOM     51  C   UNL A   1      39.168  37.982  40.464  1.00  0.00     0.031 C 
ATOM     52  C   UNL A   1      42.841  35.995  39.743  1.00  0.00     0.029 A 
ATOM     53  N   UNL A   1      42.365  34.466  38.170  1.00  0.00    -0.354 N 
ATOM     54  C   UNL A   1      40.794  39.459  40.309  1.00  0.00     0.074 A 
ATOM     55  C   UNL A   1      39.479  39.228  40.738  1.00  0.00     0.031 C 
ATOM     56  C   UNL A   1      43.995  35.661  39.147  1.00  0.00     0.029 A 
ATOM     57  C   UNL A   1      43.674  34.908  37.950  1.00  0.00     0.049 A 
ATOM     58  H   UNL A   1      41.959  33.638  37.824  1.00  0.00     0.167 HD
ATOM     59  C   UNL A   1      41.496  40.581  40.600  1.00  0.00     0.034 A 
ATOM     60  C   UNL A   1      44.134  35.110  36.684  1.00  0.00     0.034 A 
ATOM     61  C   UNL A   1      42.867  40.414  40.263  1.00  0.00     0.049 A 
ATOM     62  C   UNL A   1      44.624  36.528  36.448  1.00  0.00     0.074 A 
ATOM     63  C   UNL A   1      43.949  39.888  40.938  1.00  0.00     0.029 A 
ATOM     64  N   UNL A   1      43.175  40.401  38.928  1.00  0.00    -0.354 N 
ATOM     65  N   UNL A   1      44.569  37.496  37.325  1.00  0.00    -0.248 NA
ATOM     66  C   UNL A   1      45.144  36.988  35.158  1.00  0.00     0.031 C 
ATOM     67  C   UNL A   1      44.920  39.531  39.961  1.00  0.00     0.029 A 
ATOM     68  C   UNL A   1      44.438  39.909  38.720  1.00  0.00     0.049 A 
ATOM     69  H   UNL A   1      42.569  40.704  38.213  1.00  0.00     0.167 HD
ATOM     70  C   UNL A   1      44.947  38.673  36.730  1.00  0.00     0.074 A 
ATOM     71  C   UNL A   1      45.295  38.305  35.372  1.00  0.00     0.031 C 
ATOM     72  C   UNL A   1      44.913  39.884  37.358  1.00  0.00     0.034 A 
BRANCH  59  73
ATOM     73  C   UNL A   1      40.883  41.652  41.472  1.00  0.00     0.023 A 
ATOM     74  C   UNL A   1      41.140  41.645  42.849  1.00  0.00     0.031 A 
ATOM     75  C   UNL A   1      39.907  42.571  41.014  1.00  0.00     0.131 A 
ATOM     76  C   UNL A   1      40.372  42.435  43.725  1.00  0.00     0.055 A 
ATOM     77  C   UNL A   1      39.111  43.323  41.892  1.00  0.00     0.041 A 
ATOM     78  F   UNL A   1      39.625  42.681  39.704  1.00  0.00    -0.206 F 
ATOM     79  C   UNL A   1      39.331  43.241  43.262  1.00  0.00     0.022 A 
BRANCH  76  80
ATOM     80  S   UNL A   1      40.729  42.354  45.500  1.00  0.00     0.124 S 
ATOM     81  O   UNL A   1      39.394  42.267  46.081  1.00  0.00    -0.237 OA
ATOM     82  O   UNL A   1      41.551  41.153  45.590  1.00  0.00    -0.237 OA
ATOM     83  O   UNL A   1      41.434  43.609  45.765  1.00  0.00    -0.744 OA
ENDBRANCH  76  80
ENDBRANCH  59  73
BRANCH  60  84
ATOM     84  C   UNL A   1      43.551  34.173  35.659  1.00  0.00     0.023 A 
ATOM     85  C   UNL A   1      43.829  32.787  35.804  1.00  0.00     0.031 A 
ATOM     86  C   UNL A   1      42.538  34.524  34.755  1.00  0.00     0.131 A 
ATOM     87  C   UNL A   1      43.015  31.819  35.198  1.00  0.00     0.055 A 
ATOM     88  C   UNL A   1      41.792  33.551  34.069  1.00  0.00     0.041 A 
ATOM     89  F   UNL A   1      42.152  35.799  34.610  1.00  0.00    -0.206 F 
ATOM     90  C   UNL A   1      42.011  32.193  34.308  1.00  0.00     0.022 A 
BRANCH  87  91
ATOM     91  S   UNL A   1      43.073  30.090  35.772  1.00  0.00     0.124 S 
ATOM     92  O   UNL A   1      42.409  29.383  34.683  1.00  0.00    -0.237 OA
ATOM     93  O   UNL A   1      44.501  29.822  35.926  1.00  0.00    -0.237 OA
ATOM     94  O   UNL A   1      42.339  30.151  37.034  1.00  0.00    -0.744 OA
ENDBRANCH  87  91
ENDBRANCH  60  84
BRANCH  72  95
ATOM     95  C   UNL A   1      45.314  41.185  36.719  1.00  0.00     0.023 A 
ATOM     96  C   UNL A   1      44.621  41.683  35.611  1.00  0.00     0.031 A 
ATOM     97  C   UNL A   1      46.466  41.905  37.120  1.00  0.00     0.131 A 
ATOM     98  C   UNL A   1      45.040  42.866  34.985  1.00  0.00     0.055 A 
ATOM     99  C   UNL A   1      46.935  43.025  36.432  1.00  0.00     0.041 A 
ATOM    100  F   UNL A   1      47.166  41.580  38.216  1.00  0.00    -0.206 F 
ATOM    101  C   UNL A   1      46.213  43.521  35.361  1.00  0.00     0.022 A 
BRANCH  98 102
ATOM    102  S   UNL A   1      43.971  43.579  33.715  1.00  0.00     0.124 S 
ATOM    103  O   UNL A   1      44.884  43.749  32.590  1.00  0.00    -0.237 OA
ATOM    104  O   UNL A   1      42.962  42.534  33.562  1.00  0.00    -0.237 OA
ATOM    105  O   UNL A   1      43.494  44.819  34.324  1.00  0.00    -0.744 OA
ENDBRANCH  98 102
ENDBRANCH  72  95
ENDBRANCH  46  47
ENDBRANCH  39  41
ENDBRANCH  38  39
ENDBRANCH  37  38
ENDBRANCH  36  37
ENDBRANCH  35  36
ENDBRANCH  34  35
ENDBRANCH   1  34
TORSDOF 23
ENDMDL
