MODEL 1
REMARK VINA RESULT:     -13.4      0.000      0.000
REMARK SMILES Cc1cccc(OC2(C(=O)OCCOCCOCCOC(=O)c3ccc(-c4c5nc(c(-c6cc(S(=O)(=O)[O-])ccc6F)c6ccc([nH]6)c(-c6cc(S(=O)(=O)[O-])ccc6F)c6nc(c(-c7cc(S(=O)(=O)[O-])ccc7F)c7ccc4[nH]7)C=C6)C=C5)cc3)CCN(C(=O)c3cnc[nH]c3=O)CC2)c1
REMARK SMILES IDX 16 1 15 2 14 3 13 4 12 5 11 6 9 7 10 8 8 9 86 10 99 11 87 12
REMARK SMILES IDX 98 13 88 14 89 15 90 16 7 17 6 18 1 19 2 20 3 21 100 22 4 23
REMARK SMILES IDX 5 24 91 25 92 26 96 27 93 28 95 29 97 30 94 31 17 33 18 34
REMARK SMILES IDX 19 35 20 36 21 37 22 38 23 39 24 40 85 41 25 42 84 43 26 44
REMARK SMILES IDX 27 45 28 46 78 47 29 48 83 49 77 50 79 51 30 52 82 53 76 54
REMARK SMILES IDX 75 55 31 57 63 58 43 59 62 60 44 61 47 62 61 63 80 64 45 65
REMARK SMILES IDX 46 66 60 68 81 69 48 70 32 71 33 72 41 73 34 74 40 75 42 76
REMARK SMILES IDX 39 77 35 78 36 79 37 80 38 81 64 82 65 83 73 84 66 85 72 86
REMARK SMILES IDX 74 87 71 88 67 89 68 90 69 91 70 92 49 93 50 94 58 95 51 96
REMARK SMILES IDX 57 97 59 98 56 99 52 100 53 101 54 102 55 103
REMARK H PARENT 95 32 79 56 47 67
REMARK Flexibility Score: inf
ROOT
ATOM      1  C   UNL A   1      41.768  19.911  27.442  1.00  0.00     0.188 C 
ENDROOT
BRANCH   1   2
ATOM      2  C   UNL A   1      40.873  20.605  26.414  1.00  0.00     0.188 C 
BRANCH   2   3
ATOM      3  O   UNL A   1      39.499  21.004  26.619  1.00  0.00    -0.376 OA
BRANCH   3   4
ATOM      4  C   UNL A   1      38.678  21.743  25.697  1.00  0.00     0.202 C 
BRANCH   4   5
ATOM      5  C   UNL A   1      37.077  21.369  25.229  1.00  0.00     0.261 C 
BRANCH   5   6
ATOM      6  O   UNL A   1      35.529  21.590  26.117  1.00  0.00    -0.460 OA
BRANCH   6   7
ATOM      7  C   UNL A   1      34.325  22.437  26.214  1.00  0.00     0.350 C 
ATOM      8  O   UNL A   1      34.090  23.337  27.028  1.00  0.00    -0.247 OA
BRANCH   7   9
ATOM      9  C   UNL A   1      33.184  22.362  25.188  1.00  0.00     0.209 C 
ATOM     10  C   UNL A   1      31.894  22.156  25.952  1.00  0.00     0.082 C 
ATOM     11  C   UNL A   1      33.318  23.685  24.354  1.00  0.00     0.082 C 
ATOM     12  C   UNL A   1      30.697  22.826  25.322  1.00  0.00     0.124 C 
ATOM     13  C   UNL A   1      32.015  24.091  23.715  1.00  0.00     0.124 C 
ATOM     14  N   UNL A   1      31.036  24.127  24.788  1.00  0.00    -0.338 N 
ATOM     15  C   UNL A   1      30.824  25.276  25.535  1.00  0.00     0.261 C 
ATOM     16  O   UNL A   1      30.692  25.293  26.754  1.00  0.00    -0.269 OA
BRANCH   9  17
ATOM     17  O   UNL A   1      33.693  21.317  24.317  1.00  0.00    -0.475 OA
BRANCH  17  18
ATOM     18  C   UNL A   1      33.285  20.029  24.176  1.00  0.00     0.121 A 
ATOM     19  C   UNL A   1      34.850  16.622  24.675  1.00  0.00     0.044 C 
ATOM     20  C   UNL A   1      33.892  17.681  24.217  1.00  0.00    -0.047 A 
ATOM     21  C   UNL A   1      32.999  17.416  23.173  1.00  0.00     0.003 A 
ATOM     22  C   UNL A   1      34.002  18.983  24.734  1.00  0.00     0.050 A 
ATOM     23  C   UNL A   1      32.224  18.446  22.648  1.00  0.00     0.004 A 
ATOM     24  C   UNL A   1      32.385  19.752  23.134  1.00  0.00     0.046 A 
ENDBRANCH  17  18
ENDBRANCH   9  17
BRANCH  15  25
ATOM     25  C   UNL A   1      30.696  26.502  24.727  1.00  0.00     0.123 A 
ATOM     26  C   UNL A   1      29.616  26.745  23.970  1.00  0.00     0.132 A 
ATOM     27  C   UNL A   1      31.743  27.540  24.769  1.00  0.00     0.263 A 
ATOM     28  N   UNL A   1      29.405  27.904  23.255  1.00  0.00    -0.246 NA
ATOM     29  N   UNL A   1      31.446  28.689  24.097  1.00  0.00    -0.312 N 
ATOM     30  O   UNL A   1      32.816  27.406  25.347  1.00  0.00    -0.269 OA
ATOM     31  C   UNL A   1      30.306  28.820  23.363  1.00  0.00     0.199 A 
ATOM     32  H   UNL A   1      32.073  29.447  24.145  1.00  0.00     0.171 HD
ENDBRANCH  15  25
ENDBRANCH   7   9
ENDBRANCH   6   7
ENDBRANCH   5   6
ENDBRANCH   4   5
ENDBRANCH   3   4
ENDBRANCH   2   3
ENDBRANCH   1   2
BRANCH   1  33
ATOM     33  O   UNL A   1      42.647  18.976  26.846  1.00  0.00    -0.376 OA
BRANCH  33  34
ATOM     34  C   UNL A   1      42.933  19.213  25.478  1.00  0.00     0.202 C 
BRANCH  34  35
ATOM     35  C   UNL A   1      44.327  19.809  25.195  1.00  0.00     0.261 C 
BRANCH  35  36
ATOM     36  O   UNL A   1      44.520  21.155  25.693  1.00  0.00    -0.460 OA
BRANCH  36  37
ATOM     37  C   UNL A   1      44.237  22.205  24.839  1.00  0.00     0.338 C 
ATOM     38  O   UNL A   1      44.300  22.089  23.621  1.00  0.00    -0.246 OA
BRANCH  37  39
ATOM     39  C   UNL A   1      43.524  23.317  25.535  1.00  0.00     0.060 A 
ATOM     40  C   UNL A   1      42.893  24.475  25.053  1.00  0.00     0.016 A 
ATOM     41  C   UNL A   1      43.475  23.162  26.870  1.00  0.00     0.016 A 
ATOM     42  C   UNL A   1      42.357  25.536  25.946  1.00  0.00     0.010 A 
ATOM     43  C   UNL A   1      43.063  24.235  27.648  1.00  0.00     0.010 A 
ATOM     44  C   UNL A   1      42.458  25.502  27.346  1.00  0.00    -0.014 A 
BRANCH  44  45
ATOM     45  C   UNL A   1      42.103  26.789  28.454  1.00  0.00     0.031 A 
ATOM     46  C   UNL A   1      40.774  27.950  28.688  1.00  0.00     0.074 A 
ATOM     47  C   UNL A   1      43.020  26.960  29.432  1.00  0.00     0.049 A 
ATOM     48  N   UNL A   1      40.911  29.194  29.114  1.00  0.00    -0.248 NA
ATOM     49  C   UNL A   1      39.278  27.834  28.314  1.00  0.00     0.031 C 
ATOM     50  C   UNL A   1      42.869  27.704  30.679  1.00  0.00     0.029 A 
ATOM     51  N   UNL A   1      44.341  26.517  29.465  1.00  0.00    -0.354 N 
ATOM     52  C   UNL A   1      39.635  29.812  29.149  1.00  0.00     0.074 A 
ATOM     53  C   UNL A   1      38.749  29.030  28.399  1.00  0.00     0.031 C 
ATOM     54  C   UNL A   1      44.082  27.879  31.229  1.00  0.00     0.029 A 
ATOM     55  C   UNL A   1      45.057  27.417  30.260  1.00  0.00     0.049 A 
ATOM     56  H   UNL A   1      44.703  25.721  29.013  1.00  0.00     0.167 HD
ATOM     57  C   UNL A   1      39.248  30.788  30.014  1.00  0.00     0.034 A 
ATOM     58  C   UNL A   1      46.088  28.129  29.732  1.00  0.00     0.034 A 
ATOM     59  C   UNL A   1      40.373  31.151  30.816  1.00  0.00     0.049 A 
ATOM     60  C   UNL A   1      45.862  29.618  29.876  1.00  0.00     0.074 A 
ATOM     61  C   UNL A   1      40.834  30.716  32.042  1.00  0.00     0.029 A 
ATOM     62  N   UNL A   1      41.430  31.746  30.163  1.00  0.00    -0.354 N 
ATOM     63  N   UNL A   1      44.709  30.161  30.159  1.00  0.00    -0.248 NA
ATOM     64  C   UNL A   1      46.920  30.610  29.744  1.00  0.00     0.031 C 
ATOM     65  C   UNL A   1      42.219  31.025  32.100  1.00  0.00     0.029 A 
ATOM     66  C   UNL A   1      42.563  31.690  30.935  1.00  0.00     0.049 A 
ATOM     67  H   UNL A   1      41.381  32.153  29.268  1.00  0.00     0.167 HD
ATOM     68  C   UNL A   1      44.833  31.523  30.220  1.00  0.00     0.074 A 
ATOM     69  C   UNL A   1      46.247  31.750  29.982  1.00  0.00     0.031 C 
ATOM     70  C   UNL A   1      43.757  32.339  30.436  1.00  0.00     0.034 A 
BRANCH  57  71
ATOM     71  C   UNL A   1      37.780  31.063  30.350  1.00  0.00     0.023 A 
ATOM     72  C   UNL A   1      36.988  31.747  29.413  1.00  0.00     0.031 A 
ATOM     73  C   UNL A   1      37.127  30.770  31.574  1.00  0.00     0.131 A 
ATOM     74  C   UNL A   1      35.699  32.217  29.739  1.00  0.00     0.055 A 
ATOM     75  C   UNL A   1      35.886  31.321  31.936  1.00  0.00     0.041 A 
ATOM     76  F   UNL A   1      37.654  29.910  32.463  1.00  0.00    -0.206 F 
ATOM     77  C   UNL A   1      35.168  32.066  31.017  1.00  0.00     0.022 A 
BRANCH  74  78
ATOM     78  S   UNL A   1      34.695  32.983  28.439  1.00  0.00     0.124 S 
ATOM     79  O   UNL A   1      33.966  34.009  29.176  1.00  0.00    -0.237 OA
ATOM     80  O   UNL A   1      35.712  33.456  27.506  1.00  0.00    -0.237 OA
ATOM     81  O   UNL A   1      33.875  31.878  27.944  1.00  0.00    -0.744 OA
ENDBRANCH  74  78
ENDBRANCH  57  71
BRANCH  58  82
ATOM     82  C   UNL A   1      46.786  27.409  28.614  1.00  0.00     0.023 A 
ATOM     83  C   UNL A   1      46.242  27.524  27.306  1.00  0.00     0.031 A 
ATOM     84  C   UNL A   1      48.116  26.983  28.719  1.00  0.00     0.131 A 
ATOM     85  C   UNL A   1      47.053  27.360  26.170  1.00  0.00     0.055 A 
ATOM     86  C   UNL A   1      48.903  26.752  27.579  1.00  0.00     0.041 A 
ATOM     87  F   UNL A   1      48.719  26.909  29.914  1.00  0.00    -0.206 F 
ATOM     88  C   UNL A   1      48.388  26.977  26.300  1.00  0.00     0.022 A 
BRANCH  85  89
ATOM     89  S   UNL A   1      46.452  27.908  24.538  1.00  0.00     0.124 S 
ATOM     90  O   UNL A   1      45.068  27.448  24.554  1.00  0.00    -0.237 OA
ATOM     91  O   UNL A   1      46.644  29.356  24.574  1.00  0.00    -0.237 OA
ATOM     92  O   UNL A   1      47.337  27.216  23.601  1.00  0.00    -0.744 OA
ENDBRANCH  85  89
ENDBRANCH  58  82
BRANCH  70  93
ATOM     93  C   UNL A   1      43.692  33.835  30.193  1.00  0.00     0.023 A 
ATOM     94  C   UNL A   1      43.604  34.385  28.916  1.00  0.00     0.031 A 
ATOM     95  C   UNL A   1      43.613  34.771  31.263  1.00  0.00     0.131 A 
ATOM     96  C   UNL A   1      43.547  35.774  28.724  1.00  0.00     0.055 A 
ATOM     97  C   UNL A   1      43.421  36.141  31.072  1.00  0.00     0.041 A 
ATOM     98  F   UNL A   1      43.714  34.405  32.549  1.00  0.00    -0.206 F 
ATOM     99  C   UNL A   1      43.413  36.657  29.791  1.00  0.00     0.022 A 
BRANCH  96 100
ATOM    100  S   UNL A   1      43.800  36.389  27.045  1.00  0.00     0.124 S 
ATOM    101  O   UNL A   1      43.834  37.834  27.259  1.00  0.00    -0.237 OA
ATOM    102  O   UNL A   1      45.070  35.775  26.675  1.00  0.00    -0.237 OA
ATOM    103  O   UNL A   1      42.630  35.898  26.321  1.00  0.00    -0.744 OA
ENDBRANCH  96 100
ENDBRANCH  70  93
ENDBRANCH  44  45
ENDBRANCH  37  39
ENDBRANCH  36  37
ENDBRANCH  35  36
ENDBRANCH  34  35
ENDBRANCH  33  34
ENDBRANCH   1  33
TORSDOF 23
ENDMDL
MODEL 2
REMARK VINA RESULT:     -12.7      2.975      4.183
REMARK SMILES Cc1cccc(OC2(C(=O)OCCOCCOCCOC(=O)c3ccc(-c4c5nc(c(-c6cc(S(=O)(=O)[O-])ccc6F)c6ccc([nH]6)c(-c6cc(S(=O)(=O)[O-])ccc6F)c6nc(c(-c7cc(S(=O)(=O)[O-])ccc7F)c7ccc4[nH]7)C=C6)C=C5)cc3)CCN(C(=O)c3cnc[nH]c3=O)CC2)c1
REMARK SMILES IDX 16 1 15 2 14 3 13 4 12 5 11 6 9 7 10 8 8 9 86 10 99 11 87 12
REMARK SMILES IDX 98 13 88 14 89 15 90 16 7 17 6 18 1 19 2 20 3 21 100 22 4 23
REMARK SMILES IDX 5 24 91 25 92 26 96 27 93 28 95 29 97 30 94 31 17 33 18 34
REMARK SMILES IDX 19 35 20 36 21 37 22 38 23 39 24 40 85 41 25 42 84 43 26 44
REMARK SMILES IDX 27 45 28 46 78 47 29 48 83 49 77 50 79 51 30 52 82 53 76 54
REMARK SMILES IDX 75 55 31 57 63 58 43 59 62 60 44 61 47 62 61 63 80 64 45 65
REMARK SMILES IDX 46 66 60 68 81 69 48 70 32 71 33 72 41 73 34 74 40 75 42 76
REMARK SMILES IDX 39 77 35 78 36 79 37 80 38 81 64 82 65 83 73 84 66 85 72 86
REMARK SMILES IDX 74 87 71 88 67 89 68 90 69 91 70 92 49 93 50 94 58 95 51 96
REMARK SMILES IDX 57 97 59 98 56 99 52 100 53 101 54 102 55 103
REMARK H PARENT 95 32 79 56 47 67
REMARK Flexibility Score: inf
ROOT
ATOM      1  C   UNL A   1      41.862  20.394  26.471  1.00  0.00     0.188 C 
ENDROOT
BRANCH   1   2
ATOM      2  C   UNL A   1      40.446  20.579  25.925  1.00  0.00     0.188 C 
BRANCH   2   3
ATOM      3  O   UNL A   1      39.686  21.809  25.938  1.00  0.00    -0.376 OA
BRANCH   3   4
ATOM      4  C   UNL A   1      38.266  21.936  25.741  1.00  0.00     0.202 C 
BRANCH   4   5
ATOM      5  C   UNL A   1      37.340  23.365  25.889  1.00  0.00     0.261 C 
BRANCH   5   6
ATOM      6  O   UNL A   1      35.562  23.583  26.048  1.00  0.00    -0.460 OA
BRANCH   6   7
ATOM      7  C   UNL A   1      34.297  22.872  26.313  1.00  0.00     0.350 C 
ATOM      8  O   UNL A   1      33.921  22.355  27.371  1.00  0.00    -0.247 OA
BRANCH   7   9
ATOM      9  C   UNL A   1      33.179  22.766  25.264  1.00  0.00     0.209 C 
ATOM     10  C   UNL A   1      31.874  22.567  26.003  1.00  0.00     0.082 C 
ATOM     11  C   UNL A   1      33.324  24.071  24.403  1.00  0.00     0.082 C 
ATOM     12  C   UNL A   1      30.687  23.215  25.333  1.00  0.00     0.124 C 
ATOM     13  C   UNL A   1      32.032  24.453  23.726  1.00  0.00     0.124 C 
ATOM     14  N   UNL A   1      31.030  24.505  24.777  1.00  0.00    -0.338 N 
ATOM     15  C   UNL A   1      30.793  25.669  25.493  1.00  0.00     0.261 C 
ATOM     16  O   UNL A   1      30.634  25.713  26.708  1.00  0.00    -0.269 OA
BRANCH   9  17
ATOM     17  O   UNL A   1      33.715  21.705  24.428  1.00  0.00    -0.475 OA
BRANCH  17  18
ATOM     18  C   UNL A   1      33.288  20.426  24.270  1.00  0.00     0.121 A 
ATOM     19  C   UNL A   1      34.823  16.990  24.653  1.00  0.00     0.044 C 
ATOM     20  C   UNL A   1      33.866  18.070  24.244  1.00  0.00    -0.047 A 
ATOM     21  C   UNL A   1      32.944  17.839  23.218  1.00  0.00     0.003 A 
ATOM     22  C   UNL A   1      34.006  19.359  24.786  1.00  0.00     0.050 A 
ATOM     23  C   UNL A   1      32.168  18.889  22.735  1.00  0.00     0.004 A 
ATOM     24  C   UNL A   1      32.358  20.181  23.245  1.00  0.00     0.046 A 
ENDBRANCH  17  18
ENDBRANCH   9  17
BRANCH  15  25
ATOM     25  C   UNL A   1      30.675  26.877  24.654  1.00  0.00     0.123 A 
ATOM     26  C   UNL A   1      31.640  27.807  24.608  1.00  0.00     0.132 A 
ATOM     27  C   UNL A   1      29.499  27.074  23.786  1.00  0.00     0.263 A 
ATOM     28  N   UNL A   1      31.621  28.914  23.788  1.00  0.00    -0.246 NA
ATOM     29  N   UNL A   1      29.570  28.149  22.951  1.00  0.00    -0.312 N 
ATOM     30  O   UNL A   1      28.510  26.349  23.799  1.00  0.00    -0.269 OA
ATOM     31  C   UNL A   1      30.612  29.026  22.993  1.00  0.00     0.199 A 
ATOM     32  H   UNL A   1      28.849  28.296  22.297  1.00  0.00     0.171 HD
ENDBRANCH  15  25
ENDBRANCH   7   9
ENDBRANCH   6   7
ENDBRANCH   5   6
ENDBRANCH   4   5
ENDBRANCH   3   4
ENDBRANCH   2   3
ENDBRANCH   1   2
BRANCH   1  33
ATOM     33  O   UNL A   1      42.841  20.996  25.645  1.00  0.00    -0.376 OA
BRANCH  33  34
ATOM     34  C   UNL A   1      43.347  22.231  26.122  1.00  0.00     0.202 C 
BRANCH  34  35
ATOM     35  C   UNL A   1      42.846  23.479  25.366  1.00  0.00     0.261 C 
BRANCH  35  36
ATOM     36  O   UNL A   1      42.295  24.516  26.213  1.00  0.00    -0.460 OA
BRANCH  36  37
ATOM     37  C   UNL A   1      42.274  25.807  25.719  1.00  0.00     0.338 C 
ATOM     38  O   UNL A   1      42.669  26.081  24.593  1.00  0.00    -0.246 OA
BRANCH  37  39
ATOM     39  C   UNL A   1      41.410  26.706  26.541  1.00  0.00     0.060 A 
ATOM     40  C   UNL A   1      40.917  28.002  26.312  1.00  0.00     0.016 A 
ATOM     41  C   UNL A   1      41.033  26.158  27.709  1.00  0.00     0.016 A 
ATOM     42  C   UNL A   1      40.176  28.779  27.340  1.00  0.00     0.010 A 
ATOM     43  C   UNL A   1      40.441  26.972  28.664  1.00  0.00     0.010 A 
ATOM     44  C   UNL A   1      39.929  28.314  28.641  1.00  0.00    -0.014 A 
BRANCH  44  45
ATOM     45  C   UNL A   1      39.311  29.226  29.981  1.00  0.00     0.031 A 
ATOM     46  C   UNL A   1      38.245  30.637  30.189  1.00  0.00     0.074 A 
ATOM     47  C   UNL A   1      39.667  28.756  31.197  1.00  0.00     0.049 A 
ATOM     48  N   UNL A   1      38.368  31.558  31.130  1.00  0.00    -0.248 NA
ATOM     49  C   UNL A   1      37.110  31.165  29.281  1.00  0.00     0.031 C 
ATOM     50  C   UNL A   1      39.069  29.075  32.490  1.00  0.00     0.029 A 
ATOM     51  N   UNL A   1      40.720  27.900  31.518  1.00  0.00    -0.354 N 
ATOM     52  C   UNL A   1      37.351  32.531  30.958  1.00  0.00     0.074 A 
ATOM     53  C   UNL A   1      36.811  32.378  29.676  1.00  0.00     0.031 C 
ATOM     54  C   UNL A   1      39.886  28.640  33.464  1.00  0.00     0.029 A 
ATOM     55  C   UNL A   1      41.111  28.202  32.825  1.00  0.00     0.049 A 
ATOM     56  H   UNL A   1      41.114  27.214  30.933  1.00  0.00     0.167 HD
ATOM     57  C   UNL A   1      36.769  33.256  31.951  1.00  0.00     0.034 A 
ATOM     58  C   UNL A   1      42.372  28.644  33.080  1.00  0.00     0.034 A 
ATOM     59  C   UNL A   1      37.422  32.940  33.182  1.00  0.00     0.049 A 
ATOM     60  C   UNL A   1      42.357  29.993  33.761  1.00  0.00     0.074 A 
ATOM     61  C   UNL A   1      37.166  32.011  34.170  1.00  0.00     0.029 A 
ATOM     62  N   UNL A   1      38.745  33.308  33.292  1.00  0.00    -0.354 N 
ATOM     63  N   UNL A   1      41.316  30.781  33.806  1.00  0.00    -0.248 NA
ATOM     64  C   UNL A   1      43.499  30.550  34.473  1.00  0.00     0.031 C 
ATOM     65  C   UNL A   1      38.387  31.791  34.862  1.00  0.00     0.029 A 
ATOM     66  C   UNL A   1      39.348  32.628  34.319  1.00  0.00     0.049 A 
ATOM     67  H   UNL A   1      39.194  33.966  32.715  1.00  0.00     0.167 HD
ATOM     68  C   UNL A   1      41.621  31.925  34.494  1.00  0.00     0.074 A 
ATOM     69  C   UNL A   1      42.994  31.716  34.917  1.00  0.00     0.031 C 
ATOM     70  C   UNL A   1      40.725  32.949  34.630  1.00  0.00     0.034 A 
BRANCH  57  71
ATOM     71  C   UNL A   1      35.387  33.898  31.808  1.00  0.00     0.023 A 
ATOM     72  C   UNL A   1      34.951  34.288  30.530  1.00  0.00     0.031 A 
ATOM     73  C   UNL A   1      34.499  34.230  32.862  1.00  0.00     0.131 A 
ATOM     74  C   UNL A   1      33.791  35.069  30.352  1.00  0.00     0.055 A 
ATOM     75  C   UNL A   1      33.400  35.091  32.700  1.00  0.00     0.041 A 
ATOM     76  F   UNL A   1      34.645  33.710  34.092  1.00  0.00    -0.206 F 
ATOM     77  C   UNL A   1      33.048  35.530  31.436  1.00  0.00     0.022 A 
BRANCH  74  78
ATOM     78  S   UNL A   1      33.231  35.429  28.667  1.00  0.00     0.124 S 
ATOM     79  O   UNL A   1      34.465  35.855  28.016  1.00  0.00    -0.237 OA
ATOM     80  O   UNL A   1      32.687  34.144  28.244  1.00  0.00    -0.237 OA
ATOM     81  O   UNL A   1      32.236  36.485  28.855  1.00  0.00    -0.744 OA
ENDBRANCH  74  78
ENDBRANCH  57  71
BRANCH  58  82
ATOM     82  C   UNL A   1      43.385  28.118  32.104  1.00  0.00     0.023 A 
ATOM     83  C   UNL A   1      43.923  29.023  31.149  1.00  0.00     0.031 A 
ATOM     84  C   UNL A   1      44.099  26.935  32.337  1.00  0.00     0.131 A 
ATOM     85  C   UNL A   1      45.189  28.804  30.579  1.00  0.00     0.055 A 
ATOM     86  C   UNL A   1      45.331  26.688  31.711  1.00  0.00     0.041 A 
ATOM     87  F   UNL A   1      43.689  26.060  33.267  1.00  0.00    -0.206 F 
ATOM     88  C   UNL A   1      45.901  27.638  30.859  1.00  0.00     0.022 A 
BRANCH  85  89
ATOM     89  S   UNL A   1      46.030  30.155  29.689  1.00  0.00     0.124 S 
ATOM     90  O   UNL A   1      46.580  29.460  28.531  1.00  0.00    -0.237 OA
ATOM     91  O   UNL A   1      44.953  31.102  29.413  1.00  0.00    -0.237 OA
ATOM     92  O   UNL A   1      47.011  30.640  30.660  1.00  0.00    -0.744 OA
ENDBRANCH  85  89
ENDBRANCH  58  82
BRANCH  70  93
ATOM     93  C   UNL A   1      41.033  34.372  35.056  1.00  0.00     0.023 A 
ATOM     94  C   UNL A   1      41.838  35.224  34.303  1.00  0.00     0.031 A 
ATOM     95  C   UNL A   1      40.435  34.962  36.205  1.00  0.00     0.131 A 
ATOM     96  C   UNL A   1      42.106  36.535  34.724  1.00  0.00     0.055 A 
ATOM     97  C   UNL A   1      40.596  36.306  36.550  1.00  0.00     0.041 A 
ATOM     98  F   UNL A   1      39.660  34.268  37.051  1.00  0.00    -0.206 F 
ATOM     99  C   UNL A   1      41.460  37.099  35.820  1.00  0.00     0.022 A 
BRANCH  96 100
ATOM    100  S   UNL A   1      43.433  37.422  33.879  1.00  0.00     0.124 S 
ATOM    101  O   UNL A   1      43.509  36.702  32.609  1.00  0.00    -0.237 OA
ATOM    102  O   UNL A   1      42.905  38.779  33.806  1.00  0.00    -0.237 OA
ATOM    103  O   UNL A   1      44.582  37.240  34.762  1.00  0.00    -0.744 OA
ENDBRANCH  96 100
ENDBRANCH  70  93
ENDBRANCH  44  45
ENDBRANCH  37  39
ENDBRANCH  36  37
ENDBRANCH  35  36
ENDBRANCH  34  35
ENDBRANCH  33  34
ENDBRANCH   1  33
TORSDOF 23
ENDMDL
MODEL 3
REMARK VINA RESULT:     -12.6      3.961     10.520
REMARK SMILES Cc1cccc(OC2(C(=O)OCCOCCOCCOC(=O)c3ccc(-c4c5nc(c(-c6cc(S(=O)(=O)[O-])ccc6F)c6ccc([nH]6)c(-c6cc(S(=O)(=O)[O-])ccc6F)c6nc(c(-c7cc(S(=O)(=O)[O-])ccc7F)c7ccc4[nH]7)C=C6)C=C5)cc3)CCN(C(=O)c3cnc[nH]c3=O)CC2)c1
REMARK SMILES IDX 16 1 15 2 14 3 13 4 12 5 11 6 9 7 10 8 8 9 86 10 99 11 87 12
REMARK SMILES IDX 98 13 88 14 89 15 90 16 7 17 6 18 1 19 2 20 3 21 100 22 4 23
REMARK SMILES IDX 5 24 91 25 92 26 96 27 93 28 95 29 97 30 94 31 17 33 18 34
REMARK SMILES IDX 19 35 20 36 21 37 22 38 23 39 24 40 85 41 25 42 84 43 26 44
REMARK SMILES IDX 27 45 28 46 78 47 29 48 83 49 77 50 79 51 30 52 82 53 76 54
REMARK SMILES IDX 75 55 31 57 63 58 43 59 62 60 44 61 47 62 61 63 80 64 45 65
REMARK SMILES IDX 46 66 60 68 81 69 48 70 32 71 33 72 41 73 34 74 40 75 42 76
REMARK SMILES IDX 39 77 35 78 36 79 37 80 38 81 64 82 65 83 73 84 66 85 72 86
REMARK SMILES IDX 74 87 71 88 67 89 68 90 69 91 70 92 49 93 50 94 58 95 51 96
REMARK SMILES IDX 57 97 59 98 56 99 52 100 53 101 54 102 55 103
REMARK H PARENT 95 32 79 56 47 67
REMARK Flexibility Score: inf
ROOT
ATOM      1  C   UNL A   1      34.368  33.239  28.050  1.00  0.00     0.188 C 
ENDROOT
BRANCH   1   2
ATOM      2  C   UNL A   1      33.967  31.783  27.811  1.00  0.00     0.188 C 
BRANCH   2   3
ATOM      3  O   UNL A   1      32.763  31.334  27.147  1.00  0.00    -0.376 OA
BRANCH   3   4
ATOM      4  C   UNL A   1      32.618  30.136  26.363  1.00  0.00     0.202 C 
BRANCH   4   5
ATOM      5  C   UNL A   1      31.717  28.746  26.782  1.00  0.00     0.261 C 
BRANCH   5   6
ATOM      6  O   UNL A   1      32.182  27.009  26.746  1.00  0.00    -0.460 OA
BRANCH   6   7
ATOM      7  C   UNL A   1      32.674  25.928  25.871  1.00  0.00     0.350 C 
ATOM      8  O   UNL A   1      33.825  25.486  25.781  1.00  0.00    -0.247 OA
BRANCH   7   9
ATOM      9  C   UNL A   1      31.735  25.103  24.977  1.00  0.00     0.209 C 
ATOM     10  C   UNL A   1      32.417  24.924  23.639  1.00  0.00     0.082 C 
ATOM     11  C   UNL A   1      31.440  23.806  25.810  1.00  0.00     0.082 C 
ATOM     12  C   UNL A   1      32.123  23.601  22.975  1.00  0.00     0.124 C 
ATOM     13  C   UNL A   1      31.044  22.644  24.935  1.00  0.00     0.124 C 
ATOM     14  N   UNL A   1      32.090  22.520  23.935  1.00  0.00    -0.338 N 
ATOM     15  C   UNL A   1      33.215  21.739  24.158  1.00  0.00     0.261 C 
ATOM     16  O   UNL A   1      34.359  22.078  23.877  1.00  0.00    -0.269 OA
BRANCH   9  17
ATOM     17  O   UNL A   1      30.523  25.898  25.081  1.00  0.00    -0.475 OA
BRANCH  17  18
ATOM     18  C   UNL A   1      29.843  26.572  24.117  1.00  0.00     0.121 A 
ATOM     19  C   UNL A   1      30.355  29.780  22.181  1.00  0.00     0.044 C 
ATOM     20  C   UNL A   1      29.675  28.576  22.762  1.00  0.00    -0.047 A 
ATOM     21  C   UNL A   1      28.279  28.520  22.824  1.00  0.00     0.003 A 
ATOM     22  C   UNL A   1      30.447  27.579  23.382  1.00  0.00     0.050 A 
ATOM     23  C   UNL A   1      27.658  27.476  23.504  1.00  0.00     0.004 A 
ATOM     24  C   UNL A   1      28.440  26.520  24.167  1.00  0.00     0.046 A 
ENDBRANCH  17  18
ENDBRANCH   9  17
BRANCH  15  25
ATOM     25  C   UNL A   1      32.918  20.405  24.713  1.00  0.00     0.123 A 
ATOM     26  C   UNL A   1      32.451  19.406  23.949  1.00  0.00     0.132 A 
ATOM     27  C   UNL A   1      33.181  20.109  26.133  1.00  0.00     0.263 A 
ATOM     28  N   UNL A   1      32.229  18.121  24.392  1.00  0.00    -0.246 NA
ATOM     29  N   UNL A   1      33.007  18.805  26.494  1.00  0.00    -0.312 N 
ATOM     30  O   UNL A   1      33.521  20.951  26.956  1.00  0.00    -0.269 OA
ATOM     31  C   UNL A   1      32.529  17.874  25.621  1.00  0.00     0.199 A 
ATOM     32  H   UNL A   1      33.233  18.528  27.411  1.00  0.00     0.171 HD
ENDBRANCH  15  25
ENDBRANCH   7   9
ENDBRANCH   6   7
ENDBRANCH   5   6
ENDBRANCH   4   5
ENDBRANCH   3   4
ENDBRANCH   2   3
ENDBRANCH   1   2
BRANCH   1  33
ATOM     33  O   UNL A   1      33.540  33.876  29.005  1.00  0.00    -0.376 OA
BRANCH  33  34
ATOM     34  C   UNL A   1      34.233  34.561  30.034  1.00  0.00     0.202 C 
BRANCH  34  35
ATOM     35  C   UNL A   1      35.752  34.298  30.087  1.00  0.00     0.261 C 
BRANCH  35  36
ATOM     36  O   UNL A   1      36.199  33.582  31.263  1.00  0.00    -0.460 OA
BRANCH  36  37
ATOM     37  C   UNL A   1      36.173  32.200  31.225  1.00  0.00     0.338 C 
ATOM     38  O   UNL A   1      35.124  31.567  31.219  1.00  0.00    -0.246 OA
BRANCH  37  39
ATOM     39  C   UNL A   1      37.495  31.626  30.831  1.00  0.00     0.060 A 
ATOM     40  C   UNL A   1      38.153  31.547  29.593  1.00  0.00     0.016 A 
ATOM     41  C   UNL A   1      38.174  31.100  31.865  1.00  0.00     0.016 A 
ATOM     42  C   UNL A   1      39.422  30.798  29.397  1.00  0.00     0.010 A 
ATOM     43  C   UNL A   1      39.291  30.322  31.598  1.00  0.00     0.010 A 
ATOM     44  C   UNL A   1      40.064  30.073  30.413  1.00  0.00    -0.014 A 
BRANCH  44  45
ATOM     45  C   UNL A   1      41.389  28.967  30.235  1.00  0.00     0.031 A 
ATOM     46  C   UNL A   1      41.640  27.379  29.471  1.00  0.00     0.074 A 
ATOM     47  C   UNL A   1      42.559  29.401  30.753  1.00  0.00     0.049 A 
ATOM     48  N   UNL A   1      42.434  26.426  29.929  1.00  0.00    -0.248 NA
ATOM     49  C   UNL A   1      40.910  26.727  28.274  1.00  0.00     0.031 C 
ATOM     50  C   UNL A   1      43.900  28.885  30.490  1.00  0.00     0.029 A 
ATOM     51  N   UNL A   1      42.767  30.403  31.699  1.00  0.00    -0.354 N 
ATOM     52  C   UNL A   1      42.353  25.303  29.067  1.00  0.00     0.074 A 
ATOM     53  C   UNL A   1      41.220  25.454  28.259  1.00  0.00     0.031 C 
ATOM     54  C   UNL A   1      44.743  29.383  31.408  1.00  0.00     0.029 A 
ATOM     55  C   UNL A   1      43.937  30.078  32.392  1.00  0.00     0.049 A 
ATOM     56  H   UNL A   1      42.197  31.190  31.852  1.00  0.00     0.167 HD
ATOM     57  C   UNL A   1      43.353  24.414  28.822  1.00  0.00     0.034 A 
ATOM     58  C   UNL A   1      43.900  29.849  33.732  1.00  0.00     0.034 A 
ATOM     59  C   UNL A   1      44.466  24.748  29.654  1.00  0.00     0.049 A 
ATOM     60  C   UNL A   1      44.421  28.470  34.071  1.00  0.00     0.074 A 
ATOM     61  C   UNL A   1      45.580  25.540  29.460  1.00  0.00     0.029 A 
ATOM     62  N   UNL A   1      44.284  24.613  31.012  1.00  0.00    -0.354 N 
ATOM     63  N   UNL A   1      44.576  27.510  33.199  1.00  0.00    -0.248 NA
ATOM     64  C   UNL A   1      44.840  28.073  35.408  1.00  0.00     0.031 C 
ATOM     65  C   UNL A   1      46.048  25.920  30.746  1.00  0.00     0.029 A 
ATOM     66  C   UNL A   1      45.247  25.310  31.697  1.00  0.00     0.049 A 
ATOM     67  H   UNL A   1      43.564  24.090  31.433  1.00  0.00     0.167 HD
ATOM     68  C   UNL A   1      45.065  26.389  33.817  1.00  0.00     0.074 A 
ATOM     69  C   UNL A   1      45.242  26.807  35.196  1.00  0.00     0.031 C 
ATOM     70  C   UNL A   1      45.256  25.216  33.142  1.00  0.00     0.034 A 
BRANCH  57  71
ATOM     71  C   UNL A   1      43.404  23.550  27.560  1.00  0.00     0.023 A 
ATOM     72  C   UNL A   1      42.700  22.334  27.543  1.00  0.00     0.031 A 
ATOM     73  C   UNL A   1      44.171  23.805  26.395  1.00  0.00     0.131 A 
ATOM     74  C   UNL A   1      42.871  21.396  26.504  1.00  0.00     0.055 A 
ATOM     75  C   UNL A   1      44.421  22.834  25.410  1.00  0.00     0.041 A 
ATOM     76  F   UNL A   1      44.690  25.020  26.148  1.00  0.00    -0.206 F 
ATOM     77  C   UNL A   1      43.778  21.611  25.470  1.00  0.00     0.022 A 
BRANCH  74  78
ATOM     78  S   UNL A   1      41.839  19.907  26.495  1.00  0.00     0.124 S 
ATOM     79  O   UNL A   1      42.287  19.213  27.697  1.00  0.00    -0.237 OA
ATOM     80  O   UNL A   1      40.492  20.467  26.535  1.00  0.00    -0.237 OA
ATOM     81  O   UNL A   1      42.194  19.253  25.235  1.00  0.00    -0.744 OA
ENDBRANCH  74  78
ENDBRANCH  57  71
BRANCH  58  82
ATOM     82  C   UNL A   1      42.813  30.618  34.428  1.00  0.00     0.023 A 
ATOM     83  C   UNL A   1      42.866  32.037  34.380  1.00  0.00     0.031 A 
ATOM     84  C   UNL A   1      41.584  30.033  34.759  1.00  0.00     0.131 A 
ATOM     85  C   UNL A   1      41.698  32.808  34.514  1.00  0.00     0.055 A 
ATOM     86  C   UNL A   1      40.434  30.814  34.962  1.00  0.00     0.041 A 
ATOM     87  F   UNL A   1      41.438  28.700  34.764  1.00  0.00    -0.206 F 
ATOM     88  C   UNL A   1      40.476  32.200  34.802  1.00  0.00     0.022 A 
BRANCH  85  89
ATOM     89  S   UNL A   1      41.715  34.570  34.046  1.00  0.00     0.124 S 
ATOM     90  O   UNL A   1      43.080  34.743  33.561  1.00  0.00    -0.237 OA
ATOM     91  O   UNL A   1      40.663  34.663  33.036  1.00  0.00    -0.237 OA
ATOM     92  O   UNL A   1      41.397  35.256  35.298  1.00  0.00    -0.744 OA
ENDBRANCH  85  89
ENDBRANCH  58  82
BRANCH  70  93
ATOM     93  C   UNL A   1      45.459  23.842  33.752  1.00  0.00     0.023 A 
ATOM     94  C   UNL A   1      46.712  23.369  34.137  1.00  0.00     0.031 A 
ATOM     95  C   UNL A   1      44.365  22.986  34.065  1.00  0.00     0.131 A 
ATOM     96  C   UNL A   1      46.867  22.092  34.698  1.00  0.00     0.055 A 
ATOM     97  C   UNL A   1      44.509  21.774  34.744  1.00  0.00     0.041 A 
ATOM     98  F   UNL A   1      43.100  23.282  33.731  1.00  0.00    -0.206 F 
ATOM     99  C   UNL A   1      45.773  21.305  35.043  1.00  0.00     0.022 A 
BRANCH  96 100
ATOM    100  S   UNL A   1      48.547  21.442  34.822  1.00  0.00     0.124 S 
ATOM    101  O   UNL A   1      48.797  21.535  36.260  1.00  0.00    -0.237 OA
ATOM    102  O   UNL A   1      48.400  20.090  34.294  1.00  0.00    -0.237 OA
ATOM    103  O   UNL A   1      49.331  22.358  33.997  1.00  0.00    -0.744 OA
ENDBRANCH  96 100
ENDBRANCH  70  93
ENDBRANCH  44  45
ENDBRANCH  37  39
ENDBRANCH  36  37
ENDBRANCH  35  36
ENDBRANCH  34  35
ENDBRANCH  33  34
ENDBRANCH   1  33
TORSDOF 23
ENDMDL
