MODEL 1
REMARK VINA RESULT:     -12.5      0.000      0.000
REMARK SMILES Cc1ccc(-c2cc([C@@H](C)C(=O)OCCOCCOCCOC(=O)c3ccc(-c4c5nc(c(-c6cc(S(=O)(=O)[O-])ccc6F)c6ccc([nH]6)c(-c6cc(S(=O)(=O)[O-])ccc6F)c6nc(c(-c7cc(S(=O)(=O)[O-])ccc7F)c7ccc4[nH]7)C=C6)C=C5)cc3)ccc2C[C@H]2CCCC2=O)cc1
REMARK SMILES IDX 17 1 16 2 15 3 14 4 13 5 11 6 12 7 9 8 10 9 8 10 6 11 7 12
REMARK SMILES IDX 90 13 89 14 88 15 5 16 1 17 2 18 3 19 99 20 4 21 98 22 91 23
REMARK SMILES IDX 92 24 93 25 96 26 94 27 95 28 97 29 18 30 19 31 20 32 21 33
REMARK SMILES IDX 22 34 23 35 24 36 25 37 26 38 87 39 27 40 86 41 28 42 29 43
REMARK SMILES IDX 30 44 80 45 31 46 85 47 79 48 81 49 32 50 84 51 78 52 77 53
REMARK SMILES IDX 33 55 65 56 45 57 64 58 46 59 49 60 63 61 82 62 47 63 48 64
REMARK SMILES IDX 62 66 83 67 50 68 34 69 35 70 43 71 36 72 42 73 44 74 41 75
REMARK SMILES IDX 37 76 38 77 39 78 40 79 66 80 67 81 75 82 68 83 74 84 76 85
REMARK SMILES IDX 73 86 69 87 70 88 71 89 72 90 51 91 52 92 60 93 53 94 59 95
REMARK SMILES IDX 61 96 58 97 54 98 55 99 56 100 57 101
REMARK H PARENT 81 54 49 65
REMARK Flexibility Score: inf
ROOT
ATOM      1  C   UNL A   1      34.434  18.302  24.445  1.00  0.00     0.188 C 
ENDROOT
BRANCH   1   2
ATOM      2  O   UNL A   1      33.110  18.847  24.640  1.00  0.00    -0.376 OA
BRANCH   2   3
ATOM      3  C   UNL A   1      32.428  19.772  23.782  1.00  0.00     0.202 C 
BRANCH   3   4
ATOM      4  C   UNL A   1      32.506  21.483  23.723  1.00  0.00     0.261 C 
BRANCH   4   5
ATOM      5  O   UNL A   1      32.740  22.742  24.931  1.00  0.00    -0.463 OA
BRANCH   5   6
ATOM      6  C   UNL A   1      32.522  23.004  26.350  1.00  0.00     0.313 C 
ATOM      7  O   UNL A   1      33.185  22.643  27.331  1.00  0.00    -0.252 OA
BRANCH   6   8
ATOM      8  C   UNL A   1      31.344  23.754  26.863  1.00  0.00     0.126 C 
ATOM      9  C   UNL A   1      30.102  22.856  26.981  1.00  0.00     0.025 C 
BRANCH   8  10
ATOM     10  C   UNL A   1      31.125  25.053  26.224  1.00  0.00    -0.033 A 
ATOM     11  C   UNL A   1      31.906  27.315  25.927  1.00  0.00    -0.015 A 
ATOM     12  C   UNL A   1      31.999  26.087  26.557  1.00  0.00     0.013 A 
ATOM     13  C   UNL A   1      30.930  27.466  24.916  1.00  0.00    -0.039 A 
ATOM     14  C   UNL A   1      30.021  26.423  24.648  1.00  0.00     0.004 A 
ATOM     15  C   UNL A   1      30.118  25.215  25.293  1.00  0.00     0.005 A 
BRANCH  11  16
ATOM     16  C   UNL A   1      32.772  28.381  26.431  1.00  0.00    -0.018 A 
ATOM     17  C   UNL A   1      35.194  31.612  27.942  1.00  0.00     0.044 C 
ATOM     18  C   UNL A   1      34.361  30.461  27.470  1.00  0.00    -0.051 A 
ATOM     19  C   UNL A   1      32.974  30.607  27.382  1.00  0.00     0.004 A 
ATOM     20  C   UNL A   1      34.946  29.246  27.094  1.00  0.00     0.004 A 
ATOM     21  C   UNL A   1      32.189  29.573  26.878  1.00  0.00     0.009 A 
ATOM     22  C   UNL A   1      34.156  28.212  26.586  1.00  0.00     0.009 A 
ENDBRANCH  11  16
BRANCH  13  23
ATOM     23  C   UNL A   1      30.823  28.705  24.057  1.00  0.00     0.047 C 
BRANCH  23  24
ATOM     24  C   UNL A   1      31.799  28.759  22.876  1.00  0.00     0.060 C 
ATOM     25  C   UNL A   1      33.212  29.193  23.258  1.00  0.00     0.012 C 
ATOM     26  C   UNL A   1      32.026  27.436  22.169  1.00  0.00     0.136 C 
ATOM     27  C   UNL A   1      34.151  28.352  22.413  1.00  0.00     0.009 C 
ATOM     28  C   UNL A   1      33.468  27.021  22.172  1.00  0.00     0.076 C 
ATOM     29  O   UNL A   1      31.132  26.772  21.655  1.00  0.00    -0.299 OA
ENDBRANCH  23  24
ENDBRANCH  13  23
ENDBRANCH   8  10
ENDBRANCH   6   8
ENDBRANCH   5   6
ENDBRANCH   4   5
ENDBRANCH   3   4
ENDBRANCH   2   3
ENDBRANCH   1   2
BRANCH   1  30
ATOM     30  C   UNL A   1      35.687  18.977  24.962  1.00  0.00     0.188 C 
BRANCH  30  31
ATOM     31  O   UNL A   1      35.603  20.364  24.705  1.00  0.00    -0.376 OA
BRANCH  31  32
ATOM     32  C   UNL A   1      36.348  21.159  25.592  1.00  0.00     0.202 C 
BRANCH  32  33
ATOM     33  C   UNL A   1      37.797  21.406  25.118  1.00  0.00     0.261 C 
BRANCH  33  34
ATOM     34  O   UNL A   1      38.300  22.752  25.355  1.00  0.00    -0.460 OA
BRANCH  34  35
ATOM     35  C   UNL A   1      39.345  22.949  26.242  1.00  0.00     0.338 C 
ATOM     36  O   UNL A   1      40.222  22.115  26.432  1.00  0.00    -0.246 OA
BRANCH  35  37
ATOM     37  C   UNL A   1      39.414  24.378  26.696  1.00  0.00     0.060 A 
ATOM     38  C   UNL A   1      40.265  25.430  26.317  1.00  0.00     0.016 A 
ATOM     39  C   UNL A   1      38.601  24.653  27.730  1.00  0.00     0.016 A 
ATOM     40  C   UNL A   1      40.445  26.631  27.151  1.00  0.00     0.010 A 
ATOM     41  C   UNL A   1      39.024  25.640  28.598  1.00  0.00     0.010 A 
ATOM     42  C   UNL A   1      39.898  26.744  28.436  1.00  0.00    -0.014 A 
BRANCH  42  43
ATOM     43  C   UNL A   1      40.280  27.883  29.645  1.00  0.00     0.031 A 
ATOM     44  C   UNL A   1      39.455  29.264  30.322  1.00  0.00     0.074 A 
ATOM     45  C   UNL A   1      41.528  27.766  30.138  1.00  0.00     0.049 A 
ATOM     46  N   UNL A   1      40.051  30.376  30.711  1.00  0.00    -0.248 NA
ATOM     47  C   UNL A   1      37.959  29.582  30.439  1.00  0.00     0.031 C 
ATOM     48  C   UNL A   1      42.105  28.401  31.313  1.00  0.00     0.029 A 
ATOM     49  N   UNL A   1      42.585  27.048  29.589  1.00  0.00    -0.354 N 
ATOM     50  C   UNL A   1      39.055  31.252  31.191  1.00  0.00     0.074 A 
ATOM     51  C   UNL A   1      37.867  30.885  30.568  1.00  0.00     0.031 C 
ATOM     52  C   UNL A   1      43.440  28.266  31.255  1.00  0.00     0.029 A 
ATOM     53  C   UNL A   1      43.768  27.689  29.963  1.00  0.00     0.049 A 
ATOM     54  H   UNL A   1      42.512  26.235  29.038  1.00  0.00     0.167 HD
ATOM     55  C   UNL A   1      39.176  32.016  32.312  1.00  0.00     0.034 A 
ATOM     56  C   UNL A   1      44.544  28.213  28.971  1.00  0.00     0.034 A 
ATOM     57  C   UNL A   1      40.581  32.118  32.612  1.00  0.00     0.049 A 
ATOM     58  C   UNL A   1      44.558  29.734  29.051  1.00  0.00     0.074 A 
ATOM     59  C   UNL A   1      41.475  31.487  33.447  1.00  0.00     0.029 A 
ATOM     60  N   UNL A   1      41.327  32.703  31.621  1.00  0.00    -0.354 N 
ATOM     61  N   UNL A   1      44.010  30.422  30.022  1.00  0.00    -0.248 NA
ATOM     62  C   UNL A   1      45.141  30.608  28.035  1.00  0.00     0.031 C 
ATOM     63  C   UNL A   1      42.768  31.581  32.816  1.00  0.00     0.029 A 
ATOM     64  C   UNL A   1      42.640  32.313  31.645  1.00  0.00     0.049 A 
ATOM     65  H   UNL A   1      40.958  33.336  30.964  1.00  0.00     0.167 HD
ATOM     66  C   UNL A   1      44.046  31.755  29.733  1.00  0.00     0.074 A 
ATOM     67  C   UNL A   1      44.794  31.827  28.488  1.00  0.00     0.031 C 
ATOM     68  C   UNL A   1      43.434  32.712  30.491  1.00  0.00     0.034 A 
BRANCH  55  69
ATOM     69  C   UNL A   1      38.028  32.517  33.212  1.00  0.00     0.023 A 
ATOM     70  C   UNL A   1      36.852  32.934  32.561  1.00  0.00     0.031 A 
ATOM     71  C   UNL A   1      37.989  32.701  34.624  1.00  0.00     0.131 A 
ATOM     72  C   UNL A   1      35.778  33.535  33.258  1.00  0.00     0.055 A 
ATOM     73  C   UNL A   1      36.933  33.322  35.313  1.00  0.00     0.041 A 
ATOM     74  F   UNL A   1      38.936  32.279  35.464  1.00  0.00    -0.206 F 
ATOM     75  C   UNL A   1      35.820  33.753  34.630  1.00  0.00     0.022 A 
BRANCH  72  76
ATOM     76  S   UNL A   1      34.301  34.022  32.337  1.00  0.00     0.124 S 
ATOM     77  O   UNL A   1      34.479  35.465  32.222  1.00  0.00    -0.237 OA
ATOM     78  O   UNL A   1      34.439  33.249  31.108  1.00  0.00    -0.237 OA
ATOM     79  O   UNL A   1      33.204  33.602  33.207  1.00  0.00    -0.744 OA
ENDBRANCH  72  76
ENDBRANCH  55  69
BRANCH  56  80
ATOM     80  C   UNL A   1      44.580  27.306  27.758  1.00  0.00     0.023 A 
ATOM     81  C   UNL A   1      44.907  25.936  27.993  1.00  0.00     0.031 A 
ATOM     82  C   UNL A   1      43.983  27.600  26.526  1.00  0.00     0.131 A 
ATOM     83  C   UNL A   1      44.481  24.922  27.120  1.00  0.00     0.055 A 
ATOM     84  C   UNL A   1      43.650  26.587  25.604  1.00  0.00     0.041 A 
ATOM     85  F   UNL A   1      43.579  28.845  26.235  1.00  0.00    -0.206 F 
ATOM     86  C   UNL A   1      43.861  25.241  25.916  1.00  0.00     0.022 A 
BRANCH  83  87
ATOM     87  S   UNL A   1      44.461  23.183  27.674  1.00  0.00     0.124 S 
ATOM     88  O   UNL A   1      45.238  23.243  28.907  1.00  0.00    -0.237 OA
ATOM     89  O   UNL A   1      43.040  22.886  27.831  1.00  0.00    -0.237 OA
ATOM     90  O   UNL A   1      45.093  22.478  26.559  1.00  0.00    -0.744 OA
ENDBRANCH  83  87
ENDBRANCH  56  80
BRANCH  68  91
ATOM     91  C   UNL A   1      43.521  34.173  30.136  1.00  0.00     0.023 A 
ATOM     92  C   UNL A   1      43.148  34.584  28.857  1.00  0.00     0.031 A 
ATOM     93  C   UNL A   1      44.066  35.165  30.986  1.00  0.00     0.131 A 
ATOM     94  C   UNL A   1      43.279  35.927  28.483  1.00  0.00     0.055 A 
ATOM     95  C   UNL A   1      44.329  36.465  30.560  1.00  0.00     0.041 A 
ATOM     96  F   UNL A   1      44.319  34.933  32.284  1.00  0.00    -0.206 F 
ATOM     97  C   UNL A   1      43.922  36.858  29.299  1.00  0.00     0.022 A 
BRANCH  94  98
ATOM     98  S   UNL A   1      42.460  36.454  26.966  1.00  0.00     0.124 S 
ATOM     99  O   UNL A   1      42.648  37.900  26.984  1.00  0.00    -0.237 OA
ATOM    100  O   UNL A   1      43.227  35.727  25.958  1.00  0.00    -0.237 OA
ATOM    101  O   UNL A   1      41.084  36.000  27.145  1.00  0.00    -0.744 OA
ENDBRANCH  94  98
ENDBRANCH  68  91
ENDBRANCH  42  43
ENDBRANCH  35  37
ENDBRANCH  34  35
ENDBRANCH  33  34
ENDBRANCH  32  33
ENDBRANCH  31  32
ENDBRANCH  30  31
ENDBRANCH   1  30
TORSDOF 24
ENDMDL
MODEL 2
REMARK VINA RESULT:     -11.1      4.406      8.435
REMARK SMILES Cc1ccc(-c2cc([C@@H](C)C(=O)OCCOCCOCCOC(=O)c3ccc(-c4c5nc(c(-c6cc(S(=O)(=O)[O-])ccc6F)c6ccc([nH]6)c(-c6cc(S(=O)(=O)[O-])ccc6F)c6nc(c(-c7cc(S(=O)(=O)[O-])ccc7F)c7ccc4[nH]7)C=C6)C=C5)cc3)ccc2C[C@H]2CCCC2=O)cc1
REMARK SMILES IDX 17 1 16 2 15 3 14 4 13 5 11 6 12 7 9 8 10 9 8 10 6 11 7 12
REMARK SMILES IDX 90 13 89 14 88 15 5 16 1 17 2 18 3 19 99 20 4 21 98 22 91 23
REMARK SMILES IDX 92 24 93 25 96 26 94 27 95 28 97 29 18 30 19 31 20 32 21 33
REMARK SMILES IDX 22 34 23 35 24 36 25 37 26 38 87 39 27 40 86 41 28 42 29 43
REMARK SMILES IDX 30 44 80 45 31 46 85 47 79 48 81 49 32 50 84 51 78 52 77 53
REMARK SMILES IDX 33 55 65 56 45 57 64 58 46 59 49 60 63 61 82 62 47 63 48 64
REMARK SMILES IDX 62 66 83 67 50 68 34 69 35 70 43 71 36 72 42 73 44 74 41 75
REMARK SMILES IDX 37 76 38 77 39 78 40 79 66 80 67 81 75 82 68 83 74 84 76 85
REMARK SMILES IDX 73 86 69 87 70 88 71 89 72 90 51 91 52 92 60 93 53 94 59 95
REMARK SMILES IDX 61 96 58 97 54 98 55 99 56 100 57 101
REMARK H PARENT 81 54 49 65
REMARK Flexibility Score: inf
ROOT
ATOM      1  C   UNL A   1      35.100  18.371  24.479  1.00  0.00     0.188 C 
ENDROOT
BRANCH   1   2
ATOM      2  O   UNL A   1      33.730  18.527  24.908  1.00  0.00    -0.376 OA
BRANCH   2   3
ATOM      3  C   UNL A   1      32.673  19.177  24.188  1.00  0.00     0.202 C 
BRANCH   3   4
ATOM      4  C   UNL A   1      32.446  20.837  23.825  1.00  0.00     0.261 C 
BRANCH   4   5
ATOM      5  O   UNL A   1      32.035  22.256  24.782  1.00  0.00    -0.463 OA
BRANCH   5   6
ATOM      6  C   UNL A   1      32.093  22.752  26.153  1.00  0.00     0.313 C 
ATOM      7  O   UNL A   1      32.922  22.520  27.043  1.00  0.00    -0.252 OA
BRANCH   6   8
ATOM      8  C   UNL A   1      31.049  23.634  26.740  1.00  0.00     0.126 C 
ATOM      9  C   UNL A   1      29.779  22.849  27.107  1.00  0.00     0.025 C 
BRANCH   8  10
ATOM     10  C   UNL A   1      30.828  24.884  26.011  1.00  0.00    -0.033 A 
ATOM     11  C   UNL A   1      31.511  27.171  25.671  1.00  0.00    -0.015 A 
ATOM     12  C   UNL A   1      31.603  25.984  26.375  1.00  0.00     0.013 A 
ATOM     13  C   UNL A   1      30.642  27.213  24.557  1.00  0.00    -0.039 A 
ATOM     14  C   UNL A   1      29.825  26.105  24.255  1.00  0.00     0.004 A 
ATOM     15  C   UNL A   1      29.919  24.939  24.973  1.00  0.00     0.005 A 
BRANCH  11  16
ATOM     16  C   UNL A   1      32.258  28.312  26.203  1.00  0.00    -0.018 A 
ATOM     17  C   UNL A   1      34.325  31.755  27.771  1.00  0.00     0.044 C 
ATOM     18  C   UNL A   1      33.610  30.534  27.281  1.00  0.00    -0.051 A 
ATOM     19  C   UNL A   1      32.240  30.602  27.010  1.00  0.00     0.004 A 
ATOM     20  C   UNL A   1      34.290  29.329  27.069  1.00  0.00     0.004 A 
ATOM     21  C   UNL A   1      31.572  29.499  26.486  1.00  0.00     0.009 A 
ATOM     22  C   UNL A   1      33.616  28.225  26.541  1.00  0.00     0.009 A 
ENDBRANCH  11  16
BRANCH  13  23
ATOM     23  C   UNL A   1      30.559  28.399  23.625  1.00  0.00     0.047 C 
BRANCH  23  24
ATOM     24  C   UNL A   1      31.667  28.469  22.567  1.00  0.00     0.060 C 
ATOM     25  C   UNL A   1      32.944  29.155  23.049  1.00  0.00     0.012 C 
ATOM     26  C   UNL A   1      32.167  27.125  22.072  1.00  0.00     0.136 C 
ATOM     27  C   UNL A   1      34.093  28.378  22.437  1.00  0.00     0.009 C 
ATOM     28  C   UNL A   1      33.638  26.939  22.296  1.00  0.00     0.076 C 
ATOM     29  O   UNL A   1      31.450  26.278  21.550  1.00  0.00    -0.299 OA
ENDBRANCH  23  24
ENDBRANCH  13  23
ENDBRANCH   8  10
ENDBRANCH   6   8
ENDBRANCH   5   6
ENDBRANCH   4   5
ENDBRANCH   3   4
ENDBRANCH   2   3
ENDBRANCH   1   2
BRANCH   1  30
ATOM     30  C   UNL A   1      36.209  19.312  24.904  1.00  0.00     0.188 C 
BRANCH  30  31
ATOM     31  O   UNL A   1      35.783  20.645  24.709  1.00  0.00    -0.376 OA
BRANCH  31  32
ATOM     32  C   UNL A   1      36.326  21.561  25.625  1.00  0.00     0.202 C 
BRANCH  32  33
ATOM     33  C   UNL A   1      37.844  21.778  25.441  1.00  0.00     0.261 C 
BRANCH  33  34
ATOM     34  O   UNL A   1      38.389  22.934  26.140  1.00  0.00    -0.460 OA
BRANCH  34  35
ATOM     35  C   UNL A   1      39.582  22.818  26.834  1.00  0.00     0.338 C 
ATOM     36  O   UNL A   1      40.111  21.739  27.071  1.00  0.00    -0.246 OA
BRANCH  35  37
ATOM     37  C   UNL A   1      40.254  24.151  26.990  1.00  0.00     0.060 A 
ATOM     38  C   UNL A   1      40.316  25.263  26.132  1.00  0.00     0.016 A 
ATOM     39  C   UNL A   1      41.029  24.237  28.084  1.00  0.00     0.016 A 
ATOM     40  C   UNL A   1      41.344  26.308  26.278  1.00  0.00     0.010 A 
ATOM     41  C   UNL A   1      42.128  25.068  27.995  1.00  0.00     0.010 A 
ATOM     42  C   UNL A   1      42.409  26.195  27.182  1.00  0.00    -0.014 A 
BRANCH  42  43
ATOM     43  C   UNL A   1      43.840  27.118  27.240  1.00  0.00     0.031 A 
ATOM     44  C   UNL A   1      45.540  26.738  27.128  1.00  0.00     0.074 A 
ATOM     45  C   UNL A   1      43.646  28.420  27.524  1.00  0.00     0.049 A 
ATOM     46  N   UNL A   1      46.491  27.348  27.811  1.00  0.00    -0.248 NA
ATOM     47  C   UNL A   1      46.267  25.579  26.431  1.00  0.00     0.031 C 
ATOM     48  C   UNL A   1      44.591  29.522  27.429  1.00  0.00     0.029 A 
ATOM     49  N   UNL A   1      42.496  29.004  28.043  1.00  0.00    -0.354 N 
ATOM     50  C   UNL A   1      47.722  26.758  27.456  1.00  0.00     0.074 A 
ATOM     51  C   UNL A   1      47.435  25.469  27.019  1.00  0.00     0.031 C 
ATOM     52  C   UNL A   1      44.089  30.570  28.104  1.00  0.00     0.029 A 
ATOM     53  C   UNL A   1      42.890  30.119  28.788  1.00  0.00     0.049 A 
ATOM     54  H   UNL A   1      41.573  28.691  27.909  1.00  0.00     0.167 HD
ATOM     55  C   UNL A   1      48.871  27.453  27.223  1.00  0.00     0.034 A 
ATOM     56  C   UNL A   1      42.629  30.108  30.126  1.00  0.00     0.034 A 
ATOM     57  C   UNL A   1      48.721  28.747  27.836  1.00  0.00     0.049 A 
ATOM     58  C   UNL A   1      43.926  30.034  30.923  1.00  0.00     0.074 A 
ATOM     59  C   UNL A   1      48.363  30.013  27.429  1.00  0.00     0.029 A 
ATOM     60  N   UNL A   1      48.520  28.708  29.192  1.00  0.00    -0.354 N 
ATOM     61  N   UNL A   1      45.119  30.110  30.388  1.00  0.00    -0.248 NA
ATOM     62  C   UNL A   1      43.996  29.824  32.367  1.00  0.00     0.031 C 
ATOM     63  C   UNL A   1      47.783  30.667  28.574  1.00  0.00     0.029 A 
ATOM     64  C   UNL A   1      47.852  29.808  29.661  1.00  0.00     0.049 A 
ATOM     65  H   UNL A   1      48.823  27.969  29.766  1.00  0.00     0.167 HD
ATOM     66  C   UNL A   1      46.074  29.852  31.328  1.00  0.00     0.074 A 
ATOM     67  C   UNL A   1      45.322  29.709  32.565  1.00  0.00     0.031 C 
ATOM     68  C   UNL A   1      47.404  29.727  31.045  1.00  0.00     0.034 A 
BRANCH  55  69
ATOM     69  C   UNL A   1      50.037  27.021  26.311  1.00  0.00     0.023 A 
ATOM     70  C   UNL A   1      50.099  27.621  25.039  1.00  0.00     0.031 A 
ATOM     71  C   UNL A   1      51.043  26.035  26.520  1.00  0.00     0.131 A 
ATOM     72  C   UNL A   1      51.037  27.217  24.061  1.00  0.00     0.055 A 
ATOM     73  C   UNL A   1      51.959  25.615  25.539  1.00  0.00     0.041 A 
ATOM     74  F   UNL A   1      51.257  25.413  27.681  1.00  0.00    -0.206 F 
ATOM     75  C   UNL A   1      51.955  26.200  24.295  1.00  0.00     0.022 A 
BRANCH  72  76
ATOM     76  S   UNL A   1      51.050  28.060  22.461  1.00  0.00     0.124 S 
ATOM     77  O   UNL A   1      49.727  27.739  21.940  1.00  0.00    -0.237 OA
ATOM     78  O   UNL A   1      51.279  29.447  22.849  1.00  0.00    -0.237 OA
ATOM     79  O   UNL A   1      52.163  27.428  21.754  1.00  0.00    -0.744 OA
ENDBRANCH  72  76
ENDBRANCH  55  69
BRANCH  56  80
ATOM     80  C   UNL A   1      41.274  29.498  30.422  1.00  0.00     0.023 A 
ATOM     81  C   UNL A   1      40.137  30.335  30.215  1.00  0.00     0.031 A 
ATOM     82  C   UNL A   1      41.025  28.123  30.524  1.00  0.00     0.131 A 
ATOM     83  C   UNL A   1      38.870  29.794  29.939  1.00  0.00     0.055 A 
ATOM     84  C   UNL A   1      39.731  27.591  30.347  1.00  0.00     0.041 A 
ATOM     85  F   UNL A   1      42.032  27.248  30.652  1.00  0.00    -0.206 F 
ATOM     86  C   UNL A   1      38.658  28.421  30.015  1.00  0.00     0.022 A 
BRANCH  83  87
ATOM     87  S   UNL A   1      37.571  30.836  29.193  1.00  0.00     0.124 S 
ATOM     88  O   UNL A   1      36.431  30.580  30.065  1.00  0.00    -0.237 OA
ATOM     89  O   UNL A   1      38.130  32.184  29.255  1.00  0.00    -0.237 OA
ATOM     90  O   UNL A   1      37.464  30.302  27.835  1.00  0.00    -0.744 OA
ENDBRANCH  83  87
ENDBRANCH  56  80
BRANCH  68  91
ATOM     91  C   UNL A   1      48.418  29.460  32.125  1.00  0.00     0.023 A 
ATOM     92  C   UNL A   1      49.258  30.493  32.538  1.00  0.00     0.031 A 
ATOM     93  C   UNL A   1      48.660  28.184  32.688  1.00  0.00     0.131 A 
ATOM     94  C   UNL A   1      50.251  30.254  33.495  1.00  0.00     0.055 A 
ATOM     95  C   UNL A   1      49.740  27.920  33.528  1.00  0.00     0.041 A 
ATOM     96  F   UNL A   1      47.831  27.147  32.491  1.00  0.00    -0.206 F 
ATOM     97  C   UNL A   1      50.540  28.967  33.949  1.00  0.00     0.022 A 
BRANCH  94  98
ATOM     98  S   UNL A   1      51.056  31.686  34.239  1.00  0.00     0.124 S 
ATOM     99  O   UNL A   1      51.763  32.279  33.111  1.00  0.00    -0.237 OA
ATOM    100  O   UNL A   1      49.905  32.437  34.733  1.00  0.00    -0.237 OA
ATOM    101  O   UNL A   1      51.905  31.101  35.273  1.00  0.00    -0.744 OA
ENDBRANCH  94  98
ENDBRANCH  68  91
ENDBRANCH  42  43
ENDBRANCH  35  37
ENDBRANCH  34  35
ENDBRANCH  33  34
ENDBRANCH  32  33
ENDBRANCH  31  32
ENDBRANCH  30  31
ENDBRANCH   1  30
TORSDOF 24
ENDMDL
MODEL 3
REMARK VINA RESULT:     -10.8      4.386      7.312
REMARK SMILES Cc1ccc(-c2cc([C@@H](C)C(=O)OCCOCCOCCOC(=O)c3ccc(-c4c5nc(c(-c6cc(S(=O)(=O)[O-])ccc6F)c6ccc([nH]6)c(-c6cc(S(=O)(=O)[O-])ccc6F)c6nc(c(-c7cc(S(=O)(=O)[O-])ccc7F)c7ccc4[nH]7)C=C6)C=C5)cc3)ccc2C[C@H]2CCCC2=O)cc1
REMARK SMILES IDX 17 1 16 2 15 3 14 4 13 5 11 6 12 7 9 8 10 9 8 10 6 11 7 12
REMARK SMILES IDX 90 13 89 14 88 15 5 16 1 17 2 18 3 19 99 20 4 21 98 22 91 23
REMARK SMILES IDX 92 24 93 25 96 26 94 27 95 28 97 29 18 30 19 31 20 32 21 33
REMARK SMILES IDX 22 34 23 35 24 36 25 37 26 38 87 39 27 40 86 41 28 42 29 43
REMARK SMILES IDX 30 44 80 45 31 46 85 47 79 48 81 49 32 50 84 51 78 52 77 53
REMARK SMILES IDX 33 55 65 56 45 57 64 58 46 59 49 60 63 61 82 62 47 63 48 64
REMARK SMILES IDX 62 66 83 67 50 68 34 69 35 70 43 71 36 72 42 73 44 74 41 75
REMARK SMILES IDX 37 76 38 77 39 78 40 79 66 80 67 81 75 82 68 83 74 84 76 85
REMARK SMILES IDX 73 86 69 87 70 88 71 89 72 90 51 91 52 92 60 93 53 94 59 95
REMARK SMILES IDX 61 96 58 97 54 98 55 99 56 100 57 101
REMARK H PARENT 81 54 49 65
REMARK Flexibility Score: inf
ROOT
ATOM      1  C   UNL A   1      39.857  25.238  28.336  1.00  0.00     0.188 C 
ENDROOT
BRANCH   1   2
ATOM      2  O   UNL A   1      39.416  26.595  28.566  1.00  0.00    -0.376 OA
BRANCH   2   3
ATOM      3  C   UNL A   1      39.426  27.673  27.619  1.00  0.00     0.202 C 
BRANCH   3   4
ATOM      4  C   UNL A   1      38.830  29.274  27.767  1.00  0.00     0.261 C 
BRANCH   4   5
ATOM      5  O   UNL A   1      37.256  30.023  27.525  1.00  0.00    -0.463 OA
BRANCH   5   6
ATOM      6  C   UNL A   1      35.915  30.050  28.099  1.00  0.00     0.313 C 
ATOM      7  O   UNL A   1      35.519  29.651  29.202  1.00  0.00    -0.252 OA
BRANCH   6   8
ATOM      8  C   UNL A   1      34.726  30.549  27.357  1.00  0.00     0.126 C 
ATOM      9  C   UNL A   1      34.151  31.826  27.991  1.00  0.00     0.025 C 
BRANCH   8  10
ATOM     10  C   UNL A   1      33.745  29.518  27.015  1.00  0.00    -0.033 A 
ATOM     11  C   UNL A   1      33.362  27.309  26.128  1.00  0.00    -0.015 A 
ATOM     12  C   UNL A   1      34.219  28.361  26.399  1.00  0.00     0.013 A 
ATOM     13  C   UNL A   1      32.014  27.434  26.533  1.00  0.00    -0.039 A 
ATOM     14  C   UNL A   1      31.553  28.641  27.095  1.00  0.00     0.004 A 
ATOM     15  C   UNL A   1      32.414  29.681  27.344  1.00  0.00     0.005 A 
BRANCH  11  16
ATOM     16  C   UNL A   1      33.913  26.191  25.361  1.00  0.00    -0.018 A 
ATOM     17  C   UNL A   1      35.550  22.816  23.237  1.00  0.00     0.044 C 
ATOM     18  C   UNL A   1      34.927  23.974  23.953  1.00  0.00    -0.051 A 
ATOM     19  C   UNL A   1      34.776  23.921  25.342  1.00  0.00     0.004 A 
ATOM     20  C   UNL A   1      34.512  25.118  23.263  1.00  0.00     0.004 A 
ATOM     21  C   UNL A   1      34.265  25.015  26.034  1.00  0.00     0.009 A 
ATOM     22  C   UNL A   1      34.002  26.215  23.962  1.00  0.00     0.009 A 
ENDBRANCH  11  16
BRANCH  13  23
ATOM     23  C   UNL A   1      31.016  26.304  26.425  1.00  0.00     0.047 C 
BRANCH  23  24
ATOM     24  C   UNL A   1      30.199  26.284  25.128  1.00  0.00     0.060 C 
ATOM     25  C   UNL A   1      30.303  27.569  24.309  1.00  0.00     0.012 C 
ATOM     26  C   UNL A   1      30.600  25.211  24.134  1.00  0.00     0.136 C 
ATOM     27  C   UNL A   1      30.336  27.137  22.855  1.00  0.00     0.009 C 
ATOM     28  C   UNL A   1      31.005  25.778  22.806  1.00  0.00     0.076 C 
ATOM     29  O   UNL A   1      30.600  24.010  24.385  1.00  0.00    -0.299 OA
ENDBRANCH  23  24
ENDBRANCH  13  23
ENDBRANCH   8  10
ENDBRANCH   6   8
ENDBRANCH   5   6
ENDBRANCH   4   5
ENDBRANCH   3   4
ENDBRANCH   2   3
ENDBRANCH   1   2
BRANCH   1  30
ATOM     30  C   UNL A   1      39.459  24.438  27.114  1.00  0.00     0.188 C 
BRANCH  30  31
ATOM     31  O   UNL A   1      39.977  23.129  27.230  1.00  0.00    -0.376 OA
BRANCH  31  32
ATOM     32  C   UNL A   1      41.379  23.071  27.304  1.00  0.00     0.202 C 
BRANCH  32  33
ATOM     33  C   UNL A   1      42.058  22.989  25.919  1.00  0.00     0.261 C 
BRANCH  33  34
ATOM     34  O   UNL A   1      43.437  23.459  25.883  1.00  0.00    -0.460 OA
BRANCH  34  35
ATOM     35  C   UNL A   1      44.448  22.664  26.399  1.00  0.00     0.338 C 
ATOM     36  O   UNL A   1      45.084  21.871  25.715  1.00  0.00    -0.246 OA
BRANCH  35  37
ATOM     37  C   UNL A   1      44.835  23.104  27.780  1.00  0.00     0.060 A 
ATOM     38  C   UNL A   1      44.294  22.790  29.038  1.00  0.00     0.016 A 
ATOM     39  C   UNL A   1      45.781  24.059  27.794  1.00  0.00     0.016 A 
ATOM     40  C   UNL A   1      44.543  23.622  30.228  1.00  0.00     0.010 A 
ATOM     41  C   UNL A   1      45.741  24.949  28.848  1.00  0.00     0.010 A 
ATOM     42  C   UNL A   1      45.212  24.852  30.160  1.00  0.00    -0.014 A 
BRANCH  42  43
ATOM     43  C   UNL A   1      45.284  26.076  31.343  1.00  0.00     0.031 A 
ATOM     44  C   UNL A   1      44.835  26.169  33.027  1.00  0.00     0.074 A 
ATOM     45  C   UNL A   1      45.690  27.272  30.876  1.00  0.00     0.049 A 
ATOM     46  N   UNL A   1      44.330  27.241  33.609  1.00  0.00    -0.248 NA
ATOM     47  C   UNL A   1      44.736  25.079  34.103  1.00  0.00     0.031 C 
ATOM     48  C   UNL A   1      46.081  28.456  31.625  1.00  0.00     0.029 A 
ATOM     49  N   UNL A   1      45.765  27.673  29.547  1.00  0.00    -0.354 N 
ATOM     50  C   UNL A   1      44.092  26.923  34.964  1.00  0.00     0.074 A 
ATOM     51  C   UNL A   1      43.928  25.544  35.027  1.00  0.00     0.031 C 
ATOM     52  C   UNL A   1      46.099  29.503  30.784  1.00  0.00     0.029 A 
ATOM     53  C   UNL A   1      45.561  29.055  29.512  1.00  0.00     0.049 A 
ATOM     54  H   UNL A   1      45.934  27.090  28.772  1.00  0.00     0.167 HD
ATOM     55  C   UNL A   1      44.368  27.753  36.009  1.00  0.00     0.034 A 
ATOM     56  C   UNL A   1      44.464  29.514  28.845  1.00  0.00     0.034 A 
ATOM     57  C   UNL A   1      44.478  29.088  35.479  1.00  0.00     0.049 A 
ATOM     58  C   UNL A   1      43.466  30.131  29.817  1.00  0.00     0.074 A 
ATOM     59  C   UNL A   1      45.495  29.928  35.084  1.00  0.00     0.029 A 
ATOM     60  N   UNL A   1      43.340  29.546  34.867  1.00  0.00    -0.354 N 
ATOM     61  N   UNL A   1      43.702  30.311  31.092  1.00  0.00    -0.248 NA
ATOM     62  C   UNL A   1      42.114  30.551  29.456  1.00  0.00     0.031 C 
ATOM     63  C   UNL A   1      44.943  30.800  34.079  1.00  0.00     0.029 A 
ATOM     64  C   UNL A   1      43.595  30.510  33.928  1.00  0.00     0.049 A 
ATOM     65  H   UNL A   1      42.438  29.217  35.080  1.00  0.00     0.167 HD
ATOM     66  C   UNL A   1      42.570  30.731  31.727  1.00  0.00     0.074 A 
ATOM     67  C   UNL A   1      41.604  30.898  30.652  1.00  0.00     0.031 C 
ATOM     68  C   UNL A   1      42.467  30.874  33.081  1.00  0.00     0.034 A 
BRANCH  55  69
ATOM     69  C   UNL A   1      44.698  27.330  37.455  1.00  0.00     0.023 A 
ATOM     70  C   UNL A   1      45.937  27.755  37.970  1.00  0.00     0.031 A 
ATOM     71  C   UNL A   1      43.969  26.496  38.351  1.00  0.00     0.131 A 
ATOM     72  C   UNL A   1      46.415  27.327  39.230  1.00  0.00     0.055 A 
ATOM     73  C   UNL A   1      44.456  26.049  39.591  1.00  0.00     0.041 A 
ATOM     74  F   UNL A   1      42.725  26.064  38.133  1.00  0.00    -0.206 F 
ATOM     75  C   UNL A   1      45.691  26.456  40.036  1.00  0.00     0.022 A 
BRANCH  72  76
ATOM     76  S   UNL A   1      48.012  27.941  39.814  1.00  0.00     0.124 S 
ATOM     77  O   UNL A   1      48.018  27.493  41.202  1.00  0.00    -0.237 OA
ATOM     78  O   UNL A   1      48.944  27.275  38.911  1.00  0.00    -0.237 OA
ATOM     79  O   UNL A   1      47.907  29.388  39.631  1.00  0.00    -0.744 OA
ENDBRANCH  72  76
ENDBRANCH  55  69
BRANCH  56  80
ATOM     80  C   UNL A   1      44.218  28.727  27.574  1.00  0.00     0.023 A 
ATOM     81  C   UNL A   1      45.186  28.871  26.535  1.00  0.00     0.031 A 
ATOM     82  C   UNL A   1      43.354  27.629  27.472  1.00  0.00     0.131 A 
ATOM     83  C   UNL A   1      45.384  27.866  25.574  1.00  0.00     0.055 A 
ATOM     84  C   UNL A   1      43.491  26.674  26.443  1.00  0.00     0.041 A 
ATOM     85  F   UNL A   1      42.454  27.368  28.429  1.00  0.00    -0.206 F 
ATOM     86  C   UNL A   1      44.530  26.768  25.515  1.00  0.00     0.022 A 
BRANCH  83  87
ATOM     87  S   UNL A   1      46.920  27.827  24.589  1.00  0.00     0.124 S 
ATOM     88  O   UNL A   1      47.902  28.355  25.529  1.00  0.00    -0.237 OA
ATOM     89  O   UNL A   1      47.070  26.418  24.236  1.00  0.00    -0.237 OA
ATOM     90  O   UNL A   1      46.600  28.691  23.452  1.00  0.00    -0.744 OA
ENDBRANCH  83  87
ENDBRANCH  56  80
BRANCH  68  91
ATOM     91  C   UNL A   1      41.197  31.359  33.728  1.00  0.00     0.023 A 
ATOM     92  C   UNL A   1      41.156  32.646  34.264  1.00  0.00     0.031 A 
ATOM     93  C   UNL A   1      40.053  30.551  33.934  1.00  0.00     0.131 A 
ATOM     94  C   UNL A   1      40.008  33.097  34.925  1.00  0.00     0.055 A 
ATOM     95  C   UNL A   1      38.974  30.954  34.717  1.00  0.00     0.041 A 
ATOM     96  F   UNL A   1      39.906  29.356  33.341  1.00  0.00    -0.206 F 
ATOM     97  C   UNL A   1      38.941  32.245  35.211  1.00  0.00     0.022 A 
BRANCH  94  98
ATOM     98  S   UNL A   1      39.885  34.861  35.275  1.00  0.00     0.124 S 
ATOM     99  O   UNL A   1      39.570  34.886  36.698  1.00  0.00    -0.237 OA
ATOM    100  O   UNL A   1      41.224  35.319  34.913  1.00  0.00    -0.237 OA
ATOM    101  O   UNL A   1      38.815  35.311  34.389  1.00  0.00    -0.744 OA
ENDBRANCH  94  98
ENDBRANCH  68  91
ENDBRANCH  42  43
ENDBRANCH  35  37
ENDBRANCH  34  35
ENDBRANCH  33  34
ENDBRANCH  32  33
ENDBRANCH  31  32
ENDBRANCH  30  31
ENDBRANCH   1  30
TORSDOF 24
ENDMDL
