MODEL 1
REMARK VINA RESULT:     -10.0      0.000      0.000
REMARK SMILES C[C@H](CO)CSc1cc(Cl)ccc1C(=O)OCCOCCOCCOC(=O)c1ccc(-c2c3nc(c(-c4cc(S(=O)(=O)[O-])ccc4F)c4ccc([nH]4)c(-c4cc(S(=O)(=O)[O-])ccc4F)c4nc(c(-c5cc(S(=O)(=O)[O-])ccc5F)c5ccc2[nH]5)C=C4)C=C3)cc1
REMARK SMILES IDX 20 1 19 2 18 3 17 4 16 5 14 6 15 7 13 8 7 9 8 10 9 11 12 12
REMARK SMILES IDX 10 13 11 14 6 15 5 16 2 17 1 18 3 19 4 20 21 22 22 23 23 24
REMARK SMILES IDX 24 25 25 26 26 27 27 28 28 29 29 30 90 31 30 32 89 33 31 34
REMARK SMILES IDX 32 35 33 36 83 37 34 38 88 39 82 40 84 41 35 42 87 43 81 44
REMARK SMILES IDX 80 45 36 47 68 48 48 49 67 50 49 51 52 52 66 53 85 54 50 55
REMARK SMILES IDX 51 56 65 58 86 59 53 60 37 61 38 62 46 63 39 64 45 65 47 66
REMARK SMILES IDX 44 67 40 68 41 69 42 70 43 71 69 72 70 73 78 74 71 75 77 76
REMARK SMILES IDX 79 77 76 78 72 79 73 80 74 81 75 82 54 83 55 84 63 85 56 86
REMARK SMILES IDX 62 87 64 88 61 89 57 90 58 91 59 92 60 93
REMARK H PARENT 4 21 84 46 52 57
REMARK Flexibility Score: inf
ROOT
ATOM      1  C   UNL A   1      32.928  28.496  25.229  1.00  0.00     0.188 C 
ENDROOT
BRANCH   1   2
ATOM      2  O   UNL A   1      32.605  27.327  24.488  1.00  0.00    -0.376 OA
BRANCH   2   3
ATOM      3  C   UNL A   1      33.249  27.088  23.241  1.00  0.00     0.202 C 
BRANCH   3   4
ATOM      4  C   UNL A   1      33.048  25.760  22.491  1.00  0.00     0.261 C 
BRANCH   4   5
ATOM      5  O   UNL A   1      33.101  24.578  23.312  1.00  0.00    -0.460 OA
BRANCH   5   6
ATOM      6  C   UNL A   1      33.559  23.462  22.696  1.00  0.00     0.339 C 
ATOM      7  O   UNL A   1      33.318  23.125  21.546  1.00  0.00    -0.246 OA
BRANCH   6   8
ATOM      8  C   UNL A   1      34.592  22.762  23.494  1.00  0.00     0.073 A 
ATOM      9  C   UNL A   1      34.362  21.654  24.326  1.00  0.00     0.023 A 
ATOM     10  C   UNL A   1      35.475  20.942  24.805  1.00  0.00     0.036 A 
ATOM     11  C   UNL A   1      36.774  21.413  24.605  1.00  0.00     0.042 A 
ATOM     12  C   UNL A   1      35.909  23.232  23.302  1.00  0.00     0.018 A 
ATOM     13  Cl  UNL A   1      38.103  20.557  25.279  1.00  0.00    -0.084 Cl
ATOM     14  C   UNL A   1      36.994  22.580  23.887  1.00  0.00     0.021 A 
BRANCH   9  15
ATOM     15  S   UNL A   1      32.758  21.045  24.826  1.00  0.00    -0.125 SA
BRANCH  15  16
ATOM     16  C   UNL A   1      32.598  19.539  23.764  1.00  0.00     0.080 C 
BRANCH  16  17
ATOM     17  C   UNL A   1      33.305  18.267  24.281  1.00  0.00     0.022 C 
ATOM     18  C   UNL A   1      33.510  17.286  23.112  1.00  0.00     0.011 C 
BRANCH  17  19
ATOM     19  C   UNL A   1      32.508  17.527  25.363  1.00  0.00     0.160 C 
BRANCH  19  20
ATOM     20  O   UNL A   1      33.396  16.781  26.188  1.00  0.00    -0.396 OA
ATOM     21  H   UNL A   1      33.165  15.840  26.146  1.00  0.00     0.210 HD
ENDBRANCH  19  20
ENDBRANCH  17  19
ENDBRANCH  16  17
ENDBRANCH  15  16
ENDBRANCH   9  15
ENDBRANCH   6   8
ENDBRANCH   5   6
ENDBRANCH   4   5
ENDBRANCH   3   4
ENDBRANCH   2   3
ENDBRANCH   1   2
BRANCH   1  22
ATOM     22  C   UNL A   1      31.984  29.712  25.158  1.00  0.00     0.188 C 
BRANCH  22  23
ATOM     23  O   UNL A   1      32.010  30.541  26.296  1.00  0.00    -0.376 OA
BRANCH  23  24
ATOM     24  C   UNL A   1      31.132  31.651  26.372  1.00  0.00     0.202 C 
BRANCH  24  25
ATOM     25  C   UNL A   1      31.550  33.074  26.799  1.00  0.00     0.261 C 
BRANCH  25  26
ATOM     26  O   UNL A   1      32.939  33.413  26.799  1.00  0.00    -0.460 OA
BRANCH  26  27
ATOM     27  C   UNL A   1      33.427  33.999  27.916  1.00  0.00     0.338 C 
ATOM     28  O   UNL A   1      32.896  34.890  28.563  1.00  0.00    -0.246 OA
BRANCH  27  29
ATOM     29  C   UNL A   1      34.611  33.229  28.349  1.00  0.00     0.060 A 
ATOM     30  C   UNL A   1      34.464  31.872  28.671  1.00  0.00     0.016 A 
ATOM     31  C   UNL A   1      35.864  33.842  28.422  1.00  0.00     0.016 A 
ATOM     32  C   UNL A   1      35.570  31.129  29.087  1.00  0.00     0.010 A 
ATOM     33  C   UNL A   1      36.965  33.101  28.861  1.00  0.00     0.010 A 
ATOM     34  C   UNL A   1      36.821  31.748  29.219  1.00  0.00    -0.014 A 
BRANCH  34  35
ATOM     35  C   UNL A   1      37.932  31.041  29.903  1.00  0.00     0.031 A 
ATOM     36  C   UNL A   1      38.227  31.395  31.336  1.00  0.00     0.074 A 
ATOM     37  C   UNL A   1      38.659  30.100  29.275  1.00  0.00     0.049 A 
ATOM     38  N   UNL A   1      39.193  30.984  32.114  1.00  0.00    -0.248 NA
ATOM     39  C   UNL A   1      37.306  32.351  31.969  1.00  0.00     0.031 C 
ATOM     40  C   UNL A   1      38.435  29.633  27.908  1.00  0.00     0.029 A 
ATOM     41  N   UNL A   1      39.743  29.375  29.705  1.00  0.00    -0.354 N 
ATOM     42  C   UNL A   1      39.003  31.636  33.328  1.00  0.00     0.074 A 
ATOM     43  C   UNL A   1      37.852  32.498  33.166  1.00  0.00     0.031 C 
ATOM     44  C   UNL A   1      39.364  28.707  27.608  1.00  0.00     0.029 A 
ATOM     45  C   UNL A   1      40.276  28.551  28.740  1.00  0.00     0.049 A 
ATOM     46  H   UNL A   1      40.106  29.439  30.618  1.00  0.00     0.167 HD
ATOM     47  C   UNL A   1      39.720  31.521  34.473  1.00  0.00     0.034 A 
ATOM     48  C   UNL A   1      41.389  27.789  28.759  1.00  0.00     0.034 A 
ATOM     49  C   UNL A   1      40.875  30.669  34.612  1.00  0.00     0.049 A 
ATOM     50  C   UNL A   1      42.237  27.759  30.012  1.00  0.00     0.074 A 
ATOM     51  C   UNL A   1      41.668  30.468  35.728  1.00  0.00     0.029 A 
ATOM     52  N   UNL A   1      41.417  29.889  33.598  1.00  0.00    -0.354 N 
ATOM     53  N   UNL A   1      42.045  28.375  31.157  1.00  0.00    -0.248 NA
ATOM     54  C   UNL A   1      43.446  26.926  29.977  1.00  0.00     0.031 C 
ATOM     55  C   UNL A   1      42.734  29.637  35.366  1.00  0.00     0.029 A 
ATOM     56  C   UNL A   1      42.555  29.240  34.051  1.00  0.00     0.049 A 
ATOM     57  H   UNL A   1      41.046  29.808  32.689  1.00  0.00     0.167 HD
ATOM     58  C   UNL A   1      43.093  27.974  31.986  1.00  0.00     0.074 A 
ATOM     59  C   UNL A   1      43.901  27.054  31.213  1.00  0.00     0.031 C 
ATOM     60  C   UNL A   1      43.360  28.330  33.269  1.00  0.00     0.034 A 
BRANCH  47  61
ATOM     61  C   UNL A   1      39.305  32.384  35.640  1.00  0.00     0.023 A 
ATOM     62  C   UNL A   1      39.749  33.711  35.780  1.00  0.00     0.031 A 
ATOM     63  C   UNL A   1      38.476  31.859  36.649  1.00  0.00     0.131 A 
ATOM     64  C   UNL A   1      39.423  34.441  36.933  1.00  0.00     0.055 A 
ATOM     65  C   UNL A   1      38.084  32.620  37.751  1.00  0.00     0.041 A 
ATOM     66  F   UNL A   1      38.044  30.590  36.585  1.00  0.00    -0.206 F 
ATOM     67  C   UNL A   1      38.570  33.915  37.906  1.00  0.00     0.022 A 
BRANCH  64  68
ATOM     68  S   UNL A   1      40.256  36.027  37.218  1.00  0.00     0.124 S 
ATOM     69  O   UNL A   1      39.358  36.664  38.178  1.00  0.00    -0.237 OA
ATOM     70  O   UNL A   1      41.554  35.612  37.736  1.00  0.00    -0.237 OA
ATOM     71  O   UNL A   1      40.279  36.644  35.893  1.00  0.00    -0.744 OA
ENDBRANCH  64  68
ENDBRANCH  47  61
BRANCH  48  72
ATOM     72  C   UNL A   1      41.811  27.027  27.546  1.00  0.00     0.023 A 
ATOM     73  C   UNL A   1      41.601  25.642  27.448  1.00  0.00     0.031 A 
ATOM     74  C   UNL A   1      42.497  27.663  26.495  1.00  0.00     0.131 A 
ATOM     75  C   UNL A   1      42.114  24.931  26.351  1.00  0.00     0.055 A 
ATOM     76  C   UNL A   1      42.951  26.961  25.376  1.00  0.00     0.041 A 
ATOM     77  F   UNL A   1      42.734  28.983  26.540  1.00  0.00    -0.206 F 
ATOM     78  C   UNL A   1      42.773  25.583  25.307  1.00  0.00     0.022 A 
BRANCH  75  79
ATOM     79  S   UNL A   1      42.001  23.121  26.360  1.00  0.00     0.124 S 
ATOM     80  O   UNL A   1      42.659  22.777  25.105  1.00  0.00    -0.237 OA
ATOM     81  O   UNL A   1      42.726  22.777  27.579  1.00  0.00    -0.237 OA
ATOM     82  O   UNL A   1      40.562  22.869  26.402  1.00  0.00    -0.744 OA
ENDBRANCH  75  79
ENDBRANCH  48  72
BRANCH  60  83
ATOM     83  C   UNL A   1      44.551  27.679  33.937  1.00  0.00     0.023 A 
ATOM     84  C   UNL A   1      44.457  26.431  34.576  1.00  0.00     0.031 A 
ATOM     85  C   UNL A   1      45.801  28.325  33.935  1.00  0.00     0.131 A 
ATOM     86  C   UNL A   1      45.574  25.896  35.236  1.00  0.00     0.055 A 
ATOM     87  C   UNL A   1      46.926  27.755  34.533  1.00  0.00     0.041 A 
ATOM     88  F   UNL A   1      45.953  29.522  33.345  1.00  0.00    -0.206 F 
ATOM     89  C   UNL A   1      46.813  26.541  35.200  1.00  0.00     0.022 A 
BRANCH  86  90
ATOM     90  S   UNL A   1      45.363  24.395  36.233  1.00  0.00     0.124 S 
ATOM     91  O   UNL A   1      45.419  24.924  37.592  1.00  0.00    -0.237 OA
ATOM     92  O   UNL A   1      44.059  23.909  35.792  1.00  0.00    -0.237 OA
ATOM     93  O   UNL A   1      46.498  23.561  35.844  1.00  0.00    -0.744 OA
ENDBRANCH  86  90
ENDBRANCH  60  83
ENDBRANCH  34  35
ENDBRANCH  27  29
ENDBRANCH  26  27
ENDBRANCH  25  26
ENDBRANCH  24  25
ENDBRANCH  23  24
ENDBRANCH  22  23
ENDBRANCH   1  22
TORSDOF 25
ENDMDL
MODEL 2
REMARK VINA RESULT:      -9.6      1.860      2.280
REMARK SMILES C[C@H](CO)CSc1cc(Cl)ccc1C(=O)OCCOCCOCCOC(=O)c1ccc(-c2c3nc(c(-c4cc(S(=O)(=O)[O-])ccc4F)c4ccc([nH]4)c(-c4cc(S(=O)(=O)[O-])ccc4F)c4nc(c(-c5cc(S(=O)(=O)[O-])ccc5F)c5ccc2[nH]5)C=C4)C=C3)cc1
REMARK SMILES IDX 20 1 19 2 18 3 17 4 16 5 14 6 15 7 13 8 7 9 8 10 9 11 12 12
REMARK SMILES IDX 10 13 11 14 6 15 5 16 2 17 1 18 3 19 4 20 21 22 22 23 23 24
REMARK SMILES IDX 24 25 25 26 26 27 27 28 28 29 29 30 90 31 30 32 89 33 31 34
REMARK SMILES IDX 32 35 33 36 83 37 34 38 88 39 82 40 84 41 35 42 87 43 81 44
REMARK SMILES IDX 80 45 36 47 68 48 48 49 67 50 49 51 52 52 66 53 85 54 50 55
REMARK SMILES IDX 51 56 65 58 86 59 53 60 37 61 38 62 46 63 39 64 45 65 47 66
REMARK SMILES IDX 44 67 40 68 41 69 42 70 43 71 69 72 70 73 78 74 71 75 77 76
REMARK SMILES IDX 79 77 76 78 72 79 73 80 74 81 75 82 54 83 55 84 63 85 56 86
REMARK SMILES IDX 62 87 64 88 61 89 57 90 58 91 59 92 60 93
REMARK H PARENT 4 21 84 46 52 57
REMARK Flexibility Score: inf
ROOT
ATOM      1  C   UNL A   1      31.665  26.427  26.262  1.00  0.00     0.188 C 
ENDROOT
BRANCH   1   2
ATOM      2  O   UNL A   1      31.123  26.026  25.011  1.00  0.00    -0.376 OA
BRANCH   2   3
ATOM      3  C   UNL A   1      31.919  26.132  23.836  1.00  0.00     0.202 C 
BRANCH   3   4
ATOM      4  C   UNL A   1      33.455  26.185  23.926  1.00  0.00     0.261 C 
BRANCH   4   5
ATOM      5  O   UNL A   1      34.080  24.993  24.437  1.00  0.00    -0.460 OA
BRANCH   5   6
ATOM      6  C   UNL A   1      34.315  24.022  23.523  1.00  0.00     0.339 C 
ATOM      7  O   UNL A   1      34.069  24.084  22.327  1.00  0.00    -0.246 OA
BRANCH   6   8
ATOM      8  C   UNL A   1      35.126  22.912  24.077  1.00  0.00     0.073 A 
ATOM      9  C   UNL A   1      34.625  21.662  24.474  1.00  0.00     0.023 A 
ATOM     10  C   UNL A   1      35.545  20.629  24.727  1.00  0.00     0.036 A 
ATOM     11  C   UNL A   1      36.918  20.875  24.749  1.00  0.00     0.042 A 
ATOM     12  C   UNL A   1      36.517  23.151  24.107  1.00  0.00     0.018 A 
ATOM     13  Cl  UNL A   1      38.004  19.604  25.145  1.00  0.00    -0.084 Cl
ATOM     14  C   UNL A   1      37.408  22.145  24.478  1.00  0.00     0.021 A 
BRANCH   9  15
ATOM     15  S   UNL A   1      32.897  21.249  24.675  1.00  0.00    -0.125 SA
BRANCH  15  16
ATOM     16  C   UNL A   1      33.015  19.645  25.588  1.00  0.00     0.080 C 
BRANCH  16  17
ATOM     17  C   UNL A   1      32.403  18.416  24.880  1.00  0.00     0.022 C 
ATOM     18  C   UNL A   1      32.831  17.136  25.620  1.00  0.00     0.011 C 
BRANCH  17  19
ATOM     19  C   UNL A   1      32.853  18.271  23.419  1.00  0.00     0.160 C 
BRANCH  19  20
ATOM     20  O   UNL A   1      32.696  16.919  23.001  1.00  0.00    -0.396 OA
ATOM     21  H   UNL A   1      33.072  16.809  22.114  1.00  0.00     0.210 HD
ENDBRANCH  19  20
ENDBRANCH  17  19
ENDBRANCH  16  17
ENDBRANCH  15  16
ENDBRANCH   9  15
ENDBRANCH   6   8
ENDBRANCH   5   6
ENDBRANCH   4   5
ENDBRANCH   3   4
ENDBRANCH   2   3
ENDBRANCH   1   2
BRANCH   1  22
ATOM     22  C   UNL A   1      31.588  27.912  26.669  1.00  0.00     0.188 C 
BRANCH  22  23
ATOM     23  O   UNL A   1      31.617  28.818  25.591  1.00  0.00    -0.376 OA
BRANCH  23  24
ATOM     24  C   UNL A   1      31.755  30.204  25.847  1.00  0.00     0.202 C 
BRANCH  24  25
ATOM     25  C   UNL A   1      32.514  30.803  27.051  1.00  0.00     0.261 C 
BRANCH  25  26
ATOM     26  O   UNL A   1      33.681  31.593  26.806  1.00  0.00    -0.460 OA
BRANCH  26  27
ATOM     27  C   UNL A   1      34.205  32.254  27.862  1.00  0.00     0.338 C 
ATOM     28  O   UNL A   1      33.667  33.145  28.505  1.00  0.00    -0.246 OA
BRANCH  27  29
ATOM     29  C   UNL A   1      35.457  31.571  28.245  1.00  0.00     0.060 A 
ATOM     30  C   UNL A   1      35.436  30.189  28.484  1.00  0.00     0.016 A 
ATOM     31  C   UNL A   1      36.650  32.289  28.355  1.00  0.00     0.016 A 
ATOM     32  C   UNL A   1      36.607  29.525  28.853  1.00  0.00     0.010 A 
ATOM     33  C   UNL A   1      37.816  31.625  28.747  1.00  0.00     0.010 A 
ATOM     34  C   UNL A   1      37.797  30.245  29.022  1.00  0.00    -0.014 A 
BRANCH  34  35
ATOM     35  C   UNL A   1      38.971  29.602  29.661  1.00  0.00     0.031 A 
ATOM     36  C   UNL A   1      39.388  30.075  31.027  1.00  0.00     0.074 A 
ATOM     37  C   UNL A   1      39.650  28.613  29.050  1.00  0.00     0.049 A 
ATOM     38  N   UNL A   1      40.423  29.733  31.748  1.00  0.00    -0.248 NA
ATOM     39  C   UNL A   1      38.516  31.077  31.658  1.00  0.00     0.031 C 
ATOM     40  C   UNL A   1      39.311  28.033  27.752  1.00  0.00     0.029 A 
ATOM     41  N   UNL A   1      40.776  27.931  29.441  1.00  0.00    -0.354 N 
ATOM     42  C   UNL A   1      40.334  30.483  32.916  1.00  0.00     0.074 A 
ATOM     43  C   UNL A   1      39.164  31.325  32.787  1.00  0.00     0.031 C 
ATOM     44  C   UNL A   1      40.220  27.089  27.448  1.00  0.00     0.029 A 
ATOM     45  C   UNL A   1      41.230  27.031  28.504  1.00  0.00     0.049 A 
ATOM     46  H   UNL A   1      41.217  28.072  30.309  1.00  0.00     0.167 HD
ATOM     47  C   UNL A   1      41.151  30.467  33.998  1.00  0.00     0.034 A 
ATOM     48  C   UNL A   1      42.349  26.276  28.488  1.00  0.00     0.034 A 
ATOM     49  C   UNL A   1      42.323  29.633  34.104  1.00  0.00     0.049 A 
ATOM     50  C   UNL A   1      43.304  26.354  29.659  1.00  0.00     0.074 A 
ATOM     51  C   UNL A   1      43.212  29.528  35.158  1.00  0.00     0.029 A 
ATOM     52  N   UNL A   1      42.781  28.773  33.114  1.00  0.00    -0.354 N 
ATOM     53  N   UNL A   1      43.208  27.063  30.761  1.00  0.00    -0.248 NA
ATOM     54  C   UNL A   1      44.514  25.525  29.585  1.00  0.00     0.031 C 
ATOM     55  C   UNL A   1      44.251  28.674  34.773  1.00  0.00     0.029 A 
ATOM     56  C   UNL A   1      43.962  28.167  33.516  1.00  0.00     0.049 A 
ATOM     57  H   UNL A   1      42.332  28.615  32.252  1.00  0.00     0.167 HD
ATOM     58  C   UNL A   1      44.329  26.735  31.523  1.00  0.00     0.074 A 
ATOM     59  C   UNL A   1      45.075  25.757  30.761  1.00  0.00     0.031 C 
ATOM     60  C   UNL A   1      44.704  27.198  32.744  1.00  0.00     0.034 A 
BRANCH  47  61
ATOM     61  C   UNL A   1      40.831  31.422  35.123  1.00  0.00     0.023 A 
ATOM     62  C   UNL A   1      39.757  31.202  36.003  1.00  0.00     0.031 A 
ATOM     63  C   UNL A   1      41.595  32.591  35.298  1.00  0.00     0.131 A 
ATOM     64  C   UNL A   1      39.432  32.168  36.967  1.00  0.00     0.055 A 
ATOM     65  C   UNL A   1      41.320  33.506  36.316  1.00  0.00     0.041 A 
ATOM     66  F   UNL A   1      42.615  32.870  34.472  1.00  0.00    -0.206 F 
ATOM     67  C   UNL A   1      40.223  33.305  37.148  1.00  0.00     0.022 A 
BRANCH  64  68
ATOM     68  S   UNL A   1      37.872  31.995  37.875  1.00  0.00     0.124 S 
ATOM     69  O   UNL A   1      38.302  32.228  39.251  1.00  0.00    -0.237 OA
ATOM     70  O   UNL A   1      37.043  33.037  37.280  1.00  0.00    -0.237 OA
ATOM     71  O   UNL A   1      37.456  30.624  37.584  1.00  0.00    -0.744 OA
ENDBRANCH  64  68
ENDBRANCH  47  61
BRANCH  48  72
ATOM     72  C   UNL A   1      42.669  25.417  27.309  1.00  0.00     0.023 A 
ATOM     73  C   UNL A   1      42.232  24.085  27.240  1.00  0.00     0.031 A 
ATOM     74  C   UNL A   1      43.482  25.896  26.265  1.00  0.00     0.131 A 
ATOM     75  C   UNL A   1      42.649  23.264  26.179  1.00  0.00     0.055 A 
ATOM     76  C   UNL A   1      43.843  25.094  25.180  1.00  0.00     0.041 A 
ATOM     77  F   UNL A   1      43.938  27.158  26.284  1.00  0.00    -0.206 F 
ATOM     78  C   UNL A   1      43.437  23.764  25.141  1.00  0.00     0.022 A 
BRANCH  75  79
ATOM     79  S   UNL A   1      42.232  21.500  26.231  1.00  0.00     0.124 S 
ATOM     80  O   UNL A   1      40.891  21.496  25.658  1.00  0.00    -0.237 OA
ATOM     81  O   UNL A   1      43.284  20.915  25.407  1.00  0.00    -0.237 OA
ATOM     82  O   UNL A   1      42.304  21.174  27.654  1.00  0.00    -0.744 OA
ENDBRANCH  75  79
ENDBRANCH  48  72
BRANCH  60  83
ATOM     83  C   UNL A   1      45.956  26.609  33.355  1.00  0.00     0.023 A 
ATOM     84  C   UNL A   1      45.930  25.422  34.107  1.00  0.00     0.031 A 
ATOM     85  C   UNL A   1      47.195  27.253  33.184  1.00  0.00     0.131 A 
ATOM     86  C   UNL A   1      47.107  24.947  34.707  1.00  0.00     0.055 A 
ATOM     87  C   UNL A   1      48.375  26.738  33.724  1.00  0.00     0.041 A 
ATOM     88  F   UNL A   1      47.282  28.394  32.479  1.00  0.00    -0.206 F 
ATOM     89  C   UNL A   1      48.333  25.587  34.502  1.00  0.00     0.022 A 
BRANCH  86  90
ATOM     90  S   UNL A   1      47.000  23.539  35.846  1.00  0.00     0.124 S 
ATOM     91  O   UNL A   1      47.962  23.912  36.879  1.00  0.00    -0.237 OA
ATOM     92  O   UNL A   1      45.595  23.566  36.243  1.00  0.00    -0.237 OA
ATOM     93  O   UNL A   1      47.388  22.398  35.019  1.00  0.00    -0.744 OA
ENDBRANCH  86  90
ENDBRANCH  60  83
ENDBRANCH  34  35
ENDBRANCH  27  29
ENDBRANCH  26  27
ENDBRANCH  25  26
ENDBRANCH  24  25
ENDBRANCH  23  24
ENDBRANCH  22  23
ENDBRANCH   1  22
TORSDOF 25
ENDMDL
MODEL 3
REMARK VINA RESULT:      -9.0      1.450      2.437
REMARK SMILES C[C@H](CO)CSc1cc(Cl)ccc1C(=O)OCCOCCOCCOC(=O)c1ccc(-c2c3nc(c(-c4cc(S(=O)(=O)[O-])ccc4F)c4ccc([nH]4)c(-c4cc(S(=O)(=O)[O-])ccc4F)c4nc(c(-c5cc(S(=O)(=O)[O-])ccc5F)c5ccc2[nH]5)C=C4)C=C3)cc1
REMARK SMILES IDX 20 1 19 2 18 3 17 4 16 5 14 6 15 7 13 8 7 9 8 10 9 11 12 12
REMARK SMILES IDX 10 13 11 14 6 15 5 16 2 17 1 18 3 19 4 20 21 22 22 23 23 24
REMARK SMILES IDX 24 25 25 26 26 27 27 28 28 29 29 30 90 31 30 32 89 33 31 34
REMARK SMILES IDX 32 35 33 36 83 37 34 38 88 39 82 40 84 41 35 42 87 43 81 44
REMARK SMILES IDX 80 45 36 47 68 48 48 49 67 50 49 51 52 52 66 53 85 54 50 55
REMARK SMILES IDX 51 56 65 58 86 59 53 60 37 61 38 62 46 63 39 64 45 65 47 66
REMARK SMILES IDX 44 67 40 68 41 69 42 70 43 71 69 72 70 73 78 74 71 75 77 76
REMARK SMILES IDX 79 77 76 78 72 79 73 80 74 81 75 82 54 83 55 84 63 85 56 86
REMARK SMILES IDX 62 87 64 88 61 89 57 90 58 91 59 92 60 93
REMARK H PARENT 4 21 84 46 52 57
REMARK Flexibility Score: inf
ROOT
ATOM      1  C   UNL A   1      32.655  28.176  25.006  1.00  0.00     0.188 C 
ENDROOT
BRANCH   1   2
ATOM      2  O   UNL A   1      32.534  27.504  26.252  1.00  0.00    -0.376 OA
BRANCH   2   3
ATOM      3  C   UNL A   1      31.303  26.877  26.594  1.00  0.00     0.202 C 
BRANCH   3   4
ATOM      4  C   UNL A   1      30.684  25.803  25.682  1.00  0.00     0.261 C 
BRANCH   4   5
ATOM      5  O   UNL A   1      31.589  24.768  25.255  1.00  0.00    -0.460 OA
BRANCH   5   6
ATOM      6  C   UNL A   1      31.768  23.753  26.134  1.00  0.00     0.339 C 
ATOM      7  O   UNL A   1      31.328  23.701  27.273  1.00  0.00    -0.246 OA
BRANCH   6   8
ATOM      8  C   UNL A   1      32.389  22.565  25.503  1.00  0.00     0.073 A 
ATOM      9  C   UNL A   1      33.644  22.544  24.874  1.00  0.00     0.023 A 
ATOM     10  C   UNL A   1      34.208  21.295  24.561  1.00  0.00     0.036 A 
ATOM     11  C   UNL A   1      33.479  20.115  24.714  1.00  0.00     0.042 A 
ATOM     12  C   UNL A   1      31.659  21.366  25.649  1.00  0.00     0.018 A 
ATOM     13  Cl  UNL A   1      34.176  18.616  24.242  1.00  0.00    -0.084 Cl
ATOM     14  C   UNL A   1      32.188  20.149  25.222  1.00  0.00     0.021 A 
BRANCH   9  15
ATOM     15  S   UNL A   1      34.615  23.981  24.440  1.00  0.00    -0.125 SA
BRANCH  15  16
ATOM     16  C   UNL A   1      35.914  23.948  25.758  1.00  0.00     0.080 C 
BRANCH  16  17
ATOM     17  C   UNL A   1      37.357  23.681  25.279  1.00  0.00     0.022 C 
ATOM     18  C   UNL A   1      37.431  22.281  24.642  1.00  0.00     0.011 C 
BRANCH  17  19
ATOM     19  C   UNL A   1      38.391  23.722  26.412  1.00  0.00     0.160 C 
BRANCH  19  20
ATOM     20  O   UNL A   1      39.452  22.816  26.127  1.00  0.00    -0.396 OA
ATOM     21  H   UNL A   1      39.862  23.054  25.281  1.00  0.00     0.210 HD
ENDBRANCH  19  20
ENDBRANCH  17  19
ENDBRANCH  16  17
ENDBRANCH  15  16
ENDBRANCH   9  15
ENDBRANCH   6   8
ENDBRANCH   5   6
ENDBRANCH   4   5
ENDBRANCH   3   4
ENDBRANCH   2   3
ENDBRANCH   1   2
BRANCH   1  22
ATOM     22  C   UNL A   1      32.810  29.709  24.994  1.00  0.00     0.188 C 
BRANCH  22  23
ATOM     23  O   UNL A   1      31.596  30.422  25.044  1.00  0.00    -0.376 OA
BRANCH  23  24
ATOM     24  C   UNL A   1      31.273  31.169  26.203  1.00  0.00     0.202 C 
BRANCH  24  25
ATOM     25  C   UNL A   1      32.308  31.787  27.167  1.00  0.00     0.261 C 
BRANCH  25  26
ATOM     26  O   UNL A   1      32.814  33.095  26.889  1.00  0.00    -0.460 OA
BRANCH  26  27
ATOM     27  C   UNL A   1      33.376  33.766  27.919  1.00  0.00     0.338 C 
ATOM     28  O   UNL A   1      32.908  34.735  28.500  1.00  0.00    -0.246 OA
BRANCH  27  29
ATOM     29  C   UNL A   1      34.555  32.998  28.368  1.00  0.00     0.060 A 
ATOM     30  C   UNL A   1      34.389  31.665  28.772  1.00  0.00     0.016 A 
ATOM     31  C   UNL A   1      35.822  33.587  28.376  1.00  0.00     0.016 A 
ATOM     32  C   UNL A   1      35.490  30.924  29.205  1.00  0.00     0.010 A 
ATOM     33  C   UNL A   1      36.918  32.849  28.832  1.00  0.00     0.010 A 
ATOM     34  C   UNL A   1      36.755  31.523  29.271  1.00  0.00    -0.014 A 
BRANCH  34  35
ATOM     35  C   UNL A   1      37.868  30.833  29.970  1.00  0.00     0.031 A 
ATOM     36  C   UNL A   1      38.122  31.170  31.414  1.00  0.00     0.074 A 
ATOM     37  C   UNL A   1      38.634  29.921  29.344  1.00  0.00     0.049 A 
ATOM     38  N   UNL A   1      39.080  30.771  32.208  1.00  0.00    -0.248 NA
ATOM     39  C   UNL A   1      37.162  32.092  32.041  1.00  0.00     0.031 C 
ATOM     40  C   UNL A   1      38.453  29.471  27.965  1.00  0.00     0.029 A 
ATOM     41  N   UNL A   1      39.726  29.217  29.787  1.00  0.00    -0.354 N 
ATOM     42  C   UNL A   1      38.846  31.397  33.427  1.00  0.00     0.074 A 
ATOM     43  C   UNL A   1      37.676  32.233  33.253  1.00  0.00     0.031 C 
ATOM     44  C   UNL A   1      39.412  28.574  27.671  1.00  0.00     0.029 A 
ATOM     45  C   UNL A   1      40.302  28.423  28.821  1.00  0.00     0.049 A 
ATOM     46  H   UNL A   1      40.066  29.275  30.709  1.00  0.00     0.167 HD
ATOM     47  C   UNL A   1      39.539  31.282  34.587  1.00  0.00     0.034 A 
ATOM     48  C   UNL A   1      41.434  27.689  28.854  1.00  0.00     0.034 A 
ATOM     49  C   UNL A   1      40.713  30.457  34.739  1.00  0.00     0.049 A 
ATOM     50  C   UNL A   1      42.253  27.660  30.126  1.00  0.00     0.074 A 
ATOM     51  C   UNL A   1      41.484  30.258  35.870  1.00  0.00     0.029 A 
ATOM     52  N   UNL A   1      41.297  29.708  33.725  1.00  0.00    -0.354 N 
ATOM     53  N   UNL A   1      42.020  28.252  31.276  1.00  0.00    -0.248 NA
ATOM     54  C   UNL A   1      43.484  26.858  30.105  1.00  0.00     0.031 C 
ATOM     55  C   UNL A   1      42.579  29.461  35.520  1.00  0.00     0.029 A 
ATOM     56  C   UNL A   1      42.441  29.081  34.194  1.00  0.00     0.049 A 
ATOM     57  H   UNL A   1      40.949  29.634  32.807  1.00  0.00     0.167 HD
ATOM     58  C   UNL A   1      43.059  27.864  32.122  1.00  0.00     0.074 A 
ATOM     59  C   UNL A   1      43.907  26.977  31.354  1.00  0.00     0.031 C 
ATOM     60  C   UNL A   1      43.287  28.205  33.417  1.00  0.00     0.034 A 
BRANCH  47  61
ATOM     61  C   UNL A   1      39.076  32.114  35.758  1.00  0.00     0.023 A 
ATOM     62  C   UNL A   1      39.509  33.438  35.949  1.00  0.00     0.031 A 
ATOM     63  C   UNL A   1      38.208  31.563  36.719  1.00  0.00     0.131 A 
ATOM     64  C   UNL A   1      39.136  34.138  37.106  1.00  0.00     0.055 A 
ATOM     65  C   UNL A   1      37.770  32.295  37.824  1.00  0.00     0.041 A 
ATOM     66  F   UNL A   1      37.782  30.295  36.607  1.00  0.00    -0.206 F 
ATOM     67  C   UNL A   1      38.247  33.586  38.031  1.00  0.00     0.022 A 
BRANCH  64  68
ATOM     68  S   UNL A   1      39.952  35.718  37.463  1.00  0.00     0.124 S 
ATOM     69  O   UNL A   1      39.660  36.483  36.254  1.00  0.00    -0.237 OA
ATOM     70  O   UNL A   1      39.272  36.157  38.676  1.00  0.00    -0.237 OA
ATOM     71  O   UNL A   1      41.356  35.347  37.633  1.00  0.00    -0.744 OA
ENDBRANCH  64  68
ENDBRANCH  47  61
BRANCH  48  72
ATOM     72  C   UNL A   1      41.902  26.958  27.639  1.00  0.00     0.023 A 
ATOM     73  C   UNL A   1      41.962  25.555  27.613  1.00  0.00     0.031 A 
ATOM     74  C   UNL A   1      42.367  27.657  26.510  1.00  0.00     0.131 A 
ATOM     75  C   UNL A   1      42.519  24.899  26.503  1.00  0.00     0.055 A 
ATOM     76  C   UNL A   1      42.863  26.997  25.384  1.00  0.00     0.041 A 
ATOM     77  F   UNL A   1      42.343  28.999  26.484  1.00  0.00    -0.206 F 
ATOM     78  C   UNL A   1      42.954  25.609  25.382  1.00  0.00     0.022 A 
BRANCH  75  79
ATOM     79  S   UNL A   1      42.765  23.104  26.590  1.00  0.00     0.124 S 
ATOM     80  O   UNL A   1      41.931  22.747  27.732  1.00  0.00    -0.237 OA
ATOM     81  O   UNL A   1      42.284  22.669  25.283  1.00  0.00    -0.237 OA
ATOM     82  O   UNL A   1      44.205  22.967  26.800  1.00  0.00    -0.744 OA
ENDBRANCH  75  79
ENDBRANCH  48  72
BRANCH  60  83
ATOM     83  C   UNL A   1      44.479  27.574  34.102  1.00  0.00     0.023 A 
ATOM     84  C   UNL A   1      44.398  26.319  34.729  1.00  0.00     0.031 A 
ATOM     85  C   UNL A   1      45.715  28.245  34.128  1.00  0.00     0.131 A 
ATOM     86  C   UNL A   1      45.514  25.801  35.406  1.00  0.00     0.055 A 
ATOM     87  C   UNL A   1      46.840  27.694  34.742  1.00  0.00     0.041 A 
ATOM     88  F   UNL A   1      45.852  29.450  33.550  1.00  0.00    -0.206 F 
ATOM     89  C   UNL A   1      46.740  26.472  35.398  1.00  0.00     0.022 A 
BRANCH  86  90
ATOM     90  S   UNL A   1      45.316  24.288  36.387  1.00  0.00     0.124 S 
ATOM     91  O   UNL A   1      44.381  24.719  37.421  1.00  0.00    -0.237 OA
ATOM     92  O   UNL A   1      44.790  23.346  35.404  1.00  0.00    -0.237 OA
ATOM     93  O   UNL A   1      46.671  24.002  36.855  1.00  0.00    -0.744 OA
ENDBRANCH  86  90
ENDBRANCH  60  83
ENDBRANCH  34  35
ENDBRANCH  27  29
ENDBRANCH  26  27
ENDBRANCH  25  26
ENDBRANCH  24  25
ENDBRANCH  23  24
ENDBRANCH  22  23
ENDBRANCH   1  22
TORSDOF 25
ENDMDL
