MODEL 1
REMARK VINA RESULT:     -11.1      0.000      0.000
REMARK SMILES Cc1ccccc1NC(=S)NN1C(=O)CS[C@H]1c1ccccc1C(=O)OCCOCCOCCOC(=O)c1ccc(-c2c3nc(c(-c4cc(S(=O)(=O)[O-])ccc4F)c4ccc([nH]4)c(-c4cc(S(=O)(=O)[O-])ccc4F)c4nc(c(-c5cc(S(=O)(=O)[O-])ccc5F)c5ccc2[nH]5)C=C4)C=C3)cc1
REMARK SMILES IDX 30 1 29 2 28 3 27 4 26 5 24 6 25 7 23 8 18 9 19 10 20 11
REMARK SMILES IDX 22 12 21 13 17 14 12 15 13 16 14 17 15 18 16 19 11 20 9 22
REMARK SMILES IDX 10 23 8 24 7 26 1 27 2 28 3 29 4 30 6 31 5 32 31 33 32 34
REMARK SMILES IDX 33 35 34 36 35 37 36 38 37 39 38 40 39 41 100 42 40 43 99 44
REMARK SMILES IDX 41 45 42 46 43 47 93 48 44 49 98 50 92 51 94 52 45 53 97 54
REMARK SMILES IDX 91 55 90 56 46 58 78 59 58 60 77 61 59 62 62 63 76 64 95 65
REMARK SMILES IDX 60 66 61 67 75 69 96 70 63 71 47 72 48 73 56 74 49 75 55 76
REMARK SMILES IDX 57 77 54 78 50 79 51 80 52 81 53 82 79 83 80 84 88 85 81 86
REMARK SMILES IDX 87 87 89 88 86 89 82 90 83 91 84 92 85 93 64 94 65 95 73 96
REMARK SMILES IDX 66 97 72 98 74 99 71 100 67 101 68 102 69 103 70 104
REMARK H PARENT 11 21 8 25 94 57 62 68
REMARK Flexibility Score: inf
ROOT
ATOM      1  C   UNL A   1      37.270  31.292  28.414  1.00  0.00     0.188 C 
ENDROOT
BRANCH   1   2
ATOM      2  O   UNL A   1      36.033  30.599  28.370  1.00  0.00    -0.376 OA
BRANCH   2   3
ATOM      3  C   UNL A   1      34.962  31.500  28.592  1.00  0.00     0.202 C 
BRANCH   3   4
ATOM      4  C   UNL A   1      33.777  31.388  27.615  1.00  0.00     0.261 C 
BRANCH   4   5
ATOM      5  O   UNL A   1      33.143  29.927  27.037  1.00  0.00    -0.460 OA
BRANCH   5   6
ATOM      6  C   UNL A   1      33.412  28.723  26.111  1.00  0.00     0.338 C 
ATOM      7  O   UNL A   1      34.002  27.817  26.739  1.00  0.00    -0.246 OA
BRANCH   6   8
ATOM      8  C   UNL A   1      32.851  28.126  24.463  1.00  0.00     0.066 A 
ATOM      9  C   UNL A   1      32.330  26.677  23.884  1.00  0.00     0.001 A 
ATOM     10  C   UNL A   1      32.899  26.323  22.632  1.00  0.00     0.008 A 
ATOM     11  C   UNL A   1      33.697  27.213  21.894  1.00  0.00     0.000 A 
ATOM     12  C   UNL A   1      33.510  28.982  23.553  1.00  0.00     0.016 A 
ATOM     13  C   UNL A   1      33.943  28.522  22.312  1.00  0.00     0.001 A 
BRANCH   9  14
ATOM     14  C   UNL A   1      31.281  25.301  24.529  1.00  0.00     0.197 C 
ATOM     15  N   UNL A   1      31.454  23.618  24.748  1.00  0.00    -0.236 N 
ATOM     16  C   UNL A   1      30.752  23.040  25.803  1.00  0.00     0.252 C 
ATOM     17  O   UNL A   1      30.667  21.844  26.067  1.00  0.00    -0.272 OA
ATOM     18  C   UNL A   1      29.900  24.049  26.499  1.00  0.00     0.174 C 
ATOM     19  S   UNL A   1      30.631  25.688  26.280  1.00  0.00    -0.120 SA
BRANCH  15  20
ATOM     20  N   UNL A   1      31.861  22.540  23.678  1.00  0.00    -0.270 N 
ATOM     21  H   UNL A   1      31.485  22.732  22.788  1.00  0.00     0.191 HD
BRANCH  20  22
ATOM     22  C   UNL A   1      32.630  21.372  23.692  1.00  0.00     0.189 C 
ATOM     23  S   UNL A   1      32.394  19.846  23.073  1.00  0.00    -0.039 S 
BRANCH  22  24
ATOM     24  N   UNL A   1      33.577  21.365  24.734  1.00  0.00    -0.331 N 
ATOM     25  H   UNL A   1      33.584  20.680  25.441  1.00  0.00     0.169 HD
BRANCH  24  26
ATOM     26  C   UNL A   1      34.518  22.422  24.685  1.00  0.00     0.043 A 
ATOM     27  C   UNL A   1      34.229  22.977  27.146  1.00  0.00     0.046 C 
ATOM     28  C   UNL A   1      35.023  22.947  25.873  1.00  0.00    -0.028 A 
ATOM     29  C   UNL A   1      36.359  23.361  25.863  1.00  0.00     0.005 A 
ATOM     30  C   UNL A   1      37.111  23.339  24.681  1.00  0.00     0.000 A 
ATOM     31  C   UNL A   1      35.178  22.642  23.487  1.00  0.00     0.026 A 
ATOM     32  C   UNL A   1      36.501  23.033  23.474  1.00  0.00     0.002 A 
ENDBRANCH  24  26
ENDBRANCH  22  24
ENDBRANCH  20  22
ENDBRANCH  15  20
ENDBRANCH   9  14
ENDBRANCH   6   8
ENDBRANCH   5   6
ENDBRANCH   4   5
ENDBRANCH   3   4
ENDBRANCH   2   3
ENDBRANCH   1   2
BRANCH   1  33
ATOM     33  C   UNL A   1      38.297  30.591  29.293  1.00  0.00     0.188 C 
BRANCH  33  34
ATOM     34  O   UNL A   1      38.114  30.855  30.677  1.00  0.00    -0.376 OA
BRANCH  34  35
ATOM     35  C   UNL A   1      37.692  29.802  31.522  1.00  0.00     0.202 C 
BRANCH  35  36
ATOM     36  C   UNL A   1      37.199  30.406  32.829  1.00  0.00     0.261 C 
BRANCH  36  37
ATOM     37  O   UNL A   1      36.558  31.682  32.573  1.00  0.00    -0.460 OA
BRANCH  37  38
ATOM     38  C   UNL A   1      36.859  32.656  33.470  1.00  0.00     0.338 C 
ATOM     39  O   UNL A   1      36.262  32.839  34.526  1.00  0.00    -0.246 OA
BRANCH  38  40
ATOM     40  C   UNL A   1      37.937  33.541  32.952  1.00  0.00     0.060 A 
ATOM     41  C   UNL A   1      37.766  34.143  31.751  1.00  0.00     0.016 A 
ATOM     42  C   UNL A   1      39.220  33.589  33.466  1.00  0.00     0.016 A 
ATOM     43  C   UNL A   1      38.920  34.517  31.028  1.00  0.00     0.010 A 
ATOM     44  C   UNL A   1      40.362  33.867  32.630  1.00  0.00     0.010 A 
ATOM     45  C   UNL A   1      40.390  34.217  31.256  1.00  0.00    -0.014 A 
BRANCH  45  46
ATOM     46  C   UNL A   1      41.919  34.304  30.098  1.00  0.00     0.031 A 
ATOM     47  C   UNL A   1      43.229  33.235  30.014  1.00  0.00     0.074 A 
ATOM     48  C   UNL A   1      42.322  35.247  29.109  1.00  0.00     0.049 A 
ATOM     49  N   UNL A   1      43.378  32.476  28.969  1.00  0.00    -0.248 NA
ATOM     50  C   UNL A   1      44.301  32.867  30.996  1.00  0.00     0.031 C 
ATOM     51  C   UNL A   1      43.045  34.981  27.845  1.00  0.00     0.029 A 
ATOM     52  N   UNL A   1      41.977  36.582  28.837  1.00  0.00    -0.354 N 
ATOM     53  C   UNL A   1      44.279  31.469  29.194  1.00  0.00     0.074 A 
ATOM     54  C   UNL A   1      44.802  31.722  30.510  1.00  0.00     0.031 C 
ATOM     55  C   UNL A   1      43.144  36.085  27.077  1.00  0.00     0.029 A 
ATOM     56  C   UNL A   1      42.707  37.205  27.869  1.00  0.00     0.049 A 
ATOM     57  H   UNL A   1      41.250  37.040  29.317  1.00  0.00     0.167 HD
ATOM     58  C   UNL A   1      45.044  30.979  28.187  1.00  0.00     0.034 A 
ATOM     59  C   UNL A   1      43.375  38.350  28.170  1.00  0.00     0.034 A 
ATOM     60  C   UNL A   1      45.420  32.042  27.275  1.00  0.00     0.049 A 
ATOM     61  C   UNL A   1      44.842  37.932  28.133  1.00  0.00     0.074 A 
ATOM     62  C   UNL A   1      45.165  32.408  25.966  1.00  0.00     0.029 A 
ATOM     63  N   UNL A   1      46.065  33.123  27.856  1.00  0.00    -0.354 N 
ATOM     64  N   UNL A   1      45.255  36.706  28.388  1.00  0.00    -0.248 NA
ATOM     65  C   UNL A   1      45.878  38.757  27.527  1.00  0.00     0.031 C 
ATOM     66  C   UNL A   1      45.569  33.775  25.815  1.00  0.00     0.029 A 
ATOM     67  C   UNL A   1      46.154  34.193  27.004  1.00  0.00     0.049 A 
ATOM     68  H   UNL A   1      46.419  33.122  28.774  1.00  0.00     0.167 HD
ATOM     69  C   UNL A   1      46.452  36.511  27.750  1.00  0.00     0.074 A 
ATOM     70  C   UNL A   1      46.840  37.844  27.304  1.00  0.00     0.031 C 
ATOM     71  C   UNL A   1      46.998  35.307  27.385  1.00  0.00     0.034 A 
BRANCH  58  72
ATOM     72  C   UNL A   1      44.812  29.519  27.875  1.00  0.00     0.023 A 
ATOM     73  C   UNL A   1      43.752  29.129  27.043  1.00  0.00     0.031 A 
ATOM     74  C   UNL A   1      45.587  28.467  28.424  1.00  0.00     0.131 A 
ATOM     75  C   UNL A   1      43.444  27.768  26.847  1.00  0.00     0.055 A 
ATOM     76  C   UNL A   1      45.274  27.114  28.239  1.00  0.00     0.041 A 
ATOM     77  F   UNL A   1      46.688  28.718  29.154  1.00  0.00    -0.206 F 
ATOM     78  C   UNL A   1      44.188  26.757  27.454  1.00  0.00     0.022 A 
BRANCH  75  79
ATOM     79  S   UNL A   1      42.057  27.342  25.761  1.00  0.00     0.124 S 
ATOM     80  O   UNL A   1      42.281  28.205  24.606  1.00  0.00    -0.237 OA
ATOM     81  O   UNL A   1      42.260  25.913  25.543  1.00  0.00    -0.237 OA
ATOM     82  O   UNL A   1      40.879  27.676  26.561  1.00  0.00    -0.744 OA
ENDBRANCH  75  79
ENDBRANCH  58  72
BRANCH  59  83
ATOM     83  C   UNL A   1      42.639  39.321  29.075  1.00  0.00     0.023 A 
ATOM     84  C   UNL A   1      43.174  39.594  30.374  1.00  0.00     0.031 A 
ATOM     85  C   UNL A   1      41.617  40.180  28.644  1.00  0.00     0.131 A 
ATOM     86  C   UNL A   1      42.769  40.725  31.128  1.00  0.00     0.055 A 
ATOM     87  C   UNL A   1      41.220  41.307  29.400  1.00  0.00     0.041 A 
ATOM     88  F   UNL A   1      41.071  40.029  27.428  1.00  0.00    -0.206 F 
ATOM     89  C   UNL A   1      41.830  41.612  30.616  1.00  0.00     0.022 A 
BRANCH  86  90
ATOM     90  S   UNL A   1      43.523  41.150  32.739  1.00  0.00     0.124 S 
ATOM     91  O   UNL A   1      44.640  40.216  32.822  1.00  0.00    -0.237 OA
ATOM     92  O   UNL A   1      43.892  42.553  32.580  1.00  0.00    -0.237 OA
ATOM     93  O   UNL A   1      42.435  40.901  33.684  1.00  0.00    -0.744 OA
ENDBRANCH  86  90
ENDBRANCH  59  83
BRANCH  71  94
ATOM     94  C   UNL A   1      48.486  35.057  27.437  1.00  0.00     0.023 A 
ATOM     95  C   UNL A   1      49.288  35.280  26.322  1.00  0.00     0.031 A 
ATOM     96  C   UNL A   1      49.175  34.735  28.637  1.00  0.00     0.131 A 
ATOM     97  C   UNL A   1      50.669  35.085  26.378  1.00  0.00     0.055 A 
ATOM     98  C   UNL A   1      50.565  34.662  28.719  1.00  0.00     0.041 A 
ATOM     99  F   UNL A   1      48.547  34.506  29.798  1.00  0.00    -0.206 F 
ATOM    100  C   UNL A   1      51.325  34.811  27.573  1.00  0.00     0.022 A 
BRANCH  97 101
ATOM    101  S   UNL A   1      51.536  35.077  24.800  1.00  0.00     0.124 S 
ATOM    102  O   UNL A   1      51.255  33.726  24.320  1.00  0.00    -0.237 OA
ATOM    103  O   UNL A   1      50.871  36.156  24.078  1.00  0.00    -0.237 OA
ATOM    104  O   UNL A   1      52.923  35.330  25.175  1.00  0.00    -0.744 OA
ENDBRANCH  97 101
ENDBRANCH  71  94
ENDBRANCH  45  46
ENDBRANCH  38  40
ENDBRANCH  37  38
ENDBRANCH  36  37
ENDBRANCH  35  36
ENDBRANCH  34  35
ENDBRANCH  33  34
ENDBRANCH   1  33
TORSDOF 25
ENDMDL
MODEL 2
REMARK VINA RESULT:     -11.0      3.311      5.388
REMARK SMILES Cc1ccccc1NC(=S)NN1C(=O)CS[C@H]1c1ccccc1C(=O)OCCOCCOCCOC(=O)c1ccc(-c2c3nc(c(-c4cc(S(=O)(=O)[O-])ccc4F)c4ccc([nH]4)c(-c4cc(S(=O)(=O)[O-])ccc4F)c4nc(c(-c5cc(S(=O)(=O)[O-])ccc5F)c5ccc2[nH]5)C=C4)C=C3)cc1
REMARK SMILES IDX 30 1 29 2 28 3 27 4 26 5 24 6 25 7 23 8 18 9 19 10 20 11
REMARK SMILES IDX 22 12 21 13 17 14 12 15 13 16 14 17 15 18 16 19 11 20 9 22
REMARK SMILES IDX 10 23 8 24 7 26 1 27 2 28 3 29 4 30 6 31 5 32 31 33 32 34
REMARK SMILES IDX 33 35 34 36 35 37 36 38 37 39 38 40 39 41 100 42 40 43 99 44
REMARK SMILES IDX 41 45 42 46 43 47 93 48 44 49 98 50 92 51 94 52 45 53 97 54
REMARK SMILES IDX 91 55 90 56 46 58 78 59 58 60 77 61 59 62 62 63 76 64 95 65
REMARK SMILES IDX 60 66 61 67 75 69 96 70 63 71 47 72 48 73 56 74 49 75 55 76
REMARK SMILES IDX 57 77 54 78 50 79 51 80 52 81 53 82 79 83 80 84 88 85 81 86
REMARK SMILES IDX 87 87 89 88 86 89 82 90 83 91 84 92 85 93 64 94 65 95 73 96
REMARK SMILES IDX 66 97 72 98 74 99 71 100 67 101 68 102 69 103 70 104
REMARK H PARENT 11 21 8 25 94 57 62 68
REMARK Flexibility Score: inf
ROOT
ATOM      1  C   UNL A   1      37.532  29.931  28.792  1.00  0.00     0.188 C 
ENDROOT
BRANCH   1   2
ATOM      2  O   UNL A   1      36.237  29.864  28.215  1.00  0.00    -0.376 OA
BRANCH   2   3
ATOM      3  C   UNL A   1      35.687  31.165  28.102  1.00  0.00     0.202 C 
BRANCH   3   4
ATOM      4  C   UNL A   1      34.178  31.232  27.803  1.00  0.00     0.261 C 
BRANCH   4   5
ATOM      5  O   UNL A   1      33.340  30.120  26.838  1.00  0.00    -0.460 OA
BRANCH   5   6
ATOM      6  C   UNL A   1      33.462  28.793  26.061  1.00  0.00     0.338 C 
ATOM      7  O   UNL A   1      33.809  27.870  26.830  1.00  0.00    -0.246 OA
BRANCH   6   8
ATOM      8  C   UNL A   1      32.954  28.129  24.421  1.00  0.00     0.066 A 
ATOM      9  C   UNL A   1      32.526  26.640  23.869  1.00  0.00     0.001 A 
ATOM     10  C   UNL A   1      33.128  26.294  22.630  1.00  0.00     0.008 A 
ATOM     11  C   UNL A   1      33.878  27.215  21.881  1.00  0.00     0.000 A 
ATOM     12  C   UNL A   1      33.570  29.004  23.499  1.00  0.00     0.016 A 
ATOM     13  C   UNL A   1      34.043  28.544  22.273  1.00  0.00     0.001 A 
BRANCH   9  14
ATOM     14  C   UNL A   1      31.553  25.218  24.534  1.00  0.00     0.197 C 
ATOM     15  N   UNL A   1      31.898  23.639  25.083  1.00  0.00    -0.236 N 
ATOM     16  C   UNL A   1      31.063  23.114  26.068  1.00  0.00     0.252 C 
ATOM     17  O   UNL A   1      31.083  21.973  26.521  1.00  0.00    -0.272 OA
ATOM     18  C   UNL A   1      29.952  24.056  26.390  1.00  0.00     0.174 C 
ATOM     19  S   UNL A   1      30.487  25.744  26.025  1.00  0.00    -0.120 SA
BRANCH  15  20
ATOM     20  N   UNL A   1      32.671  22.499  24.326  1.00  0.00    -0.270 N 
ATOM     21  H   UNL A   1      32.859  22.731  23.387  1.00  0.00     0.191 HD
BRANCH  20  22
ATOM     22  C   UNL A   1      33.154  21.232  24.670  1.00  0.00     0.189 C 
ATOM     23  S   UNL A   1      32.707  19.688  24.240  1.00  0.00    -0.039 S 
BRANCH  22  24
ATOM     24  N   UNL A   1      33.875  21.243  25.879  1.00  0.00    -0.331 N 
ATOM     25  H   UNL A   1      33.532  20.834  26.706  1.00  0.00     0.169 HD
BRANCH  24  26
ATOM     26  C   UNL A   1      35.133  21.889  25.811  1.00  0.00     0.043 A 
ATOM     27  C   UNL A   1      36.303  19.815  24.926  1.00  0.00     0.046 C 
ATOM     28  C   UNL A   1      36.167  21.301  25.084  1.00  0.00    -0.028 A 
ATOM     29  C   UNL A   1      37.035  22.166  24.408  1.00  0.00     0.005 A 
ATOM     30  C   UNL A   1      36.920  23.555  24.548  1.00  0.00     0.000 A 
ATOM     31  C   UNL A   1      35.187  23.233  26.142  1.00  0.00     0.026 A 
ATOM     32  C   UNL A   1      36.029  24.091  25.465  1.00  0.00     0.002 A 
ENDBRANCH  24  26
ENDBRANCH  22  24
ENDBRANCH  20  22
ENDBRANCH  15  20
ENDBRANCH   9  14
ENDBRANCH   6   8
ENDBRANCH   5   6
ENDBRANCH   4   5
ENDBRANCH   3   4
ENDBRANCH   2   3
ENDBRANCH   1   2
BRANCH   1  33
ATOM     33  C   UNL A   1      37.590  29.270  30.163  1.00  0.00     0.188 C 
BRANCH  33  34
ATOM     34  O   UNL A   1      37.517  30.204  31.231  1.00  0.00    -0.376 OA
BRANCH  34  35
ATOM     35  C   UNL A   1      36.269  30.425  31.859  1.00  0.00     0.202 C 
BRANCH  35  36
ATOM     36  C   UNL A   1      36.307  31.790  32.530  1.00  0.00     0.261 C 
BRANCH  36  37
ATOM     37  O   UNL A   1      36.621  32.814  31.550  1.00  0.00    -0.460 OA
BRANCH  37  38
ATOM     38  C   UNL A   1      37.353  33.852  32.032  1.00  0.00     0.338 C 
ATOM     39  O   UNL A   1      36.877  34.858  32.547  1.00  0.00    -0.246 OA
BRANCH  38  40
ATOM     40  C   UNL A   1      38.800  33.657  31.753  1.00  0.00     0.060 A 
ATOM     41  C   UNL A   1      39.318  34.163  30.608  1.00  0.00     0.016 A 
ATOM     42  C   UNL A   1      39.612  32.766  32.432  1.00  0.00     0.016 A 
ATOM     43  C   UNL A   1      40.482  33.557  30.084  1.00  0.00     0.010 A 
ATOM     44  C   UNL A   1      40.716  32.101  31.785  1.00  0.00     0.010 A 
ATOM     45  C   UNL A   1      41.214  32.286  30.470  1.00  0.00    -0.014 A 
BRANCH  45  46
ATOM     46  C   UNL A   1      42.493  31.199  29.537  1.00  0.00     0.031 A 
ATOM     47  C   UNL A   1      42.775  29.539  29.705  1.00  0.00     0.074 A 
ATOM     48  C   UNL A   1      43.481  31.508  28.558  1.00  0.00     0.049 A 
ATOM     49  N   UNL A   1      42.455  28.727  28.741  1.00  0.00    -0.248 NA
ATOM     50  C   UNL A   1      43.271  28.706  30.849  1.00  0.00     0.031 C 
ATOM     51  C   UNL A   1      43.931  30.664  27.428  1.00  0.00     0.029 A 
ATOM     52  N   UNL A   1      44.121  32.693  28.158  1.00  0.00    -0.354 N 
ATOM     53  C   UNL A   1      42.452  27.421  29.153  1.00  0.00     0.074 A 
ATOM     54  C   UNL A   1      42.924  27.456  30.511  1.00  0.00     0.031 C 
ATOM     55  C   UNL A   1      44.784  31.320  26.615  1.00  0.00     0.029 A 
ATOM     56  C   UNL A   1      45.142  32.553  27.266  1.00  0.00     0.049 A 
ATOM     57  H   UNL A   1      43.847  33.574  28.501  1.00  0.00     0.167 HD
ATOM     58  C   UNL A   1      42.769  26.418  28.296  1.00  0.00     0.034 A 
ATOM     59  C   UNL A   1      46.378  33.020  27.587  1.00  0.00     0.034 A 
ATOM     60  C   UNL A   1      43.811  26.845  27.382  1.00  0.00     0.049 A 
ATOM     61  C   UNL A   1      47.203  31.753  27.784  1.00  0.00     0.074 A 
ATOM     62  C   UNL A   1      43.947  27.102  26.030  1.00  0.00     0.029 A 
ATOM     63  N   UNL A   1      44.968  27.319  27.981  1.00  0.00    -0.354 N 
ATOM     64  N   UNL A   1      46.688  30.602  28.169  1.00  0.00    -0.248 NA
ATOM     65  C   UNL A   1      48.563  31.616  27.280  1.00  0.00     0.031 C 
ATOM     66  C   UNL A   1      45.161  27.843  25.854  1.00  0.00     0.029 A 
ATOM     67  C   UNL A   1      45.796  27.944  27.085  1.00  0.00     0.049 A 
ATOM     68  H   UNL A   1      45.172  27.217  28.938  1.00  0.00     0.167 HD
ATOM     69  C   UNL A   1      47.498  29.592  27.721  1.00  0.00     0.074 A 
ATOM     70  C   UNL A   1      48.697  30.279  27.252  1.00  0.00     0.031 C 
ATOM     71  C   UNL A   1      47.138  28.286  27.512  1.00  0.00     0.034 A 
BRANCH  58  72
ATOM     72  C   UNL A   1      41.653  25.431  28.045  1.00  0.00     0.023 A 
ATOM     73  C   UNL A   1      41.933  24.155  27.533  1.00  0.00     0.031 A 
ATOM     74  C   UNL A   1      40.282  25.728  28.250  1.00  0.00     0.131 A 
ATOM     75  C   UNL A   1      40.897  23.272  27.174  1.00  0.00     0.055 A 
ATOM     76  C   UNL A   1      39.250  24.854  27.882  1.00  0.00     0.041 A 
ATOM     77  F   UNL A   1      39.895  26.878  28.829  1.00  0.00    -0.206 F 
ATOM     78  C   UNL A   1      39.555  23.619  27.328  1.00  0.00     0.022 A 
BRANCH  75  79
ATOM     79  S   UNL A   1      41.338  21.642  26.515  1.00  0.00     0.124 S 
ATOM     80  O   UNL A   1      42.206  21.977  25.393  1.00  0.00    -0.237 OA
ATOM     81  O   UNL A   1      41.985  21.008  27.660  1.00  0.00    -0.237 OA
ATOM     82  O   UNL A   1      40.047  21.060  26.146  1.00  0.00    -0.744 OA
ENDBRANCH  75  79
ENDBRANCH  58  72
BRANCH  59  83
ATOM     83  C   UNL A   1      46.406  34.351  28.317  1.00  0.00     0.023 A 
ATOM     84  C   UNL A   1      45.870  35.508  27.664  1.00  0.00     0.031 A 
ATOM     85  C   UNL A   1      46.674  34.493  29.686  1.00  0.00     0.131 A 
ATOM     86  C   UNL A   1      45.533  36.683  28.382  1.00  0.00     0.055 A 
ATOM     87  C   UNL A   1      46.333  35.668  30.396  1.00  0.00     0.041 A 
ATOM     88  F   UNL A   1      47.148  33.459  30.396  1.00  0.00    -0.206 F 
ATOM     89  C   UNL A   1      45.714  36.743  29.758  1.00  0.00     0.022 A 
BRANCH  86  90
ATOM     90  S   UNL A   1      44.743  38.126  27.584  1.00  0.00     0.124 S 
ATOM     91  O   UNL A   1      45.778  38.585  26.663  1.00  0.00    -0.237 OA
ATOM     92  O   UNL A   1      43.555  37.558  26.956  1.00  0.00    -0.237 OA
ATOM     93  O   UNL A   1      44.479  39.019  28.712  1.00  0.00    -0.744 OA
ENDBRANCH  86  90
ENDBRANCH  59  83
BRANCH  71  94
ATOM     94  C   UNL A   1      48.084  27.143  27.789  1.00  0.00     0.023 A 
ATOM     95  C   UNL A   1      48.415  26.787  29.092  1.00  0.00     0.031 A 
ATOM     96  C   UNL A   1      48.569  26.276  26.772  1.00  0.00     0.131 A 
ATOM     97  C   UNL A   1      49.261  25.708  29.352  1.00  0.00     0.055 A 
ATOM     98  C   UNL A   1      49.312  25.128  27.043  1.00  0.00     0.041 A 
ATOM     99  F   UNL A   1      48.325  26.474  25.469  1.00  0.00    -0.206 F 
ATOM    100  C   UNL A   1      49.688  24.850  28.345  1.00  0.00     0.022 A 
BRANCH  97 101
ATOM    101  S   UNL A   1      49.874  25.565  31.038  1.00  0.00     0.124 S 
ATOM    102  O   UNL A   1      50.552  24.272  30.994  1.00  0.00    -0.237 OA
ATOM    103  O   UNL A   1      50.744  26.732  31.149  1.00  0.00    -0.237 OA
ATOM    104  O   UNL A   1      48.659  25.607  31.845  1.00  0.00    -0.744 OA
ENDBRANCH  97 101
ENDBRANCH  71  94
ENDBRANCH  45  46
ENDBRANCH  38  40
ENDBRANCH  37  38
ENDBRANCH  36  37
ENDBRANCH  35  36
ENDBRANCH  34  35
ENDBRANCH  33  34
ENDBRANCH   1  33
TORSDOF 25
ENDMDL
MODEL 3
REMARK VINA RESULT:     -10.7      3.192      4.506
REMARK SMILES Cc1ccccc1NC(=S)NN1C(=O)CS[C@H]1c1ccccc1C(=O)OCCOCCOCCOC(=O)c1ccc(-c2c3nc(c(-c4cc(S(=O)(=O)[O-])ccc4F)c4ccc([nH]4)c(-c4cc(S(=O)(=O)[O-])ccc4F)c4nc(c(-c5cc(S(=O)(=O)[O-])ccc5F)c5ccc2[nH]5)C=C4)C=C3)cc1
REMARK SMILES IDX 30 1 29 2 28 3 27 4 26 5 24 6 25 7 23 8 18 9 19 10 20 11
REMARK SMILES IDX 22 12 21 13 17 14 12 15 13 16 14 17 15 18 16 19 11 20 9 22
REMARK SMILES IDX 10 23 8 24 7 26 1 27 2 28 3 29 4 30 6 31 5 32 31 33 32 34
REMARK SMILES IDX 33 35 34 36 35 37 36 38 37 39 38 40 39 41 100 42 40 43 99 44
REMARK SMILES IDX 41 45 42 46 43 47 93 48 44 49 98 50 92 51 94 52 45 53 97 54
REMARK SMILES IDX 91 55 90 56 46 58 78 59 58 60 77 61 59 62 62 63 76 64 95 65
REMARK SMILES IDX 60 66 61 67 75 69 96 70 63 71 47 72 48 73 56 74 49 75 55 76
REMARK SMILES IDX 57 77 54 78 50 79 51 80 52 81 53 82 79 83 80 84 88 85 81 86
REMARK SMILES IDX 87 87 89 88 86 89 82 90 83 91 84 92 85 93 64 94 65 95 73 96
REMARK SMILES IDX 66 97 72 98 74 99 71 100 67 101 68 102 69 103 70 104
REMARK H PARENT 11 21 8 25 94 57 62 68
REMARK Flexibility Score: inf
ROOT
ATOM      1  C   UNL A   1      36.839  30.267  29.979  1.00  0.00     0.188 C 
ENDROOT
BRANCH   1   2
ATOM      2  O   UNL A   1      35.902  29.869  28.990  1.00  0.00    -0.376 OA
BRANCH   2   3
ATOM      3  C   UNL A   1      35.726  30.906  28.041  1.00  0.00     0.202 C 
BRANCH   3   4
ATOM      4  C   UNL A   1      34.268  31.321  27.765  1.00  0.00     0.261 C 
BRANCH   4   5
ATOM      5  O   UNL A   1      33.145  30.379  26.917  1.00  0.00    -0.460 OA
BRANCH   5   6
ATOM      6  C   UNL A   1      32.884  29.625  25.597  1.00  0.00     0.338 C 
ATOM      7  O   UNL A   1      33.958  29.185  25.130  1.00  0.00    -0.246 OA
BRANCH   6   8
ATOM      8  C   UNL A   1      31.439  28.936  24.690  1.00  0.00     0.066 A 
ATOM      9  C   UNL A   1      31.230  27.677  23.652  1.00  0.00     0.001 A 
ATOM     10  C   UNL A   1      30.437  27.996  22.518  1.00  0.00     0.008 A 
ATOM     11  C   UNL A   1      29.764  29.223  22.396  1.00  0.00     0.000 A 
ATOM     12  C   UNL A   1      30.579  30.046  24.535  1.00  0.00     0.016 A 
ATOM     13  C   UNL A   1      29.785  30.192  23.401  1.00  0.00     0.001 A 
BRANCH   9  14
ATOM     14  C   UNL A   1      31.895  25.960  23.514  1.00  0.00     0.197 C 
ATOM     15  N   UNL A   1      31.250  24.381  23.568  1.00  0.00    -0.236 N 
ATOM     16  C   UNL A   1      31.899  23.404  22.815  1.00  0.00     0.252 C 
ATOM     17  O   UNL A   1      31.653  22.202  22.797  1.00  0.00    -0.272 OA
ATOM     18  C   UNL A   1      33.118  23.956  22.155  1.00  0.00     0.174 C 
ATOM     19  S   UNL A   1      32.900  25.734  21.909  1.00  0.00    -0.120 SA
BRANCH  15  20
ATOM     20  N   UNL A   1      30.367  23.734  24.698  1.00  0.00    -0.270 N 
ATOM     21  H   UNL A   1      29.438  23.581  24.408  1.00  0.00     0.191 HD
BRANCH  20  22
ATOM     22  C   UNL A   1      30.590  23.327  26.017  1.00  0.00     0.189 C 
ATOM     23  S   UNL A   1      29.584  22.781  27.225  1.00  0.00    -0.039 S 
BRANCH  22  24
ATOM     24  N   UNL A   1      31.796  23.831  26.537  1.00  0.00    -0.331 N 
ATOM     25  H   UNL A   1      31.828  24.591  27.163  1.00  0.00     0.169 HD
BRANCH  24  26
ATOM     26  C   UNL A   1      32.960  23.160  26.090  1.00  0.00     0.043 A 
ATOM     27  C   UNL A   1      34.243  25.324  25.746  1.00  0.00     0.046 C 
ATOM     28  C   UNL A   1      34.168  23.852  26.023  1.00  0.00    -0.028 A 
ATOM     29  C   UNL A   1      35.327  23.131  26.330  1.00  0.00     0.005 A 
ATOM     30  C   UNL A   1      35.272  21.755  26.590  1.00  0.00     0.000 A 
ATOM     31  C   UNL A   1      32.947  21.775  26.095  1.00  0.00     0.026 A 
ATOM     32  C   UNL A   1      34.084  21.061  26.413  1.00  0.00     0.002 A 
ENDBRANCH  24  26
ENDBRANCH  22  24
ENDBRANCH  20  22
ENDBRANCH  15  20
ENDBRANCH   9  14
ENDBRANCH   6   8
ENDBRANCH   5   6
ENDBRANCH   4   5
ENDBRANCH   3   4
ENDBRANCH   2   3
ENDBRANCH   1   2
BRANCH   1  33
ATOM     33  C   UNL A   1      36.166  30.744  31.259  1.00  0.00     0.188 C 
BRANCH  33  34
ATOM     34  O   UNL A   1      36.059  32.158  31.335  1.00  0.00    -0.376 OA
BRANCH  34  35
ATOM     35  C   UNL A   1      34.807  32.731  31.658  1.00  0.00     0.202 C 
BRANCH  35  36
ATOM     36  C   UNL A   1      34.775  32.996  33.156  1.00  0.00     0.261 C 
BRANCH  36  37
ATOM     37  O   UNL A   1      35.936  33.774  33.546  1.00  0.00    -0.460 OA
BRANCH  37  38
ATOM     38  C   UNL A   1      36.489  33.410  34.731  1.00  0.00     0.338 C 
ATOM     39  O   UNL A   1      35.958  33.571  35.826  1.00  0.00    -0.246 OA
BRANCH  38  40
ATOM     40  C   UNL A   1      37.869  32.890  34.537  1.00  0.00     0.060 A 
ATOM     41  C   UNL A   1      38.869  33.770  34.296  1.00  0.00     0.016 A 
ATOM     42  C   UNL A   1      38.177  31.561  34.311  1.00  0.00     0.016 A 
ATOM     43  C   UNL A   1      40.008  33.303  33.603  1.00  0.00     0.010 A 
ATOM     44  C   UNL A   1      39.297  31.170  33.492  1.00  0.00     0.010 A 
ATOM     45  C   UNL A   1      40.284  31.992  32.892  1.00  0.00    -0.014 A 
BRANCH  45  46
ATOM     46  C   UNL A   1      41.594  31.486  31.581  1.00  0.00     0.031 A 
ATOM     47  C   UNL A   1      42.161  29.934  31.215  1.00  0.00     0.074 A 
ATOM     48  C   UNL A   1      42.386  32.247  30.674  1.00  0.00     0.049 A 
ATOM     49  N   UNL A   1      41.857  29.387  30.075  1.00  0.00    -0.248 NA
ATOM     50  C   UNL A   1      42.927  28.921  32.012  1.00  0.00     0.031 C 
ATOM     51  C   UNL A   1      42.819  31.865  29.311  1.00  0.00     0.029 A 
ATOM     52  N   UNL A   1      42.768  33.597  30.608  1.00  0.00    -0.354 N 
ATOM     53  C   UNL A   1      42.119  28.042  30.069  1.00  0.00     0.074 A 
ATOM     54  C   UNL A   1      42.748  27.778  31.335  1.00  0.00     0.031 C 
ATOM     55  C   UNL A   1      43.444  32.878  28.676  1.00  0.00     0.029 A 
ATOM     56  C   UNL A   1      43.677  33.918  29.643  1.00  0.00     0.049 A 
ATOM     57  H   UNL A   1      42.400  34.273  31.221  1.00  0.00     0.167 HD
ATOM     58  C   UNL A   1      42.483  27.408  28.927  1.00  0.00     0.034 A 
ATOM     59  C   UNL A   1      44.851  34.504  30.000  1.00  0.00     0.034 A 
ATOM     60  C   UNL A   1      43.317  28.270  28.113  1.00  0.00     0.049 A 
ATOM     61  C   UNL A   1      45.890  33.417  29.741  1.00  0.00     0.074 A 
ATOM     62  C   UNL A   1      43.236  28.924  26.897  1.00  0.00     0.029 A 
ATOM     63  N   UNL A   1      44.448  28.767  28.741  1.00  0.00    -0.354 N 
ATOM     64  N   UNL A   1      45.622  32.128  29.795  1.00  0.00    -0.248 NA
ATOM     65  C   UNL A   1      47.178  33.696  29.122  1.00  0.00     0.031 C 
ATOM     66  C   UNL A   1      44.281  29.905  26.867  1.00  0.00     0.029 A 
ATOM     67  C   UNL A   1      45.043  29.770  28.021  1.00  0.00     0.049 A 
ATOM     68  H   UNL A   1      44.786  28.438  29.604  1.00  0.00     0.167 HD
ATOM     69  C   UNL A   1      46.521  31.464  29.002  1.00  0.00     0.074 A 
ATOM     70  C   UNL A   1      47.523  32.474  28.679  1.00  0.00     0.031 C 
ATOM     71  C   UNL A   1      46.354  30.229  28.432  1.00  0.00     0.034 A 
BRANCH  58  72
ATOM     72  C   UNL A   1      41.520  26.337  28.470  1.00  0.00     0.023 A 
ATOM     73  C   UNL A   1      41.952  25.013  28.308  1.00  0.00     0.031 A 
ATOM     74  C   UNL A   1      40.167  26.592  28.129  1.00  0.00     0.131 A 
ATOM     75  C   UNL A   1      41.103  24.031  27.761  1.00  0.00     0.055 A 
ATOM     76  C   UNL A   1      39.325  25.619  27.574  1.00  0.00     0.041 A 
ATOM     77  F   UNL A   1      39.610  27.798  28.336  1.00  0.00    -0.206 F 
ATOM     78  C   UNL A   1      39.796  24.329  27.376  1.00  0.00     0.022 A 
BRANCH  75  79
ATOM     79  S   UNL A   1      41.735  22.342  27.579  1.00  0.00     0.124 S 
ATOM     80  O   UNL A   1      42.038  22.268  26.155  1.00  0.00    -0.237 OA
ATOM     81  O   UNL A   1      42.883  22.341  28.481  1.00  0.00    -0.237 OA
ATOM     82  O   UNL A   1      40.616  21.507  28.017  1.00  0.00    -0.744 OA
ENDBRANCH  75  79
ENDBRANCH  58  72
BRANCH  59  83
ATOM     83  C   UNL A   1      44.755  35.550  31.097  1.00  0.00     0.023 A 
ATOM     84  C   UNL A   1      44.559  36.919  30.728  1.00  0.00     0.031 A 
ATOM     85  C   UNL A   1      44.577  35.253  32.455  1.00  0.00     0.131 A 
ATOM     86  C   UNL A   1      44.110  37.888  31.661  1.00  0.00     0.055 A 
ATOM     87  C   UNL A   1      44.126  36.224  33.380  1.00  0.00     0.041 A 
ATOM     88  F   UNL A   1      44.706  33.993  32.898  1.00  0.00    -0.206 F 
ATOM     89  C   UNL A   1      43.841  37.528  32.975  1.00  0.00     0.022 A 
BRANCH  86  90
ATOM     90  S   UNL A   1      43.747  39.615  31.181  1.00  0.00     0.124 S 
ATOM     91  O   UNL A   1      43.178  39.461  29.847  1.00  0.00    -0.237 OA
ATOM     92  O   UNL A   1      42.815  40.064  32.210  1.00  0.00    -0.237 OA
ATOM     93  O   UNL A   1      45.065  40.249  31.223  1.00  0.00    -0.744 OA
ENDBRANCH  86  90
ENDBRANCH  59  83
BRANCH  71  94
ATOM     94  C   UNL A   1      47.502  29.259  28.278  1.00  0.00     0.023 A 
ATOM     95  C   UNL A   1      48.013  28.950  27.022  1.00  0.00     0.031 A 
ATOM     96  C   UNL A   1      48.220  28.729  29.384  1.00  0.00     0.131 A 
ATOM     97  C   UNL A   1      49.098  28.083  26.879  1.00  0.00     0.055 A 
ATOM     98  C   UNL A   1      49.377  27.963  29.241  1.00  0.00     0.041 A 
ATOM     99  F   UNL A   1      47.862  28.947  30.657  1.00  0.00    -0.206 F 
ATOM    100  C   UNL A   1      49.810  27.610  27.976  1.00  0.00     0.022 A 
BRANCH  97 101
ATOM    101  S   UNL A   1      49.441  27.506  25.209  1.00  0.00     0.124 S 
ATOM    102  O   UNL A   1      50.550  28.374  24.823  1.00  0.00    -0.237 OA
ATOM    103  O   UNL A   1      49.782  26.104  25.432  1.00  0.00    -0.237 OA
ATOM    104  O   UNL A   1      48.186  27.744  24.504  1.00  0.00    -0.744 OA
ENDBRANCH  97 101
ENDBRANCH  71  94
ENDBRANCH  45  46
ENDBRANCH  38  40
ENDBRANCH  37  38
ENDBRANCH  36  37
ENDBRANCH  35  36
ENDBRANCH  34  35
ENDBRANCH  33  34
ENDBRANCH   1  33
TORSDOF 25
ENDMDL
