MODEL 1
REMARK VINA RESULT:     -11.1      0.000      0.000
REMARK SMILES Cc1cc(F)ccc1NC(=O)[C@H]1CC=CC[C@@H]1C(=O)OCCOCCOCCOC(=O)c1ccc(-c2c3nc(c(-c4cc(S(=O)(=O)[O-])ccc4F)c4ccc([nH]4)c(-c4cc(S(=O)(=O)[O-])ccc4F)c4nc(c(-c5cc(S(=O)(=O)[O-])ccc5F)c5ccc2[nH]5)C=C4)C=C3)cc1
REMARK SMILES IDX 25 1 24 2 23 3 22 4 21 5 20 6 18 7 19 8 17 9 12 10 13 11
REMARK SMILES IDX 14 12 16 13 15 14 10 15 9 16 11 18 8 19 1 20 2 21 3 22 4 23
REMARK SMILES IDX 7 24 5 25 6 26 26 27 27 28 28 29 29 30 30 31 31 32 32 33
REMARK SMILES IDX 33 34 94 35 34 36 93 37 35 38 36 39 37 40 87 41 38 42 92 43
REMARK SMILES IDX 86 44 88 45 39 46 91 47 85 48 84 49 40 51 72 52 52 53 71 54
REMARK SMILES IDX 53 55 56 56 70 57 89 58 54 59 55 60 69 62 90 63 57 64 41 65
REMARK SMILES IDX 42 66 50 67 43 68 49 69 51 70 48 71 44 72 45 73 46 74 47 75
REMARK SMILES IDX 73 76 74 77 82 78 75 79 81 80 83 81 80 82 76 83 77 84 78 85
REMARK SMILES IDX 79 86 58 87 59 88 67 89 60 90 66 91 68 92 65 93 61 94 62 95
REMARK SMILES IDX 63 96 64 97
REMARK H PARENT 9 17 88 50 56 61
REMARK Flexibility Score: inf
ROOT
ATOM      1  C   UNL A   1      36.793  21.923  24.765  1.00  0.00     0.188 C 
ENDROOT
BRANCH   1   2
ATOM      2  C   UNL A   1      35.511  21.107  25.031  1.00  0.00     0.188 C 
BRANCH   2   3
ATOM      3  O   UNL A   1      34.230  21.626  24.647  1.00  0.00    -0.376 OA
BRANCH   3   4
ATOM      4  C   UNL A   1      34.112  22.562  23.576  1.00  0.00     0.202 C 
BRANCH   4   5
ATOM      5  C   UNL A   1      32.876  22.452  22.678  1.00  0.00     0.261 C 
BRANCH   5   6
ATOM      6  O   UNL A   1      32.322  23.752  22.537  1.00  0.00    -0.463 OA
BRANCH   6   7
ATOM      7  C   UNL A   1      31.345  24.336  23.282  1.00  0.00     0.310 C 
ATOM      8  O   UNL A   1      30.511  23.771  23.959  1.00  0.00    -0.252 OA
BRANCH   7   9
ATOM      9  C   UNL A   1      31.567  25.836  23.049  1.00  0.00     0.116 C 
ATOM     10  C   UNL A   1      32.930  26.502  22.945  1.00  0.00     0.097 C 
ATOM     11  C   UNL A   1      33.765  26.162  24.198  1.00  0.00     0.041 C 
ATOM     12  C   UNL A   1      33.041  26.615  25.428  1.00  0.00    -0.030 C 
ATOM     13  C   UNL A   1      30.865  26.482  24.230  1.00  0.00     0.043 C 
ATOM     14  C   UNL A   1      31.717  26.806  25.417  1.00  0.00    -0.030 C 
BRANCH  10  15
ATOM     15  C   UNL A   1      33.024  28.071  22.661  1.00  0.00     0.228 C 
ATOM     16  N   UNL A   1      32.122  29.095  22.502  1.00  0.00    -0.326 N 
ATOM     17  H   UNL A   1      32.585  29.811  22.010  1.00  0.00     0.169 HD
ATOM     18  O   UNL A   1      34.187  28.472  22.423  1.00  0.00    -0.274 OA
BRANCH  16  19
ATOM     19  C   UNL A   1      30.788  29.555  22.754  1.00  0.00     0.044 A 
ATOM     20  C   UNL A   1      31.357  30.235  25.181  1.00  0.00     0.047 C 
ATOM     21  C   UNL A   1      30.488  30.242  23.952  1.00  0.00    -0.025 A 
ATOM     22  C   UNL A   1      29.242  30.909  24.105  1.00  0.00     0.044 A 
ATOM     23  C   UNL A   1      28.267  30.824  23.128  1.00  0.00     0.123 A 
ATOM     24  C   UNL A   1      29.668  29.263  21.965  1.00  0.00     0.029 A 
ATOM     25  F   UNL A   1      27.111  31.489  23.252  1.00  0.00    -0.207 F 
ATOM     26  C   UNL A   1      28.455  29.964  22.071  1.00  0.00     0.041 A 
ENDBRANCH  16  19
ENDBRANCH  10  15
ENDBRANCH   7   9
ENDBRANCH   6   7
ENDBRANCH   5   6
ENDBRANCH   4   5
ENDBRANCH   3   4
ENDBRANCH   2   3
ENDBRANCH   1   2
BRANCH   1  27
ATOM     27  O   UNL A   1      37.906  21.088  24.529  1.00  0.00    -0.376 OA
BRANCH  27  28
ATOM     28  C   UNL A   1      37.880  19.778  25.052  1.00  0.00     0.202 C 
BRANCH  28  29
ATOM     29  C   UNL A   1      39.189  19.216  25.631  1.00  0.00     0.261 C 
BRANCH  29  30
ATOM     30  O   UNL A   1      40.256  20.156  25.818  1.00  0.00    -0.460 OA
BRANCH  30  31
ATOM     31  C   UNL A   1      40.701  20.330  27.083  1.00  0.00     0.338 C 
ATOM     32  O   UNL A   1      41.050  19.454  27.866  1.00  0.00    -0.246 OA
BRANCH  31  33
ATOM     33  C   UNL A   1      40.882  21.775  27.318  1.00  0.00     0.060 A 
ATOM     34  C   UNL A   1      40.228  22.691  26.482  1.00  0.00     0.016 A 
ATOM     35  C   UNL A   1      41.703  22.222  28.355  1.00  0.00     0.016 A 
ATOM     36  C   UNL A   1      40.408  24.064  26.674  1.00  0.00     0.010 A 
ATOM     37  C   UNL A   1      41.891  23.593  28.535  1.00  0.00     0.010 A 
ATOM     38  C   UNL A   1      41.265  24.522  27.684  1.00  0.00    -0.014 A 
BRANCH  38  39
ATOM     39  C   UNL A   1      41.651  25.954  27.777  1.00  0.00     0.031 A 
ATOM     40  C   UNL A   1      42.963  26.382  27.177  1.00  0.00     0.074 A 
ATOM     41  C   UNL A   1      40.883  26.847  28.427  1.00  0.00     0.049 A 
ATOM     42  N   UNL A   1      43.593  27.522  27.276  1.00  0.00    -0.248 NA
ATOM     43  C   UNL A   1      43.663  25.371  26.369  1.00  0.00     0.031 C 
ATOM     44  C   UNL A   1      39.573  26.568  29.012  1.00  0.00     0.029 A 
ATOM     45  N   UNL A   1      41.110  28.167  28.727  1.00  0.00    -0.354 N 
ATOM     46  C   UNL A   1      44.777  27.362  26.562  1.00  0.00     0.074 A 
ATOM     47  C   UNL A   1      44.786  26.003  26.064  1.00  0.00     0.031 C 
ATOM     48  C   UNL A   1      39.120  27.680  29.616  1.00  0.00     0.029 A 
ATOM     49  C   UNL A   1      40.130  28.732  29.510  1.00  0.00     0.049 A 
ATOM     50  H   UNL A   1      41.901  28.664  28.412  1.00  0.00     0.167 HD
ATOM     51  C   UNL A   1      45.763  28.268  26.342  1.00  0.00     0.034 A 
ATOM     52  C   UNL A   1      40.073  29.943  30.104  1.00  0.00     0.034 A 
ATOM     53  C   UNL A   1      45.742  29.615  26.857  1.00  0.00     0.049 A 
ATOM     54  C   UNL A   1      41.228  30.904  29.925  1.00  0.00     0.074 A 
ATOM     55  C   UNL A   1      46.674  30.621  26.675  1.00  0.00     0.029 A 
ATOM     56  N   UNL A   1      44.746  30.141  27.672  1.00  0.00    -0.354 N 
ATOM     57  N   UNL A   1      42.340  30.748  29.242  1.00  0.00    -0.248 NA
ATOM     58  C   UNL A   1      41.119  32.205  30.599  1.00  0.00     0.031 C 
ATOM     59  C   UNL A   1      46.289  31.722  27.446  1.00  0.00     0.029 A 
ATOM     60  C   UNL A   1      45.064  31.443  28.032  1.00  0.00     0.049 A 
ATOM     61  H   UNL A   1      43.934  29.662  27.952  1.00  0.00     0.167 HD
ATOM     62  C   UNL A   1      43.038  31.948  29.371  1.00  0.00     0.074 A 
ATOM     63  C   UNL A   1      42.219  32.818  30.188  1.00  0.00     0.031 C 
ATOM     64  C   UNL A   1      44.243  32.303  28.853  1.00  0.00     0.034 A 
BRANCH  51  65
ATOM     65  C   UNL A   1      46.969  27.806  25.560  1.00  0.00     0.023 A 
ATOM     66  C   UNL A   1      47.149  28.138  24.205  1.00  0.00     0.031 A 
ATOM     67  C   UNL A   1      47.943  26.996  26.172  1.00  0.00     0.131 A 
ATOM     68  C   UNL A   1      48.231  27.602  23.490  1.00  0.00     0.055 A 
ATOM     69  C   UNL A   1      49.065  26.539  25.478  1.00  0.00     0.041 A 
ATOM     70  F   UNL A   1      47.814  26.623  27.454  1.00  0.00    -0.206 F 
ATOM     71  C   UNL A   1      49.205  26.828  24.124  1.00  0.00     0.022 A 
BRANCH  68  72
ATOM     72  S   UNL A   1      48.259  27.800  21.687  1.00  0.00     0.124 S 
ATOM     73  O   UNL A   1      48.571  26.442  21.245  1.00  0.00    -0.237 OA
ATOM     74  O   UNL A   1      46.910  28.271  21.399  1.00  0.00    -0.237 OA
ATOM     75  O   UNL A   1      49.323  28.778  21.466  1.00  0.00    -0.744 OA
ENDBRANCH  68  72
ENDBRANCH  51  65
BRANCH  52  76
ATOM     76  C   UNL A   1      38.910  30.317  30.961  1.00  0.00     0.023 A 
ATOM     77  C   UNL A   1      37.859  31.098  30.453  1.00  0.00     0.031 A 
ATOM     78  C   UNL A   1      38.863  29.959  32.320  1.00  0.00     0.131 A 
ATOM     79  C   UNL A   1      36.836  31.538  31.306  1.00  0.00     0.055 A 
ATOM     80  C   UNL A   1      37.809  30.345  33.151  1.00  0.00     0.041 A 
ATOM     81  F   UNL A   1      39.845  29.222  32.864  1.00  0.00    -0.206 F 
ATOM     82  C   UNL A   1      36.793  31.152  32.648  1.00  0.00     0.022 A 
BRANCH  79  83
ATOM     83  S   UNL A   1      35.613  32.713  30.660  1.00  0.00     0.124 S 
ATOM     84  O   UNL A   1      36.237  33.992  30.980  1.00  0.00    -0.237 OA
ATOM     85  O   UNL A   1      35.568  32.357  29.246  1.00  0.00    -0.237 OA
ATOM     86  O   UNL A   1      34.405  32.399  31.420  1.00  0.00    -0.744 OA
ENDBRANCH  79  83
ENDBRANCH  52  76
BRANCH  64  87
ATOM     87  C   UNL A   1      44.720  33.716  29.103  1.00  0.00     0.023 A 
ATOM     88  C   UNL A   1      44.191  34.818  28.410  1.00  0.00     0.031 A 
ATOM     89  C   UNL A   1      45.729  33.959  30.055  1.00  0.00     0.131 A 
ATOM     90  C   UNL A   1      44.712  36.103  28.635  1.00  0.00     0.055 A 
ATOM     91  C   UNL A   1      46.194  35.247  30.325  1.00  0.00     0.041 A 
ATOM     92  F   UNL A   1      46.276  32.945  30.745  1.00  0.00    -0.206 F 
ATOM     93  C   UNL A   1      45.695  36.326  29.603  1.00  0.00     0.022 A 
BRANCH  90  94
ATOM     94  S   UNL A   1      44.162  37.467  27.574  1.00  0.00     0.124 S 
ATOM     95  O   UNL A   1      43.524  38.361  28.534  1.00  0.00    -0.237 OA
ATOM     96  O   UNL A   1      45.416  37.940  26.998  1.00  0.00    -0.237 OA
ATOM     97  O   UNL A   1      43.252  36.820  26.629  1.00  0.00    -0.744 OA
ENDBRANCH  90  94
ENDBRANCH  64  87
ENDBRANCH  38  39
ENDBRANCH  31  33
ENDBRANCH  30  31
ENDBRANCH  29  30
ENDBRANCH  28  29
ENDBRANCH  27  28
ENDBRANCH   1  27
TORSDOF 22
ENDMDL
MODEL 2
REMARK VINA RESULT:     -10.8      2.666      3.858
REMARK SMILES Cc1cc(F)ccc1NC(=O)[C@H]1CC=CC[C@@H]1C(=O)OCCOCCOCCOC(=O)c1ccc(-c2c3nc(c(-c4cc(S(=O)(=O)[O-])ccc4F)c4ccc([nH]4)c(-c4cc(S(=O)(=O)[O-])ccc4F)c4nc(c(-c5cc(S(=O)(=O)[O-])ccc5F)c5ccc2[nH]5)C=C4)C=C3)cc1
REMARK SMILES IDX 25 1 24 2 23 3 22 4 21 5 20 6 18 7 19 8 17 9 12 10 13 11
REMARK SMILES IDX 14 12 16 13 15 14 10 15 9 16 11 18 8 19 1 20 2 21 3 22 4 23
REMARK SMILES IDX 7 24 5 25 6 26 26 27 27 28 28 29 29 30 30 31 31 32 32 33
REMARK SMILES IDX 33 34 94 35 34 36 93 37 35 38 36 39 37 40 87 41 38 42 92 43
REMARK SMILES IDX 86 44 88 45 39 46 91 47 85 48 84 49 40 51 72 52 52 53 71 54
REMARK SMILES IDX 53 55 56 56 70 57 89 58 54 59 55 60 69 62 90 63 57 64 41 65
REMARK SMILES IDX 42 66 50 67 43 68 49 69 51 70 48 71 44 72 45 73 46 74 47 75
REMARK SMILES IDX 73 76 74 77 82 78 75 79 81 80 83 81 80 82 76 83 77 84 78 85
REMARK SMILES IDX 79 86 58 87 59 88 67 89 60 90 66 91 68 92 65 93 61 94 62 95
REMARK SMILES IDX 63 96 64 97
REMARK H PARENT 9 17 88 50 56 61
REMARK Flexibility Score: inf
ROOT
ATOM      1  C   UNL A   1      36.364  23.135  23.712  1.00  0.00     0.188 C 
ENDROOT
BRANCH   1   2
ATOM      2  C   UNL A   1      34.929  23.189  23.146  1.00  0.00     0.188 C 
BRANCH   2   3
ATOM      3  O   UNL A   1      34.405  24.416  22.620  1.00  0.00    -0.376 OA
BRANCH   3   4
ATOM      4  C   UNL A   1      33.215  24.425  21.833  1.00  0.00     0.202 C 
BRANCH   4   5
ATOM      5  C   UNL A   1      32.703  25.785  21.346  1.00  0.00     0.261 C 
BRANCH   5   6
ATOM      6  O   UNL A   1      33.419  26.796  22.041  1.00  0.00    -0.463 OA
BRANCH   6   7
ATOM      7  C   UNL A   1      32.922  27.803  22.809  1.00  0.00     0.310 C 
ATOM      8  O   UNL A   1      32.747  28.955  22.472  1.00  0.00    -0.252 OA
BRANCH   7   9
ATOM      9  C   UNL A   1      32.652  27.123  24.158  1.00  0.00     0.116 C 
ATOM     10  C   UNL A   1      31.579  27.556  25.144  1.00  0.00     0.097 C 
ATOM     11  C   UNL A   1      31.759  29.052  25.477  1.00  0.00     0.041 C 
ATOM     12  C   UNL A   1      33.126  29.286  26.040  1.00  0.00    -0.030 C 
ATOM     13  C   UNL A   1      33.978  27.253  24.887  1.00  0.00     0.043 C 
ATOM     14  C   UNL A   1      34.124  28.427  25.803  1.00  0.00    -0.030 C 
BRANCH  10  15
ATOM     15  C   UNL A   1      31.374  26.737  26.500  1.00  0.00     0.228 C 
ATOM     16  N   UNL A   1      31.372  25.409  26.854  1.00  0.00    -0.326 N 
ATOM     17  H   UNL A   1      30.874  25.339  27.700  1.00  0.00     0.169 HD
ATOM     18  O   UNL A   1      31.034  27.449  27.473  1.00  0.00    -0.274 OA
BRANCH  16  19
ATOM     19  C   UNL A   1      31.793  24.084  26.504  1.00  0.00     0.044 A 
ATOM     20  C   UNL A   1      30.460  24.122  24.291  1.00  0.00     0.047 C 
ATOM     21  C   UNL A   1      31.498  23.560  25.225  1.00  0.00    -0.025 A 
ATOM     22  C   UNL A   1      32.112  22.356  24.784  1.00  0.00     0.044 A 
ATOM     23  C   UNL A   1      32.933  21.629  25.625  1.00  0.00     0.123 A 
ATOM     24  C   UNL A   1      32.371  23.160  27.382  1.00  0.00     0.029 A 
ATOM     25  F   UNL A   1      33.547  20.519  25.193  1.00  0.00    -0.207 F 
ATOM     26  C   UNL A   1      33.034  22.001  26.945  1.00  0.00     0.041 A 
ENDBRANCH  16  19
ENDBRANCH  10  15
ENDBRANCH   7   9
ENDBRANCH   6   7
ENDBRANCH   5   6
ENDBRANCH   4   5
ENDBRANCH   3   4
ENDBRANCH   2   3
ENDBRANCH   1   2
BRANCH   1  27
ATOM     27  O   UNL A   1      36.829  21.808  23.832  1.00  0.00    -0.376 OA
BRANCH  27  28
ATOM     28  C   UNL A   1      36.850  21.221  25.115  1.00  0.00     0.202 C 
BRANCH  28  29
ATOM     29  C   UNL A   1      38.189  20.660  25.621  1.00  0.00     0.261 C 
BRANCH  29  30
ATOM     30  O   UNL A   1      39.279  21.589  25.697  1.00  0.00    -0.460 OA
BRANCH  30  31
ATOM     31  C   UNL A   1      39.936  21.664  26.876  1.00  0.00     0.338 C 
ATOM     32  O   UNL A   1      40.447  20.736  27.492  1.00  0.00    -0.246 OA
BRANCH  31  33
ATOM     33  C   UNL A   1      40.111  23.087  27.222  1.00  0.00     0.060 A 
ATOM     34  C   UNL A   1      39.367  24.055  26.533  1.00  0.00     0.016 A 
ATOM     35  C   UNL A   1      41.014  23.463  28.219  1.00  0.00     0.016 A 
ATOM     36  C   UNL A   1      39.537  25.410  26.831  1.00  0.00     0.010 A 
ATOM     37  C   UNL A   1      41.192  24.818  28.503  1.00  0.00     0.010 A 
ATOM     38  C   UNL A   1      40.474  25.801  27.797  1.00  0.00    -0.014 A 
BRANCH  38  39
ATOM     39  C   UNL A   1      40.840  27.229  27.984  1.00  0.00     0.031 A 
ATOM     40  C   UNL A   1      42.259  27.645  27.710  1.00  0.00     0.074 A 
ATOM     41  C   UNL A   1      39.948  28.128  28.439  1.00  0.00     0.049 A 
ATOM     42  N   UNL A   1      42.859  28.779  27.958  1.00  0.00    -0.248 NA
ATOM     43  C   UNL A   1      43.120  26.629  27.085  1.00  0.00     0.031 C 
ATOM     44  C   UNL A   1      38.535  27.860  28.699  1.00  0.00     0.029 A 
ATOM     45  N   UNL A   1      40.111  29.446  28.789  1.00  0.00    -0.354 N 
ATOM     46  C   UNL A   1      44.176  28.609  27.541  1.00  0.00     0.074 A 
ATOM     47  C   UNL A   1      44.289  27.251  27.054  1.00  0.00     0.031 C 
ATOM     48  C   UNL A   1      37.963  28.976  29.185  1.00  0.00     0.029 A 
ATOM     49  C   UNL A   1      38.979  30.019  29.322  1.00  0.00     0.049 A 
ATOM     50  H   UNL A   1      40.957  29.935  28.670  1.00  0.00     0.167 HD
ATOM     51  C   UNL A   1      45.194  29.506  27.562  1.00  0.00     0.034 A 
ATOM     52  C   UNL A   1      38.795  31.229  29.891  1.00  0.00     0.034 A 
ATOM     53  C   UNL A   1      45.064  30.852  28.063  1.00  0.00     0.049 A 
ATOM     54  C   UNL A   1      39.969  32.179  29.992  1.00  0.00     0.074 A 
ATOM     55  C   UNL A   1      46.022  31.850  28.107  1.00  0.00     0.029 A 
ATOM     56  N   UNL A   1      43.910  31.387  28.623  1.00  0.00    -0.354 N 
ATOM     57  N   UNL A   1      41.208  32.014  29.587  1.00  0.00    -0.248 NA
ATOM     58  C   UNL A   1      39.716  33.481  30.625  1.00  0.00     0.031 C 
ATOM     59  C   UNL A   1      45.476  32.953  28.771  1.00  0.00     0.029 A 
ATOM     60  C   UNL A   1      44.146  32.685  29.052  1.00  0.00     0.049 A 
ATOM     61  H   UNL A   1      43.051  30.915  28.703  1.00  0.00     0.167 HD
ATOM     62  C   UNL A   1      41.867  33.208  29.881  1.00  0.00     0.074 A 
ATOM     63  C   UNL A   1      40.887  34.084  30.486  1.00  0.00     0.031 C 
ATOM     64  C   UNL A   1      43.163  33.551  29.661  1.00  0.00     0.034 A 
BRANCH  51  65
ATOM     65  C   UNL A   1      46.546  29.034  27.083  1.00  0.00     0.023 A 
ATOM     66  C   UNL A   1      46.785  28.710  25.735  1.00  0.00     0.031 A 
ATOM     67  C   UNL A   1      47.606  28.879  27.994  1.00  0.00     0.131 A 
ATOM     68  C   UNL A   1      48.026  28.176  25.354  1.00  0.00     0.055 A 
ATOM     69  C   UNL A   1      48.866  28.432  27.591  1.00  0.00     0.041 A 
ATOM     70  F   UNL A   1      47.431  29.146  29.297  1.00  0.00    -0.206 F 
ATOM     71  C   UNL A   1      49.077  28.062  26.266  1.00  0.00     0.022 A 
BRANCH  68  72
ATOM     72  S   UNL A   1      48.195  27.487  23.684  1.00  0.00     0.124 S 
ATOM     73  O   UNL A   1      47.149  28.209  22.960  1.00  0.00    -0.237 OA
ATOM     74  O   UNL A   1      49.567  27.834  23.335  1.00  0.00    -0.237 OA
ATOM     75  O   UNL A   1      47.939  26.061  23.873  1.00  0.00    -0.744 OA
ENDBRANCH  68  72
ENDBRANCH  51  65
BRANCH  52  76
ATOM     76  C   UNL A   1      37.467  31.613  30.452  1.00  0.00     0.023 A 
ATOM     77  C   UNL A   1      36.521  32.295  29.670  1.00  0.00     0.031 A 
ATOM     78  C   UNL A   1      37.148  31.365  31.799  1.00  0.00     0.131 A 
ATOM     79  C   UNL A   1      35.328  32.752  30.251  1.00  0.00     0.055 A 
ATOM     80  C   UNL A   1      35.931  31.764  32.357  1.00  0.00     0.041 A 
ATOM     81  F   UNL A   1      38.017  30.726  32.598  1.00  0.00    -0.206 F 
ATOM     82  C   UNL A   1      35.018  32.476  31.585  1.00  0.00     0.022 A 
BRANCH  79  83
ATOM     83  S   UNL A   1      34.231  33.807  29.264  1.00  0.00     0.124 S 
ATOM     84  O   UNL A   1      35.175  34.762  28.694  1.00  0.00    -0.237 OA
ATOM     85  O   UNL A   1      33.646  32.849  28.332  1.00  0.00    -0.237 OA
ATOM     86  O   UNL A   1      33.306  34.357  30.253  1.00  0.00    -0.744 OA
ENDBRANCH  79  83
ENDBRANCH  52  76
BRANCH  64  87
ATOM     87  C   UNL A   1      43.580  34.960  30.021  1.00  0.00     0.023 A 
ATOM     88  C   UNL A   1      44.037  35.300  31.306  1.00  0.00     0.031 A 
ATOM     89  C   UNL A   1      43.513  35.981  29.054  1.00  0.00     0.131 A 
ATOM     90  C   UNL A   1      44.354  36.635  31.606  1.00  0.00     0.055 A 
ATOM     91  C   UNL A   1      43.896  37.293  29.339  1.00  0.00     0.041 A 
ATOM     92  F   UNL A   1      43.080  35.719  27.810  1.00  0.00    -0.206 F 
ATOM     93  C   UNL A   1      44.305  37.629  30.625  1.00  0.00     0.022 A 
BRANCH  90  94
ATOM     94  S   UNL A   1      44.730  37.077  33.324  1.00  0.00     0.124 S 
ATOM     95  O   UNL A   1      46.167  36.832  33.393  1.00  0.00    -0.237 OA
ATOM     96  O   UNL A   1      44.319  38.476  33.384  1.00  0.00    -0.237 OA
ATOM     97  O   UNL A   1      43.906  36.155  34.105  1.00  0.00    -0.744 OA
ENDBRANCH  90  94
ENDBRANCH  64  87
ENDBRANCH  38  39
ENDBRANCH  31  33
ENDBRANCH  30  31
ENDBRANCH  29  30
ENDBRANCH  28  29
ENDBRANCH  27  28
ENDBRANCH   1  27
TORSDOF 22
ENDMDL
MODEL 3
REMARK VINA RESULT:     -10.3      5.699     11.342
REMARK SMILES Cc1cc(F)ccc1NC(=O)[C@H]1CC=CC[C@@H]1C(=O)OCCOCCOCCOC(=O)c1ccc(-c2c3nc(c(-c4cc(S(=O)(=O)[O-])ccc4F)c4ccc([nH]4)c(-c4cc(S(=O)(=O)[O-])ccc4F)c4nc(c(-c5cc(S(=O)(=O)[O-])ccc5F)c5ccc2[nH]5)C=C4)C=C3)cc1
REMARK SMILES IDX 25 1 24 2 23 3 22 4 21 5 20 6 18 7 19 8 17 9 12 10 13 11
REMARK SMILES IDX 14 12 16 13 15 14 10 15 9 16 11 18 8 19 1 20 2 21 3 22 4 23
REMARK SMILES IDX 7 24 5 25 6 26 26 27 27 28 28 29 29 30 30 31 31 32 32 33
REMARK SMILES IDX 33 34 94 35 34 36 93 37 35 38 36 39 37 40 87 41 38 42 92 43
REMARK SMILES IDX 86 44 88 45 39 46 91 47 85 48 84 49 40 51 72 52 52 53 71 54
REMARK SMILES IDX 53 55 56 56 70 57 89 58 54 59 55 60 69 62 90 63 57 64 41 65
REMARK SMILES IDX 42 66 50 67 43 68 49 69 51 70 48 71 44 72 45 73 46 74 47 75
REMARK SMILES IDX 73 76 74 77 82 78 75 79 81 80 83 81 80 82 76 83 77 84 78 85
REMARK SMILES IDX 79 86 58 87 59 88 67 89 60 90 66 91 68 92 65 93 61 94 62 95
REMARK SMILES IDX 63 96 64 97
REMARK H PARENT 9 17 88 50 56 61
REMARK Flexibility Score: inf
ROOT
ATOM      1  C   UNL A   1      35.305  32.860  28.129  1.00  0.00     0.188 C 
ENDROOT
BRANCH   1   2
ATOM      2  C   UNL A   1      34.515  31.538  28.241  1.00  0.00     0.188 C 
BRANCH   2   3
ATOM      3  O   UNL A   1      33.339  31.330  27.447  1.00  0.00    -0.376 OA
BRANCH   3   4
ATOM      4  C   UNL A   1      32.958  30.018  27.035  1.00  0.00     0.202 C 
BRANCH   4   5
ATOM      5  C   UNL A   1      34.055  29.110  26.470  1.00  0.00     0.261 C 
BRANCH   5   6
ATOM      6  O   UNL A   1      33.704  27.765  26.765  1.00  0.00    -0.463 OA
BRANCH   6   7
ATOM      7  C   UNL A   1      32.538  27.119  26.489  1.00  0.00     0.310 C 
ATOM      8  O   UNL A   1      31.490  27.222  27.092  1.00  0.00    -0.252 OA
BRANCH   7   9
ATOM      9  C   UNL A   1      32.887  26.262  25.265  1.00  0.00     0.116 C 
ATOM     10  C   UNL A   1      33.182  26.814  23.880  1.00  0.00     0.097 C 
ATOM     11  C   UNL A   1      32.011  27.710  23.422  1.00  0.00     0.041 C 
ATOM     12  C   UNL A   1      30.738  26.921  23.423  1.00  0.00    -0.030 C 
ATOM     13  C   UNL A   1      31.677  25.357  25.116  1.00  0.00     0.043 C 
ATOM     14  C   UNL A   1      30.614  25.815  24.166  1.00  0.00    -0.030 C 
BRANCH  10  15
ATOM     15  C   UNL A   1      33.571  25.814  22.696  1.00  0.00     0.228 C 
ATOM     16  N   UNL A   1      33.907  24.484  22.606  1.00  0.00    -0.326 N 
ATOM     17  H   UNL A   1      34.396  24.370  21.759  1.00  0.00     0.169 HD
ATOM     18  O   UNL A   1      33.706  26.375  21.585  1.00  0.00    -0.274 OA
BRANCH  16  19
ATOM     19  C   UNL A   1      33.842  23.196  23.231  1.00  0.00     0.044 A 
ATOM     20  C   UNL A   1      36.409  23.064  23.488  1.00  0.00     0.047 C 
ATOM     21  C   UNL A   1      35.004  22.619  23.792  1.00  0.00    -0.025 A 
ATOM     22  C   UNL A   1      34.906  21.467  24.618  1.00  0.00     0.044 A 
ATOM     23  C   UNL A   1      33.692  20.836  24.815  1.00  0.00     0.123 A 
ATOM     24  C   UNL A   1      32.728  22.347  23.222  1.00  0.00     0.029 A 
ATOM     25  F   UNL A   1      33.593  19.777  25.630  1.00  0.00    -0.207 F 
ATOM     26  C   UNL A   1      32.601  21.244  24.083  1.00  0.00     0.041 A 
ENDBRANCH  16  19
ENDBRANCH  10  15
ENDBRANCH   7   9
ENDBRANCH   6   7
ENDBRANCH   5   6
ENDBRANCH   4   5
ENDBRANCH   3   4
ENDBRANCH   2   3
ENDBRANCH   1   2
BRANCH   1  27
ATOM     27  O   UNL A   1      34.580  33.844  27.424  1.00  0.00    -0.376 OA
BRANCH  27  28
ATOM     28  C   UNL A   1      34.303  35.065  28.075  1.00  0.00     0.202 C 
BRANCH  28  29
ATOM     29  C   UNL A   1      33.095  35.109  29.025  1.00  0.00     0.261 C 
BRANCH  29  30
ATOM     30  O   UNL A   1      33.138  36.099  30.062  1.00  0.00    -0.460 OA
BRANCH  30  31
ATOM     31  C   UNL A   1      33.028  35.656  31.335  1.00  0.00     0.338 C 
ATOM     32  O   UNL A   1      32.093  35.849  32.101  1.00  0.00    -0.246 OA
BRANCH  31  33
ATOM     33  C   UNL A   1      34.144  34.728  31.601  1.00  0.00     0.060 A 
ATOM     34  C   UNL A   1      33.869  33.468  32.151  1.00  0.00     0.016 A 
ATOM     35  C   UNL A   1      35.457  35.107  31.317  1.00  0.00     0.016 A 
ATOM     36  C   UNL A   1      34.916  32.585  32.433  1.00  0.00     0.010 A 
ATOM     37  C   UNL A   1      36.501  34.228  31.613  1.00  0.00     0.010 A 
ATOM     38  C   UNL A   1      36.241  32.973  32.194  1.00  0.00    -0.014 A 
BRANCH  38  39
ATOM     39  C   UNL A   1      37.384  32.158  32.681  1.00  0.00     0.031 A 
ATOM     40  C   UNL A   1      38.031  32.540  33.985  1.00  0.00     0.074 A 
ATOM     41  C   UNL A   1      37.874  31.135  31.958  1.00  0.00     0.049 A 
ATOM     42  N   UNL A   1      39.132  32.098  34.531  1.00  0.00    -0.248 NA
ATOM     43  C   UNL A   1      37.341  33.578  34.767  1.00  0.00     0.031 C 
ATOM     44  C   UNL A   1      37.311  30.639  30.704  1.00  0.00     0.029 A 
ATOM     45  N   UNL A   1      38.978  30.345  32.166  1.00  0.00    -0.354 N 
ATOM     46  C   UNL A   1      39.284  32.819  35.711  1.00  0.00     0.074 A 
ATOM     47  C   UNL A   1      38.175  33.746  35.782  1.00  0.00     0.031 C 
ATOM     48  C   UNL A   1      38.084  29.639  30.245  1.00  0.00     0.029 A 
ATOM     49  C   UNL A   1      39.225  29.462  31.141  1.00  0.00     0.049 A 
ATOM     50  H   UNL A   1      39.540  30.405  32.973  1.00  0.00     0.167 HD
ATOM     51  C   UNL A   1      40.258  32.713  36.649  1.00  0.00     0.034 A 
ATOM     52  C   UNL A   1      40.272  28.635  30.931  1.00  0.00     0.034 A 
ATOM     53  C   UNL A   1      41.363  31.791  36.555  1.00  0.00     0.049 A 
ATOM     54  C   UNL A   1      41.397  28.602  31.942  1.00  0.00     0.074 A 
ATOM     55  C   UNL A   1      42.391  31.583  37.459  1.00  0.00     0.029 A 
ATOM     56  N   UNL A   1      41.597  30.933  35.487  1.00  0.00    -0.354 N 
ATOM     57  N   UNL A   1      41.529  29.280  33.060  1.00  0.00    -0.248 NA
ATOM     58  C   UNL A   1      42.515  27.690  31.662  1.00  0.00     0.031 C 
ATOM     59  C   UNL A   1      43.289  30.669  36.899  1.00  0.00     0.029 A 
ATOM     60  C   UNL A   1      42.773  30.226  35.692  1.00  0.00     0.049 A 
ATOM     61  H   UNL A   1      41.014  30.839  34.700  1.00  0.00     0.167 HD
ATOM     62  C   UNL A   1      42.722  28.842  33.633  1.00  0.00     0.074 A 
ATOM     63  C   UNL A   1      43.265  27.838  32.744  1.00  0.00     0.031 C 
ATOM     64  C   UNL A   1      43.311  29.229  34.795  1.00  0.00     0.034 A 
BRANCH  51  65
ATOM     65  C   UNL A   1      40.199  33.661  37.823  1.00  0.00     0.023 A 
ATOM     66  C   UNL A   1      40.959  34.844  37.862  1.00  0.00     0.031 A 
ATOM     67  C   UNL A   1      39.390  33.364  38.934  1.00  0.00     0.131 A 
ATOM     68  C   UNL A   1      40.952  35.643  39.016  1.00  0.00     0.055 A 
ATOM     69  C   UNL A   1      39.319  34.209  40.043  1.00  0.00     0.041 A 
ATOM     70  F   UNL A   1      38.663  32.236  38.968  1.00  0.00    -0.206 F 
ATOM     71  C   UNL A   1      40.116  35.349  40.095  1.00  0.00     0.022 A 
BRANCH  68  72
ATOM     72  S   UNL A   1      42.169  36.982  39.148  1.00  0.00     0.124 S 
ATOM     73  O   UNL A   1      41.316  38.125  39.469  1.00  0.00    -0.237 OA
ATOM     74  O   UNL A   1      43.039  36.514  40.221  1.00  0.00    -0.237 OA
ATOM     75  O   UNL A   1      42.779  37.023  37.821  1.00  0.00    -0.744 OA
ENDBRANCH  68  72
ENDBRANCH  51  65
BRANCH  52  76
ATOM     76  C   UNL A   1      40.344  27.795  29.699  1.00  0.00     0.023 A 
ATOM     77  C   UNL A   1      41.210  28.129  28.646  1.00  0.00     0.031 A 
ATOM     78  C   UNL A   1      39.498  26.685  29.525  1.00  0.00     0.131 A 
ATOM     79  C   UNL A   1      41.175  27.397  27.449  1.00  0.00     0.055 A 
ATOM     80  C   UNL A   1      39.512  25.919  28.358  1.00  0.00     0.041 A 
ATOM     81  F   UNL A   1      38.641  26.325  30.495  1.00  0.00    -0.206 F 
ATOM     82  C   UNL A   1      40.345  26.282  27.304  1.00  0.00     0.022 A 
BRANCH  79  83
ATOM     83  S   UNL A   1      42.157  27.986  26.042  1.00  0.00     0.124 S 
ATOM     84  O   UNL A   1      43.497  28.032  26.617  1.00  0.00    -0.237 OA
ATOM     85  O   UNL A   1      41.920  26.944  25.049  1.00  0.00    -0.237 OA
ATOM     86  O   UNL A   1      41.564  29.286  25.733  1.00  0.00    -0.744 OA
ENDBRANCH  79  83
ENDBRANCH  52  76
BRANCH  64  87
ATOM     87  C   UNL A   1      44.582  28.516  35.202  1.00  0.00     0.023 A 
ATOM     88  C   UNL A   1      44.566  27.329  35.954  1.00  0.00     0.031 A 
ATOM     89  C   UNL A   1      45.833  29.044  34.830  1.00  0.00     0.131 A 
ATOM     90  C   UNL A   1      45.775  26.740  36.359  1.00  0.00     0.055 A 
ATOM     91  C   UNL A   1      47.030  28.416  35.176  1.00  0.00     0.041 A 
ATOM     92  F   UNL A   1      45.912  30.178  34.116  1.00  0.00    -0.206 F 
ATOM     93  C   UNL A   1      47.006  27.265  35.957  1.00  0.00     0.022 A 
BRANCH  90  94
ATOM     94  S   UNL A   1      45.721  25.336  37.505  1.00  0.00     0.124 S 
ATOM     95  O   UNL A   1      44.286  25.113  37.646  1.00  0.00    -0.237 OA
ATOM     96  O   UNL A   1      46.457  24.308  36.777  1.00  0.00    -0.237 OA
ATOM     97  O   UNL A   1      46.389  25.845  38.702  1.00  0.00    -0.744 OA
ENDBRANCH  90  94
ENDBRANCH  64  87
ENDBRANCH  38  39
ENDBRANCH  31  33
ENDBRANCH  30  31
ENDBRANCH  29  30
ENDBRANCH  28  29
ENDBRANCH  27  28
ENDBRANCH   1  27
TORSDOF 22
ENDMDL
