MODEL 1
REMARK VINA RESULT:      -9.5      0.000      0.000
REMARK SMILES CCOc1cnc(C(=O)c2[nH]c3cc(Cl)ccc3c2CC(=O)OCCOCCOCCOC(=O)c2ccc(-c3c4nc(c(-c5cc(S(=O)(=O)[O-])ccc5F)c5ccc([nH]5)c(-c5cc(S(=O)(=O)[O-])ccc5F)c5nc(c(-c6cc(S(=O)(=O)[O-])ccc6F)c6ccc3[nH]6)C=C5)C=C4)cc2)cc1CC
REMARK SMILES IDX 27 1 26 2 25 3 24 4 23 5 21 6 22 7 20 8 19 9 10 10 11 11
REMARK SMILES IDX 12 12 18 14 13 15 17 16 14 17 16 18 15 19 8 20 9 21 7 22
REMARK SMILES IDX 4 23 5 24 99 25 6 26 98 27 3 28 2 29 1 30 100 31 101 32
REMARK SMILES IDX 28 33 29 34 30 35 31 36 32 37 33 38 34 39 35 40 36 41 97 42
REMARK SMILES IDX 37 43 96 44 38 45 39 46 40 47 90 48 41 49 95 50 89 51 91 52
REMARK SMILES IDX 42 53 94 54 88 55 87 56 43 58 75 59 55 60 74 61 56 62 59 63
REMARK SMILES IDX 73 64 92 65 57 66 58 67 72 69 93 70 60 71 44 72 45 73 53 74
REMARK SMILES IDX 46 75 52 76 54 77 51 78 47 79 48 80 49 81 50 82 76 83 77 84
REMARK SMILES IDX 85 85 78 86 84 87 86 88 83 89 79 90 80 91 81 92 82 93 61 94
REMARK SMILES IDX 62 95 70 96 63 97 69 98 71 99 68 100 64 101 65 102 66 103
REMARK SMILES IDX 67 104
REMARK H PARENT 11 13 91 57 59 68
REMARK Flexibility Score: inf
ROOT
ATOM      1  C   UNL A   1      41.980  19.225  26.399  1.00  0.00     0.188 C 
ENDROOT
BRANCH   1   2
ATOM      2  O   UNL A   1      40.775  19.150  25.645  1.00  0.00    -0.376 OA
BRANCH   2   3
ATOM      3  C   UNL A   1      39.785  20.139  25.887  1.00  0.00     0.202 C 
BRANCH   3   4
ATOM      4  C   UNL A   1      38.396  19.839  25.324  1.00  0.00     0.261 C 
BRANCH   4   5
ATOM      5  O   UNL A   1      37.811  20.971  24.635  1.00  0.00    -0.463 OA
BRANCH   5   6
ATOM      6  C   UNL A   1      36.674  21.461  25.192  1.00  0.00     0.310 C 
ATOM      7  O   UNL A   1      36.642  21.954  26.320  1.00  0.00    -0.252 OA
BRANCH   6   8
ATOM      8  C   UNL A   1      35.405  21.358  24.369  1.00  0.00     0.161 C 
BRANCH   8   9
ATOM      9  C   UNL A   1      34.216  20.554  24.847  1.00  0.00     0.000 A 
ATOM     10  C   UNL A   1      33.209  20.970  25.729  1.00  0.00     0.093 A 
ATOM     11  N   UNL A   1      32.329  19.920  25.864  1.00  0.00    -0.351 N 
ATOM     12  C   UNL A   1      32.911  18.762  25.420  1.00  0.00     0.048 A 
ATOM     13  H   UNL A   1      31.417  19.992  26.227  1.00  0.00     0.167 HD
ATOM     14  C   UNL A   1      34.076  19.128  24.745  1.00  0.00     0.004 A 
ATOM     15  C   UNL A   1      32.507  17.434  25.595  1.00  0.00     0.047 A 
ATOM     16  C   UNL A   1      34.886  18.103  24.214  1.00  0.00     0.012 A 
ATOM     17  C   UNL A   1      33.358  16.443  25.105  1.00  0.00     0.043 A 
ATOM     18  C   UNL A   1      34.528  16.763  24.423  1.00  0.00     0.021 A 
ATOM     19  Cl  UNL A   1      32.964  14.787  25.382  1.00  0.00    -0.084 Cl
BRANCH  10  20
ATOM     20  C   UNL A   1      33.052  22.256  26.384  1.00  0.00     0.227 C 
ATOM     21  O   UNL A   1      33.555  22.477  27.484  1.00  0.00    -0.285 OA
BRANCH  20  22
ATOM     22  C   UNL A   1      32.249  23.340  25.723  1.00  0.00     0.113 A 
ATOM     23  C   UNL A   1      31.120  25.328  24.220  1.00  0.00     0.140 A 
ATOM     24  C   UNL A   1      31.271  24.040  23.752  1.00  0.00     0.158 A 
ATOM     25  C   UNL A   1      31.379  25.576  25.567  1.00  0.00    -0.002 A 
ATOM     26  N   UNL A   1      31.807  23.040  24.484  1.00  0.00    -0.249 NA
ATOM     27  C   UNL A   1      32.016  24.574  26.320  1.00  0.00     0.040 A 
BRANCH  23  28
ATOM     28  O   UNL A   1      30.687  26.315  23.387  1.00  0.00    -0.492 OA
BRANCH  28  29
ATOM     29  C   UNL A   1      31.568  26.464  22.253  1.00  0.00     0.226 C 
ATOM     30  C   UNL A   1      32.583  27.568  22.500  1.00  0.00     0.049 C 
ENDBRANCH  28  29
ENDBRANCH  23  28
BRANCH  25  31
ATOM     31  C   UNL A   1      30.903  26.846  26.223  1.00  0.00     0.036 C 
ATOM     32  C   UNL A   1      31.967  27.929  26.092  1.00  0.00     0.009 C 
ENDBRANCH  25  31
ENDBRANCH  20  22
ENDBRANCH  10  20
ENDBRANCH   8   9
ENDBRANCH   6   8
ENDBRANCH   5   6
ENDBRANCH   4   5
ENDBRANCH   3   4
ENDBRANCH   2   3
ENDBRANCH   1   2
BRANCH   1  33
ATOM     33  C   UNL A   1      43.302  18.827  25.711  1.00  0.00     0.188 C 
BRANCH  33  34
ATOM     34  O   UNL A   1      43.728  19.557  24.565  1.00  0.00    -0.376 OA
BRANCH  34  35
ATOM     35  C   UNL A   1      44.997  20.195  24.644  1.00  0.00     0.202 C 
BRANCH  35  36
ATOM     36  C   UNL A   1      45.041  21.383  25.598  1.00  0.00     0.261 C 
BRANCH  36  37
ATOM     37  O   UNL A   1      44.523  22.564  24.960  1.00  0.00    -0.460 OA
BRANCH  37  38
ATOM     38  C   UNL A   1      43.256  22.875  25.321  1.00  0.00     0.338 C 
ATOM     39  O   UNL A   1      42.238  22.327  24.931  1.00  0.00    -0.246 OA
BRANCH  38  40
ATOM     40  C   UNL A   1      43.228  24.005  26.268  1.00  0.00     0.060 A 
ATOM     41  C   UNL A   1      44.366  24.776  26.472  1.00  0.00     0.016 A 
ATOM     42  C   UNL A   1      42.154  24.123  27.145  1.00  0.00     0.016 A 
ATOM     43  C   UNL A   1      44.506  25.520  27.648  1.00  0.00     0.010 A 
ATOM     44  C   UNL A   1      42.255  24.959  28.265  1.00  0.00     0.010 A 
ATOM     45  C   UNL A   1      43.465  25.603  28.580  1.00  0.00    -0.014 A 
BRANCH  45  46
ATOM     46  C   UNL A   1      43.662  26.257  29.913  1.00  0.00     0.031 A 
ATOM     47  C   UNL A   1      43.413  27.743  30.081  1.00  0.00     0.074 A 
ATOM     48  C   UNL A   1      44.030  25.534  30.993  1.00  0.00     0.049 A 
ATOM     49  N   UNL A   1      43.674  28.524  31.099  1.00  0.00    -0.248 NA
ATOM     50  C   UNL A   1      42.766  28.443  28.958  1.00  0.00     0.031 C 
ATOM     51  C   UNL A   1      44.201  24.080  31.025  1.00  0.00     0.029 A 
ATOM     52  N   UNL A   1      44.344  25.927  32.274  1.00  0.00    -0.354 N 
ATOM     53  C   UNL A   1      43.244  29.798  30.736  1.00  0.00     0.074 A 
ATOM     54  C   UNL A   1      42.714  29.693  29.395  1.00  0.00     0.031 C 
ATOM     55  C   UNL A   1      44.578  23.705  32.256  1.00  0.00     0.029 A 
ATOM     56  C   UNL A   1      44.800  24.895  33.065  1.00  0.00     0.049 A 
ATOM     57  H   UNL A   1      44.251  26.853  32.593  1.00  0.00     0.167 HD
ATOM     58  C   UNL A   1      43.297  30.954  31.445  1.00  0.00     0.034 A 
ATOM     59  C   UNL A   1      45.413  24.902  34.267  1.00  0.00     0.034 A 
ATOM     60  C   UNL A   1      43.887  31.063  32.756  1.00  0.00     0.049 A 
ATOM     61  C   UNL A   1      45.659  26.223  34.946  1.00  0.00     0.074 A 
ATOM     62  C   UNL A   1      44.052  32.194  33.538  1.00  0.00     0.029 A 
ATOM     63  N   UNL A   1      44.442  30.008  33.468  1.00  0.00    -0.354 N 
ATOM     64  N   UNL A   1      45.297  27.428  34.567  1.00  0.00    -0.248 NA
ATOM     65  C   UNL A   1      46.410  26.187  36.207  1.00  0.00     0.031 C 
ATOM     66  C   UNL A   1      44.785  31.838  34.676  1.00  0.00     0.029 A 
ATOM     67  C   UNL A   1      44.997  30.470  34.652  1.00  0.00     0.049 A 
ATOM     68  H   UNL A   1      44.440  29.068  33.174  1.00  0.00     0.167 HD
ATOM     69  C   UNL A   1      45.762  28.290  35.556  1.00  0.00     0.074 A 
ATOM     70  C   UNL A   1      46.411  27.465  36.555  1.00  0.00     0.031 C 
ATOM     71  C   UNL A   1      45.659  29.642  35.632  1.00  0.00     0.034 A 
BRANCH  58  72
ATOM     72  C   UNL A   1      42.792  32.209  30.772  1.00  0.00     0.023 A 
ATOM     73  C   UNL A   1      43.608  32.992  29.937  1.00  0.00     0.031 A 
ATOM     74  C   UNL A   1      41.469  32.635  30.987  1.00  0.00     0.131 A 
ATOM     75  C   UNL A   1      43.106  34.183  29.385  1.00  0.00     0.055 A 
ATOM     76  C   UNL A   1      40.957  33.787  30.388  1.00  0.00     0.041 A 
ATOM     77  F   UNL A   1      40.651  31.940  31.795  1.00  0.00    -0.206 F 
ATOM     78  C   UNL A   1      41.780  34.575  29.588  1.00  0.00     0.022 A 
BRANCH  75  79
ATOM     79  S   UNL A   1      44.240  35.276  28.483  1.00  0.00     0.124 S 
ATOM     80  O   UNL A   1      43.985  36.561  29.129  1.00  0.00    -0.237 OA
ATOM     81  O   UNL A   1      45.541  34.673  28.756  1.00  0.00    -0.237 OA
ATOM     82  O   UNL A   1      43.785  35.179  27.099  1.00  0.00    -0.744 OA
ENDBRANCH  75  79
ENDBRANCH  58  72
BRANCH  59  83
ATOM     83  C   UNL A   1      45.950  23.632  34.844  1.00  0.00     0.023 A 
ATOM     84  C   UNL A   1      47.273  23.226  34.621  1.00  0.00     0.031 A 
ATOM     85  C   UNL A   1      45.119  22.779  35.598  1.00  0.00     0.131 A 
ATOM     86  C   UNL A   1      47.717  21.989  35.118  1.00  0.00     0.055 A 
ATOM     87  C   UNL A   1      45.584  21.585  36.147  1.00  0.00     0.041 A 
ATOM     88  F   UNL A   1      43.836  23.105  35.827  1.00  0.00    -0.206 F 
ATOM     89  C   UNL A   1      46.890  21.178  35.898  1.00  0.00     0.022 A 
BRANCH  86  90
ATOM     90  S   UNL A   1      49.370  21.405  34.649  1.00  0.00     0.124 S 
ATOM     91  O   UNL A   1      49.056  20.189  33.908  1.00  0.00    -0.237 OA
ATOM     92  O   UNL A   1      49.875  22.525  33.860  1.00  0.00    -0.237 OA
ATOM     93  O   UNL A   1      50.036  21.199  35.933  1.00  0.00    -0.744 OA
ENDBRANCH  86  90
ENDBRANCH  59  83
BRANCH  71  94
ATOM     94  C   UNL A   1      46.227  30.301  36.865  1.00  0.00     0.023 A 
ATOM     95  C   UNL A   1      45.472  30.442  38.042  1.00  0.00     0.031 A 
ATOM     96  C   UNL A   1      47.534  30.820  36.850  1.00  0.00     0.131 A 
ATOM     97  C   UNL A   1      46.009  31.140  39.134  1.00  0.00     0.055 A 
ATOM     98  C   UNL A   1      48.086  31.455  37.962  1.00  0.00     0.041 A 
ATOM     99  F   UNL A   1      48.298  30.716  35.750  1.00  0.00    -0.206 F 
ATOM    100  C   UNL A   1      47.316  31.632  39.109  1.00  0.00     0.022 A 
BRANCH  97 101
ATOM    101  S   UNL A   1      44.937  31.488  40.555  1.00  0.00     0.124 S 
ATOM    102  O   UNL A   1      44.350  30.179  40.820  1.00  0.00    -0.237 OA
ATOM    103  O   UNL A   1      45.885  31.975  41.551  1.00  0.00    -0.237 OA
ATOM    104  O   UNL A   1      44.006  32.494  40.045  1.00  0.00    -0.744 OA
ENDBRANCH  97 101
ENDBRANCH  71  94
ENDBRANCH  45  46
ENDBRANCH  38  40
ENDBRANCH  37  38
ENDBRANCH  36  37
ENDBRANCH  35  36
ENDBRANCH  34  35
ENDBRANCH  33  34
ENDBRANCH   1  33
TORSDOF 26
ENDMDL
MODEL 2
REMARK VINA RESULT:      -9.4      5.687      8.074
REMARK SMILES CCOc1cnc(C(=O)c2[nH]c3cc(Cl)ccc3c2CC(=O)OCCOCCOCCOC(=O)c2ccc(-c3c4nc(c(-c5cc(S(=O)(=O)[O-])ccc5F)c5ccc([nH]5)c(-c5cc(S(=O)(=O)[O-])ccc5F)c5nc(c(-c6cc(S(=O)(=O)[O-])ccc6F)c6ccc3[nH]6)C=C5)C=C4)cc2)cc1CC
REMARK SMILES IDX 27 1 26 2 25 3 24 4 23 5 21 6 22 7 20 8 19 9 10 10 11 11
REMARK SMILES IDX 12 12 18 14 13 15 17 16 14 17 16 18 15 19 8 20 9 21 7 22
REMARK SMILES IDX 4 23 5 24 99 25 6 26 98 27 3 28 2 29 1 30 100 31 101 32
REMARK SMILES IDX 28 33 29 34 30 35 31 36 32 37 33 38 34 39 35 40 36 41 97 42
REMARK SMILES IDX 37 43 96 44 38 45 39 46 40 47 90 48 41 49 95 50 89 51 91 52
REMARK SMILES IDX 42 53 94 54 88 55 87 56 43 58 75 59 55 60 74 61 56 62 59 63
REMARK SMILES IDX 73 64 92 65 57 66 58 67 72 69 93 70 60 71 44 72 45 73 53 74
REMARK SMILES IDX 46 75 52 76 54 77 51 78 47 79 48 80 49 81 50 82 76 83 77 84
REMARK SMILES IDX 85 85 78 86 84 87 86 88 83 89 79 90 80 91 81 92 82 93 61 94
REMARK SMILES IDX 62 95 70 96 63 97 69 98 71 99 68 100 64 101 65 102 66 103
REMARK SMILES IDX 67 104
REMARK H PARENT 11 13 91 57 59 68
REMARK Flexibility Score: inf
ROOT
ATOM      1  C   UNL A   1      37.280  21.885  24.993  1.00  0.00     0.188 C 
ENDROOT
BRANCH   1   2
ATOM      2  O   UNL A   1      36.596  22.992  25.568  1.00  0.00    -0.376 OA
BRANCH   2   3
ATOM      3  C   UNL A   1      35.398  23.425  24.940  1.00  0.00     0.202 C 
BRANCH   3   4
ATOM      4  C   UNL A   1      34.659  24.567  25.637  1.00  0.00     0.261 C 
BRANCH   4   5
ATOM      5  O   UNL A   1      34.479  25.723  24.785  1.00  0.00    -0.463 OA
BRANCH   5   6
ATOM      6  C   UNL A   1      33.818  26.763  25.353  1.00  0.00     0.310 C 
ATOM      7  O   UNL A   1      34.156  27.937  25.193  1.00  0.00    -0.252 OA
BRANCH   6   8
ATOM      8  C   UNL A   1      32.633  26.427  26.236  1.00  0.00     0.161 C 
BRANCH   8   9
ATOM      9  C   UNL A   1      31.224  26.381  25.685  1.00  0.00     0.000 A 
ATOM     10  C   UNL A   1      30.367  25.274  25.640  1.00  0.00     0.093 A 
ATOM     11  N   UNL A   1      29.188  25.697  25.072  1.00  0.00    -0.351 N 
ATOM     12  C   UNL A   1      29.380  26.891  24.428  1.00  0.00     0.048 A 
ATOM     13  H   UNL A   1      28.332  25.212  25.120  1.00  0.00     0.167 HD
ATOM     14  C   UNL A   1      30.632  27.365  24.822  1.00  0.00     0.004 A 
ATOM     15  C   UNL A   1      28.556  27.558  23.515  1.00  0.00     0.047 A 
ATOM     16  C   UNL A   1      31.087  28.579  24.268  1.00  0.00     0.012 A 
ATOM     17  C   UNL A   1      29.059  28.728  22.945  1.00  0.00     0.043 A 
ATOM     18  C   UNL A   1      30.302  29.238  23.311  1.00  0.00     0.021 A 
ATOM     19  Cl  UNL A   1      28.134  29.538  21.737  1.00  0.00    -0.084 Cl
BRANCH  10  20
ATOM     20  C   UNL A   1      30.607  23.921  26.111  1.00  0.00     0.227 C 
ATOM     21  O   UNL A   1      30.162  23.533  27.190  1.00  0.00    -0.285 OA
BRANCH  20  22
ATOM     22  C   UNL A   1      31.426  22.974  25.282  1.00  0.00     0.113 A 
ATOM     23  C   UNL A   1      32.527  21.133  23.582  1.00  0.00     0.140 A 
ATOM     24  C   UNL A   1      31.958  22.308  23.137  1.00  0.00     0.158 A 
ATOM     25  C   UNL A   1      32.714  20.969  24.955  1.00  0.00    -0.002 A 
ATOM     26  N   UNL A   1      31.428  23.238  23.959  1.00  0.00    -0.249 NA
ATOM     27  C   UNL A   1      32.094  21.882  25.826  1.00  0.00     0.040 A 
BRANCH  23  28
ATOM     28  O   UNL A   1      32.931  20.185  22.693  1.00  0.00    -0.492 OA
BRANCH  28  29
ATOM     29  C   UNL A   1      31.927  19.160  22.531  1.00  0.00     0.226 C 
ATOM     30  C   UNL A   1      32.570  17.792  22.378  1.00  0.00     0.049 C 
ENDBRANCH  28  29
ENDBRANCH  23  28
BRANCH  25  31
ATOM     31  C   UNL A   1      33.633  19.901  25.486  1.00  0.00     0.036 C 
ATOM     32  C   UNL A   1      32.823  18.677  25.896  1.00  0.00     0.009 C 
ENDBRANCH  25  31
ENDBRANCH  20  22
ENDBRANCH  10  20
ENDBRANCH   8   9
ENDBRANCH   6   8
ENDBRANCH   5   6
ENDBRANCH   4   5
ENDBRANCH   3   4
ENDBRANCH   2   3
ENDBRANCH   1   2
BRANCH   1  33
ATOM     33  C   UNL A   1      38.498  21.304  25.742  1.00  0.00     0.188 C 
BRANCH  33  34
ATOM     34  O   UNL A   1      39.467  22.199  26.278  1.00  0.00    -0.376 OA
BRANCH  34  35
ATOM     35  C   UNL A   1      40.405  21.656  27.198  1.00  0.00     0.202 C 
BRANCH  35  36
ATOM     36  C   UNL A   1      41.063  20.363  26.728  1.00  0.00     0.261 C 
BRANCH  36  37
ATOM     37  O   UNL A   1      41.767  20.573  25.491  1.00  0.00    -0.460 OA
BRANCH  37  38
ATOM     38  C   UNL A   1      43.103  20.380  25.577  1.00  0.00     0.338 C 
ATOM     39  O   UNL A   1      43.678  19.304  25.607  1.00  0.00    -0.246 OA
BRANCH  38  40
ATOM     40  C   UNL A   1      43.829  21.663  25.648  1.00  0.00     0.060 A 
ATOM     41  C   UNL A   1      44.893  21.817  26.528  1.00  0.00     0.016 A 
ATOM     42  C   UNL A   1      43.276  22.784  25.037  1.00  0.00     0.016 A 
ATOM     43  C   UNL A   1      45.281  23.096  26.939  1.00  0.00     0.010 A 
ATOM     44  C   UNL A   1      43.746  24.063  25.367  1.00  0.00     0.010 A 
ATOM     45  C   UNL A   1      44.696  24.242  26.388  1.00  0.00    -0.014 A 
BRANCH  45  46
ATOM     46  C   UNL A   1      44.985  25.606  26.938  1.00  0.00     0.031 A 
ATOM     47  C   UNL A   1      43.864  26.453  27.508  1.00  0.00     0.074 A 
ATOM     48  C   UNL A   1      46.245  26.089  26.968  1.00  0.00     0.049 A 
ATOM     49  N   UNL A   1      43.875  27.707  27.884  1.00  0.00    -0.248 NA
ATOM     50  C   UNL A   1      42.560  25.796  27.697  1.00  0.00     0.031 C 
ATOM     51  C   UNL A   1      47.447  25.357  26.563  1.00  0.00     0.029 A 
ATOM     52  N   UNL A   1      46.726  27.322  27.344  1.00  0.00    -0.354 N 
ATOM     53  C   UNL A   1      42.587  27.992  28.332  1.00  0.00     0.074 A 
ATOM     54  C   UNL A   1      41.812  26.782  28.172  1.00  0.00     0.031 C 
ATOM     55  C   UNL A   1      48.520  26.146  26.719  1.00  0.00     0.029 A 
ATOM     56  C   UNL A   1      48.075  27.477  27.111  1.00  0.00     0.049 A 
ATOM     57  H   UNL A   1      46.163  28.025  27.742  1.00  0.00     0.167 HD
ATOM     58  C   UNL A   1      42.088  29.156  28.821  1.00  0.00     0.034 A 
ATOM     59  C   UNL A   1      48.858  28.575  27.118  1.00  0.00     0.034 A 
ATOM     60  C   UNL A   1      42.850  30.377  28.916  1.00  0.00     0.049 A 
ATOM     61  C   UNL A   1      48.236  29.904  27.456  1.00  0.00     0.074 A 
ATOM     62  C   UNL A   1      42.429  31.627  29.335  1.00  0.00     0.029 A 
ATOM     63  N   UNL A   1      44.185  30.510  28.556  1.00  0.00    -0.354 N 
ATOM     64  N   UNL A   1      47.004  30.170  27.825  1.00  0.00    -0.248 NA
ATOM     65  C   UNL A   1      49.106  31.083  27.361  1.00  0.00     0.031 C 
ATOM     66  C   UNL A   1      43.480  32.532  29.142  1.00  0.00     0.029 A 
ATOM     67  C   UNL A   1      44.586  31.831  28.691  1.00  0.00     0.049 A 
ATOM     68  H   UNL A   1      44.762  29.773  28.251  1.00  0.00     0.167 HD
ATOM     69  C   UNL A   1      46.959  31.547  28.025  1.00  0.00     0.074 A 
ATOM     70  C   UNL A   1      48.291  32.050  27.755  1.00  0.00     0.031 C 
ATOM     71  C   UNL A   1      45.911  32.325  28.400  1.00  0.00     0.034 A 
BRANCH  58  72
ATOM     72  C   UNL A   1      40.624  29.187  29.192  1.00  0.00     0.023 A 
ATOM     73  C   UNL A   1      40.187  29.123  30.527  1.00  0.00     0.031 A 
ATOM     74  C   UNL A   1      39.647  29.268  28.183  1.00  0.00     0.131 A 
ATOM     75  C   UNL A   1      38.811  29.094  30.812  1.00  0.00     0.055 A 
ATOM     76  C   UNL A   1      38.283  29.300  28.476  1.00  0.00     0.041 A 
ATOM     77  F   UNL A   1      40.005  29.308  26.889  1.00  0.00    -0.206 F 
ATOM     78  C   UNL A   1      37.857  29.202  29.797  1.00  0.00     0.022 A 
BRANCH  75  79
ATOM     79  S   UNL A   1      38.279  28.802  32.522  1.00  0.00     0.124 S 
ATOM     80  O   UNL A   1      39.008  29.844  33.240  1.00  0.00    -0.237 OA
ATOM     81  O   UNL A   1      36.833  28.980  32.437  1.00  0.00    -0.237 OA
ATOM     82  O   UNL A   1      38.725  27.437  32.794  1.00  0.00    -0.744 OA
ENDBRANCH  75  79
ENDBRANCH  58  72
BRANCH  59  83
ATOM     83  C   UNL A   1      50.282  28.487  26.673  1.00  0.00     0.023 A 
ATOM     84  C   UNL A   1      50.640  28.627  25.325  1.00  0.00     0.031 A 
ATOM     85  C   UNL A   1      51.308  28.214  27.600  1.00  0.00     0.131 A 
ATOM     86  C   UNL A   1      51.981  28.462  24.937  1.00  0.00     0.055 A 
ATOM     87  C   UNL A   1      52.646  28.119  27.220  1.00  0.00     0.041 A 
ATOM     88  F   UNL A   1      51.023  28.049  28.903  1.00  0.00    -0.206 F 
ATOM     89  C   UNL A   1      52.988  28.232  25.877  1.00  0.00     0.022 A 
BRANCH  86  90
ATOM     90  S   UNL A   1      52.381  28.457  23.167  1.00  0.00     0.124 S 
ATOM     91  O   UNL A   1      51.425  29.427  22.644  1.00  0.00    -0.237 OA
ATOM     92  O   UNL A   1      53.780  28.874  23.172  1.00  0.00    -0.237 OA
ATOM     93  O   UNL A   1      52.146  27.071  22.769  1.00  0.00    -0.744 OA
ENDBRANCH  86  90
ENDBRANCH  59  83
BRANCH  71  94
ATOM     94  C   UNL A   1      46.185  33.798  28.582  1.00  0.00     0.023 A 
ATOM     95  C   UNL A   1      46.591  34.326  29.820  1.00  0.00     0.031 A 
ATOM     96  C   UNL A   1      46.011  34.687  27.507  1.00  0.00     0.131 A 
ATOM     97  C   UNL A   1      46.749  35.713  29.967  1.00  0.00     0.055 A 
ATOM     98  C   UNL A   1      46.233  36.057  27.643  1.00  0.00     0.041 A 
ATOM     99  F   UNL A   1      45.620  34.236  26.304  1.00  0.00    -0.206 F 
ATOM    100  C   UNL A   1      46.590  36.580  28.883  1.00  0.00     0.022 A 
BRANCH  97 101
ATOM    101  S   UNL A   1      47.064  36.381  31.624  1.00  0.00     0.124 S 
ATOM    102  O   UNL A   1      48.498  36.647  31.574  1.00  0.00    -0.237 OA
ATOM    103  O   UNL A   1      46.198  37.555  31.657  1.00  0.00    -0.237 OA
ATOM    104  O   UNL A   1      46.666  35.293  32.515  1.00  0.00    -0.744 OA
ENDBRANCH  97 101
ENDBRANCH  71  94
ENDBRANCH  45  46
ENDBRANCH  38  40
ENDBRANCH  37  38
ENDBRANCH  36  37
ENDBRANCH  35  36
ENDBRANCH  34  35
ENDBRANCH  33  34
ENDBRANCH   1  33
TORSDOF 26
ENDMDL
MODEL 3
REMARK VINA RESULT:      -9.2      5.740     11.507
REMARK SMILES CCOc1cnc(C(=O)c2[nH]c3cc(Cl)ccc3c2CC(=O)OCCOCCOCCOC(=O)c2ccc(-c3c4nc(c(-c5cc(S(=O)(=O)[O-])ccc5F)c5ccc([nH]5)c(-c5cc(S(=O)(=O)[O-])ccc5F)c5nc(c(-c6cc(S(=O)(=O)[O-])ccc6F)c6ccc3[nH]6)C=C5)C=C4)cc2)cc1CC
REMARK SMILES IDX 27 1 26 2 25 3 24 4 23 5 21 6 22 7 20 8 19 9 10 10 11 11
REMARK SMILES IDX 12 12 18 14 13 15 17 16 14 17 16 18 15 19 8 20 9 21 7 22
REMARK SMILES IDX 4 23 5 24 99 25 6 26 98 27 3 28 2 29 1 30 100 31 101 32
REMARK SMILES IDX 28 33 29 34 30 35 31 36 32 37 33 38 34 39 35 40 36 41 97 42
REMARK SMILES IDX 37 43 96 44 38 45 39 46 40 47 90 48 41 49 95 50 89 51 91 52
REMARK SMILES IDX 42 53 94 54 88 55 87 56 43 58 75 59 55 60 74 61 56 62 59 63
REMARK SMILES IDX 73 64 92 65 57 66 58 67 72 69 93 70 60 71 44 72 45 73 53 74
REMARK SMILES IDX 46 75 52 76 54 77 51 78 47 79 48 80 49 81 50 82 76 83 77 84
REMARK SMILES IDX 85 85 78 86 84 87 86 88 83 89 79 90 80 91 81 92 82 93 61 94
REMARK SMILES IDX 62 95 70 96 63 97 69 98 71 99 68 100 64 101 65 102 66 103
REMARK SMILES IDX 67 104
REMARK H PARENT 11 13 91 57 59 68
REMARK Flexibility Score: inf
ROOT
ATOM      1  C   UNL A   1      33.534  35.453  29.030  1.00  0.00     0.188 C 
ENDROOT
BRANCH   1   2
ATOM      2  O   UNL A   1      33.074  34.283  28.362  1.00  0.00    -0.376 OA
BRANCH   2   3
ATOM      3  C   UNL A   1      34.045  33.326  27.966  1.00  0.00     0.202 C 
BRANCH   3   4
ATOM      4  C   UNL A   1      33.617  31.862  28.076  1.00  0.00     0.261 C 
BRANCH   4   5
ATOM      5  O   UNL A   1      33.312  31.268  26.791  1.00  0.00    -0.463 OA
BRANCH   5   6
ATOM      6  C   UNL A   1      31.990  31.148  26.510  1.00  0.00     0.310 C 
ATOM      7  O   UNL A   1      31.202  32.092  26.582  1.00  0.00    -0.252 OA
BRANCH   6   8
ATOM      8  C   UNL A   1      31.492  29.771  26.116  1.00  0.00     0.161 C 
BRANCH   8   9
ATOM      9  C   UNL A   1      31.130  29.441  24.684  1.00  0.00     0.000 A 
ATOM     10  C   UNL A   1      31.847  28.634  23.792  1.00  0.00     0.093 A 
ATOM     11  N   UNL A   1      31.140  28.603  22.612  1.00  0.00    -0.351 N 
ATOM     12  C   UNL A   1      30.227  29.625  22.588  1.00  0.00     0.048 A 
ATOM     13  H   UNL A   1      31.270  27.945  21.892  1.00  0.00     0.167 HD
ATOM     14  C   UNL A   1      30.169  30.146  23.881  1.00  0.00     0.004 A 
ATOM     15  C   UNL A   1      29.484  30.136  21.518  1.00  0.00     0.047 A 
ATOM     16  C   UNL A   1      29.317  31.245  24.117  1.00  0.00     0.012 A 
ATOM     17  C   UNL A   1      28.692  31.255  21.773  1.00  0.00     0.043 A 
ATOM     18  C   UNL A   1      28.603  31.806  23.048  1.00  0.00     0.021 A 
ATOM     19  Cl  UNL A   1      27.835  31.991  20.471  1.00  0.00    -0.084 Cl
BRANCH  10  20
ATOM     20  C   UNL A   1      33.089  27.916  24.017  1.00  0.00     0.227 C 
ATOM     21  O   UNL A   1      34.153  28.514  24.167  1.00  0.00    -0.285 OA
BRANCH  20  22
ATOM     22  C   UNL A   1      33.091  26.414  24.053  1.00  0.00     0.113 A 
ATOM     23  C   UNL A   1      32.834  23.724  24.484  1.00  0.00     0.140 A 
ATOM     24  C   UNL A   1      31.773  24.519  24.104  1.00  0.00     0.158 A 
ATOM     25  C   UNL A   1      34.113  24.277  24.463  1.00  0.00    -0.002 A 
ATOM     26  N   UNL A   1      31.882  25.844  23.867  1.00  0.00    -0.249 NA
ATOM     27  C   UNL A   1      34.237  25.668  24.305  1.00  0.00     0.040 A 
BRANCH  23  28
ATOM     28  O   UNL A   1      32.628  22.422  24.825  1.00  0.00    -0.492 OA
BRANCH  28  29
ATOM     29  C   UNL A   1      31.757  22.315  25.972  1.00  0.00     0.226 C 
ATOM     30  C   UNL A   1      32.466  22.777  27.234  1.00  0.00     0.049 C 
ENDBRANCH  28  29
ENDBRANCH  23  28
BRANCH  25  31
ATOM     31  C   UNL A   1      35.335  23.397  24.514  1.00  0.00     0.036 C 
ATOM     32  C   UNL A   1      36.273  23.875  25.616  1.00  0.00     0.009 C 
ENDBRANCH  25  31
ENDBRANCH  20  22
ENDBRANCH  10  20
ENDBRANCH   8   9
ENDBRANCH   6   8
ENDBRANCH   5   6
ENDBRANCH   4   5
ENDBRANCH   3   4
ENDBRANCH   2   3
ENDBRANCH   1   2
BRANCH   1  33
ATOM     33  C   UNL A   1      32.696  36.008  30.200  1.00  0.00     0.188 C 
BRANCH  33  34
ATOM     34  O   UNL A   1      32.618  35.258  31.408  1.00  0.00    -0.376 OA
BRANCH  34  35
ATOM     35  C   UNL A   1      33.351  35.753  32.521  1.00  0.00     0.202 C 
BRANCH  35  36
ATOM     36  C   UNL A   1      34.837  35.413  32.491  1.00  0.00     0.261 C 
BRANCH  36  37
ATOM     37  O   UNL A   1      35.118  34.294  33.352  1.00  0.00    -0.460 OA
BRANCH  37  38
ATOM     38  C   UNL A   1      34.751  33.098  32.837  1.00  0.00     0.338 C 
ATOM     39  O   UNL A   1      33.642  32.593  32.900  1.00  0.00    -0.246 OA
BRANCH  38  40
ATOM     40  C   UNL A   1      35.884  32.428  32.171  1.00  0.00     0.060 A 
ATOM     41  C   UNL A   1      36.844  31.761  32.923  1.00  0.00     0.016 A 
ATOM     42  C   UNL A   1      36.131  32.697  30.828  1.00  0.00     0.016 A 
ATOM     43  C   UNL A   1      38.115  31.531  32.389  1.00  0.00     0.010 A 
ATOM     44  C   UNL A   1      37.369  32.361  30.263  1.00  0.00     0.010 A 
ATOM     45  C   UNL A   1      38.411  31.852  31.059  1.00  0.00    -0.014 A 
BRANCH  45  46
ATOM     46  C   UNL A   1      39.809  31.764  30.528  1.00  0.00     0.031 A 
ATOM     47  C   UNL A   1      40.270  30.523  29.788  1.00  0.00     0.074 A 
ATOM     48  C   UNL A   1      40.670  32.795  30.666  1.00  0.00     0.049 A 
ATOM     49  N   UNL A   1      41.472  30.185  29.393  1.00  0.00    -0.248 NA
ATOM     50  C   UNL A   1      39.237  29.536  29.430  1.00  0.00     0.031 C 
ATOM     51  C   UNL A   1      40.349  34.099  31.251  1.00  0.00     0.029 A 
ATOM     52  N   UNL A   1      42.002  32.905  30.336  1.00  0.00    -0.354 N 
ATOM     53  C   UNL A   1      41.343  28.950  28.761  1.00  0.00     0.074 A 
ATOM     54  C   UNL A   1      39.945  28.587  28.835  1.00  0.00     0.031 C 
ATOM     55  C   UNL A   1      41.443  34.874  31.232  1.00  0.00     0.029 A 
ATOM     56  C   UNL A   1      42.572  34.088  30.755  1.00  0.00     0.049 A 
ATOM     57  H   UNL A   1      42.498  32.208  29.850  1.00  0.00     0.167 HD
ATOM     58  C   UNL A   1      42.300  28.179  28.184  1.00  0.00     0.034 A 
ATOM     59  C   UNL A   1      43.862  34.472  30.836  1.00  0.00     0.034 A 
ATOM     60  C   UNL A   1      43.701  28.518  28.172  1.00  0.00     0.049 A 
ATOM     61  C   UNL A   1      44.932  33.511  30.387  1.00  0.00     0.074 A 
ATOM     62  C   UNL A   1      44.763  27.782  27.674  1.00  0.00     0.029 A 
ATOM     63  N   UNL A   1      44.243  29.675  28.714  1.00  0.00    -0.354 N 
ATOM     64  N   UNL A   1      44.801  32.323  29.843  1.00  0.00    -0.248 NA
ATOM     65  C   UNL A   1      46.324  33.937  30.580  1.00  0.00     0.031 C 
ATOM     66  C   UNL A   1      45.950  28.451  27.995  1.00  0.00     0.029 A 
ATOM     67  C   UNL A   1      45.626  29.649  28.611  1.00  0.00     0.049 A 
ATOM     68  H   UNL A   1      43.721  30.409  29.113  1.00  0.00     0.167 HD
ATOM     69  C   UNL A   1      46.097  31.870  29.611  1.00  0.00     0.074 A 
ATOM     70  C   UNL A   1      46.990  32.920  30.056  1.00  0.00     0.031 C 
ATOM     71  C   UNL A   1      46.509  30.692  29.076  1.00  0.00     0.034 A 
BRANCH  58  72
ATOM     72  C   UNL A   1      41.872  26.849  27.609  1.00  0.00     0.023 A 
ATOM     73  C   UNL A   1      42.164  25.629  28.244  1.00  0.00     0.031 A 
ATOM     74  C   UNL A   1      41.169  26.806  26.391  1.00  0.00     0.131 A 
ATOM     75  C   UNL A   1      41.795  24.418  27.635  1.00  0.00     0.055 A 
ATOM     76  C   UNL A   1      40.752  25.602  25.822  1.00  0.00     0.041 A 
ATOM     77  F   UNL A   1      40.883  27.938  25.729  1.00  0.00    -0.206 F 
ATOM     78  C   UNL A   1      41.074  24.397  26.439  1.00  0.00     0.022 A 
BRANCH  75  79
ATOM     79  S   UNL A   1      42.366  22.860  28.371  1.00  0.00     0.124 S 
ATOM     80  O   UNL A   1      43.378  22.433  27.408  1.00  0.00    -0.237 OA
ATOM     81  O   UNL A   1      42.866  23.291  29.672  1.00  0.00    -0.237 OA
ATOM     82  O   UNL A   1      41.161  22.034  28.408  1.00  0.00    -0.744 OA
ENDBRANCH  75  79
ENDBRANCH  58  72
BRANCH  59  83
ATOM     83  C   UNL A   1      44.221  35.772  31.479  1.00  0.00     0.023 A 
ATOM     84  C   UNL A   1      44.501  36.915  30.716  1.00  0.00     0.031 A 
ATOM     85  C   UNL A   1      44.333  35.873  32.880  1.00  0.00     0.131 A 
ATOM     86  C   UNL A   1      44.908  38.098  31.356  1.00  0.00     0.055 A 
ATOM     87  C   UNL A   1      44.671  37.069  33.513  1.00  0.00     0.041 A 
ATOM     88  F   UNL A   1      44.098  34.806  33.661  1.00  0.00    -0.206 F 
ATOM     89  C   UNL A   1      44.973  38.189  32.748  1.00  0.00     0.022 A 
BRANCH  86  90
ATOM     90  S   UNL A   1      45.448  39.498  30.335  1.00  0.00     0.124 S 
ATOM     91  O   UNL A   1      44.822  40.624  31.019  1.00  0.00    -0.237 OA
ATOM     92  O   UNL A   1      46.901  39.410  30.444  1.00  0.00    -0.237 OA
ATOM     93  O   UNL A   1      44.903  39.188  29.015  1.00  0.00    -0.744 OA
ENDBRANCH  86  90
ENDBRANCH  59  83
BRANCH  71  94
ATOM     94  C   UNL A   1      47.997  30.504  28.905  1.00  0.00     0.023 A 
ATOM     95  C   UNL A   1      48.764  29.789  29.842  1.00  0.00     0.031 A 
ATOM     96  C   UNL A   1      48.659  31.072  27.802  1.00  0.00     0.131 A 
ATOM     97  C   UNL A   1      50.156  29.715  29.690  1.00  0.00     0.055 A 
ATOM     98  C   UNL A   1      50.035  30.938  27.622  1.00  0.00     0.041 A 
ATOM     99  F   UNL A   1      47.975  31.768  26.879  1.00  0.00    -0.206 F 
ATOM    100  C   UNL A   1      50.795  30.269  28.577  1.00  0.00     0.022 A 
BRANCH  97 101
ATOM    101  S   UNL A   1      51.138  28.971  31.021  1.00  0.00     0.124 S 
ATOM    102  O   UNL A   1      52.474  29.481  30.732  1.00  0.00    -0.237 OA
ATOM    103  O   UNL A   1      50.497  29.505  32.218  1.00  0.00    -0.237 OA
ATOM    104  O   UNL A   1      50.964  27.534  30.815  1.00  0.00    -0.744 OA
ENDBRANCH  97 101
ENDBRANCH  71  94
ENDBRANCH  45  46
ENDBRANCH  38  40
ENDBRANCH  37  38
ENDBRANCH  36  37
ENDBRANCH  35  36
ENDBRANCH  34  35
ENDBRANCH  33  34
ENDBRANCH   1  33
TORSDOF 26
ENDMDL
