MODEL 1
REMARK VINA RESULT:     -11.4      0.000      0.000
REMARK SMILES Cc1nc(-c2ccccc2Cl)nc2sc(C(=O)OCCOCCOCCOC(=O)c3ccc(-c4c5nc(c(-c6cc(S(=O)(=O)[O-])ccc6F)c6ccc([nH]6)c(-c6cc(S(=O)(=O)[O-])ccc6F)c6nc(c(-c7cc(S(=O)(=O)[O-])ccc7F)c7ccc4[nH]7)C=C6)C=C5)cc3)c(N)c12
REMARK SMILES IDX 23 1 22 2 21 3 20 4 19 5 18 6 16 7 17 8 15 9 1 10 2 11 3 12
REMARK SMILES IDX 95 13 4 14 13 15 93 16 12 17 14 18 5 19 6 20 10 21 7 22 9 23
REMARK SMILES IDX 11 24 8 25 94 26 24 29 25 30 26 31 27 32 28 33 29 34 30 35
REMARK SMILES IDX 31 36 92 37 32 38 91 39 33 40 34 41 35 42 85 43 36 44 90 45
REMARK SMILES IDX 84 46 86 47 37 48 89 49 83 50 82 51 38 53 70 54 50 55 69 56
REMARK SMILES IDX 51 57 54 58 68 59 87 60 52 61 53 62 67 64 88 65 55 66 39 67
REMARK SMILES IDX 40 68 48 69 41 70 47 71 49 72 46 73 42 74 43 75 44 76 45 77
REMARK SMILES IDX 71 78 72 79 80 80 73 81 79 82 81 83 78 84 74 85 75 86 76 87
REMARK SMILES IDX 77 88 56 89 57 90 65 91 58 92 64 93 66 94 63 95 59 96 60 97
REMARK SMILES IDX 61 98 62 99
REMARK H PARENT 94 27 94 28 86 52 54 63
REMARK Flexibility Score: inf
ROOT
ATOM      1  C   UNL A   1      33.457  30.370  27.362  1.00  0.00     0.188 C 
ENDROOT
BRANCH   1   2
ATOM      2  C   UNL A   1      32.038  30.475  26.747  1.00  0.00     0.188 C 
BRANCH   2   3
ATOM      3  O   UNL A   1      31.545  29.515  25.818  1.00  0.00    -0.376 OA
BRANCH   3   4
ATOM      4  C   UNL A   1      32.436  28.838  24.949  1.00  0.00     0.202 C 
BRANCH   4   5
ATOM      5  C   UNL A   1      31.985  28.526  23.511  1.00  0.00     0.261 C 
BRANCH   5   6
ATOM      6  O   UNL A   1      32.194  27.182  23.055  1.00  0.00    -0.459 OA
BRANCH   6   7
ATOM      7  C   UNL A   1      31.573  26.183  23.762  1.00  0.00     0.350 C 
ATOM      8  O   UNL A   1      30.406  26.189  24.077  1.00  0.00    -0.245 OA
BRANCH   7   9
ATOM      9  C   UNL A   1      32.489  25.063  23.955  1.00  0.00     0.138 A 
ATOM     10  C   UNL A   1      32.536  20.442  24.570  1.00  0.00     0.067 C 
ATOM     11  C   UNL A   1      33.591  21.505  24.480  1.00  0.00     0.052 A 
ATOM     12  N   UNL A   1      34.869  21.091  24.738  1.00  0.00    -0.233 NA
ATOM     13  C   UNL A   1      33.355  22.883  24.262  1.00  0.00     0.057 A 
ATOM     14  C   UNL A   1      35.876  21.979  24.709  1.00  0.00     0.162 A 
ATOM     15  C   UNL A   1      34.486  23.683  24.293  1.00  0.00     0.130 A 
ATOM     16  C   UNL A   1      32.192  23.708  24.022  1.00  0.00     0.069 A 
ATOM     17  N   UNL A   1      35.747  23.290  24.494  1.00  0.00    -0.217 NA
ATOM     18  S   UNL A   1      34.168  25.337  24.105  1.00  0.00    -0.106 S 
BRANCH  14  19
ATOM     19  C   UNL A   1      37.221  21.556  25.116  1.00  0.00     0.038 A 
ATOM     20  C   UNL A   1      37.610  20.224  24.835  1.00  0.00     0.013 A 
ATOM     21  C   UNL A   1      38.128  22.356  25.828  1.00  0.00     0.052 A 
ATOM     22  C   UNL A   1      38.830  19.702  25.263  1.00  0.00     0.001 A 
ATOM     23  C   UNL A   1      39.355  21.829  26.260  1.00  0.00     0.021 A 
ATOM     24  Cl  UNL A   1      37.783  23.991  26.273  1.00  0.00    -0.084 Cl
ATOM     25  C   UNL A   1      39.702  20.505  25.984  1.00  0.00     0.002 A 
ENDBRANCH  14  19
BRANCH  16  26
ATOM     26  N   UNL A   1      30.936  23.235  23.855  1.00  0.00    -0.397 N 
ATOM     27  H   UNL A   1      30.658  22.874  22.982  1.00  0.00     0.156 HD
ATOM     28  H   UNL A   1      30.300  23.251  24.606  1.00  0.00     0.156 HD
ENDBRANCH  16  26
ENDBRANCH   7   9
ENDBRANCH   6   7
ENDBRANCH   5   6
ENDBRANCH   4   5
ENDBRANCH   3   4
ENDBRANCH   2   3
ENDBRANCH   1   2
BRANCH   1  29
ATOM     29  O   UNL A   1      34.252  31.539  27.240  1.00  0.00    -0.376 OA
BRANCH  29  30
ATOM     30  C   UNL A   1      34.414  32.364  28.387  1.00  0.00     0.202 C 
BRANCH  30  31
ATOM     31  C   UNL A   1      35.628  32.099  29.278  1.00  0.00     0.261 C 
BRANCH  31  32
ATOM     32  O   UNL A   1      36.487  31.090  28.783  1.00  0.00    -0.460 OA
BRANCH  32  33
ATOM     33  C   UNL A   1      37.120  30.381  29.740  1.00  0.00     0.338 C 
ATOM     34  O   UNL A   1      37.174  30.639  30.928  1.00  0.00    -0.246 OA
BRANCH  33  35
ATOM     35  C   UNL A   1      37.762  29.234  29.099  1.00  0.00     0.060 A 
ATOM     36  C   UNL A   1      38.094  28.162  29.930  1.00  0.00     0.016 A 
ATOM     37  C   UNL A   1      38.377  29.464  27.864  1.00  0.00     0.016 A 
ATOM     38  C   UNL A   1      39.289  27.535  29.695  1.00  0.00     0.010 A 
ATOM     39  C   UNL A   1      39.591  28.880  27.662  1.00  0.00     0.010 A 
ATOM     40  C   UNL A   1      40.071  28.019  28.647  1.00  0.00    -0.014 A 
BRANCH  40  41
ATOM     41  C   UNL A   1      41.463  27.657  28.606  1.00  0.00     0.031 A 
ATOM     42  C   UNL A   1      41.686  26.361  27.944  1.00  0.00     0.074 A 
ATOM     43  C   UNL A   1      42.409  28.536  28.989  1.00  0.00     0.049 A 
ATOM     44  N   UNL A   1      42.029  25.246  28.491  1.00  0.00    -0.248 NA
ATOM     45  C   UNL A   1      41.241  26.236  26.543  1.00  0.00     0.031 C 
ATOM     46  C   UNL A   1      42.252  29.942  29.376  1.00  0.00     0.029 A 
ATOM     47  N   UNL A   1      43.754  28.379  28.989  1.00  0.00    -0.354 N 
ATOM     48  C   UNL A   1      42.087  24.347  27.437  1.00  0.00     0.074 A 
ATOM     49  C   UNL A   1      41.321  24.919  26.365  1.00  0.00     0.031 C 
ATOM     50  C   UNL A   1      43.459  30.553  29.322  1.00  0.00     0.029 A 
ATOM     51  C   UNL A   1      44.476  29.566  28.999  1.00  0.00     0.049 A 
ATOM     52  H   UNL A   1      44.185  27.495  28.982  1.00  0.00     0.167 HD
ATOM     53  C   UNL A   1      43.026  23.367  27.390  1.00  0.00     0.034 A 
ATOM     54  C   UNL A   1      45.780  29.696  28.622  1.00  0.00     0.034 A 
ATOM     55  C   UNL A   1      43.622  23.134  28.682  1.00  0.00     0.049 A 
ATOM     56  C   UNL A   1      46.371  28.325  28.720  1.00  0.00     0.074 A 
ATOM     57  C   UNL A   1      43.104  22.808  29.921  1.00  0.00     0.029 A 
ATOM     58  N   UNL A   1      44.866  23.672  28.929  1.00  0.00    -0.354 N 
ATOM     59  N   UNL A   1      46.470  27.665  29.847  1.00  0.00    -0.248 NA
ATOM     60  C   UNL A   1      46.346  27.494  27.523  1.00  0.00     0.031 C 
ATOM     61  C   UNL A   1      43.822  23.624  30.845  1.00  0.00     0.029 A 
ATOM     62  C   UNL A   1      44.794  24.332  30.136  1.00  0.00     0.049 A 
ATOM     63  H   UNL A   1      45.659  23.598  28.350  1.00  0.00     0.167 HD
ATOM     64  C   UNL A   1      46.114  26.357  29.540  1.00  0.00     0.074 A 
ATOM     65  C   UNL A   1      46.105  26.302  28.079  1.00  0.00     0.031 C 
ATOM     66  C   UNL A   1      45.560  25.521  30.470  1.00  0.00     0.034 A 
BRANCH  53  67
ATOM     67  C   UNL A   1      43.613  22.877  26.096  1.00  0.00     0.023 A 
ATOM     68  C   UNL A   1      43.622  21.500  25.845  1.00  0.00     0.031 A 
ATOM     69  C   UNL A   1      44.352  23.681  25.191  1.00  0.00     0.131 A 
ATOM     70  C   UNL A   1      44.338  20.982  24.752  1.00  0.00     0.055 A 
ATOM     71  C   UNL A   1      44.990  23.173  24.062  1.00  0.00     0.041 A 
ATOM     72  F   UNL A   1      44.576  24.986  25.404  1.00  0.00    -0.206 F 
ATOM     73  C   UNL A   1      45.000  21.810  23.845  1.00  0.00     0.022 A 
BRANCH  70  74
ATOM     74  S   UNL A   1      44.495  19.188  24.600  1.00  0.00     0.124 S 
ATOM     75  O   UNL A   1      45.516  18.892  25.599  1.00  0.00    -0.237 OA
ATOM     76  O   UNL A   1      43.141  18.738  24.910  1.00  0.00    -0.237 OA
ATOM     77  O   UNL A   1      44.909  19.000  23.211  1.00  0.00    -0.744 OA
ENDBRANCH  70  74
ENDBRANCH  53  67
BRANCH  54  78
ATOM     78  C   UNL A   1      46.362  30.803  27.794  1.00  0.00     0.023 A 
ATOM     79  C   UNL A   1      45.565  31.654  26.995  1.00  0.00     0.031 A 
ATOM     80  C   UNL A   1      47.715  31.191  27.952  1.00  0.00     0.131 A 
ATOM     81  C   UNL A   1      46.124  32.813  26.398  1.00  0.00     0.055 A 
ATOM     82  C   UNL A   1      48.263  32.328  27.350  1.00  0.00     0.041 A 
ATOM     83  F   UNL A   1      48.545  30.533  28.773  1.00  0.00    -0.206 F 
ATOM     84  C   UNL A   1      47.467  33.150  26.576  1.00  0.00     0.022 A 
BRANCH  81  85
ATOM     85  S   UNL A   1      45.080  33.980  25.462  1.00  0.00     0.124 S 
ATOM     86  O   UNL A   1      44.349  34.658  26.528  1.00  0.00    -0.237 OA
ATOM     87  O   UNL A   1      46.063  34.778  24.740  1.00  0.00    -0.237 OA
ATOM     88  O   UNL A   1      44.265  33.105  24.618  1.00  0.00    -0.744 OA
ENDBRANCH  81  85
ENDBRANCH  54  78
BRANCH  66  89
ATOM     89  C   UNL A   1      45.542  25.940  31.931  1.00  0.00     0.023 A 
ATOM     90  C   UNL A   1      44.394  26.356  32.645  1.00  0.00     0.031 A 
ATOM     91  C   UNL A   1      46.719  25.716  32.667  1.00  0.00     0.131 A 
ATOM     92  C   UNL A   1      44.458  26.524  34.047  1.00  0.00     0.055 A 
ATOM     93  C   UNL A   1      46.772  25.863  34.053  1.00  0.00     0.041 A 
ATOM     94  F   UNL A   1      47.834  25.289  32.049  1.00  0.00    -0.206 F 
ATOM     95  C   UNL A   1      45.640  26.267  34.748  1.00  0.00     0.022 A 
BRANCH  92  96
ATOM     96  S   UNL A   1      42.988  27.047  34.993  1.00  0.00     0.124 S 
ATOM     97  O   UNL A   1      42.371  25.781  35.373  1.00  0.00    -0.237 OA
ATOM     98  O   UNL A   1      43.570  27.831  36.078  1.00  0.00    -0.237 OA
ATOM     99  O   UNL A   1      42.217  27.831  34.024  1.00  0.00    -0.744 OA
ENDBRANCH  92  96
ENDBRANCH  66  89
ENDBRANCH  40  41
ENDBRANCH  33  35
ENDBRANCH  32  33
ENDBRANCH  31  32
ENDBRANCH  30  31
ENDBRANCH  29  30
ENDBRANCH   1  29
TORSDOF 22
ENDMDL
MODEL 2
REMARK VINA RESULT:     -11.2      1.840      2.364
REMARK SMILES Cc1nc(-c2ccccc2Cl)nc2sc(C(=O)OCCOCCOCCOC(=O)c3ccc(-c4c5nc(c(-c6cc(S(=O)(=O)[O-])ccc6F)c6ccc([nH]6)c(-c6cc(S(=O)(=O)[O-])ccc6F)c6nc(c(-c7cc(S(=O)(=O)[O-])ccc7F)c7ccc4[nH]7)C=C6)C=C5)cc3)c(N)c12
REMARK SMILES IDX 23 1 22 2 21 3 20 4 19 5 18 6 16 7 17 8 15 9 1 10 2 11 3 12
REMARK SMILES IDX 95 13 4 14 13 15 93 16 12 17 14 18 5 19 6 20 10 21 7 22 9 23
REMARK SMILES IDX 11 24 8 25 94 26 24 29 25 30 26 31 27 32 28 33 29 34 30 35
REMARK SMILES IDX 31 36 92 37 32 38 91 39 33 40 34 41 35 42 85 43 36 44 90 45
REMARK SMILES IDX 84 46 86 47 37 48 89 49 83 50 82 51 38 53 70 54 50 55 69 56
REMARK SMILES IDX 51 57 54 58 68 59 87 60 52 61 53 62 67 64 88 65 55 66 39 67
REMARK SMILES IDX 40 68 48 69 41 70 47 71 49 72 46 73 42 74 43 75 44 76 45 77
REMARK SMILES IDX 71 78 72 79 80 80 73 81 79 82 81 83 78 84 74 85 75 86 76 87
REMARK SMILES IDX 77 88 56 89 57 90 65 91 58 92 64 93 66 94 63 95 59 96 60 97
REMARK SMILES IDX 61 98 62 99
REMARK H PARENT 94 27 94 28 86 52 54 63
REMARK Flexibility Score: inf
ROOT
ATOM      1  C   UNL A   1      33.658  30.595  27.256  1.00  0.00     0.188 C 
ENDROOT
BRANCH   1   2
ATOM      2  C   UNL A   1      32.259  30.785  26.619  1.00  0.00     0.188 C 
BRANCH   2   3
ATOM      3  O   UNL A   1      31.692  29.820  25.738  1.00  0.00    -0.376 OA
BRANCH   3   4
ATOM      4  C   UNL A   1      32.523  28.879  25.079  1.00  0.00     0.202 C 
BRANCH   4   5
ATOM      5  C   UNL A   1      32.500  28.810  23.542  1.00  0.00     0.261 C 
BRANCH   5   6
ATOM      6  O   UNL A   1      32.609  27.503  22.962  1.00  0.00    -0.459 OA
BRANCH   6   7
ATOM      7  C   UNL A   1      31.436  26.841  22.698  1.00  0.00     0.350 C 
ATOM      8  O   UNL A   1      30.505  27.312  22.087  1.00  0.00    -0.245 OA
BRANCH   7   9
ATOM      9  C   UNL A   1      31.534  25.453  23.142  1.00  0.00     0.138 A 
ATOM     10  C   UNL A   1      30.137  22.596  26.550  1.00  0.00     0.067 C 
ATOM     11  C   UNL A   1      30.973  22.435  25.316  1.00  0.00     0.052 A 
ATOM     12  N   UNL A   1      31.576  21.216  25.166  1.00  0.00    -0.233 NA
ATOM     13  C   UNL A   1      31.263  23.455  24.378  1.00  0.00     0.057 A 
ATOM     14  C   UNL A   1      32.367  20.990  24.105  1.00  0.00     0.162 A 
ATOM     15  C   UNL A   1      32.122  23.084  23.355  1.00  0.00     0.130 A 
ATOM     16  C   UNL A   1      30.896  24.844  24.214  1.00  0.00     0.069 A 
ATOM     17  N   UNL A   1      32.680  21.885  23.166  1.00  0.00    -0.217 NA
ATOM     18  S   UNL A   1      32.513  24.343  22.291  1.00  0.00    -0.106 S 
BRANCH  14  19
ATOM     19  C   UNL A   1      33.115  19.729  24.020  1.00  0.00     0.038 A 
ATOM     20  C   UNL A   1      32.511  18.647  23.336  1.00  0.00     0.013 A 
ATOM     21  C   UNL A   1      34.356  19.494  24.629  1.00  0.00     0.052 A 
ATOM     22  C   UNL A   1      33.098  17.383  23.281  1.00  0.00     0.001 A 
ATOM     23  C   UNL A   1      34.947  18.222  24.575  1.00  0.00     0.021 A 
ATOM     24  Cl  UNL A   1      35.201  20.707  25.527  1.00  0.00    -0.084 Cl
ATOM     25  C   UNL A   1      34.318  17.169  23.909  1.00  0.00     0.002 A 
ENDBRANCH  14  19
BRANCH  16  26
ATOM     26  N   UNL A   1      30.010  25.501  24.995  1.00  0.00    -0.397 N 
ATOM     27  H   UNL A   1      29.478  25.007  25.661  1.00  0.00     0.156 HD
ATOM     28  H   UNL A   1      29.895  26.474  24.900  1.00  0.00     0.156 HD
ENDBRANCH  16  26
ENDBRANCH   7   9
ENDBRANCH   6   7
ENDBRANCH   5   6
ENDBRANCH   4   5
ENDBRANCH   3   4
ENDBRANCH   2   3
ENDBRANCH   1   2
BRANCH   1  29
ATOM     29  O   UNL A   1      34.434  31.778  27.366  1.00  0.00    -0.376 OA
BRANCH  29  30
ATOM     30  C   UNL A   1      34.522  32.409  28.638  1.00  0.00     0.202 C 
BRANCH  30  31
ATOM     31  C   UNL A   1      35.444  31.771  29.677  1.00  0.00     0.261 C 
BRANCH  31  32
ATOM     32  O   UNL A   1      36.369  30.852  29.128  1.00  0.00    -0.460 OA
BRANCH  32  33
ATOM     33  C   UNL A   1      37.121  30.207  30.042  1.00  0.00     0.338 C 
ATOM     34  O   UNL A   1      37.237  30.483  31.223  1.00  0.00    -0.246 OA
BRANCH  33  35
ATOM     35  C   UNL A   1      37.807  29.107  29.366  1.00  0.00     0.060 A 
ATOM     36  C   UNL A   1      38.184  28.024  30.164  1.00  0.00     0.016 A 
ATOM     37  C   UNL A   1      38.408  29.398  28.137  1.00  0.00     0.016 A 
ATOM     38  C   UNL A   1      39.403  27.452  29.909  1.00  0.00     0.010 A 
ATOM     39  C   UNL A   1      39.644  28.870  27.916  1.00  0.00     0.010 A 
ATOM     40  C   UNL A   1      40.161  27.999  28.874  1.00  0.00    -0.014 A 
BRANCH  40  41
ATOM     41  C   UNL A   1      41.567  27.695  28.819  1.00  0.00     0.031 A 
ATOM     42  C   UNL A   1      41.840  26.434  28.110  1.00  0.00     0.074 A 
ATOM     43  C   UNL A   1      42.477  28.596  29.234  1.00  0.00     0.049 A 
ATOM     44  N   UNL A   1      42.228  25.313  28.616  1.00  0.00    -0.248 NA
ATOM     45  C   UNL A   1      41.398  26.341  26.706  1.00  0.00     0.031 C 
ATOM     46  C   UNL A   1      42.265  29.979  29.672  1.00  0.00     0.029 A 
ATOM     47  N   UNL A   1      43.827  28.493  29.227  1.00  0.00    -0.354 N 
ATOM     48  C   UNL A   1      42.320  24.457  27.530  1.00  0.00     0.074 A 
ATOM     49  C   UNL A   1      41.530  25.037  26.480  1.00  0.00     0.031 C 
ATOM     50  C   UNL A   1      43.447  30.640  29.640  1.00  0.00     0.029 A 
ATOM     51  C   UNL A   1      44.502  29.707  29.280  1.00  0.00     0.049 A 
ATOM     52  H   UNL A   1      44.293  27.628  29.188  1.00  0.00     0.167 HD
ATOM     53  C   UNL A   1      43.298  23.518  27.447  1.00  0.00     0.034 A 
ATOM     54  C   UNL A   1      45.799  29.902  28.908  1.00  0.00     0.034 A 
ATOM     55  C   UNL A   1      43.904  23.262  28.730  1.00  0.00     0.049 A 
ATOM     56  C   UNL A   1      46.444  28.553  28.957  1.00  0.00     0.074 A 
ATOM     57  C   UNL A   1      43.402  22.871  29.957  1.00  0.00     0.029 A 
ATOM     58  N   UNL A   1      45.126  23.839  28.996  1.00  0.00    -0.354 N 
ATOM     59  N   UNL A   1      46.571  27.857  30.058  1.00  0.00    -0.248 NA
ATOM     60  C   UNL A   1      46.450  27.766  27.729  1.00  0.00     0.031 C 
ATOM     61  C   UNL A   1      44.088  23.680  30.909  1.00  0.00     0.029 A 
ATOM     62  C   UNL A   1      45.030  24.452  30.226  1.00  0.00     0.049 A 
ATOM     63  H   UNL A   1      45.921  23.818  28.415  1.00  0.00     0.167 HD
ATOM     64  C   UNL A   1      46.267  26.548  29.704  1.00  0.00     0.074 A 
ATOM     65  C   UNL A   1      46.259  26.546  28.242  1.00  0.00     0.031 C 
ATOM     66  C   UNL A   1      45.749  25.657  30.603  1.00  0.00     0.034 A 
BRANCH  53  67
ATOM     67  C   UNL A   1      43.901  23.099  26.136  1.00  0.00     0.023 A 
ATOM     68  C   UNL A   1      43.929  21.736  25.818  1.00  0.00     0.031 A 
ATOM     69  C   UNL A   1      44.639  23.955  25.279  1.00  0.00     0.131 A 
ATOM     70  C   UNL A   1      44.659  21.280  24.707  1.00  0.00     0.055 A 
ATOM     71  C   UNL A   1      45.292  23.510  24.132  1.00  0.00     0.041 A 
ATOM     72  F   UNL A   1      44.846  25.250  25.558  1.00  0.00    -0.206 F 
ATOM     73  C   UNL A   1      45.320  22.159  23.848  1.00  0.00     0.022 A 
BRANCH  70  74
ATOM     74  S   UNL A   1      44.839  19.498  24.468  1.00  0.00     0.124 S 
ATOM     75  O   UNL A   1      44.002  18.968  25.539  1.00  0.00    -0.237 OA
ATOM     76  O   UNL A   1      44.334  19.322  23.110  1.00  0.00    -0.237 OA
ATOM     77  O   UNL A   1      46.274  19.277  24.631  1.00  0.00    -0.744 OA
ENDBRANCH  70  74
ENDBRANCH  53  67
BRANCH  54  78
ATOM     78  C   UNL A   1      46.335  31.061  28.121  1.00  0.00     0.023 A 
ATOM     79  C   UNL A   1      45.549  31.775  27.188  1.00  0.00     0.031 A 
ATOM     80  C   UNL A   1      47.588  31.638  28.443  1.00  0.00     0.131 A 
ATOM     81  C   UNL A   1      46.023  32.987  26.624  1.00  0.00     0.055 A 
ATOM     82  C   UNL A   1      48.056  32.826  27.874  1.00  0.00     0.041 A 
ATOM     83  F   UNL A   1      48.377  31.121  29.394  1.00  0.00    -0.206 F 
ATOM     84  C   UNL A   1      47.270  33.511  26.967  1.00  0.00     0.022 A 
BRANCH  81  85
ATOM     85  S   UNL A   1      44.970  33.976  25.510  1.00  0.00     0.124 S 
ATOM     86  O   UNL A   1      44.084  32.962  24.947  1.00  0.00    -0.237 OA
ATOM     87  O   UNL A   1      44.362  34.938  26.419  1.00  0.00    -0.237 OA
ATOM     88  O   UNL A   1      45.926  34.551  24.562  1.00  0.00    -0.744 OA
ENDBRANCH  81  85
ENDBRANCH  54  78
BRANCH  66  89
ATOM     89  C   UNL A   1      45.717  26.021  32.078  1.00  0.00     0.023 A 
ATOM     90  C   UNL A   1      46.811  25.914  32.968  1.00  0.00     0.031 A 
ATOM     91  C   UNL A   1      44.567  26.687  32.540  1.00  0.00     0.131 A 
ATOM     92  C   UNL A   1      46.725  26.472  34.263  1.00  0.00     0.055 A 
ATOM     93  C   UNL A   1      44.494  27.254  33.812  1.00  0.00     0.041 A 
ATOM     94  F   UNL A   1      43.506  26.849  31.731  1.00  0.00    -0.206 F 
ATOM     95  C   UNL A   1      45.574  27.149  34.679  1.00  0.00     0.022 A 
BRANCH  92  96
ATOM     96  S   UNL A   1      48.128  26.359  35.425  1.00  0.00     0.124 S 
ATOM     97  O   UNL A   1      48.740  25.080  35.081  1.00  0.00    -0.237 OA
ATOM     98  O   UNL A   1      48.906  27.551  35.102  1.00  0.00    -0.237 OA
ATOM     99  O   UNL A   1      47.487  26.391  36.742  1.00  0.00    -0.744 OA
ENDBRANCH  92  96
ENDBRANCH  66  89
ENDBRANCH  40  41
ENDBRANCH  33  35
ENDBRANCH  32  33
ENDBRANCH  31  32
ENDBRANCH  30  31
ENDBRANCH  29  30
ENDBRANCH   1  29
TORSDOF 22
ENDMDL
MODEL 3
REMARK VINA RESULT:     -11.0      4.263     10.543
REMARK SMILES Cc1nc(-c2ccccc2Cl)nc2sc(C(=O)OCCOCCOCCOC(=O)c3ccc(-c4c5nc(c(-c6cc(S(=O)(=O)[O-])ccc6F)c6ccc([nH]6)c(-c6cc(S(=O)(=O)[O-])ccc6F)c6nc(c(-c7cc(S(=O)(=O)[O-])ccc7F)c7ccc4[nH]7)C=C6)C=C5)cc3)c(N)c12
REMARK SMILES IDX 23 1 22 2 21 3 20 4 19 5 18 6 16 7 17 8 15 9 1 10 2 11 3 12
REMARK SMILES IDX 95 13 4 14 13 15 93 16 12 17 14 18 5 19 6 20 10 21 7 22 9 23
REMARK SMILES IDX 11 24 8 25 94 26 24 29 25 30 26 31 27 32 28 33 29 34 30 35
REMARK SMILES IDX 31 36 92 37 32 38 91 39 33 40 34 41 35 42 85 43 36 44 90 45
REMARK SMILES IDX 84 46 86 47 37 48 89 49 83 50 82 51 38 53 70 54 50 55 69 56
REMARK SMILES IDX 51 57 54 58 68 59 87 60 52 61 53 62 67 64 88 65 55 66 39 67
REMARK SMILES IDX 40 68 48 69 41 70 47 71 49 72 46 73 42 74 43 75 44 76 45 77
REMARK SMILES IDX 71 78 72 79 80 80 73 81 79 82 81 83 78 84 74 85 75 86 76 87
REMARK SMILES IDX 77 88 56 89 57 90 65 91 58 92 64 93 66 94 63 95 59 96 60 97
REMARK SMILES IDX 61 98 62 99
REMARK H PARENT 94 27 94 28 86 52 54 63
REMARK Flexibility Score: inf
ROOT
ATOM      1  C   UNL A   1      42.343  21.272  27.173  1.00  0.00     0.188 C 
ENDROOT
BRANCH   1   2
ATOM      2  C   UNL A   1      41.240  20.945  26.136  1.00  0.00     0.188 C 
BRANCH   2   3
ATOM      3  O   UNL A   1      39.921  20.576  26.526  1.00  0.00    -0.376 OA
BRANCH   3   4
ATOM      4  C   UNL A   1      38.987  20.130  25.558  1.00  0.00     0.202 C 
BRANCH   4   5
ATOM      5  C   UNL A   1      37.980  21.136  24.973  1.00  0.00     0.261 C 
BRANCH   5   6
ATOM      6  O   UNL A   1      36.888  21.511  25.823  1.00  0.00    -0.459 OA
BRANCH   6   7
ATOM      7  C   UNL A   1      35.623  21.220  25.374  1.00  0.00     0.350 C 
ATOM      8  O   UNL A   1      35.286  20.153  24.919  1.00  0.00    -0.245 OA
BRANCH   7   9
ATOM      9  C   UNL A   1      34.724  22.337  25.653  1.00  0.00     0.138 A 
ATOM     10  C   UNL A   1      30.317  23.269  26.851  1.00  0.00     0.067 C 
ATOM     11  C   UNL A   1      31.530  24.102  26.562  1.00  0.00     0.052 A 
ATOM     12  N   UNL A   1      31.322  25.454  26.524  1.00  0.00    -0.233 NA
ATOM     13  C   UNL A   1      32.812  23.604  26.231  1.00  0.00     0.057 A 
ATOM     14  C   UNL A   1      32.345  26.278  26.245  1.00  0.00     0.162 A 
ATOM     15  C   UNL A   1      33.759  24.571  25.933  1.00  0.00     0.130 A 
ATOM     16  C   UNL A   1      33.410  22.294  26.099  1.00  0.00     0.069 A 
ATOM     17  N   UNL A   1      33.587  25.896  25.939  1.00  0.00    -0.217 NA
ATOM     18  S   UNL A   1      35.262  23.946  25.465  1.00  0.00    -0.106 S 
BRANCH  14  19
ATOM     19  C   UNL A   1      32.089  27.713  26.074  1.00  0.00     0.038 A 
ATOM     20  C   UNL A   1      32.308  28.561  27.187  1.00  0.00     0.013 A 
ATOM     21  C   UNL A   1      31.574  28.300  24.909  1.00  0.00     0.052 A 
ATOM     22  C   UNL A   1      32.005  29.922  27.153  1.00  0.00     0.001 A 
ATOM     23  C   UNL A   1      31.267  29.669  24.875  1.00  0.00     0.021 A 
ATOM     24  Cl  UNL A   1      31.223  27.388  23.481  1.00  0.00    -0.084 Cl
ATOM     25  C   UNL A   1      31.476  30.476  25.995  1.00  0.00     0.002 A 
ENDBRANCH  14  19
BRANCH  16  26
ATOM     26  N   UNL A   1      32.785  21.131  26.393  1.00  0.00    -0.397 N 
ATOM     27  H   UNL A   1      33.308  20.352  26.692  1.00  0.00     0.156 HD
ATOM     28  H   UNL A   1      31.807  21.063  26.308  1.00  0.00     0.156 HD
ENDBRANCH  16  26
ENDBRANCH   7   9
ENDBRANCH   6   7
ENDBRANCH   5   6
ENDBRANCH   4   5
ENDBRANCH   3   4
ENDBRANCH   2   3
ENDBRANCH   1   2
BRANCH   1  29
ATOM     29  O   UNL A   1      42.636  22.652  27.324  1.00  0.00    -0.376 OA
BRANCH  29  30
ATOM     30  C   UNL A   1      42.486  23.234  28.613  1.00  0.00     0.202 C 
BRANCH  30  31
ATOM     31  C   UNL A   1      42.120  24.717  28.678  1.00  0.00     0.261 C 
BRANCH  31  32
ATOM     32  O   UNL A   1      41.472  25.194  27.514  1.00  0.00    -0.460 OA
BRANCH  32  33
ATOM     33  C   UNL A   1      40.159  24.894  27.447  1.00  0.00     0.338 C 
ATOM     34  O   UNL A   1      39.666  23.844  27.079  1.00  0.00    -0.246 OA
BRANCH  33  35
ATOM     35  C   UNL A   1      39.406  26.069  27.882  1.00  0.00     0.060 A 
ATOM     36  C   UNL A   1      39.688  27.268  27.223  1.00  0.00     0.016 A 
ATOM     37  C   UNL A   1      38.827  26.012  29.154  1.00  0.00     0.016 A 
ATOM     38  C   UNL A   1      39.730  28.406  27.985  1.00  0.00     0.010 A 
ATOM     39  C   UNL A   1      38.923  27.132  29.924  1.00  0.00     0.010 A 
ATOM     40  C   UNL A   1      39.487  28.270  29.351  1.00  0.00    -0.014 A 
BRANCH  40  41
ATOM     41  C   UNL A   1      39.888  29.339  30.229  1.00  0.00     0.031 A 
ATOM     42  C   UNL A   1      38.795  30.292  30.486  1.00  0.00     0.074 A 
ATOM     43  C   UNL A   1      41.085  29.304  30.844  1.00  0.00     0.049 A 
ATOM     44  N   UNL A   1      38.683  31.499  30.047  1.00  0.00    -0.248 NA
ATOM     45  C   UNL A   1      37.568  29.758  31.107  1.00  0.00     0.031 C 
ATOM     46  C   UNL A   1      42.083  28.230  30.850  1.00  0.00     0.029 A 
ATOM     47  N   UNL A   1      41.609  30.197  31.717  1.00  0.00    -0.354 N 
ATOM     48  C   UNL A   1      37.477  31.945  30.566  1.00  0.00     0.074 A 
ATOM     49  C   UNL A   1      36.728  30.775  30.931  1.00  0.00     0.031 C 
ATOM     50  C   UNL A   1      42.948  28.436  31.870  1.00  0.00     0.029 A 
ATOM     51  C   UNL A   1      42.627  29.696  32.518  1.00  0.00     0.049 A 
ATOM     52  H   UNL A   1      41.293  31.127  31.778  1.00  0.00     0.167 HD
ATOM     53  C   UNL A   1      37.312  33.230  30.974  1.00  0.00     0.034 A 
ATOM     54  C   UNL A   1      43.041  30.243  33.696  1.00  0.00     0.034 A 
ATOM     55  C   UNL A   1      38.328  34.098  30.434  1.00  0.00     0.049 A 
ATOM     56  C   UNL A   1      42.591  31.669  33.663  1.00  0.00     0.074 A 
ATOM     57  C   UNL A   1      38.747  34.385  29.148  1.00  0.00     0.029 A 
ATOM     58  N   UNL A   1      39.374  34.462  31.254  1.00  0.00    -0.354 N 
ATOM     59  N   UNL A   1      43.023  32.539  32.785  1.00  0.00    -0.248 NA
ATOM     60  C   UNL A   1      41.289  31.977  34.243  1.00  0.00     0.031 C 
ATOM     61  C   UNL A   1      40.171  34.413  29.223  1.00  0.00     0.029 A 
ATOM     62  C   UNL A   1      40.540  34.233  30.557  1.00  0.00     0.049 A 
ATOM     63  H   UNL A   1      39.300  34.820  32.168  1.00  0.00     0.167 HD
ATOM     64  C   UNL A   1      41.901  33.264  32.403  1.00  0.00     0.074 A 
ATOM     65  C   UNL A   1      40.872  32.911  33.381  1.00  0.00     0.031 C 
ATOM     66  C   UNL A   1      41.799  33.843  31.167  1.00  0.00     0.034 A 
BRANCH  53  67
ATOM     67  C   UNL A   1      36.420  33.598  32.126  1.00  0.00     0.023 A 
ATOM     68  C   UNL A   1      35.304  34.406  31.874  1.00  0.00     0.031 A 
ATOM     69  C   UNL A   1      36.730  33.369  33.491  1.00  0.00     0.131 A 
ATOM     70  C   UNL A   1      34.561  34.942  32.940  1.00  0.00     0.055 A 
ATOM     71  C   UNL A   1      35.943  33.834  34.542  1.00  0.00     0.041 A 
ATOM     72  F   UNL A   1      37.862  32.767  33.881  1.00  0.00    -0.206 F 
ATOM     73  C   UNL A   1      34.857  34.642  34.270  1.00  0.00     0.022 A 
BRANCH  70  74
ATOM     74  S   UNL A   1      33.267  36.147  32.565  1.00  0.00     0.124 S 
ATOM     75  O   UNL A   1      32.071  35.313  32.576  1.00  0.00    -0.237 OA
ATOM     76  O   UNL A   1      33.403  37.092  33.670  1.00  0.00    -0.237 OA
ATOM     77  O   UNL A   1      33.655  36.664  31.254  1.00  0.00    -0.744 OA
ENDBRANCH  70  74
ENDBRANCH  53  67
BRANCH  54  78
ATOM     78  C   UNL A   1      43.381  29.499  34.953  1.00  0.00     0.023 A 
ATOM     79  C   UNL A   1      42.724  28.306  35.331  1.00  0.00     0.031 A 
ATOM     80  C   UNL A   1      44.532  29.835  35.706  1.00  0.00     0.131 A 
ATOM     81  C   UNL A   1      43.213  27.524  36.409  1.00  0.00     0.055 A 
ATOM     82  C   UNL A   1      45.003  29.067  36.775  1.00  0.00     0.041 A 
ATOM     83  F   UNL A   1      45.308  30.878  35.378  1.00  0.00    -0.206 F 
ATOM     84  C   UNL A   1      44.349  27.901  37.126  1.00  0.00     0.022 A 
BRANCH  81  85
ATOM     85  S   UNL A   1      42.443  25.925  36.830  1.00  0.00     0.124 S 
ATOM     86  O   UNL A   1      43.569  25.180  37.385  1.00  0.00    -0.237 OA
ATOM     87  O   UNL A   1      41.396  26.313  37.767  1.00  0.00    -0.237 OA
ATOM     88  O   UNL A   1      41.956  25.432  35.540  1.00  0.00    -0.744 OA
ENDBRANCH  81  85
ENDBRANCH  54  78
BRANCH  66  89
ATOM     89  C   UNL A   1      43.024  33.900  30.269  1.00  0.00     0.023 A 
ATOM     90  C   UNL A   1      43.452  32.862  29.408  1.00  0.00     0.031 A 
ATOM     91  C   UNL A   1      43.664  35.146  30.152  1.00  0.00     0.131 A 
ATOM     92  C   UNL A   1      44.482  33.103  28.471  1.00  0.00     0.055 A 
ATOM     93  C   UNL A   1      44.666  35.386  29.212  1.00  0.00     0.041 A 
ATOM     94  F   UNL A   1      43.281  36.180  30.921  1.00  0.00    -0.206 F 
ATOM     95  C   UNL A   1      45.078  34.363  28.367  1.00  0.00     0.022 A 
BRANCH  92  96
ATOM     96  S   UNL A   1      45.043  31.785  27.341  1.00  0.00     0.124 S 
ATOM     97  O   UNL A   1      44.340  32.091  26.100  1.00  0.00    -0.237 OA
ATOM     98  O   UNL A   1      46.490  31.975  27.324  1.00  0.00    -0.237 OA
ATOM     99  O   UNL A   1      44.601  30.554  28.001  1.00  0.00    -0.744 OA
ENDBRANCH  92  96
ENDBRANCH  66  89
ENDBRANCH  40  41
ENDBRANCH  33  35
ENDBRANCH  32  33
ENDBRANCH  31  32
ENDBRANCH  30  31
ENDBRANCH  29  30
ENDBRANCH   1  29
TORSDOF 22
ENDMDL
