MODEL 1
REMARK VINA RESULT:     -10.5      0.000      0.000
REMARK SMILES CC[C@H]1Sc2ccc(S(=O)(=O)N3CCC(C(=O)OCCOCCOCCOC(=O)c4ccc(-c5c6nc(c(-c7cc(S(=O)(=O)[O-])ccc7F)c7ccc([nH]7)c(-c7cc(S(=O)(=O)[O-])ccc7F)c7nc(c(-c8cc(S(=O)(=O)[O-])ccc8F)c8ccc5[nH]8)C=C7)C=C6)cc4)CC3)cc2NC1=O
REMARK SMILES IDX 22 1 21 2 20 3 19 4 18 5 16 6 17 7 15 8 12 9 13 10 94 11
REMARK SMILES IDX 14 12 93 13 9 14 10 15 11 16 8 17 3 18 4 19 98 20 5 21 97 22
REMARK SMILES IDX 99 23 6 24 96 25 7 27 95 28 2 29 1 30 23 31 24 32 25 33
REMARK SMILES IDX 26 34 27 35 28 36 29 37 30 38 31 39 92 40 32 41 91 42 33 43
REMARK SMILES IDX 34 44 35 45 85 46 36 47 90 48 84 49 86 50 37 51 89 52 83 53
REMARK SMILES IDX 82 54 38 56 70 57 50 58 69 59 51 60 54 61 68 62 87 63 52 64
REMARK SMILES IDX 53 65 67 67 88 68 55 69 39 70 40 71 48 72 41 73 47 74 49 75
REMARK SMILES IDX 46 76 42 77 43 78 44 79 45 80 71 81 72 82 80 83 73 84 79 85
REMARK SMILES IDX 81 86 78 87 74 88 75 89 76 90 77 91 56 92 57 93 65 94 58 95
REMARK SMILES IDX 64 96 66 97 63 98 59 99 60 100 61 101 62 102
REMARK H PARENT 97 26 86 55 54 66
REMARK Flexibility Score: inf
ROOT
ATOM      1  C   UNL A   1      34.780  30.259  27.250  1.00  0.00     0.188 C 
ENDROOT
BRANCH   1   2
ATOM      2  O   UNL A   1      33.607  29.950  26.506  1.00  0.00    -0.376 OA
BRANCH   2   3
ATOM      3  C   UNL A   1      32.386  29.836  27.231  1.00  0.00     0.202 C 
BRANCH   3   4
ATOM      4  C   UNL A   1      31.607  28.519  27.094  1.00  0.00     0.261 C 
BRANCH   4   5
ATOM      5  O   UNL A   1      32.376  27.395  26.615  1.00  0.00    -0.463 OA
BRANCH   5   6
ATOM      6  C   UNL A   1      31.722  26.574  25.754  1.00  0.00     0.309 C 
ATOM      7  O   UNL A   1      30.526  26.657  25.486  1.00  0.00    -0.252 OA
BRANCH   6   8
ATOM      8  C   UNL A   1      32.593  25.519  25.099  1.00  0.00     0.102 C 
ATOM      9  N   UNL A   1      34.906  23.864  24.562  1.00  0.00    -0.198 NA
ATOM     10  C   UNL A   1      34.409  24.778  23.498  1.00  0.00     0.103 C 
ATOM     11  C   UNL A   1      34.023  23.566  25.712  1.00  0.00     0.103 C 
ATOM     12  C   UNL A   1      33.602  25.961  24.045  1.00  0.00     0.032 C 
ATOM     13  C   UNL A   1      33.339  24.812  26.223  1.00  0.00     0.032 C 
BRANCH   9  14
ATOM     14  S   UNL A   1      35.908  22.565  24.063  1.00  0.00     0.243 S 
ATOM     15  O   UNL A   1      36.412  22.889  22.747  1.00  0.00    -0.207 OA
ATOM     16  O   UNL A   1      35.183  21.333  24.307  1.00  0.00    -0.207 OA
BRANCH  14  17
ATOM     17  C   UNL A   1      37.331  22.529  25.140  1.00  0.00     0.084 A 
ATOM     18  C   UNL A   1      42.138  21.588  26.736  1.00  0.00     0.141 C 
ATOM     19  S   UNL A   1      41.123  22.771  27.711  1.00  0.00    -0.111 SA
ATOM     20  C   UNL A   1      41.383  20.274  26.577  1.00  0.00     0.237 C 
ATOM     21  C   UNL A   1      39.625  22.653  26.748  1.00  0.00     0.032 A 
ATOM     22  N   UNL A   1      40.089  20.323  26.137  1.00  0.00    -0.324 N 
ATOM     23  O   UNL A   1      41.930  19.176  26.678  1.00  0.00    -0.273 OA
ATOM     24  C   UNL A   1      38.768  23.754  26.663  1.00  0.00     0.018 A 
ATOM     25  C   UNL A   1      39.296  21.474  26.065  1.00  0.00     0.056 A 
ATOM     26  H   UNL A   1      39.680  19.477  25.845  1.00  0.00     0.170 HD
ATOM     27  C   UNL A   1      37.628  23.697  25.855  1.00  0.00     0.023 A 
ATOM     28  C   UNL A   1      38.150  21.410  25.276  1.00  0.00     0.049 A 
BRANCH  18  29
ATOM     29  C   UNL A   1      42.510  22.222  25.380  1.00  0.00     0.021 C 
ATOM     30  C   UNL A   1      43.217  23.569  25.487  1.00  0.00     0.005 C 
ENDBRANCH  18  29
ENDBRANCH  14  17
ENDBRANCH   9  14
ENDBRANCH   6   8
ENDBRANCH   5   6
ENDBRANCH   4   5
ENDBRANCH   3   4
ENDBRANCH   2   3
ENDBRANCH   1   2
BRANCH   1  31
ATOM     31  C   UNL A   1      34.668  31.421  28.236  1.00  0.00     0.188 C 
BRANCH  31  32
ATOM     32  O   UNL A   1      34.677  32.719  27.668  1.00  0.00    -0.376 OA
BRANCH  32  33
ATOM     33  C   UNL A   1      33.430  33.417  27.630  1.00  0.00     0.202 C 
BRANCH  33  34
ATOM     34  C   UNL A   1      33.333  34.787  28.350  1.00  0.00     0.261 C 
BRANCH  34  35
ATOM     35  O   UNL A   1      32.465  34.873  29.505  1.00  0.00    -0.460 OA
BRANCH  35  36
ATOM     36  C   UNL A   1      32.963  35.443  30.630  1.00  0.00     0.338 C 
ATOM     37  O   UNL A   1      32.381  36.253  31.331  1.00  0.00    -0.246 OA
BRANCH  36  38
ATOM     38  C   UNL A   1      34.197  34.708  31.051  1.00  0.00     0.060 A 
ATOM     39  C   UNL A   1      34.047  33.663  31.975  1.00  0.00     0.016 A 
ATOM     40  C   UNL A   1      35.463  34.968  30.515  1.00  0.00     0.016 A 
ATOM     41  C   UNL A   1      35.153  32.911  32.395  1.00  0.00     0.010 A 
ATOM     42  C   UNL A   1      36.576  34.224  30.953  1.00  0.00     0.010 A 
ATOM     43  C   UNL A   1      36.435  33.210  31.920  1.00  0.00    -0.014 A 
BRANCH  43  44
ATOM     44  C   UNL A   1      37.628  32.595  32.576  1.00  0.00     0.031 A 
ATOM     45  C   UNL A   1      38.377  31.512  31.838  1.00  0.00     0.074 A 
ATOM     46  C   UNL A   1      38.088  33.013  33.772  1.00  0.00     0.049 A 
ATOM     47  N   UNL A   1      39.427  30.821  32.204  1.00  0.00    -0.248 NA
ATOM     48  C   UNL A   1      37.866  31.165  30.503  1.00  0.00     0.031 C 
ATOM     49  C   UNL A   1      37.506  34.086  34.575  1.00  0.00     0.029 A 
ATOM     50  N   UNL A   1      39.158  32.579  34.521  1.00  0.00    -0.354 N 
ATOM     51  C   UNL A   1      39.700  29.955  31.150  1.00  0.00     0.074 A 
ATOM     52  C   UNL A   1      38.681  30.184  30.148  1.00  0.00     0.031 C 
ATOM     53  C   UNL A   1      38.225  34.227  35.704  1.00  0.00     0.029 A 
ATOM     54  C   UNL A   1      39.293  33.227  35.729  1.00  0.00     0.049 A 
ATOM     55  H   UNL A   1      39.771  31.868  34.222  1.00  0.00     0.167 HD
ATOM     56  C   UNL A   1      40.710  29.057  31.020  1.00  0.00     0.034 A 
ATOM     57  C   UNL A   1      40.157  33.025  36.749  1.00  0.00     0.034 A 
ATOM     58  C   UNL A   1      41.717  28.820  32.026  1.00  0.00     0.049 A 
ATOM     59  C   UNL A   1      41.211  31.945  36.626  1.00  0.00     0.074 A 
ATOM     60  C   UNL A   1      42.788  27.941  31.981  1.00  0.00     0.029 A 
ATOM     61  N   UNL A   1      41.775  29.444  33.266  1.00  0.00    -0.354 N 
ATOM     62  N   UNL A   1      41.461  31.137  35.619  1.00  0.00    -0.248 NA
ATOM     63  C   UNL A   1      42.104  31.754  37.778  1.00  0.00     0.031 C 
ATOM     64  C   UNL A   1      43.438  27.972  33.220  1.00  0.00     0.029 A 
ATOM     65  C   UNL A   1      42.834  28.939  34.007  1.00  0.00     0.049 A 
ATOM     66  H   UNL A   1      41.154  30.144  33.574  1.00  0.00     0.167 HD
ATOM     67  C   UNL A   1      42.558  30.369  36.009  1.00  0.00     0.074 A 
ATOM     68  C   UNL A   1      42.935  30.825  37.330  1.00  0.00     0.031 C 
ATOM     69  C   UNL A   1      43.199  29.379  35.334  1.00  0.00     0.034 A 
BRANCH  56  70
ATOM     70  C   UNL A   1      40.739  28.222  29.761  1.00  0.00     0.023 A 
ATOM     71  C   UNL A   1      41.663  28.465  28.730  1.00  0.00     0.031 A 
ATOM     72  C   UNL A   1      39.815  27.176  29.584  1.00  0.00     0.131 A 
ATOM     73  C   UNL A   1      41.597  27.720  27.542  1.00  0.00     0.055 A 
ATOM     74  C   UNL A   1      39.810  26.384  28.435  1.00  0.00     0.041 A 
ATOM     75  F   UNL A   1      38.893  26.913  30.522  1.00  0.00    -0.206 F 
ATOM     76  C   UNL A   1      40.696  26.663  27.399  1.00  0.00     0.022 A 
BRANCH  73  77
ATOM     77  S   UNL A   1      42.606  28.251  26.131  1.00  0.00     0.124 S 
ATOM     78  O   UNL A   1      41.827  27.744  25.004  1.00  0.00    -0.237 OA
ATOM     79  O   UNL A   1      42.632  29.700  26.288  1.00  0.00    -0.237 OA
ATOM     80  O   UNL A   1      43.883  27.575  26.349  1.00  0.00    -0.744 OA
ENDBRANCH  73  77
ENDBRANCH  56  70
BRANCH  57  81
ATOM     81  C   UNL A   1      40.043  33.811  38.018  1.00  0.00     0.023 A 
ATOM     82  C   UNL A   1      39.214  33.392  39.073  1.00  0.00     0.031 A 
ATOM     83  C   UNL A   1      40.699  35.049  38.154  1.00  0.00     0.131 A 
ATOM     84  C   UNL A   1      39.021  34.225  40.188  1.00  0.00     0.055 A 
ATOM     85  C   UNL A   1      40.555  35.843  39.292  1.00  0.00     0.041 A 
ATOM     86  F   UNL A   1      41.490  35.511  37.171  1.00  0.00    -0.206 F 
ATOM     87  C   UNL A   1      39.701  35.439  40.312  1.00  0.00     0.022 A 
BRANCH  84  88
ATOM     88  S   UNL A   1      37.780  33.757  41.429  1.00  0.00     0.124 S 
ATOM     89  O   UNL A   1      37.567  35.019  42.127  1.00  0.00    -0.237 OA
ATOM     90  O   UNL A   1      36.678  33.288  40.598  1.00  0.00    -0.237 OA
ATOM     91  O   UNL A   1      38.454  32.719  42.208  1.00  0.00    -0.744 OA
ENDBRANCH  84  88
ENDBRANCH  57  81
BRANCH  69  92
ATOM     92  C   UNL A   1      44.402  28.749  36.002  1.00  0.00     0.023 A 
ATOM     93  C   UNL A   1      44.274  27.698  36.930  1.00  0.00     0.031 A 
ATOM     94  C   UNL A   1      45.698  29.227  35.732  1.00  0.00     0.131 A 
ATOM     95  C   UNL A   1      45.406  27.216  37.607  1.00  0.00     0.055 A 
ATOM     96  C   UNL A   1      46.828  28.692  36.353  1.00  0.00     0.041 A 
ATOM     97  F   UNL A   1      45.889  30.230  34.859  1.00  0.00    -0.206 F 
ATOM     98  C   UNL A   1      46.684  27.693  37.310  1.00  0.00     0.022 A 
BRANCH  95  99
ATOM     99  S   UNL A   1      45.170  26.046  38.974  1.00  0.00     0.124 S 
ATOM    100  O   UNL A   1      45.323  24.760  38.302  1.00  0.00    -0.237 OA
ATOM    101  O   UNL A   1      46.243  26.417  39.890  1.00  0.00    -0.237 OA
ATOM    102  O   UNL A   1      43.820  26.340  39.449  1.00  0.00    -0.744 OA
ENDBRANCH  95  99
ENDBRANCH  69  92
ENDBRANCH  43  44
ENDBRANCH  36  38
ENDBRANCH  35  36
ENDBRANCH  34  35
ENDBRANCH  33  34
ENDBRANCH  32  33
ENDBRANCH  31  32
ENDBRANCH   1  31
TORSDOF 23
ENDMDL
MODEL 2
REMARK VINA RESULT:      -9.5      4.331      6.064
REMARK SMILES CC[C@H]1Sc2ccc(S(=O)(=O)N3CCC(C(=O)OCCOCCOCCOC(=O)c4ccc(-c5c6nc(c(-c7cc(S(=O)(=O)[O-])ccc7F)c7ccc([nH]7)c(-c7cc(S(=O)(=O)[O-])ccc7F)c7nc(c(-c8cc(S(=O)(=O)[O-])ccc8F)c8ccc5[nH]8)C=C7)C=C6)cc4)CC3)cc2NC1=O
REMARK SMILES IDX 22 1 21 2 20 3 19 4 18 5 16 6 17 7 15 8 12 9 13 10 94 11
REMARK SMILES IDX 14 12 93 13 9 14 10 15 11 16 8 17 3 18 4 19 98 20 5 21 97 22
REMARK SMILES IDX 99 23 6 24 96 25 7 27 95 28 2 29 1 30 23 31 24 32 25 33
REMARK SMILES IDX 26 34 27 35 28 36 29 37 30 38 31 39 92 40 32 41 91 42 33 43
REMARK SMILES IDX 34 44 35 45 85 46 36 47 90 48 84 49 86 50 37 51 89 52 83 53
REMARK SMILES IDX 82 54 38 56 70 57 50 58 69 59 51 60 54 61 68 62 87 63 52 64
REMARK SMILES IDX 53 65 67 67 88 68 55 69 39 70 40 71 48 72 41 73 47 74 49 75
REMARK SMILES IDX 46 76 42 77 43 78 44 79 45 80 71 81 72 82 80 83 73 84 79 85
REMARK SMILES IDX 81 86 78 87 74 88 75 89 76 90 77 91 56 92 57 93 65 94 58 95
REMARK SMILES IDX 64 96 66 97 63 98 59 99 60 100 61 101 62 102
REMARK H PARENT 97 26 86 55 54 66
REMARK Flexibility Score: inf
ROOT
ATOM      1  C   UNL A   1      33.309  25.763  25.647  1.00  0.00     0.188 C 
ENDROOT
BRANCH   1   2
ATOM      2  O   UNL A   1      32.989  25.144  24.406  1.00  0.00    -0.376 OA
BRANCH   2   3
ATOM      3  C   UNL A   1      34.074  24.792  23.553  1.00  0.00     0.202 C 
BRANCH   3   4
ATOM      4  C   UNL A   1      34.361  23.295  23.363  1.00  0.00     0.261 C 
BRANCH   4   5
ATOM      5  O   UNL A   1      35.617  22.834  23.908  1.00  0.00    -0.463 OA
BRANCH   5   6
ATOM      6  C   UNL A   1      35.553  21.659  24.584  1.00  0.00     0.309 C 
ATOM      7  O   UNL A   1      34.560  20.940  24.640  1.00  0.00    -0.252 OA
BRANCH   6   8
ATOM      8  C   UNL A   1      36.841  21.257  25.279  1.00  0.00     0.102 C 
ATOM      9  N   UNL A   1      39.671  21.108  25.868  1.00  0.00    -0.198 NA
ATOM     10  C   UNL A   1      38.947  19.866  25.486  1.00  0.00     0.103 C 
ATOM     11  C   UNL A   1      38.884  22.293  26.274  1.00  0.00     0.103 C 
ATOM     12  C   UNL A   1      37.674  20.134  24.672  1.00  0.00     0.032 C 
ATOM     13  C   UNL A   1      37.700  22.512  25.361  1.00  0.00     0.032 C 
BRANCH   9  14
ATOM     14  S   UNL A   1      41.164  20.913  26.690  1.00  0.00     0.243 S 
ATOM     15  O   UNL A   1      42.085  20.284  25.771  1.00  0.00    -0.207 OA
ATOM     16  O   UNL A   1      40.877  20.327  27.985  1.00  0.00    -0.207 OA
BRANCH  14  17
ATOM     17  C   UNL A   1      41.825  22.540  27.014  1.00  0.00     0.084 A 
ATOM     18  C   UNL A   1      42.253  27.672  26.899  1.00  0.00     0.141 C 
ATOM     19  S   UNL A   1      43.245  26.752  28.145  1.00  0.00    -0.111 SA
ATOM     20  C   UNL A   1      42.519  27.104  25.511  1.00  0.00     0.237 C 
ATOM     21  C   UNL A   1      42.738  25.104  27.687  1.00  0.00     0.032 A 
ATOM     22  N   UNL A   1      42.428  25.749  25.340  1.00  0.00    -0.324 N 
ATOM     23  O   UNL A   1      42.658  27.814  24.516  1.00  0.00    -0.273 OA
ATOM     24  C   UNL A   1      42.694  24.098  28.657  1.00  0.00     0.018 A 
ATOM     25  C   UNL A   1      42.372  24.800  26.367  1.00  0.00     0.056 A 
ATOM     26  H   UNL A   1      42.400  25.412  24.416  1.00  0.00     0.170 HD
ATOM     27  C   UNL A   1      42.231  22.821  28.324  1.00  0.00     0.023 A 
ATOM     28  C   UNL A   1      41.930  23.523  26.032  1.00  0.00     0.049 A 
BRANCH  18  29
ATOM     29  C   UNL A   1      40.760  27.616  27.283  1.00  0.00     0.021 C 
ATOM     30  C   UNL A   1      39.950  28.830  26.844  1.00  0.00     0.005 C 
ENDBRANCH  18  29
ENDBRANCH  14  17
ENDBRANCH   9  14
ENDBRANCH   6   8
ENDBRANCH   5   6
ENDBRANCH   4   5
ENDBRANCH   3   4
ENDBRANCH   2   3
ENDBRANCH   1   2
BRANCH   1  31
ATOM     31  C   UNL A   1      33.602  27.262  25.598  1.00  0.00     0.188 C 
BRANCH  31  32
ATOM     32  O   UNL A   1      33.133  28.022  26.698  1.00  0.00    -0.376 OA
BRANCH  32  33
ATOM     33  C   UNL A   1      32.670  29.346  26.420  1.00  0.00     0.202 C 
BRANCH  33  34
ATOM     34  C   UNL A   1      33.601  30.536  26.765  1.00  0.00     0.261 C 
BRANCH  34  35
ATOM     35  O   UNL A   1      33.488  31.110  28.089  1.00  0.00    -0.460 OA
BRANCH  35  36
ATOM     36  C   UNL A   1      33.685  32.445  28.218  1.00  0.00     0.338 C 
ATOM     37  O   UNL A   1      32.936  33.315  27.808  1.00  0.00    -0.246 OA
BRANCH  36  38
ATOM     38  C   UNL A   1      34.789  32.690  29.199  1.00  0.00     0.060 A 
ATOM     39  C   UNL A   1      35.063  34.020  29.550  1.00  0.00     0.016 A 
ATOM     40  C   UNL A   1      35.498  31.660  29.827  1.00  0.00     0.016 A 
ATOM     41  C   UNL A   1      36.062  34.326  30.483  1.00  0.00     0.010 A 
ATOM     42  C   UNL A   1      36.515  31.970  30.750  1.00  0.00     0.010 A 
ATOM     43  C   UNL A   1      36.828  33.307  31.062  1.00  0.00    -0.014 A 
BRANCH  43  44
ATOM     44  C   UNL A   1      38.059  33.654  31.833  1.00  0.00     0.031 A 
ATOM     45  C   UNL A   1      39.310  34.014  31.068  1.00  0.00     0.074 A 
ATOM     46  C   UNL A   1      38.074  33.710  33.180  1.00  0.00     0.049 A 
ATOM     47  N   UNL A   1      40.500  34.335  31.511  1.00  0.00    -0.248 NA
ATOM     48  C   UNL A   1      39.197  34.011  29.602  1.00  0.00     0.031 C 
ATOM     49  C   UNL A   1      36.931  33.446  34.050  1.00  0.00     0.029 A 
ATOM     50  N   UNL A   1      39.095  34.011  34.052  1.00  0.00    -0.354 N 
ATOM     51  C   UNL A   1      41.277  34.567  30.382  1.00  0.00     0.074 A 
ATOM     52  C   UNL A   1      40.432  34.311  29.234  1.00  0.00     0.031 C 
ATOM     53  C   UNL A   1      37.313  33.597  35.332  1.00  0.00     0.029 A 
ATOM     54  C   UNL A   1      38.738  33.925  35.380  1.00  0.00     0.049 A 
ATOM     55  H   UNL A   1      39.999  34.264  33.755  1.00  0.00     0.167 HD
ATOM     56  C   UNL A   1      42.573  34.963  30.302  1.00  0.00     0.034 A 
ATOM     57  C   UNL A   1      39.475  34.066  36.504  1.00  0.00     0.034 A 
ATOM     58  C   UNL A   1      43.419  35.205  31.446  1.00  0.00     0.049 A 
ATOM     59  C   UNL A   1      40.947  34.407  36.389  1.00  0.00     0.074 A 
ATOM     60  C   UNL A   1      44.740  35.623  31.468  1.00  0.00     0.029 A 
ATOM     61  N   UNL A   1      43.041  35.033  32.772  1.00  0.00    -0.354 N 
ATOM     62  N   UNL A   1      41.668  34.629  35.312  1.00  0.00    -0.248 NA
ATOM     63  C   UNL A   1      41.702  34.520  37.645  1.00  0.00     0.031 C 
ATOM     64  C   UNL A   1      45.183  35.620  32.794  1.00  0.00     0.029 A 
ATOM     65  C   UNL A   1      44.114  35.295  33.613  1.00  0.00     0.049 A 
ATOM     66  H   UNL A   1      42.141  34.766  33.072  1.00  0.00     0.167 HD
ATOM     67  C   UNL A   1      42.949  34.939  35.768  1.00  0.00     0.074 A 
ATOM     68  C   UNL A   1      42.896  34.898  37.214  1.00  0.00     0.031 C 
ATOM     69  C   UNL A   1      44.068  35.235  35.056  1.00  0.00     0.034 A 
BRANCH  56  70
ATOM     70  C   UNL A   1      43.172  35.107  28.922  1.00  0.00     0.023 A 
ATOM     71  C   UNL A   1      43.711  34.009  28.228  1.00  0.00     0.031 A 
ATOM     72  C   UNL A   1      43.219  36.367  28.299  1.00  0.00     0.131 A 
ATOM     73  C   UNL A   1      44.334  34.205  26.985  1.00  0.00     0.055 A 
ATOM     74  C   UNL A   1      43.765  36.540  27.025  1.00  0.00     0.041 A 
ATOM     75  F   UNL A   1      42.744  37.456  28.922  1.00  0.00    -0.206 F 
ATOM     76  C   UNL A   1      44.340  35.457  26.367  1.00  0.00     0.022 A 
BRANCH  73  77
ATOM     77  S   UNL A   1      45.267  32.830  26.259  1.00  0.00     0.124 S 
ATOM     78  O   UNL A   1      44.508  32.570  25.038  1.00  0.00    -0.237 OA
ATOM     79  O   UNL A   1      46.592  33.410  26.076  1.00  0.00    -0.237 OA
ATOM     80  O   UNL A   1      45.178  31.782  27.273  1.00  0.00    -0.744 OA
ENDBRANCH  73  77
ENDBRANCH  56  70
BRANCH  57  81
ATOM     81  C   UNL A   1      38.871  33.829  37.852  1.00  0.00     0.023 A 
ATOM     82  C   UNL A   1      38.326  32.583  38.208  1.00  0.00     0.031 A 
ATOM     83  C   UNL A   1      38.748  34.883  38.777  1.00  0.00     0.131 A 
ATOM     84  C   UNL A   1      37.640  32.438  39.426  1.00  0.00     0.055 A 
ATOM     85  C   UNL A   1      38.122  34.717  40.013  1.00  0.00     0.041 A 
ATOM     86  F   UNL A   1      39.233  36.102  38.487  1.00  0.00    -0.206 F 
ATOM     87  C   UNL A   1      37.551  33.492  40.338  1.00  0.00     0.022 A 
BRANCH  84  88
ATOM     88  S   UNL A   1      36.763  30.882  39.758  1.00  0.00     0.124 S 
ATOM     89  O   UNL A   1      37.571  30.308  40.827  1.00  0.00    -0.237 OA
ATOM     90  O   UNL A   1      35.436  31.354  40.138  1.00  0.00    -0.237 OA
ATOM     91  O   UNL A   1      36.827  30.177  38.479  1.00  0.00    -0.744 OA
ENDBRANCH  84  88
ENDBRANCH  57  81
BRANCH  69  92
ATOM     92  C   UNL A   1      45.318  35.577  35.837  1.00  0.00     0.023 A 
ATOM     93  C   UNL A   1      45.739  36.908  36.021  1.00  0.00     0.031 A 
ATOM     94  C   UNL A   1      46.121  34.557  36.379  1.00  0.00     0.131 A 
ATOM     95  C   UNL A   1      46.961  37.176  36.659  1.00  0.00     0.055 A 
ATOM     96  C   UNL A   1      47.297  34.834  37.079  1.00  0.00     0.041 A 
ATOM     97  F   UNL A   1      45.777  33.266  36.236  1.00  0.00    -0.206 F 
ATOM     98  C   UNL A   1      47.733  36.149  37.206  1.00  0.00     0.022 A 
BRANCH  95  99
ATOM     99  S   UNL A   1      47.591  38.878  36.652  1.00  0.00     0.124 S 
ATOM    100  O   UNL A   1      47.581  39.199  35.229  1.00  0.00    -0.237 OA
ATOM    101  O   UNL A   1      46.607  39.579  37.470  1.00  0.00    -0.237 OA
ATOM    102  O   UNL A   1      48.919  38.755  37.250  1.00  0.00    -0.744 OA
ENDBRANCH  95  99
ENDBRANCH  69  92
ENDBRANCH  43  44
ENDBRANCH  36  38
ENDBRANCH  35  36
ENDBRANCH  34  35
ENDBRANCH  33  34
ENDBRANCH  32  33
ENDBRANCH  31  32
ENDBRANCH   1  31
TORSDOF 23
ENDMDL
MODEL 3
REMARK VINA RESULT:      -9.5      6.741      9.210
REMARK SMILES CC[C@H]1Sc2ccc(S(=O)(=O)N3CCC(C(=O)OCCOCCOCCOC(=O)c4ccc(-c5c6nc(c(-c7cc(S(=O)(=O)[O-])ccc7F)c7ccc([nH]7)c(-c7cc(S(=O)(=O)[O-])ccc7F)c7nc(c(-c8cc(S(=O)(=O)[O-])ccc8F)c8ccc5[nH]8)C=C7)C=C6)cc4)CC3)cc2NC1=O
REMARK SMILES IDX 22 1 21 2 20 3 19 4 18 5 16 6 17 7 15 8 12 9 13 10 94 11
REMARK SMILES IDX 14 12 93 13 9 14 10 15 11 16 8 17 3 18 4 19 98 20 5 21 97 22
REMARK SMILES IDX 99 23 6 24 96 25 7 27 95 28 2 29 1 30 23 31 24 32 25 33
REMARK SMILES IDX 26 34 27 35 28 36 29 37 30 38 31 39 92 40 32 41 91 42 33 43
REMARK SMILES IDX 34 44 35 45 85 46 36 47 90 48 84 49 86 50 37 51 89 52 83 53
REMARK SMILES IDX 82 54 38 56 70 57 50 58 69 59 51 60 54 61 68 62 87 63 52 64
REMARK SMILES IDX 53 65 67 67 88 68 55 69 39 70 40 71 48 72 41 73 47 74 49 75
REMARK SMILES IDX 46 76 42 77 43 78 44 79 45 80 71 81 72 82 80 83 73 84 79 85
REMARK SMILES IDX 81 86 78 87 74 88 75 89 76 90 77 91 56 92 57 93 65 94 58 95
REMARK SMILES IDX 64 96 66 97 63 98 59 99 60 100 61 101 62 102
REMARK H PARENT 97 26 86 55 54 66
REMARK Flexibility Score: inf
ROOT
ATOM      1  C   UNL A   1      33.302  35.263  31.230  1.00  0.00     0.188 C 
ENDROOT
BRANCH   1   2
ATOM      2  O   UNL A   1      33.500  36.055  30.066  1.00  0.00    -0.376 OA
BRANCH   2   3
ATOM      3  C   UNL A   1      33.782  35.369  28.849  1.00  0.00     0.202 C 
BRANCH   3   4
ATOM      4  C   UNL A   1      34.954  34.376  28.857  1.00  0.00     0.261 C 
BRANCH   4   5
ATOM      5  O   UNL A   1      35.037  33.509  27.706  1.00  0.00    -0.463 OA
BRANCH   5   6
ATOM      6  C   UNL A   1      35.535  32.271  27.952  1.00  0.00     0.309 C 
ATOM      7  O   UNL A   1      36.507  32.041  28.665  1.00  0.00    -0.252 OA
BRANCH   6   8
ATOM      8  C   UNL A   1      34.778  31.139  27.284  1.00  0.00     0.102 C 
ATOM      9  N   UNL A   1      32.833  29.027  26.910  1.00  0.00    -0.198 NA
ATOM     10  C   UNL A   1      34.282  28.686  26.893  1.00  0.00     0.103 C 
ATOM     11  C   UNL A   1      32.435  30.444  26.766  1.00  0.00     0.103 C 
ATOM     12  C   UNL A   1      35.152  29.704  27.641  1.00  0.00     0.032 C 
ATOM     13  C   UNL A   1      33.304  31.353  27.604  1.00  0.00     0.032 C 
BRANCH   9  14
ATOM     14  S   UNL A   1      31.763  27.897  26.191  1.00  0.00     0.243 S 
ATOM     15  O   UNL A   1      31.095  28.568  25.099  1.00  0.00    -0.207 OA
ATOM     16  O   UNL A   1      31.010  27.266  27.258  1.00  0.00    -0.207 OA
BRANCH  14  17
ATOM     17  C   UNL A   1      32.750  26.608  25.448  1.00  0.00     0.084 A 
ATOM     18  C   UNL A   1      34.437  21.867  24.346  1.00  0.00     0.141 C 
ATOM     19  S   UNL A   1      34.985  23.249  23.265  1.00  0.00    -0.111 SA
ATOM     20  C   UNL A   1      34.751  22.198  25.800  1.00  0.00     0.237 C 
ATOM     21  C   UNL A   1      34.160  24.573  24.130  1.00  0.00     0.032 A 
ATOM     22  N   UNL A   1      34.355  23.415  26.283  1.00  0.00    -0.324 N 
ATOM     23  O   UNL A   1      35.199  21.369  26.590  1.00  0.00    -0.273 OA
ATOM     24  C   UNL A   1      33.732  25.702  23.423  1.00  0.00     0.018 A 
ATOM     25  C   UNL A   1      33.922  24.498  25.510  1.00  0.00     0.056 A 
ATOM     26  H   UNL A   1      34.377  23.541  27.260  1.00  0.00     0.170 HD
ATOM     27  C   UNL A   1      33.023  26.714  24.078  1.00  0.00     0.023 A 
ATOM     28  C   UNL A   1      33.232  25.515  26.165  1.00  0.00     0.049 A 
BRANCH  18  29
ATOM     29  C   UNL A   1      32.937  21.592  24.114  1.00  0.00     0.021 C 
ATOM     30  C   UNL A   1      32.431  21.990  22.732  1.00  0.00     0.005 C 
ENDBRANCH  18  29
ENDBRANCH  14  17
ENDBRANCH   9  14
ENDBRANCH   6   8
ENDBRANCH   5   6
ENDBRANCH   4   5
ENDBRANCH   3   4
ENDBRANCH   2   3
ENDBRANCH   1   2
BRANCH   1  31
ATOM     31  C   UNL A   1      34.317  35.450  32.356  1.00  0.00     0.188 C 
BRANCH  31  32
ATOM     32  O   UNL A   1      34.450  34.365  33.259  1.00  0.00    -0.376 OA
BRANCH  32  33
ATOM     33  C   UNL A   1      35.647  33.589  33.164  1.00  0.00     0.202 C 
BRANCH  33  34
ATOM     34  C   UNL A   1      35.515  32.061  32.936  1.00  0.00     0.261 C 
BRANCH  34  35
ATOM     35  O   UNL A   1      36.190  31.497  31.787  1.00  0.00    -0.460 OA
BRANCH  35  36
ATOM     36  C   UNL A   1      37.041  30.463  31.997  1.00  0.00     0.338 C 
ATOM     37  O   UNL A   1      36.719  29.342  32.350  1.00  0.00    -0.246 OA
BRANCH  36  38
ATOM     38  C   UNL A   1      38.387  30.809  31.441  1.00  0.00     0.060 A 
ATOM     39  C   UNL A   1      39.197  31.674  32.191  1.00  0.00     0.016 A 
ATOM     40  C   UNL A   1      38.892  30.256  30.259  1.00  0.00     0.016 A 
ATOM     41  C   UNL A   1      40.481  32.020  31.749  1.00  0.00     0.010 A 
ATOM     42  C   UNL A   1      40.174  30.620  29.806  1.00  0.00     0.010 A 
ATOM     43  C   UNL A   1      40.967  31.530  30.531  1.00  0.00    -0.014 A 
BRANCH  43  44
ATOM     44  C   UNL A   1      42.207  32.117  29.940  1.00  0.00     0.031 A 
ATOM     45  C   UNL A   1      43.371  31.200  29.648  1.00  0.00     0.074 A 
ATOM     46  C   UNL A   1      42.300  33.420  29.609  1.00  0.00     0.049 A 
ATOM     47  N   UNL A   1      44.551  31.475  29.153  1.00  0.00    -0.248 NA
ATOM     48  C   UNL A   1      43.167  29.777  29.960  1.00  0.00     0.031 C 
ATOM     49  C   UNL A   1      41.242  34.414  29.776  1.00  0.00     0.029 A 
ATOM     50  N   UNL A   1      43.342  34.133  29.058  1.00  0.00    -0.354 N 
ATOM     51  C   UNL A   1      45.233  30.264  29.098  1.00  0.00     0.074 A 
ATOM     52  C   UNL A   1      44.345  29.260  29.647  1.00  0.00     0.031 C 
ATOM     53  C   UNL A   1      41.688  35.606  29.339  1.00  0.00     0.029 A 
ATOM     54  C   UNL A   1      43.077  35.475  28.899  1.00  0.00     0.049 A 
ATOM     55  H   UNL A   1      44.199  33.720  28.803  1.00  0.00     0.167 HD
ATOM     56  C   UNL A   1      46.480  30.005  28.628  1.00  0.00     0.034 A 
ATOM     57  C   UNL A   1      43.866  36.487  28.475  1.00  0.00     0.034 A 
ATOM     58  C   UNL A   1      47.369  31.009  28.094  1.00  0.00     0.049 A 
ATOM     59  C   UNL A   1      45.290  36.191  28.053  1.00  0.00     0.074 A 
ATOM     60  C   UNL A   1      48.645  30.842  27.580  1.00  0.00     0.029 A 
ATOM     61  N   UNL A   1      47.091  32.368  28.019  1.00  0.00    -0.354 N 
ATOM     62  N   UNL A   1      45.920  35.038  28.001  1.00  0.00    -0.248 NA
ATOM     63  C   UNL A   1      46.109  37.336  27.627  1.00  0.00     0.031 C 
ATOM     64  C   UNL A   1      49.168  32.104  27.277  1.00  0.00     0.029 A 
ATOM     65  C   UNL A   1      48.186  33.053  27.510  1.00  0.00     0.049 A 
ATOM     66  H   UNL A   1      46.240  32.784  28.288  1.00  0.00     0.167 HD
ATOM     67  C   UNL A   1      47.193  35.321  27.506  1.00  0.00     0.074 A 
ATOM     68  C   UNL A   1      47.234  36.745  27.255  1.00  0.00     0.031 C 
ATOM     69  C   UNL A   1      48.235  34.478  27.277  1.00  0.00     0.034 A 
BRANCH  56  70
ATOM     70  C   UNL A   1      46.976  28.581  28.723  1.00  0.00     0.023 A 
ATOM     71  C   UNL A   1      46.842  27.675  27.656  1.00  0.00     0.031 A 
ATOM     72  C   UNL A   1      47.577  28.119  29.908  1.00  0.00     0.131 A 
ATOM     73  C   UNL A   1      47.240  26.338  27.820  1.00  0.00     0.055 A 
ATOM     74  C   UNL A   1      48.047  26.810  30.034  1.00  0.00     0.041 A 
ATOM     75  F   UNL A   1      47.709  28.930  30.969  1.00  0.00    -0.206 F 
ATOM     76  C   UNL A   1      47.866  25.907  28.991  1.00  0.00     0.022 A 
BRANCH  73  77
ATOM     77  S   UNL A   1      46.789  25.138  26.537  1.00  0.00     0.124 S 
ATOM     78  O   UNL A   1      47.005  23.870  27.229  1.00  0.00    -0.237 OA
ATOM     79  O   UNL A   1      45.401  25.484  26.255  1.00  0.00    -0.237 OA
ATOM     80  O   UNL A   1      47.735  25.418  25.458  1.00  0.00    -0.744 OA
ENDBRANCH  73  77
ENDBRANCH  56  70
BRANCH  57  81
ATOM     81  C   UNL A   1      43.370  37.899  28.477  1.00  0.00     0.023 A 
ATOM     82  C   UNL A   1      43.590  38.756  29.569  1.00  0.00     0.031 A 
ATOM     83  C   UNL A   1      42.585  38.383  27.414  1.00  0.00     0.131 A 
ATOM     84  C   UNL A   1      42.989  40.026  29.598  1.00  0.00     0.055 A 
ATOM     85  C   UNL A   1      42.043  39.669  27.419  1.00  0.00     0.041 A 
ATOM     86  F   UNL A   1      42.325  37.604  26.351  1.00  0.00    -0.206 F 
ATOM     87  C   UNL A   1      42.232  40.494  28.522  1.00  0.00     0.022 A 
BRANCH  84  88
ATOM     88  S   UNL A   1      43.113  41.021  31.113  1.00  0.00     0.124 S 
ATOM     89  O   UNL A   1      41.718  41.102  31.529  1.00  0.00    -0.237 OA
ATOM     90  O   UNL A   1      43.985  40.203  31.946  1.00  0.00    -0.237 OA
ATOM     91  O   UNL A   1      43.698  42.277  30.647  1.00  0.00    -0.744 OA
ENDBRANCH  84  88
ENDBRANCH  57  81
BRANCH  69  92
ATOM     92  C   UNL A   1      49.494  35.074  26.687  1.00  0.00     0.023 A 
ATOM     93  C   UNL A   1      50.611  35.391  27.483  1.00  0.00     0.031 A 
ATOM     94  C   UNL A   1      49.570  35.361  25.312  1.00  0.00     0.131 A 
ATOM     95  C   UNL A   1      51.718  36.041  26.913  1.00  0.00     0.055 A 
ATOM     96  C   UNL A   1      50.703  35.940  24.738  1.00  0.00     0.041 A 
ATOM     97  F   UNL A   1      48.537  35.086  24.498  1.00  0.00    -0.206 F 
ATOM     98  C   UNL A   1      51.779  36.300  25.542  1.00  0.00     0.022 A 
BRANCH  95  99
ATOM     99  S   UNL A   1      53.023  36.661  28.011  1.00  0.00     0.124 S 
ATOM    100  O   UNL A   1      53.482  35.436  28.657  1.00  0.00    -0.237 OA
ATOM    101  O   UNL A   1      53.957  37.273  27.071  1.00  0.00    -0.237 OA
ATOM    102  O   UNL A   1      52.321  37.598  28.885  1.00  0.00    -0.744 OA
ENDBRANCH  95  99
ENDBRANCH  69  92
ENDBRANCH  43  44
ENDBRANCH  36  38
ENDBRANCH  35  36
ENDBRANCH  34  35
ENDBRANCH  33  34
ENDBRANCH  32  33
ENDBRANCH  31  32
ENDBRANCH   1  31
TORSDOF 23
ENDMDL
