MODEL 1
REMARK VINA RESULT:      -6.8      0.000      0.000
REMARK SMILES C[NH+](C)CCCNC(=O)[C@@H]1[C@@H](C(=O)OCCOCCOCCOC(=O)c2ccc(-c3c4nc(c(-c5cc(S(=O)(=O)[O-])ccc5F)c5ccc([nH]5)c(-c5cc(S(=O)(=O)[O-])ccc5F)c5nc(c(-c6cc(S(=O)(=O)[O-])ccc6F)c6ccc3[nH]6)C=C5)C=C4)cc2)C1(C)C
REMARK SMILES IDX 18 1 17 2 16 3 15 4 14 5 12 6 13 7 11 8 10 9 89 10 90 11
REMARK SMILES IDX 91 12 8 13 7 14 9 16 6 17 5 18 4 19 2 20 1 21 3 22 19 24
REMARK SMILES IDX 20 25 21 26 22 27 23 28 24 29 25 30 26 31 27 32 88 33 28 34
REMARK SMILES IDX 87 35 29 36 30 37 31 38 81 39 32 40 86 41 80 42 82 43 33 44
REMARK SMILES IDX 85 45 79 46 78 47 34 49 66 50 46 51 65 52 47 53 50 54 64 55
REMARK SMILES IDX 83 56 48 57 49 58 63 60 84 61 51 62 35 63 36 64 44 65 37 66
REMARK SMILES IDX 43 67 45 68 42 69 38 70 39 71 40 72 41 73 67 74 68 75 76 76
REMARK SMILES IDX 69 77 75 78 77 79 74 80 70 81 71 82 72 83 73 84 52 85 53 86
REMARK SMILES IDX 61 87 54 88 60 89 62 90 59 91 55 92 56 93 57 94 58 95
REMARK H PARENT 7 15 2 23 82 48 50 59
REMARK Flexibility Score: inf
ROOT
ATOM      1  C   UNL A   1      47.446  27.421  24.112  1.00  0.00     0.188 C 
ENDROOT
BRANCH   1   2
ATOM      2  O   UNL A   1      46.414  26.519  24.505  1.00  0.00    -0.376 OA
BRANCH   2   3
ATOM      3  C   UNL A   1      45.252  27.015  25.158  1.00  0.00     0.202 C 
BRANCH   3   4
ATOM      4  C   UNL A   1      45.292  27.279  26.672  1.00  0.00     0.261 C 
BRANCH   4   5
ATOM      5  O   UNL A   1      44.165  28.015  27.182  1.00  0.00    -0.463 OA
BRANCH   5   6
ATOM      6  C   UNL A   1      43.396  27.337  28.068  1.00  0.00     0.310 C 
ATOM      7  O   UNL A   1      43.792  26.429  28.786  1.00  0.00    -0.252 OA
BRANCH   6   8
ATOM      8  C   UNL A   1      41.998  27.818  28.216  1.00  0.00     0.118 C 
ATOM      9  C   UNL A   1      40.943  26.993  27.491  1.00  0.00     0.100 C 
ATOM     10  C   UNL A   1      40.963  28.489  27.324  1.00  0.00    -0.009 C 
ATOM     11  C   UNL A   1      41.227  28.947  25.908  1.00  0.00     0.013 C 
ATOM     12  C   UNL A   1      39.913  29.331  28.025  1.00  0.00     0.013 C 
BRANCH   9  13
ATOM     13  C   UNL A   1      40.116  26.157  28.378  1.00  0.00     0.224 C 
ATOM     14  N   UNL A   1      40.054  24.830  28.048  1.00  0.00    -0.356 N 
ATOM     15  H   UNL A   1      39.598  24.232  28.684  1.00  0.00     0.163 HD
ATOM     16  O   UNL A   1      39.536  26.614  29.355  1.00  0.00    -0.275 OA
BRANCH  14  17
ATOM     17  C   UNL A   1      40.596  24.219  26.846  1.00  0.00     0.121 C 
BRANCH  17  18
ATOM     18  C   UNL A   1      41.323  22.914  27.094  1.00  0.00     0.083 C 
BRANCH  18  19
ATOM     19  C   UNL A   1      42.240  22.904  28.319  1.00  0.00     0.263 C 
BRANCH  19  20
ATOM     20  N   UNL A   1      43.549  23.562  28.231  1.00  0.00    -0.340 N 
ATOM     21  C   UNL A   1      44.456  23.279  29.336  1.00  0.00     0.332 C 
ATOM     22  C   UNL A   1      44.200  23.397  26.939  1.00  0.00     0.332 C 
ATOM     23  H   UNL A   1      43.317  24.552  28.323  1.00  0.00     0.347 HD
ENDBRANCH  19  20
ENDBRANCH  18  19
ENDBRANCH  17  18
ENDBRANCH  14  17
ENDBRANCH   9  13
ENDBRANCH   6   8
ENDBRANCH   5   6
ENDBRANCH   4   5
ENDBRANCH   3   4
ENDBRANCH   2   3
ENDBRANCH   1   2
BRANCH   1  24
ATOM     24  C   UNL A   1      48.917  27.020  24.314  1.00  0.00     0.188 C 
BRANCH  24  25
ATOM     25  O   UNL A   1      49.851  27.920  23.760  1.00  0.00    -0.376 OA
BRANCH  25  26
ATOM     26  C   UNL A   1      51.214  27.540  23.756  1.00  0.00     0.202 C 
BRANCH  26  27
ATOM     27  C   UNL A   1      51.793  26.694  24.908  1.00  0.00     0.261 C 
BRANCH  27  28
ATOM     28  O   UNL A   1      52.224  27.385  26.090  1.00  0.00    -0.460 OA
BRANCH  28  29
ATOM     29  C   UNL A   1      52.347  26.646  27.221  1.00  0.00     0.338 C 
ATOM     30  O   UNL A   1      53.352  26.073  27.599  1.00  0.00    -0.246 OA
BRANCH  29  31
ATOM     31  C   UNL A   1      51.128  26.855  28.041  1.00  0.00     0.060 A 
ATOM     32  C   UNL A   1      49.990  26.078  27.774  1.00  0.00     0.016 A 
ATOM     33  C   UNL A   1      51.101  27.814  29.055  1.00  0.00     0.016 A 
ATOM     34  C   UNL A   1      48.808  26.299  28.481  1.00  0.00     0.010 A 
ATOM     35  C   UNL A   1      49.907  28.051  29.746  1.00  0.00     0.010 A 
ATOM     36  C   UNL A   1      48.743  27.328  29.430  1.00  0.00    -0.014 A 
BRANCH  36  37
ATOM     37  C   UNL A   1      47.411  27.812  29.881  1.00  0.00     0.031 A 
ATOM     38  C   UNL A   1      46.724  27.049  30.985  1.00  0.00     0.074 A 
ATOM     39  C   UNL A   1      46.846  28.924  29.379  1.00  0.00     0.049 A 
ATOM     40  N   UNL A   1      45.561  27.256  31.548  1.00  0.00    -0.248 NA
ATOM     41  C   UNL A   1      47.453  25.890  31.520  1.00  0.00     0.031 C 
ATOM     42  C   UNL A   1      47.435  29.783  28.353  1.00  0.00     0.029 A 
ATOM     43  N   UNL A   1      45.646  29.525  29.673  1.00  0.00    -0.354 N 
ATOM     44  C   UNL A   1      45.422  26.255  32.505  1.00  0.00     0.074 A 
ATOM     45  C   UNL A   1      46.593  25.411  32.402  1.00  0.00     0.031 C 
ATOM     46  C   UNL A   1      46.593  30.804  28.105  1.00  0.00     0.029 A 
ATOM     47  C   UNL A   1      45.392  30.652  28.926  1.00  0.00     0.049 A 
ATOM     48  H   UNL A   1      45.025  29.181  30.355  1.00  0.00     0.167 HD
ATOM     49  C   UNL A   1      44.420  26.063  33.399  1.00  0.00     0.034 A 
ATOM     50  C   UNL A   1      44.309  31.456  28.900  1.00  0.00     0.034 A 
ATOM     51  C   UNL A   1      43.247  26.899  33.475  1.00  0.00     0.049 A 
ATOM     52  C   UNL A   1      43.153  31.164  29.831  1.00  0.00     0.074 A 
ATOM     53  C   UNL A   1      42.163  26.789  34.328  1.00  0.00     0.029 A 
ATOM     54  N   UNL A   1      42.997  27.996  32.659  1.00  0.00    -0.354 N 
ATOM     55  N   UNL A   1      43.026  30.209  30.723  1.00  0.00    -0.248 NA
ATOM     56  C   UNL A   1      41.999  32.071  29.756  1.00  0.00     0.031 C 
ATOM     57  C   UNL A   1      41.226  27.768  33.978  1.00  0.00     0.029 A 
ATOM     58  C   UNL A   1      41.765  28.552  32.971  1.00  0.00     0.049 A 
ATOM     59  H   UNL A   1      43.607  28.331  31.962  1.00  0.00     0.167 HD
ATOM     60  C   UNL A   1      41.801  30.432  31.351  1.00  0.00     0.074 A 
ATOM     61  C   UNL A   1      41.232  31.614  30.735  1.00  0.00     0.031 C 
ATOM     62  C   UNL A   1      41.205  29.732  32.351  1.00  0.00     0.034 A 
BRANCH  49  63
ATOM     63  C   UNL A   1      44.536  24.868  34.316  1.00  0.00     0.023 A 
ATOM     64  C   UNL A   1      45.063  24.981  35.617  1.00  0.00     0.031 A 
ATOM     65  C   UNL A   1      44.172  23.587  33.866  1.00  0.00     0.131 A 
ATOM     66  C   UNL A   1      45.294  23.827  36.382  1.00  0.00     0.055 A 
ATOM     67  C   UNL A   1      44.316  22.454  34.670  1.00  0.00     0.041 A 
ATOM     68  F   UNL A   1      43.689  23.409  32.626  1.00  0.00    -0.206 F 
ATOM     69  C   UNL A   1      44.898  22.568  35.929  1.00  0.00     0.022 A 
BRANCH  66  70
ATOM     70  S   UNL A   1      46.278  23.978  37.899  1.00  0.00     0.124 S 
ATOM     71  O   UNL A   1      46.846  25.316  37.749  1.00  0.00    -0.237 OA
ATOM     72  O   UNL A   1      45.273  23.823  38.944  1.00  0.00    -0.237 OA
ATOM     73  O   UNL A   1      47.243  22.885  37.791  1.00  0.00    -0.744 OA
ENDBRANCH  66  70
ENDBRANCH  49  63
BRANCH  50  74
ATOM     74  C   UNL A   1      44.238  32.606  27.950  1.00  0.00     0.023 A 
ATOM     75  C   UNL A   1      44.435  33.926  28.387  1.00  0.00     0.031 A 
ATOM     76  C   UNL A   1      43.905  32.406  26.598  1.00  0.00     0.131 A 
ATOM     77  C   UNL A   1      44.248  34.996  27.498  1.00  0.00     0.055 A 
ATOM     78  C   UNL A   1      43.778  33.469  25.702  1.00  0.00     0.041 A 
ATOM     79  F   UNL A   1      43.699  31.166  26.126  1.00  0.00    -0.206 F 
ATOM     80  C   UNL A   1      43.936  34.775  26.154  1.00  0.00     0.022 A 
BRANCH  77  81
ATOM     81  S   UNL A   1      44.322  36.690  28.143  1.00  0.00     0.124 S 
ATOM     82  O   UNL A   1      42.918  37.085  28.101  1.00  0.00    -0.237 OA
ATOM     83  O   UNL A   1      44.893  36.484  29.469  1.00  0.00    -0.237 OA
ATOM     84  O   UNL A   1      45.192  37.378  27.192  1.00  0.00    -0.744 OA
ENDBRANCH  77  81
ENDBRANCH  50  74
BRANCH  62  85
ATOM     85  C   UNL A   1      39.900  30.272  32.895  1.00  0.00     0.023 A 
ATOM     86  C   UNL A   1      39.825  30.969  34.113  1.00  0.00     0.031 A 
ATOM     87  C   UNL A   1      38.704  30.065  32.180  1.00  0.00     0.131 A 
ATOM     88  C   UNL A   1      38.575  31.371  34.614  1.00  0.00     0.055 A 
ATOM     89  C   UNL A   1      37.475  30.531  32.648  1.00  0.00     0.041 A 
ATOM     90  F   UNL A   1      38.711  29.404  31.012  1.00  0.00    -0.206 F 
ATOM     91  C   UNL A   1      37.403  31.173  33.880  1.00  0.00     0.022 A 
BRANCH  88  92
ATOM     92  S   UNL A   1      38.487  32.052  36.294  1.00  0.00     0.124 S 
ATOM     93  O   UNL A   1      39.896  32.250  36.615  1.00  0.00    -0.237 OA
ATOM     94  O   UNL A   1      37.701  33.266  36.098  1.00  0.00    -0.237 OA
ATOM     95  O   UNL A   1      37.819  30.998  37.055  1.00  0.00    -0.744 OA
ENDBRANCH  88  92
ENDBRANCH  62  85
ENDBRANCH  36  37
ENDBRANCH  29  31
ENDBRANCH  28  29
ENDBRANCH  27  28
ENDBRANCH  26  27
ENDBRANCH  25  26
ENDBRANCH  24  25
ENDBRANCH   1  24
TORSDOF 25
ENDMDL
MODEL 2
REMARK VINA RESULT:      -6.2      5.150     13.265
REMARK SMILES C[NH+](C)CCCNC(=O)[C@@H]1[C@@H](C(=O)OCCOCCOCCOC(=O)c2ccc(-c3c4nc(c(-c5cc(S(=O)(=O)[O-])ccc5F)c5ccc([nH]5)c(-c5cc(S(=O)(=O)[O-])ccc5F)c5nc(c(-c6cc(S(=O)(=O)[O-])ccc6F)c6ccc3[nH]6)C=C5)C=C4)cc2)C1(C)C
REMARK SMILES IDX 18 1 17 2 16 3 15 4 14 5 12 6 13 7 11 8 10 9 89 10 90 11
REMARK SMILES IDX 91 12 8 13 7 14 9 16 6 17 5 18 4 19 2 20 1 21 3 22 19 24
REMARK SMILES IDX 20 25 21 26 22 27 23 28 24 29 25 30 26 31 27 32 88 33 28 34
REMARK SMILES IDX 87 35 29 36 30 37 31 38 81 39 32 40 86 41 80 42 82 43 33 44
REMARK SMILES IDX 85 45 79 46 78 47 34 49 66 50 46 51 65 52 47 53 50 54 64 55
REMARK SMILES IDX 83 56 48 57 49 58 63 60 84 61 51 62 35 63 36 64 44 65 37 66
REMARK SMILES IDX 43 67 45 68 42 69 38 70 39 71 40 72 41 73 67 74 68 75 76 76
REMARK SMILES IDX 69 77 75 78 77 79 74 80 70 81 71 82 72 83 73 84 52 85 53 86
REMARK SMILES IDX 61 87 54 88 60 89 62 90 59 91 55 92 56 93 57 94 58 95
REMARK H PARENT 7 15 2 23 82 48 50 59
REMARK Flexibility Score: inf
ROOT
ATOM      1  C   UNL A   1      38.462  30.462  33.293  1.00  0.00     0.188 C 
ENDROOT
BRANCH   1   2
ATOM      2  O   UNL A   1      38.525  29.060  33.541  1.00  0.00    -0.376 OA
BRANCH   2   3
ATOM      3  C   UNL A   1      38.133  28.143  32.526  1.00  0.00     0.202 C 
BRANCH   3   4
ATOM      4  C   UNL A   1      39.173  27.658  31.504  1.00  0.00     0.261 C 
BRANCH   4   5
ATOM      5  O   UNL A   1      38.643  26.821  30.460  1.00  0.00    -0.463 OA
BRANCH   5   6
ATOM      6  C   UNL A   1      39.458  26.660  29.389  1.00  0.00     0.310 C 
ATOM      7  O   UNL A   1      39.549  25.635  28.729  1.00  0.00    -0.252 OA
BRANCH   6   8
ATOM      8  C   UNL A   1      40.215  27.865  28.963  1.00  0.00     0.118 C 
ATOM      9  C   UNL A   1      39.463  28.815  28.039  1.00  0.00     0.100 C 
ATOM     10  C   UNL A   1      40.853  28.367  27.675  1.00  0.00    -0.009 C 
ATOM     11  C   UNL A   1      40.927  27.569  26.393  1.00  0.00     0.013 C 
ATOM     12  C   UNL A   1      42.012  29.334  27.831  1.00  0.00     0.013 C 
BRANCH   9  13
ATOM     13  C   UNL A   1      39.016  30.060  28.689  1.00  0.00     0.224 C 
ATOM     14  N   UNL A   1      37.661  30.239  28.749  1.00  0.00    -0.356 N 
ATOM     15  H   UNL A   1      37.334  31.007  29.272  1.00  0.00     0.163 HD
ATOM     16  O   UNL A   1      39.803  30.873  29.157  1.00  0.00    -0.275 OA
BRANCH  14  17
ATOM     17  C   UNL A   1      36.656  29.403  28.113  1.00  0.00     0.121 C 
BRANCH  17  18
ATOM     18  C   UNL A   1      35.285  30.042  28.035  1.00  0.00     0.083 C 
BRANCH  18  19
ATOM     19  C   UNL A   1      34.308  29.367  27.069  1.00  0.00     0.263 C 
BRANCH  19  20
ATOM     20  N   UNL A   1      33.472  30.206  26.203  1.00  0.00    -0.340 N 
ATOM     21  C   UNL A   1      32.895  29.521  25.053  1.00  0.00     0.332 C 
ATOM     22  C   UNL A   1      32.475  30.983  26.927  1.00  0.00     0.332 C 
ATOM     23  H   UNL A   1      34.140  30.871  25.811  1.00  0.00     0.347 HD
ENDBRANCH  19  20
ENDBRANCH  18  19
ENDBRANCH  17  18
ENDBRANCH  14  17
ENDBRANCH   9  13
ENDBRANCH   6   8
ENDBRANCH   5   6
ENDBRANCH   4   5
ENDBRANCH   3   4
ENDBRANCH   2   3
ENDBRANCH   1   2
BRANCH   1  24
ATOM     24  C   UNL A   1      37.112  31.191  33.413  1.00  0.00     0.188 C 
BRANCH  24  25
ATOM     25  O   UNL A   1      37.040  32.122  34.469  1.00  0.00    -0.376 OA
BRANCH  25  26
ATOM     26  C   UNL A   1      36.453  33.381  34.203  1.00  0.00     0.202 C 
BRANCH  26  27
ATOM     27  C   UNL A   1      36.165  33.818  32.753  1.00  0.00     0.261 C 
BRANCH  27  28
ATOM     28  O   UNL A   1      37.262  34.335  31.983  1.00  0.00    -0.460 OA
BRANCH  28  29
ATOM     29  C   UNL A   1      37.639  33.618  30.896  1.00  0.00     0.338 C 
ATOM     30  O   UNL A   1      36.941  32.841  30.271  1.00  0.00    -0.246 OA
BRANCH  29  31
ATOM     31  C   UNL A   1      38.962  34.120  30.451  1.00  0.00     0.060 A 
ATOM     32  C   UNL A   1      39.120  34.523  29.116  1.00  0.00     0.016 A 
ATOM     33  C   UNL A   1      40.040  34.182  31.335  1.00  0.00     0.016 A 
ATOM     34  C   UNL A   1      40.369  34.934  28.650  1.00  0.00     0.010 A 
ATOM     35  C   UNL A   1      41.298  34.572  30.861  1.00  0.00     0.010 A 
ATOM     36  C   UNL A   1      41.479  34.904  29.505  1.00  0.00    -0.014 A 
BRANCH  36  37
ATOM     37  C   UNL A   1      42.845  34.956  28.919  1.00  0.00     0.031 A 
ATOM     38  C   UNL A   1      43.380  36.303  28.506  1.00  0.00     0.074 A 
ATOM     39  C   UNL A   1      43.618  33.861  28.808  1.00  0.00     0.049 A 
ATOM     40  N   UNL A   1      44.528  36.617  27.963  1.00  0.00    -0.248 NA
ATOM     41  C   UNL A   1      42.489  37.450  28.734  1.00  0.00     0.031 C 
ATOM     42  C   UNL A   1      43.240  32.513  29.227  1.00  0.00     0.029 A 
ATOM     43  N   UNL A   1      44.890  33.715  28.311  1.00  0.00    -0.354 N 
ATOM     44  C   UNL A   1      44.499  37.998  27.788  1.00  0.00     0.074 A 
ATOM     45  C   UNL A   1      43.196  38.447  28.229  1.00  0.00     0.031 C 
ATOM     46  C   UNL A   1      44.262  31.675  28.971  1.00  0.00     0.029 A 
ATOM     47  C   UNL A   1      45.351  32.419  28.338  1.00  0.00     0.049 A 
ATOM     48  H   UNL A   1      45.422  34.469  27.967  1.00  0.00     0.167 HD
ATOM     49  C   UNL A   1      45.470  38.819  27.319  1.00  0.00     0.034 A 
ATOM     50  C   UNL A   1      46.511  31.896  27.889  1.00  0.00     0.034 A 
ATOM     51  C   UNL A   1      46.757  38.354  26.861  1.00  0.00     0.049 A 
ATOM     52  C   UNL A   1      47.542  32.814  27.270  1.00  0.00     0.074 A 
ATOM     53  C   UNL A   1      47.810  39.093  26.352  1.00  0.00     0.029 A 
ATOM     54  N   UNL A   1      47.164  37.026  26.847  1.00  0.00    -0.354 N 
ATOM     55  N   UNL A   1      47.499  34.116  27.098  1.00  0.00    -0.248 NA
ATOM     56  C   UNL A   1      48.784  32.189  26.796  1.00  0.00     0.031 C 
ATOM     57  C   UNL A   1      48.819  38.208  25.959  1.00  0.00     0.029 A 
ATOM     58  C   UNL A   1      48.439  36.923  26.312  1.00  0.00     0.049 A 
ATOM     59  H   UNL A   1      46.625  36.267  27.171  1.00  0.00     0.167 HD
ATOM     60  C   UNL A   1      48.728  34.469  26.544  1.00  0.00     0.074 A 
ATOM     61  C   UNL A   1      49.490  33.243  26.415  1.00  0.00     0.031 C 
ATOM     62  C   UNL A   1      49.191  35.695  26.185  1.00  0.00     0.034 A 
BRANCH  49  63
ATOM     63  C   UNL A   1      45.141  40.292  27.228  1.00  0.00     0.023 A 
ATOM     64  C   UNL A   1      44.532  40.845  26.086  1.00  0.00     0.031 A 
ATOM     65  C   UNL A   1      45.495  41.165  28.271  1.00  0.00     0.131 A 
ATOM     66  C   UNL A   1      44.380  42.237  25.979  1.00  0.00     0.055 A 
ATOM     67  C   UNL A   1      45.253  42.538  28.197  1.00  0.00     0.041 A 
ATOM     68  F   UNL A   1      46.103  40.702  29.374  1.00  0.00    -0.206 F 
ATOM     69  C   UNL A   1      44.710  43.084  27.038  1.00  0.00     0.022 A 
BRANCH  66  70
ATOM     70  S   UNL A   1      43.910  42.934  24.371  1.00  0.00     0.124 S 
ATOM     71  O   UNL A   1      42.554  42.416  24.210  1.00  0.00    -0.237 OA
ATOM     72  O   UNL A   1      44.024  44.369  24.603  1.00  0.00    -0.237 OA
ATOM     73  O   UNL A   1      44.897  42.370  23.452  1.00  0.00    -0.744 OA
ENDBRANCH  66  70
ENDBRANCH  49  63
BRANCH  50  74
ATOM     74  C   UNL A   1      46.768  30.428  27.979  1.00  0.00     0.023 A 
ATOM     75  C   UNL A   1      46.365  29.553  26.957  1.00  0.00     0.031 A 
ATOM     76  C   UNL A   1      47.363  29.869  29.125  1.00  0.00     0.131 A 
ATOM     77  C   UNL A   1      46.514  28.167  27.121  1.00  0.00     0.055 A 
ATOM     78  C   UNL A   1      47.564  28.494  29.258  1.00  0.00     0.041 A 
ATOM     79  F   UNL A   1      47.763  30.657  30.136  1.00  0.00    -0.206 F 
ATOM     80  C   UNL A   1      47.125  27.632  28.257  1.00  0.00     0.022 A 
BRANCH  77  81
ATOM     81  S   UNL A   1      45.809  27.060  25.867  1.00  0.00     0.124 S 
ATOM     82  O   UNL A   1      44.773  27.902  25.278  1.00  0.00    -0.237 OA
ATOM     83  O   UNL A   1      46.966  26.780  25.024  1.00  0.00    -0.237 OA
ATOM     84  O   UNL A   1      45.322  25.926  26.649  1.00  0.00    -0.744 OA
ENDBRANCH  77  81
ENDBRANCH  50  74
BRANCH  62  85
ATOM     85  C   UNL A   1      50.618  35.780  25.687  1.00  0.00     0.023 A 
ATOM     86  C   UNL A   1      51.721  35.524  26.519  1.00  0.00     0.031 A 
ATOM     87  C   UNL A   1      50.872  36.144  24.351  1.00  0.00     0.131 A 
ATOM     88  C   UNL A   1      53.025  35.704  26.028  1.00  0.00     0.055 A 
ATOM     89  C   UNL A   1      52.169  36.250  23.849  1.00  0.00     0.041 A 
ATOM     90  F   UNL A   1      49.860  36.403  23.507  1.00  0.00    -0.206 F 
ATOM     91  C   UNL A   1      53.256  36.046  24.694  1.00  0.00     0.022 A 
BRANCH  88  92
ATOM     92  S   UNL A   1      54.416  35.600  27.190  1.00  0.00     0.124 S 
ATOM     93  O   UNL A   1      54.263  36.830  27.958  1.00  0.00    -0.237 OA
ATOM     94  O   UNL A   1      54.132  34.361  27.906  1.00  0.00    -0.237 OA
ATOM     95  O   UNL A   1      55.588  35.555  26.316  1.00  0.00    -0.744 OA
ENDBRANCH  88  92
ENDBRANCH  62  85
ENDBRANCH  36  37
ENDBRANCH  29  31
ENDBRANCH  28  29
ENDBRANCH  27  28
ENDBRANCH  26  27
ENDBRANCH  25  26
ENDBRANCH  24  25
ENDBRANCH   1  24
TORSDOF 25
ENDMDL
MODEL 3
REMARK VINA RESULT:      -6.2      4.612      9.548
REMARK SMILES C[NH+](C)CCCNC(=O)[C@@H]1[C@@H](C(=O)OCCOCCOCCOC(=O)c2ccc(-c3c4nc(c(-c5cc(S(=O)(=O)[O-])ccc5F)c5ccc([nH]5)c(-c5cc(S(=O)(=O)[O-])ccc5F)c5nc(c(-c6cc(S(=O)(=O)[O-])ccc6F)c6ccc3[nH]6)C=C5)C=C4)cc2)C1(C)C
REMARK SMILES IDX 18 1 17 2 16 3 15 4 14 5 12 6 13 7 11 8 10 9 89 10 90 11
REMARK SMILES IDX 91 12 8 13 7 14 9 16 6 17 5 18 4 19 2 20 1 21 3 22 19 24
REMARK SMILES IDX 20 25 21 26 22 27 23 28 24 29 25 30 26 31 27 32 88 33 28 34
REMARK SMILES IDX 87 35 29 36 30 37 31 38 81 39 32 40 86 41 80 42 82 43 33 44
REMARK SMILES IDX 85 45 79 46 78 47 34 49 66 50 46 51 65 52 47 53 50 54 64 55
REMARK SMILES IDX 83 56 48 57 49 58 63 60 84 61 51 62 35 63 36 64 44 65 37 66
REMARK SMILES IDX 43 67 45 68 42 69 38 70 39 71 40 72 41 73 67 74 68 75 76 76
REMARK SMILES IDX 69 77 75 78 77 79 74 80 70 81 71 82 72 83 73 84 52 85 53 86
REMARK SMILES IDX 61 87 54 88 60 89 62 90 59 91 55 92 56 93 57 94 58 95
REMARK H PARENT 7 15 2 23 82 48 50 59
REMARK Flexibility Score: inf
ROOT
ATOM      1  C   UNL A   1      46.922  25.558  28.592  1.00  0.00     0.188 C 
ENDROOT
BRANCH   1   2
ATOM      2  O   UNL A   1      46.238  24.583  27.810  1.00  0.00    -0.376 OA
BRANCH   2   3
ATOM      3  C   UNL A   1      45.928  24.857  26.449  1.00  0.00     0.202 C 
BRANCH   3   4
ATOM      4  C   UNL A   1      46.091  23.746  25.399  1.00  0.00     0.261 C 
BRANCH   4   5
ATOM      5  O   UNL A   1      45.664  22.442  25.834  1.00  0.00    -0.463 OA
BRANCH   5   6
ATOM      6  C   UNL A   1      44.377  22.137  25.543  1.00  0.00     0.310 C 
ATOM      7  O   UNL A   1      43.974  21.782  24.444  1.00  0.00    -0.252 OA
BRANCH   6   8
ATOM      8  C   UNL A   1      43.429  22.161  26.687  1.00  0.00     0.118 C 
ATOM      9  C   UNL A   1      41.956  22.035  26.318  1.00  0.00     0.100 C 
ATOM     10  C   UNL A   1      42.401  23.133  27.247  1.00  0.00    -0.009 C 
ATOM     11  C   UNL A   1      42.165  24.527  26.710  1.00  0.00     0.013 C 
ATOM     12  C   UNL A   1      42.104  23.020  28.730  1.00  0.00     0.013 C 
BRANCH   9  13
ATOM     13  C   UNL A   1      41.366  20.722  26.630  1.00  0.00     0.224 C 
ATOM     14  N   UNL A   1      40.055  20.565  26.270  1.00  0.00    -0.356 N 
ATOM     15  H   UNL A   1      39.669  19.664  26.368  1.00  0.00     0.163 HD
ATOM     16  O   UNL A   1      42.009  19.825  27.161  1.00  0.00    -0.275 OA
BRANCH  14  17
ATOM     17  C   UNL A   1      39.176  21.603  25.757  1.00  0.00     0.121 C 
BRANCH  17  18
ATOM     18  C   UNL A   1      37.831  21.091  25.285  1.00  0.00     0.083 C 
BRANCH  18  19
ATOM     19  C   UNL A   1      36.729  22.149  25.195  1.00  0.00     0.263 C 
BRANCH  19  20
ATOM     20  N   UNL A   1      35.326  21.718  25.235  1.00  0.00    -0.340 N 
ATOM     21  C   UNL A   1      34.715  21.735  26.558  1.00  0.00     0.332 C 
ATOM     22  C   UNL A   1      34.486  22.373  24.242  1.00  0.00     0.332 C 
ATOM     23  H   UNL A   1      35.379  20.732  24.977  1.00  0.00     0.347 HD
ENDBRANCH  19  20
ENDBRANCH  18  19
ENDBRANCH  17  18
ENDBRANCH  14  17
ENDBRANCH   9  13
ENDBRANCH   6   8
ENDBRANCH   5   6
ENDBRANCH   4   5
ENDBRANCH   3   4
ENDBRANCH   2   3
ENDBRANCH   1   2
BRANCH   1  24
ATOM     24  C   UNL A   1      48.114  26.316  27.982  1.00  0.00     0.188 C 
BRANCH  24  25
ATOM     25  O   UNL A   1      48.001  27.721  28.028  1.00  0.00    -0.376 OA
BRANCH  25  26
ATOM     26  C   UNL A   1      46.734  28.291  27.759  1.00  0.00     0.202 C 
BRANCH  26  27
ATOM     27  C   UNL A   1      46.623  29.616  26.979  1.00  0.00     0.261 C 
BRANCH  27  28
ATOM     28  O   UNL A   1      45.320  30.014  26.524  1.00  0.00    -0.460 OA
BRANCH  28  29
ATOM     29  C   UNL A   1      45.040  31.340  26.556  1.00  0.00     0.338 C 
ATOM     30  O   UNL A   1      45.339  32.159  25.706  1.00  0.00    -0.246 OA
BRANCH  29  31
ATOM     31  C   UNL A   1      44.096  31.583  27.675  1.00  0.00     0.060 A 
ATOM     32  C   UNL A   1      44.028  32.867  28.238  1.00  0.00     0.016 A 
ATOM     33  C   UNL A   1      43.294  30.555  28.173  1.00  0.00     0.016 A 
ATOM     34  C   UNL A   1      43.202  33.109  29.336  1.00  0.00     0.010 A 
ATOM     35  C   UNL A   1      42.483  30.793  29.289  1.00  0.00     0.010 A 
ATOM     36  C   UNL A   1      42.470  32.058  29.905  1.00  0.00    -0.014 A 
BRANCH  36  37
ATOM     37  C   UNL A   1      41.919  32.221  31.277  1.00  0.00     0.031 A 
ATOM     38  C   UNL A   1      40.476  32.636  31.409  1.00  0.00     0.074 A 
ATOM     39  C   UNL A   1      42.646  31.954  32.376  1.00  0.00     0.049 A 
ATOM     40  N   UNL A   1      39.763  32.856  32.483  1.00  0.00    -0.248 NA
ATOM     41  C   UNL A   1      39.743  32.834  30.150  1.00  0.00     0.031 C 
ATOM     42  C   UNL A   1      44.031  31.488  32.382  1.00  0.00     0.029 A 
ATOM     43  N   UNL A   1      42.312  32.034  33.707  1.00  0.00    -0.354 N 
ATOM     44  C   UNL A   1      38.497  33.215  32.029  1.00  0.00     0.074 A 
ATOM     45  C   UNL A   1      38.562  33.238  30.584  1.00  0.00     0.031 C 
ATOM     46  C   UNL A   1      44.428  31.320  33.657  1.00  0.00     0.029 A 
ATOM     47  C   UNL A   1      43.340  31.700  34.558  1.00  0.00     0.049 A 
ATOM     48  H   UNL A   1      41.419  32.304  34.021  1.00  0.00     0.167 HD
ATOM     49  C   UNL A   1      37.378  33.486  32.747  1.00  0.00     0.034 A 
ATOM     50  C   UNL A   1      43.398  31.717  35.906  1.00  0.00     0.034 A 
ATOM     51  C   UNL A   1      37.334  33.480  34.189  1.00  0.00     0.049 A 
ATOM     52  C   UNL A   1      42.170  32.124  36.690  1.00  0.00     0.074 A 
ATOM     53  C   UNL A   1      36.262  33.754  35.020  1.00  0.00     0.029 A 
ATOM     54  N   UNL A   1      38.413  33.197  35.017  1.00  0.00    -0.354 N 
ATOM     55  N   UNL A   1      40.981  32.473  36.251  1.00  0.00    -0.248 NA
ATOM     56  C   UNL A   1      42.291  32.126  38.154  1.00  0.00     0.031 C 
ATOM     57  C   UNL A   1      36.710  33.713  36.344  1.00  0.00     0.029 A 
ATOM     58  C   UNL A   1      38.039  33.318  36.347  1.00  0.00     0.049 A 
ATOM     59  H   UNL A   1      39.313  32.947  34.705  1.00  0.00     0.167 HD
ATOM     60  C   UNL A   1      40.202  32.686  37.387  1.00  0.00     0.074 A 
ATOM     61  C   UNL A   1      41.055  32.422  38.528  1.00  0.00     0.031 C 
ATOM     62  C   UNL A   1      38.897  33.054  37.480  1.00  0.00     0.034 A 
BRANCH  49  63
ATOM     63  C   UNL A   1      36.138  33.864  31.971  1.00  0.00     0.023 A 
ATOM     64  C   UNL A   1      35.532  35.127  32.113  1.00  0.00     0.031 A 
ATOM     65  C   UNL A   1      35.517  32.931  31.123  1.00  0.00     0.131 A 
ATOM     66  C   UNL A   1      34.301  35.386  31.491  1.00  0.00     0.055 A 
ATOM     67  C   UNL A   1      34.341  33.230  30.432  1.00  0.00     0.041 A 
ATOM     68  F   UNL A   1      36.031  31.701  30.966  1.00  0.00    -0.206 F 
ATOM     69  C   UNL A   1      33.715  34.458  30.629  1.00  0.00     0.022 A 
BRANCH  66  70
ATOM     70  S   UNL A   1      33.391  36.883  31.965  1.00  0.00     0.124 S 
ATOM     71  O   UNL A   1      32.371  36.338  32.857  1.00  0.00    -0.237 OA
ATOM     72  O   UNL A   1      34.425  37.695  32.596  1.00  0.00    -0.237 OA
ATOM     73  O   UNL A   1      32.886  37.394  30.693  1.00  0.00    -0.744 OA
ENDBRANCH  66  70
ENDBRANCH  49  63
BRANCH  50  74
ATOM     74  C   UNL A   1      44.661  31.360  36.618  1.00  0.00     0.023 A 
ATOM     75  C   UNL A   1      44.830  30.101  37.216  1.00  0.00     0.031 A 
ATOM     76  C   UNL A   1      45.695  32.303  36.767  1.00  0.00     0.131 A 
ATOM     77  C   UNL A   1      45.979  29.835  37.978  1.00  0.00     0.055 A 
ATOM     78  C   UNL A   1      46.862  32.013  37.476  1.00  0.00     0.041 A 
ATOM     79  F   UNL A   1      45.585  33.524  36.222  1.00  0.00    -0.206 F 
ATOM     80  C   UNL A   1      47.004  30.777  38.098  1.00  0.00     0.022 A 
BRANCH  77  81
ATOM     81  S   UNL A   1      46.075  28.271  38.892  1.00  0.00     0.124 S 
ATOM     82  O   UNL A   1      46.189  28.740  40.270  1.00  0.00    -0.237 OA
ATOM     83  O   UNL A   1      44.815  27.631  38.533  1.00  0.00    -0.237 OA
ATOM     84  O   UNL A   1      47.273  27.633  38.350  1.00  0.00    -0.744 OA
ENDBRANCH  77  81
ENDBRANCH  50  74
BRANCH  62  85
ATOM     85  C   UNL A   1      38.291  33.121  38.865  1.00  0.00     0.023 A 
ATOM     86  C   UNL A   1      38.564  34.175  39.754  1.00  0.00     0.031 A 
ATOM     87  C   UNL A   1      37.436  32.093  39.306  1.00  0.00     0.131 A 
ATOM     88  C   UNL A   1      38.045  34.143  41.059  1.00  0.00     0.055 A 
ATOM     89  C   UNL A   1      36.866  32.103  40.579  1.00  0.00     0.041 A 
ATOM     90  F   UNL A   1      37.140  31.058  38.504  1.00  0.00    -0.206 F 
ATOM     91  C   UNL A   1      37.183  33.123  41.471  1.00  0.00     0.022 A 
BRANCH  88  92
ATOM     92  S   UNL A   1      38.608  35.389  42.252  1.00  0.00     0.124 S 
ATOM     93  O   UNL A   1      38.735  36.576  41.415  1.00  0.00    -0.237 OA
ATOM     94  O   UNL A   1      37.517  35.406  43.223  1.00  0.00    -0.237 OA
ATOM     95  O   UNL A   1      39.869  34.842  42.749  1.00  0.00    -0.744 OA
ENDBRANCH  88  92
ENDBRANCH  62  85
ENDBRANCH  36  37
ENDBRANCH  29  31
ENDBRANCH  28  29
ENDBRANCH  27  28
ENDBRANCH  26  27
ENDBRANCH  25  26
ENDBRANCH  24  25
ENDBRANCH   1  24
TORSDOF 25
ENDMDL
