MODEL 1
REMARK VINA RESULT:     -10.7      0.000      0.000
REMARK SMILES C[C@](NC(=O)c1c(F)cccc1F)(C(=O)OCCOCCOCCOC(=O)c1ccc(-c2c3nc(c(-c4cc(S(=O)(=O)[O-])ccc4F)c4ccc([nH]4)c(-c4cc(S(=O)(=O)[O-])ccc4F)c4nc(c(-c5cc(S(=O)(=O)[O-])ccc5F)c5ccc2[nH]5)C=C4)C=C3)cc1)C(F)(F)F
REMARK SMILES IDX 21 1 20 2 19 3 18 4 17 5 16 6 14 7 15 8 2 9 1 10 91 11 92 12
REMARK SMILES IDX 93 13 94 14 3 15 4 16 5 18 6 19 7 20 12 21 8 22 9 23 11 24
REMARK SMILES IDX 13 25 10 26 22 27 23 28 24 29 25 30 26 31 27 32 28 33 29 34
REMARK SMILES IDX 90 35 30 36 89 37 31 38 32 39 33 40 83 41 34 42 88 43 82 44
REMARK SMILES IDX 84 45 35 46 87 47 81 48 80 49 36 51 68 52 48 53 67 54 49 55
REMARK SMILES IDX 52 56 66 57 85 58 50 59 51 60 65 62 86 63 53 64 37 65 38 66
REMARK SMILES IDX 46 67 39 68 45 69 47 70 44 71 40 72 41 73 42 74 43 75 69 76
REMARK SMILES IDX 70 77 78 78 71 79 77 80 79 81 76 82 72 83 73 84 74 85 75 86
REMARK SMILES IDX 54 87 55 88 63 89 56 90 62 91 64 92 61 93 57 94 58 95 59 96
REMARK SMILES IDX 60 97
REMARK H PARENT 3 17 84 50 52 61
REMARK Flexibility Score: inf
ROOT
ATOM      1  C   UNL A   1      34.544  21.084  25.763  1.00  0.00     0.188 C 
ENDROOT
BRANCH   1   2
ATOM      2  C   UNL A   1      33.062  21.143  25.376  1.00  0.00     0.188 C 
BRANCH   2   3
ATOM      3  O   UNL A   1      32.298  21.882  26.301  1.00  0.00    -0.376 OA
BRANCH   3   4
ATOM      4  C   UNL A   1      31.517  22.959  25.816  1.00  0.00     0.202 C 
BRANCH   4   5
ATOM      5  C   UNL A   1      31.302  24.312  26.540  1.00  0.00     0.261 C 
BRANCH   5   6
ATOM      6  O   UNL A   1      30.715  25.421  25.835  1.00  0.00    -0.461 OA
BRANCH   6   7
ATOM      7  C   UNL A   1      31.201  26.653  26.157  1.00  0.00     0.341 C 
ATOM      8  O   UNL A   1      31.056  27.158  27.267  1.00  0.00    -0.249 OA
BRANCH   7   9
ATOM      9  C   UNL A   1      31.948  27.366  25.010  1.00  0.00     0.231 C 
ATOM     10  C   UNL A   1      31.407  28.809  25.049  1.00  0.00     0.058 C 
BRANCH   9  11
ATOM     11  C   UNL A   1      33.431  27.247  25.477  1.00  0.00     0.422 C 
ATOM     12  F   UNL A   1      33.753  26.019  25.944  1.00  0.00    -0.168 F 
ATOM     13  F   UNL A   1      34.289  27.446  24.447  1.00  0.00    -0.168 F 
ATOM     14  F   UNL A   1      33.737  28.142  26.442  1.00  0.00    -0.168 F 
ENDBRANCH   9  11
BRANCH   9  15
ATOM     15  N   UNL A   1      31.741  26.786  23.628  1.00  0.00    -0.329 N 
ATOM     16  C   UNL A   1      30.961  27.236  22.577  1.00  0.00     0.258 C 
ATOM     17  H   UNL A   1      32.239  25.956  23.448  1.00  0.00     0.165 HD
ATOM     18  O   UNL A   1      31.199  26.865  21.432  1.00  0.00    -0.269 OA
BRANCH  16  19
ATOM     19  C   UNL A   1      29.729  28.000  22.823  1.00  0.00     0.111 A 
ATOM     20  C   UNL A   1      28.589  27.478  23.424  1.00  0.00     0.138 A 
ATOM     21  C   UNL A   1      29.697  29.318  22.369  1.00  0.00     0.138 A 
ATOM     22  F   UNL A   1      28.572  26.251  23.951  1.00  0.00    -0.206 F 
ATOM     23  C   UNL A   1      27.395  28.201  23.442  1.00  0.00     0.040 A 
ATOM     24  C   UNL A   1      28.521  30.064  22.411  1.00  0.00     0.040 A 
ATOM     25  F   UNL A   1      30.787  29.884  21.829  1.00  0.00    -0.206 F 
ATOM     26  C   UNL A   1      27.354  29.491  22.917  1.00  0.00     0.006 A 
ENDBRANCH  16  19
ENDBRANCH   9  15
ENDBRANCH   7   9
ENDBRANCH   6   7
ENDBRANCH   5   6
ENDBRANCH   4   5
ENDBRANCH   3   4
ENDBRANCH   2   3
ENDBRANCH   1   2
BRANCH   1  27
ATOM     27  O   UNL A   1      35.439  22.017  25.187  1.00  0.00    -0.376 OA
BRANCH  27  28
ATOM     28  C   UNL A   1      36.778  22.077  25.674  1.00  0.00     0.202 C 
BRANCH  28  29
ATOM     29  C   UNL A   1      37.851  20.980  25.452  1.00  0.00     0.261 C 
BRANCH  29  30
ATOM     30  O   UNL A   1      39.228  21.369  25.393  1.00  0.00    -0.460 OA
BRANCH  30  31
ATOM     31  C   UNL A   1      39.929  21.249  26.549  1.00  0.00     0.338 C 
ATOM     32  O   UNL A   1      40.413  20.226  27.004  1.00  0.00    -0.246 OA
BRANCH  31  33
ATOM     33  C   UNL A   1      40.215  22.612  27.058  1.00  0.00     0.060 A 
ATOM     34  C   UNL A   1      39.499  23.697  26.524  1.00  0.00     0.016 A 
ATOM     35  C   UNL A   1      41.156  22.822  28.067  1.00  0.00     0.016 A 
ATOM     36  C   UNL A   1      39.725  24.991  26.990  1.00  0.00     0.010 A 
ATOM     37  C   UNL A   1      41.413  24.127  28.502  1.00  0.00     0.010 A 
ATOM     38  C   UNL A   1      40.717  25.220  27.949  1.00  0.00    -0.014 A 
BRANCH  38  39
ATOM     39  C   UNL A   1      41.180  26.607  28.213  1.00  0.00     0.031 A 
ATOM     40  C   UNL A   1      42.593  26.962  27.835  1.00  0.00     0.074 A 
ATOM     41  C   UNL A   1      40.372  27.536  28.753  1.00  0.00     0.049 A 
ATOM     42  N   UNL A   1      43.260  28.067  28.043  1.00  0.00    -0.248 NA
ATOM     43  C   UNL A   1      43.356  25.920  27.129  1.00  0.00     0.031 C 
ATOM     44  C   UNL A   1      38.966  27.339  29.098  1.00  0.00     0.029 A 
ATOM     45  N   UNL A   1      40.628  28.836  29.118  1.00  0.00    -0.354 N 
ATOM     46  C   UNL A   1      44.524  27.852  27.505  1.00  0.00     0.074 A 
ATOM     47  C   UNL A   1      44.539  26.498  26.992  1.00  0.00     0.031 C 
ATOM     48  C   UNL A   1      38.488  28.473  29.642  1.00  0.00     0.029 A 
ATOM     49  C   UNL A   1      39.564  29.461  29.725  1.00  0.00     0.049 A 
ATOM     50  H   UNL A   1      41.494  29.279  28.960  1.00  0.00     0.167 HD
ATOM     51  C   UNL A   1      45.574  28.706  27.438  1.00  0.00     0.034 A 
ATOM     52  C   UNL A   1      39.479  30.675  30.310  1.00  0.00     0.034 A 
ATOM     53  C   UNL A   1      45.550  30.048  27.967  1.00  0.00     0.049 A 
ATOM     54  C   UNL A   1      40.698  31.571  30.325  1.00  0.00     0.074 A 
ATOM     55  C   UNL A   1      46.556  30.999  27.947  1.00  0.00     0.029 A 
ATOM     56  N   UNL A   1      44.472  30.627  28.625  1.00  0.00    -0.354 N 
ATOM     57  N   UNL A   1      41.892  31.358  29.818  1.00  0.00    -0.248 NA
ATOM     58  C   UNL A   1      40.556  32.876  30.988  1.00  0.00     0.031 C 
ATOM     59  C   UNL A   1      46.118  32.116  28.665  1.00  0.00     0.029 A 
ATOM     60  C   UNL A   1      44.803  31.905  29.050  1.00  0.00     0.049 A 
ATOM     61  H   UNL A   1      43.600  30.192  28.768  1.00  0.00     0.167 HD
ATOM     62  C   UNL A   1      42.626  32.517  30.068  1.00  0.00     0.074 A 
ATOM     63  C   UNL A   1      41.738  33.427  30.760  1.00  0.00     0.031 C 
ATOM     64  C   UNL A   1      43.914  32.805  29.747  1.00  0.00     0.034 A 
BRANCH  51  65
ATOM     65  C   UNL A   1      46.855  28.185  26.831  1.00  0.00     0.023 A 
ATOM     66  C   UNL A   1      47.100  28.242  25.448  1.00  0.00     0.031 A 
ATOM     67  C   UNL A   1      47.835  27.594  27.648  1.00  0.00     0.131 A 
ATOM     68  C   UNL A   1      48.260  27.655  24.917  1.00  0.00     0.055 A 
ATOM     69  C   UNL A   1      49.026  27.089  27.125  1.00  0.00     0.041 A 
ATOM     70  F   UNL A   1      47.646  27.487  28.973  1.00  0.00    -0.206 F 
ATOM     71  C   UNL A   1      49.237  27.105  25.749  1.00  0.00     0.022 A 
BRANCH  68  72
ATOM     72  S   UNL A   1      48.403  27.488  23.117  1.00  0.00     0.124 S 
ATOM     73  O   UNL A   1      48.379  26.037  22.953  1.00  0.00    -0.237 OA
ATOM     74  O   UNL A   1      47.227  28.205  22.639  1.00  0.00    -0.237 OA
ATOM     75  O   UNL A   1      49.685  28.120  22.816  1.00  0.00    -0.744 OA
ENDBRANCH  68  72
ENDBRANCH  51  65
BRANCH  52  76
ATOM     76  C   UNL A   1      38.219  31.107  30.984  1.00  0.00     0.023 A 
ATOM     77  C   UNL A   1      37.213  31.793  30.283  1.00  0.00     0.031 A 
ATOM     78  C   UNL A   1      38.033  30.904  32.364  1.00  0.00     0.131 A 
ATOM     79  C   UNL A   1      36.095  32.293  30.969  1.00  0.00     0.055 A 
ATOM     80  C   UNL A   1      36.890  31.349  33.031  1.00  0.00     0.041 A 
ATOM     81  F   UNL A   1      38.966  30.265  33.088  1.00  0.00    -0.206 F 
ATOM     82  C   UNL A   1      35.919  32.062  32.335  1.00  0.00     0.022 A 
BRANCH  79  83
ATOM     83  S   UNL A   1      34.917  33.342  30.071  1.00  0.00     0.124 S 
ATOM     84  O   UNL A   1      34.234  32.366  29.230  1.00  0.00    -0.237 OA
ATOM     85  O   UNL A   1      34.131  33.914  31.159  1.00  0.00    -0.237 OA
ATOM     86  O   UNL A   1      35.775  34.288  29.361  1.00  0.00    -0.744 OA
ENDBRANCH  79  83
ENDBRANCH  52  76
BRANCH  64  87
ATOM     87  C   UNL A   1      44.425  34.187  30.089  1.00  0.00     0.023 A 
ATOM     88  C   UNL A   1      45.078  34.464  31.303  1.00  0.00     0.031 A 
ATOM     89  C   UNL A   1      44.254  35.246  29.179  1.00  0.00     0.131 A 
ATOM     90  C   UNL A   1      45.483  35.776  31.597  1.00  0.00     0.055 A 
ATOM     91  C   UNL A   1      44.720  36.534  29.447  1.00  0.00     0.041 A 
ATOM     92  F   UNL A   1      43.633  35.045  28.005  1.00  0.00    -0.206 F 
ATOM     93  C   UNL A   1      45.327  36.808  30.669  1.00  0.00     0.022 A 
BRANCH  90  94
ATOM     94  S   UNL A   1      46.127  36.141  33.254  1.00  0.00     0.124 S 
ATOM     95  O   UNL A   1      47.525  35.739  33.132  1.00  0.00    -0.237 OA
ATOM     96  O   UNL A   1      45.884  37.575  33.376  1.00  0.00    -0.237 OA
ATOM     97  O   UNL A   1      45.316  35.298  34.131  1.00  0.00    -0.744 OA
ENDBRANCH  90  94
ENDBRANCH  64  87
ENDBRANCH  38  39
ENDBRANCH  31  33
ENDBRANCH  30  31
ENDBRANCH  29  30
ENDBRANCH  28  29
ENDBRANCH  27  28
ENDBRANCH   1  27
TORSDOF 23
ENDMDL
MODEL 2
REMARK VINA RESULT:     -10.6      4.379      7.615
REMARK SMILES C[C@](NC(=O)c1c(F)cccc1F)(C(=O)OCCOCCOCCOC(=O)c1ccc(-c2c3nc(c(-c4cc(S(=O)(=O)[O-])ccc4F)c4ccc([nH]4)c(-c4cc(S(=O)(=O)[O-])ccc4F)c4nc(c(-c5cc(S(=O)(=O)[O-])ccc5F)c5ccc2[nH]5)C=C4)C=C3)cc1)C(F)(F)F
REMARK SMILES IDX 21 1 20 2 19 3 18 4 17 5 16 6 14 7 15 8 2 9 1 10 91 11 92 12
REMARK SMILES IDX 93 13 94 14 3 15 4 16 5 18 6 19 7 20 12 21 8 22 9 23 11 24
REMARK SMILES IDX 13 25 10 26 22 27 23 28 24 29 25 30 26 31 27 32 28 33 29 34
REMARK SMILES IDX 90 35 30 36 89 37 31 38 32 39 33 40 83 41 34 42 88 43 82 44
REMARK SMILES IDX 84 45 35 46 87 47 81 48 80 49 36 51 68 52 48 53 67 54 49 55
REMARK SMILES IDX 52 56 66 57 85 58 50 59 51 60 65 62 86 63 53 64 37 65 38 66
REMARK SMILES IDX 46 67 39 68 45 69 47 70 44 71 40 72 41 73 42 74 43 75 69 76
REMARK SMILES IDX 70 77 78 78 71 79 77 80 79 81 76 82 72 83 73 84 74 85 75 86
REMARK SMILES IDX 54 87 55 88 63 89 56 90 62 91 64 92 61 93 57 94 58 95 59 96
REMARK SMILES IDX 60 97
REMARK H PARENT 3 17 84 50 52 61
REMARK Flexibility Score: inf
ROOT
ATOM      1  C   UNL A   1      28.899  30.906  23.726  1.00  0.00     0.188 C 
ENDROOT
BRANCH   1   2
ATOM      2  C   UNL A   1      27.937  30.538  22.592  1.00  0.00     0.188 C 
BRANCH   2   3
ATOM      3  O   UNL A   1      27.441  29.225  22.719  1.00  0.00    -0.376 OA
BRANCH   3   4
ATOM      4  C   UNL A   1      28.032  28.376  23.686  1.00  0.00     0.202 C 
BRANCH   4   5
ATOM      5  C   UNL A   1      28.804  27.067  23.383  1.00  0.00     0.261 C 
BRANCH   5   6
ATOM      6  O   UNL A   1      29.888  26.657  24.235  1.00  0.00    -0.461 OA
BRANCH   6   7
ATOM      7  C   UNL A   1      31.131  26.710  23.680  1.00  0.00     0.341 C 
ATOM      8  O   UNL A   1      31.419  27.466  22.756  1.00  0.00    -0.249 OA
BRANCH   7   9
ATOM      9  C   UNL A   1      32.154  25.736  24.306  1.00  0.00     0.231 C 
ATOM     10  C   UNL A   1      33.457  26.008  23.529  1.00  0.00     0.058 C 
BRANCH   9  11
ATOM     11  C   UNL A   1      32.198  26.232  25.784  1.00  0.00     0.422 C 
ATOM     12  F   UNL A   1      31.525  25.431  26.642  1.00  0.00    -0.168 F 
ATOM     13  F   UNL A   1      33.466  26.240  26.262  1.00  0.00    -0.168 F 
ATOM     14  F   UNL A   1      31.702  27.481  25.920  1.00  0.00    -0.168 F 
ENDBRANCH   9  11
BRANCH   9  15
ATOM     15  N   UNL A   1      31.806  24.267  24.212  1.00  0.00    -0.329 N 
ATOM     16  C   UNL A   1      32.501  23.154  24.654  1.00  0.00     0.258 C 
ATOM     17  H   UNL A   1      30.951  24.071  23.764  1.00  0.00     0.165 HD
ATOM     18  O   UNL A   1      31.912  22.092  24.831  1.00  0.00    -0.269 OA
BRANCH  16  19
ATOM     19  C   UNL A   1      33.968  23.161  24.734  1.00  0.00     0.111 A 
ATOM     20  C   UNL A   1      34.690  23.410  25.895  1.00  0.00     0.138 A 
ATOM     21  C   UNL A   1      34.670  22.955  23.546  1.00  0.00     0.138 A 
ATOM     22  F   UNL A   1      34.090  23.539  27.081  1.00  0.00    -0.206 F 
ATOM     23  C   UNL A   1      36.073  23.598  25.852  1.00  0.00     0.040 A 
ATOM     24  C   UNL A   1      36.054  23.106  23.495  1.00  0.00     0.040 A 
ATOM     25  F   UNL A   1      34.022  22.659  22.409  1.00  0.00    -0.206 F 
ATOM     26  C   UNL A   1      36.756  23.464  24.645  1.00  0.00     0.006 A 
ENDBRANCH  16  19
ENDBRANCH   9  15
ENDBRANCH   7   9
ENDBRANCH   6   7
ENDBRANCH   5   6
ENDBRANCH   4   5
ENDBRANCH   3   4
ENDBRANCH   2   3
ENDBRANCH   1   2
BRANCH   1  27
ATOM     27  O   UNL A   1      30.260  30.531  23.618  1.00  0.00    -0.376 OA
BRANCH  27  28
ATOM     28  C   UNL A   1      30.950  30.098  24.788  1.00  0.00     0.202 C 
BRANCH  28  29
ATOM     29  C   UNL A   1      31.360  31.020  25.966  1.00  0.00     0.261 C 
BRANCH  29  30
ATOM     30  O   UNL A   1      32.679  30.891  26.510  1.00  0.00    -0.460 OA
BRANCH  30  31
ATOM     31  C   UNL A   1      33.147  31.966  27.194  1.00  0.00     0.338 C 
ATOM     32  O   UNL A   1      32.531  32.985  27.459  1.00  0.00    -0.246 OA
BRANCH  31  33
ATOM     33  C   UNL A   1      34.462  31.605  27.774  1.00  0.00     0.060 A 
ATOM     34  C   UNL A   1      34.699  30.267  28.131  1.00  0.00     0.016 A 
ATOM     35  C   UNL A   1      35.464  32.563  27.941  1.00  0.00     0.016 A 
ATOM     36  C   UNL A   1      35.931  29.884  28.661  1.00  0.00     0.010 A 
ATOM     37  C   UNL A   1      36.683  32.185  28.514  1.00  0.00     0.010 A 
ATOM     38  C   UNL A   1      36.914  30.850  28.899  1.00  0.00    -0.014 A 
BRANCH  38  39
ATOM     39  C   UNL A   1      38.088  30.513  29.745  1.00  0.00     0.031 A 
ATOM     40  C   UNL A   1      39.092  29.532  29.201  1.00  0.00     0.074 A 
ATOM     41  C   UNL A   1      38.276  31.070  30.955  1.00  0.00     0.049 A 
ATOM     42  N   UNL A   1      40.143  29.008  29.776  1.00  0.00    -0.248 NA
ATOM     43  C   UNL A   1      38.871  29.080  27.818  1.00  0.00     0.031 C 
ATOM     44  C   UNL A   1      37.416  32.082  31.564  1.00  0.00     0.029 A 
ATOM     45  N   UNL A   1      39.254  30.849  31.895  1.00  0.00    -0.354 N 
ATOM     46  C   UNL A   1      40.704  28.156  28.830  1.00  0.00     0.074 A 
ATOM     47  C   UNL A   1      39.855  28.209  27.659  1.00  0.00     0.031 C 
ATOM     48  C   UNL A   1      37.895  32.382  32.785  1.00  0.00     0.029 A 
ATOM     49  C   UNL A   1      39.067  31.552  33.063  1.00  0.00     0.049 A 
ATOM     50  H   UNL A   1      40.016  30.243  31.748  1.00  0.00     0.167 HD
ATOM     51  C   UNL A   1      41.827  27.404  28.928  1.00  0.00     0.034 A 
ATOM     52  C   UNL A   1      39.744  31.505  34.230  1.00  0.00     0.034 A 
ATOM     53  C   UNL A   1      42.655  27.350  30.108  1.00  0.00     0.049 A 
ATOM     54  C   UNL A   1      40.929  30.572  34.356  1.00  0.00     0.074 A 
ATOM     55  C   UNL A   1      43.818  26.626  30.310  1.00  0.00     0.029 A 
ATOM     56  N   UNL A   1      42.404  28.033  31.291  1.00  0.00    -0.354 N 
ATOM     57  N   UNL A   1      41.451  29.766  33.460  1.00  0.00    -0.248 NA
ATOM     58  C   UNL A   1      41.621  30.548  35.654  1.00  0.00     0.031 C 
ATOM     59  C   UNL A   1      44.219  26.803  31.638  1.00  0.00     0.029 A 
ATOM     60  C   UNL A   1      43.365  27.715  32.238  1.00  0.00     0.049 A 
ATOM     61  H   UNL A   1      41.652  28.653  31.435  1.00  0.00     0.167 HD
ATOM     62  C   UNL A   1      42.552  29.171  34.074  1.00  0.00     0.074 A 
ATOM     63  C   UNL A   1      42.625  29.720  35.412  1.00  0.00     0.031 C 
ATOM     64  C   UNL A   1      43.428  28.260  33.575  1.00  0.00     0.034 A 
BRANCH  51  65
ATOM     65  C   UNL A   1      42.181  26.530  27.748  1.00  0.00     0.023 A 
ATOM     66  C   UNL A   1      41.677  25.225  27.611  1.00  0.00     0.031 A 
ATOM     67  C   UNL A   1      43.061  27.002  26.758  1.00  0.00     0.131 A 
ATOM     68  C   UNL A   1      42.112  24.414  26.551  1.00  0.00     0.055 A 
ATOM     69  C   UNL A   1      43.424  26.221  25.660  1.00  0.00     0.041 A 
ATOM     70  F   UNL A   1      43.596  28.230  26.849  1.00  0.00    -0.206 F 
ATOM     71  C   UNL A   1      42.960  24.913  25.559  1.00  0.00     0.022 A 
BRANCH  68  72
ATOM     72  S   UNL A   1      41.674  22.654  26.567  1.00  0.00     0.124 S 
ATOM     73  O   UNL A   1      40.214  22.713  26.551  1.00  0.00    -0.237 OA
ATOM     74  O   UNL A   1      42.307  22.160  25.349  1.00  0.00    -0.237 OA
ATOM     75  O   UNL A   1      42.256  22.168  27.815  1.00  0.00    -0.744 OA
ENDBRANCH  68  72
ENDBRANCH  51  65
BRANCH  52  76
ATOM     76  C   UNL A   1      39.297  32.316  35.401  1.00  0.00     0.023 A 
ATOM     77  C   UNL A   1      39.716  33.646  35.571  1.00  0.00     0.031 A 
ATOM     78  C   UNL A   1      38.499  31.747  36.411  1.00  0.00     0.131 A 
ATOM     79  C   UNL A   1      39.379  34.344  36.741  1.00  0.00     0.055 A 
ATOM     80  C   UNL A   1      38.115  32.465  37.545  1.00  0.00     0.041 A 
ATOM     81  F   UNL A   1      38.079  30.476  36.308  1.00  0.00    -0.206 F 
ATOM     82  C   UNL A   1      38.568  33.769  37.721  1.00  0.00     0.022 A 
BRANCH  79  83
ATOM     83  S   UNL A   1      40.100  35.987  37.016  1.00  0.00     0.124 S 
ATOM     84  O   UNL A   1      39.839  36.642  35.740  1.00  0.00    -0.237 OA
ATOM     85  O   UNL A   1      39.328  36.470  38.156  1.00  0.00    -0.237 OA
ATOM     86  O   UNL A   1      41.505  35.700  37.295  1.00  0.00    -0.744 OA
ENDBRANCH  79  83
ENDBRANCH  52  76
BRANCH  64  87
ATOM     87  C   UNL A   1      44.580  27.844  34.461  1.00  0.00     0.023 A 
ATOM     88  C   UNL A   1      44.500  26.732  35.318  1.00  0.00     0.031 A 
ATOM     89  C   UNL A   1      45.782  28.575  34.444  1.00  0.00     0.131 A 
ATOM     90  C   UNL A   1      45.578  26.420  36.163  1.00  0.00     0.055 A 
ATOM     91  C   UNL A   1      46.875  28.219  35.236  1.00  0.00     0.041 A 
ATOM     92  F   UNL A   1      45.917  29.650  33.650  1.00  0.00    -0.206 F 
ATOM     93  C   UNL A   1      46.772  27.144  36.112  1.00  0.00     0.022 A 
BRANCH  90  94
ATOM     94  S   UNL A   1      45.365  25.115  37.405  1.00  0.00     0.124 S 
ATOM     95  O   UNL A   1      46.000  25.706  38.579  1.00  0.00    -0.237 OA
ATOM     96  O   UNL A   1      43.913  24.977  37.468  1.00  0.00    -0.237 OA
ATOM     97  O   UNL A   1      46.072  23.972  36.829  1.00  0.00    -0.744 OA
ENDBRANCH  90  94
ENDBRANCH  64  87
ENDBRANCH  38  39
ENDBRANCH  31  33
ENDBRANCH  30  31
ENDBRANCH  29  30
ENDBRANCH  28  29
ENDBRANCH  27  28
ENDBRANCH   1  27
TORSDOF 23
ENDMDL
MODEL 3
REMARK VINA RESULT:     -10.3      1.717      2.067
REMARK SMILES C[C@](NC(=O)c1c(F)cccc1F)(C(=O)OCCOCCOCCOC(=O)c1ccc(-c2c3nc(c(-c4cc(S(=O)(=O)[O-])ccc4F)c4ccc([nH]4)c(-c4cc(S(=O)(=O)[O-])ccc4F)c4nc(c(-c5cc(S(=O)(=O)[O-])ccc5F)c5ccc2[nH]5)C=C4)C=C3)cc1)C(F)(F)F
REMARK SMILES IDX 21 1 20 2 19 3 18 4 17 5 16 6 14 7 15 8 2 9 1 10 91 11 92 12
REMARK SMILES IDX 93 13 94 14 3 15 4 16 5 18 6 19 7 20 12 21 8 22 9 23 11 24
REMARK SMILES IDX 13 25 10 26 22 27 23 28 24 29 25 30 26 31 27 32 28 33 29 34
REMARK SMILES IDX 90 35 30 36 89 37 31 38 32 39 33 40 83 41 34 42 88 43 82 44
REMARK SMILES IDX 84 45 35 46 87 47 81 48 80 49 36 51 68 52 48 53 67 54 49 55
REMARK SMILES IDX 52 56 66 57 85 58 50 59 51 60 65 62 86 63 53 64 37 65 38 66
REMARK SMILES IDX 46 67 39 68 45 69 47 70 44 71 40 72 41 73 42 74 43 75 69 76
REMARK SMILES IDX 70 77 78 78 71 79 77 80 79 81 76 82 72 83 73 84 74 85 75 86
REMARK SMILES IDX 54 87 55 88 63 89 56 90 62 91 64 92 61 93 57 94 58 95 59 96
REMARK SMILES IDX 60 97
REMARK H PARENT 3 17 84 50 52 61
REMARK Flexibility Score: inf
ROOT
ATOM      1  C   UNL A   1      35.442  20.254  25.038  1.00  0.00     0.188 C 
ENDROOT
BRANCH   1   2
ATOM      2  C   UNL A   1      33.959  20.544  24.778  1.00  0.00     0.188 C 
BRANCH   2   3
ATOM      3  O   UNL A   1      33.418  21.438  25.723  1.00  0.00    -0.376 OA
BRANCH   3   4
ATOM      4  C   UNL A   1      32.681  22.551  25.248  1.00  0.00     0.202 C 
BRANCH   4   5
ATOM      5  C   UNL A   1      32.297  23.798  26.083  1.00  0.00     0.261 C 
BRANCH   5   6
ATOM      6  O   UNL A   1      31.375  24.765  25.549  1.00  0.00    -0.461 OA
BRANCH   6   7
ATOM      7  C   UNL A   1      31.588  26.058  25.927  1.00  0.00     0.341 C 
ATOM      8  O   UNL A   1      31.385  26.462  27.068  1.00  0.00    -0.249 OA
BRANCH   7   9
ATOM      9  C   UNL A   1      32.103  26.977  24.799  1.00  0.00     0.231 C 
ATOM     10  C   UNL A   1      31.398  28.323  25.059  1.00  0.00     0.058 C 
BRANCH   9  11
ATOM     11  C   UNL A   1      33.634  27.011  25.094  1.00  0.00     0.422 C 
ATOM     12  F   UNL A   1      34.171  28.250  25.014  1.00  0.00    -0.168 F 
ATOM     13  F   UNL A   1      33.899  26.615  26.362  1.00  0.00    -0.168 F 
ATOM     14  F   UNL A   1      34.334  26.211  24.261  1.00  0.00    -0.168 F 
ENDBRANCH   9  11
BRANCH   9  15
ATOM     15  N   UNL A   1      31.808  26.517  23.388  1.00  0.00    -0.329 N 
ATOM     16  C   UNL A   1      31.006  27.083  22.412  1.00  0.00     0.258 C 
ATOM     17  H   UNL A   1      32.257  25.682  23.122  1.00  0.00     0.165 HD
ATOM     18  O   UNL A   1      31.176  26.793  21.232  1.00  0.00    -0.269 OA
BRANCH  16  19
ATOM     19  C   UNL A   1      29.825  27.880  22.773  1.00  0.00     0.111 A 
ATOM     20  C   UNL A   1      28.700  27.371  23.413  1.00  0.00     0.138 A 
ATOM     21  C   UNL A   1      29.824  29.222  22.394  1.00  0.00     0.138 A 
ATOM     22  F   UNL A   1      28.661  26.118  23.872  1.00  0.00    -0.206 F 
ATOM     23  C   UNL A   1      27.542  28.139  23.542  1.00  0.00     0.040 A 
ATOM     24  C   UNL A   1      28.685  30.011  22.548  1.00  0.00     0.040 A 
ATOM     25  F   UNL A   1      30.904  29.774  21.821  1.00  0.00    -0.206 F 
ATOM     26  C   UNL A   1      27.526  29.458  23.091  1.00  0.00     0.006 A 
ENDBRANCH  16  19
ENDBRANCH   9  15
ENDBRANCH   7   9
ENDBRANCH   6   7
ENDBRANCH   5   6
ENDBRANCH   4   5
ENDBRANCH   3   4
ENDBRANCH   2   3
ENDBRANCH   1   2
BRANCH   1  27
ATOM     27  O   UNL A   1      36.413  21.150  24.533  1.00  0.00    -0.376 OA
BRANCH  27  28
ATOM     28  C   UNL A   1      37.564  21.438  25.325  1.00  0.00     0.202 C 
BRANCH  28  29
ATOM     29  C   UNL A   1      38.736  20.453  25.573  1.00  0.00     0.261 C 
BRANCH  29  30
ATOM     30  O   UNL A   1      40.049  20.987  25.774  1.00  0.00    -0.460 OA
BRANCH  30  31
ATOM     31  C   UNL A   1      40.477  21.045  27.061  1.00  0.00     0.338 C 
ATOM     32  O   UNL A   1      40.756  20.100  27.779  1.00  0.00    -0.246 OA
BRANCH  31  33
ATOM     33  C   UNL A   1      40.774  22.461  27.383  1.00  0.00     0.060 A 
ATOM     34  C   UNL A   1      40.080  23.471  26.694  1.00  0.00     0.016 A 
ATOM     35  C   UNL A   1      41.704  22.797  28.368  1.00  0.00     0.016 A 
ATOM     36  C   UNL A   1      40.318  24.814  26.983  1.00  0.00     0.010 A 
ATOM     37  C   UNL A   1      41.973  24.146  28.624  1.00  0.00     0.010 A 
ATOM     38  C   UNL A   1      41.300  25.161  27.917  1.00  0.00    -0.014 A 
BRANCH  38  39
ATOM     39  C   UNL A   1      41.778  26.565  27.995  1.00  0.00     0.031 A 
ATOM     40  C   UNL A   1      43.110  26.892  27.373  1.00  0.00     0.074 A 
ATOM     41  C   UNL A   1      41.052  27.533  28.582  1.00  0.00     0.049 A 
ATOM     42  N   UNL A   1      43.785  28.012  27.387  1.00  0.00    -0.248 NA
ATOM     43  C   UNL A   1      43.767  25.799  26.639  1.00  0.00     0.031 C 
ATOM     44  C   UNL A   1      39.720  27.361  29.159  1.00  0.00     0.029 A 
ATOM     45  N   UNL A   1      41.344  28.858  28.800  1.00  0.00    -0.354 N 
ATOM     46  C   UNL A   1      44.952  27.757  26.675  1.00  0.00     0.074 A 
ATOM     47  C   UNL A   1      44.906  26.367  26.273  1.00  0.00     0.031 C 
ATOM     48  C   UNL A   1      39.317  28.533  29.681  1.00  0.00     0.029 A 
ATOM     49  C   UNL A   1      40.378  29.527  29.517  1.00  0.00     0.049 A 
ATOM     50  H   UNL A   1      42.168  29.289  28.474  1.00  0.00     0.167 HD
ATOM     51  C   UNL A   1      45.966  28.605  26.377  1.00  0.00     0.034 A 
ATOM     52  C   UNL A   1      40.369  30.783  30.011  1.00  0.00     0.034 A 
ATOM     53  C   UNL A   1      46.005  29.985  26.797  1.00  0.00     0.049 A 
ATOM     54  C   UNL A   1      41.562  31.680  29.764  1.00  0.00     0.074 A 
ATOM     55  C   UNL A   1      46.982  30.933  26.545  1.00  0.00     0.029 A 
ATOM     56  N   UNL A   1      45.036  30.612  27.570  1.00  0.00    -0.354 N 
ATOM     57  N   UNL A   1      42.665  31.430  29.094  1.00  0.00    -0.248 NA
ATOM     58  C   UNL A   1      41.507  33.033  30.338  1.00  0.00     0.031 C 
ATOM     59  C   UNL A   1      46.646  32.102  27.234  1.00  0.00     0.029 A 
ATOM     60  C   UNL A   1      45.411  31.920  27.837  1.00  0.00     0.049 A 
ATOM     61  H   UNL A   1      44.203  30.188  27.882  1.00  0.00     0.167 HD
ATOM     62  C   UNL A   1      43.412  32.607  29.134  1.00  0.00     0.074 A 
ATOM     63  C   UNL A   1      42.630  33.567  29.884  1.00  0.00     0.031 C 
ATOM     64  C   UNL A   1      44.630  32.871  28.593  1.00  0.00     0.034 A 
BRANCH  51  65
ATOM     65  C   UNL A   1      47.143  28.041  25.618  1.00  0.00     0.023 A 
ATOM     66  C   UNL A   1      47.296  28.230  24.234  1.00  0.00     0.031 A 
ATOM     67  C   UNL A   1      48.113  27.274  26.288  1.00  0.00     0.131 A 
ATOM     68  C   UNL A   1      48.352  27.602  23.554  1.00  0.00     0.055 A 
ATOM     69  C   UNL A   1      49.209  26.724  25.621  1.00  0.00     0.041 A 
ATOM     70  F   UNL A   1      48.007  27.037  27.605  1.00  0.00    -0.206 F 
ATOM     71  C   UNL A   1      49.324  26.874  24.242  1.00  0.00     0.022 A 
BRANCH  68  72
ATOM     72  S   UNL A   1      48.352  27.626  21.740  1.00  0.00     0.124 S 
ATOM     73  O   UNL A   1      49.496  28.489  21.457  1.00  0.00    -0.237 OA
ATOM     74  O   UNL A   1      48.516  26.216  21.406  1.00  0.00    -0.237 OA
ATOM     75  O   UNL A   1      47.051  28.200  21.405  1.00  0.00    -0.744 OA
ENDBRANCH  68  72
ENDBRANCH  51  65
BRANCH  52  76
ATOM     76  C   UNL A   1      39.224  31.265  30.839  1.00  0.00     0.023 A 
ATOM     77  C   UNL A   1      39.303  31.308  32.241  1.00  0.00     0.031 A 
ATOM     78  C   UNL A   1      38.002  31.623  30.241  1.00  0.00     0.131 A 
ATOM     79  C   UNL A   1      38.172  31.651  32.998  1.00  0.00     0.055 A 
ATOM     80  C   UNL A   1      36.897  32.022  30.995  1.00  0.00     0.041 A 
ATOM     81  F   UNL A   1      37.864  31.590  28.906  1.00  0.00    -0.206 F 
ATOM     82  C   UNL A   1      36.974  32.024  32.384  1.00  0.00     0.022 A 
BRANCH  79  83
ATOM     83  S   UNL A   1      38.253  31.504  34.805  1.00  0.00     0.124 S 
ATOM     84  O   UNL A   1      39.515  32.172  35.100  1.00  0.00    -0.237 OA
ATOM     85  O   UNL A   1      37.043  32.206  35.220  1.00  0.00    -0.237 OA
ATOM     86  O   UNL A   1      38.242  30.061  35.031  1.00  0.00    -0.744 OA
ENDBRANCH  79  83
ENDBRANCH  52  76
BRANCH  64  87
ATOM     87  C   UNL A   1      45.168  34.277  28.742  1.00  0.00     0.023 A 
ATOM     88  C   UNL A   1      45.997  34.651  29.814  1.00  0.00     0.031 A 
ATOM     89  C   UNL A   1      44.843  35.259  27.788  1.00  0.00     0.131 A 
ATOM     90  C   UNL A   1      46.424  35.983  29.937  1.00  0.00     0.055 A 
ATOM     91  C   UNL A   1      45.327  36.565  27.879  1.00  0.00     0.041 A 
ATOM     92  F   UNL A   1      44.051  34.964  26.744  1.00  0.00    -0.206 F 
ATOM     93  C   UNL A   1      46.112  36.937  28.966  1.00  0.00     0.022 A 
BRANCH  90  94
ATOM     94  S   UNL A   1      47.311  36.480  31.440  1.00  0.00     0.124 S 
ATOM     95  O   UNL A   1      46.757  37.805  31.696  1.00  0.00    -0.237 OA
ATOM     96  O   UNL A   1      46.933  35.436  32.387  1.00  0.00    -0.237 OA
ATOM     97  O   UNL A   1      48.716  36.466  31.031  1.00  0.00    -0.744 OA
ENDBRANCH  90  94
ENDBRANCH  64  87
ENDBRANCH  38  39
ENDBRANCH  31  33
ENDBRANCH  30  31
ENDBRANCH  29  30
ENDBRANCH  28  29
ENDBRANCH  27  28
ENDBRANCH   1  27
TORSDOF 23
ENDMDL
