MODEL 1
REMARK VINA RESULT:     -10.9      0.000      0.000
REMARK SMILES COc1ccc2cc([C@H](C)C(=O)OCCOCCOCCOC(=O)c3ccc(-c4c5nc(c(-c6cc(S(=O)(=O)[O-])ccc6F)c6ccc([nH]6)c(-c6cc(S(=O)(=O)[O-])ccc6F)c6nc(c(-c7cc(S(=O)(=O)[O-])ccc7F)c7ccc4[nH]7)C=C6)C=C5)cc3)ccc2c1
REMARK SMILES IDX 18 1 17 2 16 3 15 4 14 5 13 6 11 7 12 8 9 9 10 10 8 11 3 12
REMARK SMILES IDX 4 13 91 14 5 15 90 16 6 17 89 18 7 19 88 20 2 21 1 22 19 23
REMARK SMILES IDX 20 24 21 25 22 26 23 27 24 28 25 29 26 30 87 31 27 32 86 33
REMARK SMILES IDX 28 34 29 35 30 36 80 37 31 38 85 39 79 40 81 41 32 42 84 43
REMARK SMILES IDX 78 44 77 45 33 47 65 48 45 49 64 50 46 51 49 52 63 53 82 54
REMARK SMILES IDX 47 55 48 56 62 58 83 59 50 60 34 61 35 62 43 63 36 64 42 65
REMARK SMILES IDX 44 66 41 67 37 68 38 69 39 70 40 71 66 72 67 73 75 74 68 75
REMARK SMILES IDX 74 76 76 77 73 78 69 79 70 80 71 81 72 82 51 83 52 84 60 85
REMARK SMILES IDX 53 86 59 87 61 88 58 89 54 90 55 91 56 92 57 93
REMARK H PARENT 81 46 49 57
REMARK Flexibility Score: inf
ROOT
ATOM      1  C   UNL A   1      36.142  21.147  25.441  1.00  0.00     0.188 C 
ENDROOT
BRANCH   1   2
ATOM      2  C   UNL A   1      35.142  21.755  24.450  1.00  0.00     0.188 C 
BRANCH   2   3
ATOM      3  O   UNL A   1      34.381  22.887  24.846  1.00  0.00    -0.376 OA
BRANCH   3   4
ATOM      4  C   UNL A   1      34.707  24.174  24.339  1.00  0.00     0.202 C 
BRANCH   4   5
ATOM      5  C   UNL A   1      33.878  25.409  24.744  1.00  0.00     0.261 C 
BRANCH   5   6
ATOM      6  O   UNL A   1      33.064  25.283  25.931  1.00  0.00    -0.463 OA
BRANCH   6   7
ATOM      7  C   UNL A   1      31.722  25.406  25.744  1.00  0.00     0.313 C 
ATOM      8  O   UNL A   1      30.897  25.277  26.646  1.00  0.00    -0.252 OA
BRANCH   7   9
ATOM      9  C   UNL A   1      31.290  25.652  24.282  1.00  0.00     0.126 C 
ATOM     10  C   UNL A   1      30.347  24.679  23.566  1.00  0.00     0.025 C 
BRANCH   9  11
ATOM     11  C   UNL A   1      30.761  27.063  24.224  1.00  0.00    -0.033 A 
ATOM     12  C   UNL A   1      28.386  31.168  22.577  1.00  0.00     0.119 A 
ATOM     13  C   UNL A   1      27.595  30.087  22.184  1.00  0.00     0.047 A 
ATOM     14  C   UNL A   1      29.549  30.960  23.316  1.00  0.00     0.055 A 
ATOM     15  C   UNL A   1      27.958  28.794  22.550  1.00  0.00     0.012 A 
ATOM     16  C   UNL A   1      29.932  29.670  23.679  1.00  0.00    -0.015 A 
ATOM     17  C   UNL A   1      29.126  28.577  23.286  1.00  0.00    -0.018 A 
ATOM     18  C   UNL A   1      31.119  29.444  24.387  1.00  0.00     0.009 A 
ATOM     19  C   UNL A   1      29.537  27.283  23.582  1.00  0.00     0.013 A 
ATOM     20  C   UNL A   1      31.541  28.147  24.642  1.00  0.00     0.005 A 
BRANCH  12  21
ATOM     21  O   UNL A   1      28.133  32.467  22.227  1.00  0.00    -0.497 OA
ATOM     22  C   UNL A   1      28.777  33.408  23.077  1.00  0.00     0.278 C 
ENDBRANCH  12  21
ENDBRANCH   9  11
ENDBRANCH   7   9
ENDBRANCH   6   7
ENDBRANCH   5   6
ENDBRANCH   4   5
ENDBRANCH   3   4
ENDBRANCH   2   3
ENDBRANCH   1   2
BRANCH   1  23
ATOM     23  O   UNL A   1      37.421  20.881  24.924  1.00  0.00    -0.376 OA
BRANCH  23  24
ATOM     24  C   UNL A   1      37.921  19.558  24.987  1.00  0.00     0.202 C 
BRANCH  24  25
ATOM     25  C   UNL A   1      39.226  19.224  25.733  1.00  0.00     0.261 C 
BRANCH  25  26
ATOM     26  O   UNL A   1      40.231  20.246  25.818  1.00  0.00    -0.460 OA
BRANCH  26  27
ATOM     27  C   UNL A   1      40.935  20.337  26.972  1.00  0.00     0.338 C 
ATOM     28  O   UNL A   1      41.546  19.434  27.523  1.00  0.00    -0.246 OA
BRANCH  27  29
ATOM     29  C   UNL A   1      41.057  21.780  27.302  1.00  0.00     0.060 A 
ATOM     30  C   UNL A   1      40.322  22.722  26.562  1.00  0.00     0.016 A 
ATOM     31  C   UNL A   1      41.859  22.195  28.366  1.00  0.00     0.016 A 
ATOM     32  C   UNL A   1      40.407  24.082  26.871  1.00  0.00     0.010 A 
ATOM     33  C   UNL A   1      41.966  23.559  28.653  1.00  0.00     0.010 A 
ATOM     34  C   UNL A   1      41.264  24.512  27.890  1.00  0.00    -0.014 A 
BRANCH  34  35
ATOM     35  C   UNL A   1      41.621  25.949  28.018  1.00  0.00     0.031 A 
ATOM     36  C   UNL A   1      42.962  26.384  27.491  1.00  0.00     0.074 A 
ATOM     37  C   UNL A   1      40.799  26.845  28.592  1.00  0.00     0.049 A 
ATOM     38  N   UNL A   1      43.574  27.533  27.609  1.00  0.00    -0.248 NA
ATOM     39  C   UNL A   1      43.719  25.370  26.739  1.00  0.00     0.031 C 
ATOM     40  C   UNL A   1      39.449  26.568  29.079  1.00  0.00     0.029 A 
ATOM     41  N   UNL A   1      40.992  28.176  28.878  1.00  0.00    -0.354 N 
ATOM     42  C   UNL A   1      44.795  27.376  26.961  1.00  0.00     0.074 A 
ATOM     43  C   UNL A   1      44.848  26.011  26.485  1.00  0.00     0.031 C 
ATOM     44  C   UNL A   1      38.945  27.690  29.623  1.00  0.00     0.029 A 
ATOM     45  C   UNL A   1      39.951  28.750  29.572  1.00  0.00     0.049 A 
ATOM     46  H   UNL A   1      41.801  28.671  28.612  1.00  0.00     0.167 HD
ATOM     47  C   UNL A   1      45.781  28.288  26.780  1.00  0.00     0.034 A 
ATOM     48  C   UNL A   1      39.844  29.973  30.133  1.00  0.00     0.034 A 
ATOM     49  C   UNL A   1      45.718  29.641  27.275  1.00  0.00     0.049 A 
ATOM     50  C   UNL A   1      41.000  30.942  30.016  1.00  0.00     0.074 A 
ATOM     51  C   UNL A   1      46.657  30.649  27.144  1.00  0.00     0.029 A 
ATOM     52  N   UNL A   1      44.666  30.172  28.010  1.00  0.00    -0.354 N 
ATOM     53  N   UNL A   1      42.157  30.783  29.412  1.00  0.00    -0.248 NA
ATOM     54  C   UNL A   1      40.836  32.256  30.653  1.00  0.00     0.031 C 
ATOM     55  C   UNL A   1      46.213  31.759  27.870  1.00  0.00     0.029 A 
ATOM     56  C   UNL A   1      44.951  31.480  28.370  1.00  0.00     0.049 A 
ATOM     57  H   UNL A   1      43.840  29.690  28.242  1.00  0.00     0.167 HD
ATOM     58  C   UNL A   1      42.836  31.993  29.562  1.00  0.00     0.074 A 
ATOM     59  C   UNL A   1      41.959  32.870  30.308  1.00  0.00     0.031 C 
ATOM     60  C   UNL A   1      44.067  32.350  29.114  1.00  0.00     0.034 A 
BRANCH  47  61
ATOM     61  C   UNL A   1      47.031  27.826  26.071  1.00  0.00     0.023 A 
ATOM     62  C   UNL A   1      47.235  28.053  24.700  1.00  0.00     0.031 A 
ATOM     63  C   UNL A   1      48.020  27.113  26.774  1.00  0.00     0.131 A 
ATOM     64  C   UNL A   1      48.358  27.508  24.059  1.00  0.00     0.055 A 
ATOM     65  C   UNL A   1      49.179  26.651  26.149  1.00  0.00     0.041 A 
ATOM     66  F   UNL A   1      47.868  26.840  28.079  1.00  0.00    -0.206 F 
ATOM     67  C   UNL A   1      49.346  26.833  24.780  1.00  0.00     0.022 A 
BRANCH  64  68
ATOM     68  S   UNL A   1      48.429  27.555  22.248  1.00  0.00     0.124 S 
ATOM     69  O   UNL A   1      47.170  28.221  21.921  1.00  0.00    -0.237 OA
ATOM     70  O   UNL A   1      49.642  28.324  21.998  1.00  0.00    -0.237 OA
ATOM     71  O   UNL A   1      48.494  26.144  21.871  1.00  0.00    -0.744 OA
ENDBRANCH  64  68
ENDBRANCH  47  61
BRANCH  48  72
ATOM     72  C   UNL A   1      38.623  30.350  30.906  1.00  0.00     0.023 A 
ATOM     73  C   UNL A   1      37.567  31.050  30.302  1.00  0.00     0.031 A 
ATOM     74  C   UNL A   1      38.525  30.077  32.283  1.00  0.00     0.131 A 
ATOM     75  C   UNL A   1      36.484  31.496  31.079  1.00  0.00     0.055 A 
ATOM     76  C   UNL A   1      37.418  30.467  33.039  1.00  0.00     0.041 A 
ATOM     77  F   UNL A   1      39.511  29.421  32.918  1.00  0.00    -0.206 F 
ATOM     78  C   UNL A   1      36.395  31.194  32.439  1.00  0.00     0.022 A 
BRANCH  75  79
ATOM     79  S   UNL A   1      35.242  32.568  30.304  1.00  0.00     0.124 S 
ATOM     80  O   UNL A   1      36.051  33.713  29.902  1.00  0.00    -0.237 OA
ATOM     81  O   UNL A   1      34.742  31.723  29.225  1.00  0.00    -0.237 OA
ATOM     82  O   UNL A   1      34.291  32.823  31.385  1.00  0.00    -0.744 OA
ENDBRANCH  75  79
ENDBRANCH  48  72
BRANCH  60  83
ATOM     83  C   UNL A   1      44.515  33.774  29.352  1.00  0.00     0.023 A 
ATOM     84  C   UNL A   1      44.058  34.846  28.567  1.00  0.00     0.031 A 
ATOM     85  C   UNL A   1      45.411  34.060  30.400  1.00  0.00     0.131 A 
ATOM     86  C   UNL A   1      44.535  36.145  28.811  1.00  0.00     0.055 A 
ATOM     87  C   UNL A   1      45.829  35.361  30.680  1.00  0.00     0.041 A 
ATOM     88  F   UNL A   1      45.886  33.075  31.181  1.00  0.00    -0.206 F 
ATOM     89  C   UNL A   1      45.401  36.412  29.876  1.00  0.00     0.022 A 
BRANCH  86  90
ATOM     90  S   UNL A   1      44.081  37.474  27.663  1.00  0.00     0.124 S 
ATOM     91  O   UNL A   1      43.326  38.375  28.526  1.00  0.00    -0.237 OA
ATOM     92  O   UNL A   1      45.382  37.959  27.216  1.00  0.00    -0.237 OA
ATOM     93  O   UNL A   1      43.292  36.789  26.640  1.00  0.00    -0.744 OA
ENDBRANCH  86  90
ENDBRANCH  60  83
ENDBRANCH  34  35
ENDBRANCH  27  29
ENDBRANCH  26  27
ENDBRANCH  25  26
ENDBRANCH  24  25
ENDBRANCH  23  24
ENDBRANCH   1  23
TORSDOF 22
ENDMDL
MODEL 2
REMARK VINA RESULT:     -10.4      2.355      4.040
REMARK SMILES COc1ccc2cc([C@H](C)C(=O)OCCOCCOCCOC(=O)c3ccc(-c4c5nc(c(-c6cc(S(=O)(=O)[O-])ccc6F)c6ccc([nH]6)c(-c6cc(S(=O)(=O)[O-])ccc6F)c6nc(c(-c7cc(S(=O)(=O)[O-])ccc7F)c7ccc4[nH]7)C=C6)C=C5)cc3)ccc2c1
REMARK SMILES IDX 18 1 17 2 16 3 15 4 14 5 13 6 11 7 12 8 9 9 10 10 8 11 3 12
REMARK SMILES IDX 4 13 91 14 5 15 90 16 6 17 89 18 7 19 88 20 2 21 1 22 19 23
REMARK SMILES IDX 20 24 21 25 22 26 23 27 24 28 25 29 26 30 87 31 27 32 86 33
REMARK SMILES IDX 28 34 29 35 30 36 80 37 31 38 85 39 79 40 81 41 32 42 84 43
REMARK SMILES IDX 78 44 77 45 33 47 65 48 45 49 64 50 46 51 49 52 63 53 82 54
REMARK SMILES IDX 47 55 48 56 62 58 83 59 50 60 34 61 35 62 43 63 36 64 42 65
REMARK SMILES IDX 44 66 41 67 37 68 38 69 39 70 40 71 66 72 67 73 75 74 68 75
REMARK SMILES IDX 74 76 76 77 73 78 69 79 70 80 71 81 72 82 51 83 52 84 60 85
REMARK SMILES IDX 53 86 59 87 61 88 58 89 54 90 55 91 56 92 57 93
REMARK H PARENT 81 46 49 57
REMARK Flexibility Score: inf
ROOT
ATOM      1  C   UNL A   1      36.476  21.972  24.518  1.00  0.00     0.188 C 
ENDROOT
BRANCH   1   2
ATOM      2  C   UNL A   1      36.622  23.179  23.584  1.00  0.00     0.188 C 
BRANCH   2   3
ATOM      3  O   UNL A   1      35.561  23.493  22.693  1.00  0.00    -0.376 OA
BRANCH   3   4
ATOM      4  C   UNL A   1      34.340  24.015  23.200  1.00  0.00     0.202 C 
BRANCH   4   5
ATOM      5  C   UNL A   1      33.969  25.495  22.981  1.00  0.00     0.261 C 
BRANCH   5   6
ATOM      6  O   UNL A   1      34.101  26.372  24.121  1.00  0.00    -0.463 OA
BRANCH   6   7
ATOM      7  C   UNL A   1      32.964  27.005  24.515  1.00  0.00     0.313 C 
ATOM      8  O   UNL A   1      32.400  27.868  23.846  1.00  0.00    -0.252 OA
BRANCH   7   9
ATOM      9  C   UNL A   1      32.456  26.612  25.919  1.00  0.00     0.126 C 
ATOM     10  C   UNL A   1      31.335  27.404  26.602  1.00  0.00     0.025 C 
BRANCH   9  11
ATOM     11  C   UNL A   1      32.121  25.142  25.857  1.00  0.00    -0.033 A 
ATOM     12  C   UNL A   1      32.686  20.155  25.738  1.00  0.00     0.119 A 
ATOM     13  C   UNL A   1      33.677  20.630  26.597  1.00  0.00     0.047 A 
ATOM     14  C   UNL A   1      31.776  21.035  25.154  1.00  0.00     0.055 A 
ATOM     15  C   UNL A   1      33.746  21.989  26.891  1.00  0.00     0.012 A 
ATOM     16  C   UNL A   1      31.841  22.401  25.429  1.00  0.00    -0.015 A 
ATOM     17  C   UNL A   1      32.842  22.878  26.305  1.00  0.00    -0.018 A 
ATOM     18  C   UNL A   1      30.959  23.300  24.818  1.00  0.00     0.009 A 
ATOM     19  C   UNL A   1      32.958  24.245  26.530  1.00  0.00     0.013 A 
ATOM     20  C   UNL A   1      31.109  24.665  25.016  1.00  0.00     0.005 A 
BRANCH  12  21
ATOM     21  O   UNL A   1      32.568  18.846  25.357  1.00  0.00    -0.497 OA
ATOM     22  C   UNL A   1      33.426  18.500  24.276  1.00  0.00     0.278 C 
ENDBRANCH  12  21
ENDBRANCH   9  11
ENDBRANCH   7   9
ENDBRANCH   6   7
ENDBRANCH   5   6
ENDBRANCH   4   5
ENDBRANCH   3   4
ENDBRANCH   2   3
ENDBRANCH   1   2
BRANCH   1  23
ATOM     23  O   UNL A   1      37.680  21.412  24.977  1.00  0.00    -0.376 OA
BRANCH  23  24
ATOM     24  C   UNL A   1      37.820  20.004  24.980  1.00  0.00     0.202 C 
BRANCH  24  25
ATOM     25  C   UNL A   1      39.009  19.313  25.675  1.00  0.00     0.261 C 
BRANCH  25  26
ATOM     26  O   UNL A   1      40.268  20.002  25.693  1.00  0.00    -0.460 OA
BRANCH  26  27
ATOM     27  C   UNL A   1      40.914  20.093  26.880  1.00  0.00     0.338 C 
ATOM     28  O   UNL A   1      41.475  19.183  27.472  1.00  0.00    -0.246 OA
BRANCH  27  29
ATOM     29  C   UNL A   1      41.054  21.536  27.197  1.00  0.00     0.060 A 
ATOM     30  C   UNL A   1      40.399  22.486  26.395  1.00  0.00     0.016 A 
ATOM     31  C   UNL A   1      41.792  21.947  28.308  1.00  0.00     0.016 A 
ATOM     32  C   UNL A   1      40.500  23.848  26.689  1.00  0.00     0.010 A 
ATOM     33  C   UNL A   1      41.917  23.312  28.582  1.00  0.00     0.010 A 
ATOM     34  C   UNL A   1      41.297  24.271  27.759  1.00  0.00    -0.014 A 
BRANCH  34  35
ATOM     35  C   UNL A   1      41.685  25.700  27.891  1.00  0.00     0.031 A 
ATOM     36  C   UNL A   1      43.039  26.106  27.375  1.00  0.00     0.074 A 
ATOM     37  C   UNL A   1      40.878  26.614  28.459  1.00  0.00     0.049 A 
ATOM     38  N   UNL A   1      43.675  27.240  27.499  1.00  0.00    -0.248 NA
ATOM     39  C   UNL A   1      43.780  25.075  26.629  1.00  0.00     0.031 C 
ATOM     40  C   UNL A   1      39.519  26.366  28.935  1.00  0.00     0.029 A 
ATOM     41  N   UNL A   1      41.098  27.939  28.747  1.00  0.00    -0.354 N 
ATOM     42  C   UNL A   1      44.898  27.057  26.861  1.00  0.00     0.074 A 
ATOM     43  C   UNL A   1      44.925  25.691  26.384  1.00  0.00     0.031 C 
ATOM     44  C   UNL A   1      39.035  27.498  29.476  1.00  0.00     0.029 A 
ATOM     45  C   UNL A   1      40.065  28.536  29.433  1.00  0.00     0.049 A 
ATOM     46  H   UNL A   1      41.920  28.417  28.489  1.00  0.00     0.167 HD
ATOM     47  C   UNL A   1      45.905  27.947  26.688  1.00  0.00     0.034 A 
ATOM     48  C   UNL A   1      39.980  29.761  29.994  1.00  0.00     0.034 A 
ATOM     49  C   UNL A   1      45.869  29.300  27.184  1.00  0.00     0.049 A 
ATOM     50  C   UNL A   1      41.159  30.704  29.887  1.00  0.00     0.074 A 
ATOM     51  C   UNL A   1      46.831  30.288  27.062  1.00  0.00     0.029 A 
ATOM     52  N   UNL A   1      44.822  29.854  27.911  1.00  0.00    -0.354 N 
ATOM     53  N   UNL A   1      42.317  30.520  29.293  1.00  0.00    -0.248 NA
ATOM     54  C   UNL A   1      41.018  32.021  30.524  1.00  0.00     0.031 C 
ATOM     55  C   UNL A   1      46.405  31.406  27.784  1.00  0.00     0.029 A 
ATOM     56  C   UNL A   1      45.133  31.156  28.274  1.00  0.00     0.049 A 
ATOM     57  H   UNL A   1      43.984  29.391  28.136  1.00  0.00     0.167 HD
ATOM     58  C   UNL A   1      43.021  31.714  29.449  1.00  0.00     0.074 A 
ATOM     59  C   UNL A   1      42.157  32.611  30.188  1.00  0.00     0.031 C 
ATOM     60  C   UNL A   1      44.263  32.044  29.012  1.00  0.00     0.034 A 
BRANCH  47  61
ATOM     61  C   UNL A   1      47.151  27.457  25.990  1.00  0.00     0.023 A 
ATOM     62  C   UNL A   1      48.210  26.858  26.692  1.00  0.00     0.031 A 
ATOM     63  C   UNL A   1      47.295  27.626  24.600  1.00  0.00     0.131 A 
ATOM     64  C   UNL A   1      49.394  26.521  26.019  1.00  0.00     0.055 A 
ATOM     65  C   UNL A   1      48.440  27.205  23.922  1.00  0.00     0.041 A 
ATOM     66  F   UNL A   1      46.330  28.217  23.879  1.00  0.00    -0.206 F 
ATOM     67  C   UNL A   1      49.505  26.663  24.635  1.00  0.00     0.022 A 
BRANCH  64  68
ATOM     68  S   UNL A   1      50.841  26.044  27.002  1.00  0.00     0.124 S 
ATOM     69  O   UNL A   1      50.227  25.690  28.279  1.00  0.00    -0.237 OA
ATOM     70  O   UNL A   1      51.395  24.937  26.231  1.00  0.00    -0.237 OA
ATOM     71  O   UNL A   1      51.654  27.258  27.026  1.00  0.00    -0.744 OA
ENDBRANCH  64  68
ENDBRANCH  47  61
BRANCH  48  72
ATOM     72  C   UNL A   1      38.761  30.164  30.758  1.00  0.00     0.023 A 
ATOM     73  C   UNL A   1      37.723  30.883  30.144  1.00  0.00     0.031 A 
ATOM     74  C   UNL A   1      38.648  29.897  32.135  1.00  0.00     0.131 A 
ATOM     75  C   UNL A   1      36.645  31.353  30.912  1.00  0.00     0.055 A 
ATOM     76  C   UNL A   1      37.545  30.312  32.882  1.00  0.00     0.041 A 
ATOM     77  F   UNL A   1      39.617  29.224  32.778  1.00  0.00    -0.206 F 
ATOM     78  C   UNL A   1      36.540  31.057  32.273  1.00  0.00     0.022 A 
BRANCH  75  79
ATOM     79  S   UNL A   1      35.429  32.447  30.126  1.00  0.00     0.124 S 
ATOM     80  O   UNL A   1      34.362  32.465  31.120  1.00  0.00    -0.237 OA
ATOM     81  O   UNL A   1      36.187  33.684  29.975  1.00  0.00    -0.237 OA
ATOM     82  O   UNL A   1      35.109  31.758  28.877  1.00  0.00    -0.744 OA
ENDBRANCH  75  79
ENDBRANCH  48  72
BRANCH  60  83
ATOM     83  C   UNL A   1      44.740  33.458  29.254  1.00  0.00     0.023 A 
ATOM     84  C   UNL A   1      44.393  34.524  28.407  1.00  0.00     0.031 A 
ATOM     85  C   UNL A   1      45.551  33.741  30.370  1.00  0.00     0.131 A 
ATOM     86  C   UNL A   1      44.894  35.811  28.661  1.00  0.00     0.055 A 
ATOM     87  C   UNL A   1      45.991  35.033  30.655  1.00  0.00     0.041 A 
ATOM     88  F   UNL A   1      45.920  32.761  31.213  1.00  0.00    -0.206 F 
ATOM     89  C   UNL A   1      45.673  36.077  29.792  1.00  0.00     0.022 A 
BRANCH  86  90
ATOM     90  S   UNL A   1      44.591  37.124  27.446  1.00  0.00     0.124 S 
ATOM     91  O   UNL A   1      45.875  37.202  26.759  1.00  0.00    -0.237 OA
ATOM     92  O   UNL A   1      43.483  36.580  26.668  1.00  0.00    -0.237 OA
ATOM     93  O   UNL A   1      44.257  38.284  28.271  1.00  0.00    -0.744 OA
ENDBRANCH  86  90
ENDBRANCH  60  83
ENDBRANCH  34  35
ENDBRANCH  27  29
ENDBRANCH  26  27
ENDBRANCH  25  26
ENDBRANCH  24  25
ENDBRANCH  23  24
ENDBRANCH   1  23
TORSDOF 22
ENDMDL
MODEL 3
REMARK VINA RESULT:     -10.3      5.038     11.256
REMARK SMILES COc1ccc2cc([C@H](C)C(=O)OCCOCCOCCOC(=O)c3ccc(-c4c5nc(c(-c6cc(S(=O)(=O)[O-])ccc6F)c6ccc([nH]6)c(-c6cc(S(=O)(=O)[O-])ccc6F)c6nc(c(-c7cc(S(=O)(=O)[O-])ccc7F)c7ccc4[nH]7)C=C6)C=C5)cc3)ccc2c1
REMARK SMILES IDX 18 1 17 2 16 3 15 4 14 5 13 6 11 7 12 8 9 9 10 10 8 11 3 12
REMARK SMILES IDX 4 13 91 14 5 15 90 16 6 17 89 18 7 19 88 20 2 21 1 22 19 23
REMARK SMILES IDX 20 24 21 25 22 26 23 27 24 28 25 29 26 30 87 31 27 32 86 33
REMARK SMILES IDX 28 34 29 35 30 36 80 37 31 38 85 39 79 40 81 41 32 42 84 43
REMARK SMILES IDX 78 44 77 45 33 47 65 48 45 49 64 50 46 51 49 52 63 53 82 54
REMARK SMILES IDX 47 55 48 56 62 58 83 59 50 60 34 61 35 62 43 63 36 64 42 65
REMARK SMILES IDX 44 66 41 67 37 68 38 69 39 70 40 71 66 72 67 73 75 74 68 75
REMARK SMILES IDX 74 76 76 77 73 78 69 79 70 80 71 81 72 82 51 83 52 84 60 85
REMARK SMILES IDX 53 86 59 87 61 88 58 89 54 90 55 91 56 92 57 93
REMARK H PARENT 81 46 49 57
REMARK Flexibility Score: inf
ROOT
ATOM      1  C   UNL A   1      32.183  29.709  25.860  1.00  0.00     0.188 C 
ENDROOT
BRANCH   1   2
ATOM      2  C   UNL A   1      32.438  28.441  26.684  1.00  0.00     0.188 C 
BRANCH   2   3
ATOM      3  O   UNL A   1      33.218  27.398  26.118  1.00  0.00    -0.376 OA
BRANCH   3   4
ATOM      4  C   UNL A   1      33.624  27.472  24.757  1.00  0.00     0.202 C 
BRANCH   4   5
ATOM      5  C   UNL A   1      33.119  26.438  23.731  1.00  0.00     0.261 C 
BRANCH   5   6
ATOM      6  O   UNL A   1      34.047  25.398  23.348  1.00  0.00    -0.463 OA
BRANCH   6   7
ATOM      7  C   UNL A   1      33.488  24.244  22.896  1.00  0.00     0.313 C 
ATOM      8  O   UNL A   1      33.562  23.865  21.729  1.00  0.00    -0.252 OA
BRANCH   7   9
ATOM      9  C   UNL A   1      32.678  23.459  23.951  1.00  0.00     0.126 C 
ATOM     10  C   UNL A   1      31.147  23.415  23.894  1.00  0.00     0.025 C 
BRANCH   9  11
ATOM     11  C   UNL A   1      33.260  22.067  23.989  1.00  0.00    -0.033 A 
ATOM     12  C   UNL A   1      33.556  17.057  24.080  1.00  0.00     0.119 A 
ATOM     13  C   UNL A   1      32.471  17.359  23.255  1.00  0.00     0.047 A 
ATOM     14  C   UNL A   1      34.321  18.076  24.643  1.00  0.00     0.055 A 
ATOM     15  C   UNL A   1      32.162  18.687  22.976  1.00  0.00     0.012 A 
ATOM     16  C   UNL A   1      34.016  19.412  24.383  1.00  0.00    -0.015 A 
ATOM     17  C   UNL A   1      32.920  19.716  23.542  1.00  0.00    -0.018 A 
ATOM     18  C   UNL A   1      34.751  20.446  24.975  1.00  0.00     0.009 A 
ATOM     19  C   UNL A   1      32.566  21.043  23.334  1.00  0.00     0.013 A 
ATOM     20  C   UNL A   1      34.364  21.767  24.794  1.00  0.00     0.005 A 
BRANCH  12  21
ATOM     21  O   UNL A   1      33.907  15.785  24.445  1.00  0.00    -0.497 OA
ATOM     22  C   UNL A   1      32.982  15.188  25.346  1.00  0.00     0.278 C 
ENDBRANCH  12  21
ENDBRANCH   9  11
ENDBRANCH   7   9
ENDBRANCH   6   7
ENDBRANCH   5   6
ENDBRANCH   4   5
ENDBRANCH   3   4
ENDBRANCH   2   3
ENDBRANCH   1   2
BRANCH   1  23
ATOM     23  O   UNL A   1      31.676  30.806  26.578  1.00  0.00    -0.376 OA
BRANCH  23  24
ATOM     24  C   UNL A   1      32.583  31.659  27.250  1.00  0.00     0.202 C 
BRANCH  24  25
ATOM     25  C   UNL A   1      32.498  33.192  27.117  1.00  0.00     0.261 C 
BRANCH  25  26
ATOM     26  O   UNL A   1      32.659  33.978  28.307  1.00  0.00    -0.460 OA
BRANCH  26  27
ATOM     27  C   UNL A   1      33.825  34.652  28.459  1.00  0.00     0.338 C 
ATOM     28  O   UNL A   1      33.965  35.865  28.472  1.00  0.00    -0.246 OA
BRANCH  27  29
ATOM     29  C   UNL A   1      34.853  33.665  28.874  1.00  0.00     0.060 A 
ATOM     30  C   UNL A   1      34.488  32.599  29.714  1.00  0.00     0.016 A 
ATOM     31  C   UNL A   1      36.162  33.767  28.400  1.00  0.00     0.016 A 
ATOM     32  C   UNL A   1      35.437  31.647  30.099  1.00  0.00     0.010 A 
ATOM     33  C   UNL A   1      37.116  32.831  28.811  1.00  0.00     0.010 A 
ATOM     34  C   UNL A   1      36.766  31.784  29.685  1.00  0.00    -0.014 A 
BRANCH  34  35
ATOM     35  C   UNL A   1      37.843  30.993  30.336  1.00  0.00     0.031 A 
ATOM     36  C   UNL A   1      38.177  31.315  31.768  1.00  0.00     0.074 A 
ATOM     37  C   UNL A   1      38.518  30.028  29.686  1.00  0.00     0.049 A 
ATOM     38  N   UNL A   1      39.160  30.885  32.514  1.00  0.00    -0.248 NA
ATOM     39  C   UNL A   1      37.280  32.269  32.440  1.00  0.00     0.031 C 
ATOM     40  C   UNL A   1      38.247  29.573  28.325  1.00  0.00     0.029 A 
ATOM     41  N   UNL A   1      39.590  29.267  30.088  1.00  0.00    -0.354 N 
ATOM     42  C   UNL A   1      39.010  31.527  33.738  1.00  0.00     0.074 A 
ATOM     43  C   UNL A   1      37.863  32.401  33.620  1.00  0.00     0.031 C 
ATOM     44  C   UNL A   1      39.145  28.626  27.996  1.00  0.00     0.029 A 
ATOM     45  C   UNL A   1      40.085  28.444  29.102  1.00  0.00     0.049 A 
ATOM     46  H   UNL A   1      39.970  29.308  30.996  1.00  0.00     0.167 HD
ATOM     47  C   UNL A   1      39.761  31.399  34.860  1.00  0.00     0.034 A 
ATOM     48  C   UNL A   1      41.190  27.668  29.083  1.00  0.00     0.034 A 
ATOM     49  C   UNL A   1      40.911  30.535  34.956  1.00  0.00     0.049 A 
ATOM     50  C   UNL A   1      42.079  27.622  30.307  1.00  0.00     0.074 A 
ATOM     51  C   UNL A   1      41.740  30.324  36.044  1.00  0.00     0.029 A 
ATOM     52  N   UNL A   1      41.406  29.749  33.923  1.00  0.00    -0.354 N 
ATOM     53  N   UNL A   1      41.938  28.242  31.457  1.00  0.00    -0.248 NA
ATOM     54  C   UNL A   1      43.274  26.771  30.230  1.00  0.00     0.031 C 
ATOM     55  C   UNL A   1      42.781  29.481  35.645  1.00  0.00     0.029 A 
ATOM     56  C   UNL A   1      42.549  29.083  34.338  1.00  0.00     0.049 A 
ATOM     57  H   UNL A   1      41.005  29.677  33.027  1.00  0.00     0.167 HD
ATOM     58  C   UNL A   1      43.003  27.817  32.253  1.00  0.00     0.074 A 
ATOM     59  C   UNL A   1      43.773  26.889  31.453  1.00  0.00     0.031 C 
ATOM     60  C   UNL A   1      43.311  28.156  33.531  1.00  0.00     0.034 A 
BRANCH  47  61
ATOM     61  C   UNL A   1      39.394  32.262  36.042  1.00  0.00     0.023 A 
ATOM     62  C   UNL A   1      39.981  33.521  36.255  1.00  0.00     0.031 A 
ATOM     63  C   UNL A   1      38.464  31.801  36.993  1.00  0.00     0.131 A 
ATOM     64  C   UNL A   1      39.694  34.239  37.425  1.00  0.00     0.055 A 
ATOM     65  C   UNL A   1      38.115  32.561  38.110  1.00  0.00     0.041 A 
ATOM     66  F   UNL A   1      37.891  30.595  36.860  1.00  0.00    -0.206 F 
ATOM     67  C   UNL A   1      38.743  33.781  38.340  1.00  0.00     0.022 A 
BRANCH  64  68
ATOM     68  S   UNL A   1      40.697  35.699  37.813  1.00  0.00     0.124 S 
ATOM     69  O   UNL A   1      39.727  36.778  37.642  1.00  0.00    -0.237 OA
ATOM     70  O   UNL A   1      41.124  35.435  39.181  1.00  0.00    -0.237 OA
ATOM     71  O   UNL A   1      41.758  35.661  36.808  1.00  0.00    -0.744 OA
ENDBRANCH  64  68
ENDBRANCH  47  61
BRANCH  48  72
ATOM     72  C   UNL A   1      41.563  26.906  27.854  1.00  0.00     0.023 A 
ATOM     73  C   UNL A   1      41.301  25.531  27.744  1.00  0.00     0.031 A 
ATOM     74  C   UNL A   1      42.253  27.529  26.797  1.00  0.00     0.131 A 
ATOM     75  C   UNL A   1      41.768  24.815  26.629  1.00  0.00     0.055 A 
ATOM     76  C   UNL A   1      42.660  26.825  25.662  1.00  0.00     0.041 A 
ATOM     77  F   UNL A   1      42.542  28.839  26.853  1.00  0.00    -0.206 F 
ATOM     78  C   UNL A   1      42.429  25.456  25.580  1.00  0.00     0.022 A 
BRANCH  75  79
ATOM     79  S   UNL A   1      41.587  23.009  26.618  1.00  0.00     0.124 S 
ATOM     80  O   UNL A   1      42.375  22.641  25.448  1.00  0.00    -0.237 OA
ATOM     81  O   UNL A   1      42.148  22.640  27.913  1.00  0.00    -0.237 OA
ATOM     82  O   UNL A   1      40.144  22.812  26.488  1.00  0.00    -0.744 OA
ENDBRANCH  75  79
ENDBRANCH  48  72
BRANCH  60  83
ATOM     83  C   UNL A   1      44.490  27.464  34.176  1.00  0.00     0.023 A 
ATOM     84  C   UNL A   1      44.343  26.322  34.981  1.00  0.00     0.031 A 
ATOM     85  C   UNL A   1      45.792  27.959  33.965  1.00  0.00     0.131 A 
ATOM     86  C   UNL A   1      45.472  25.742  35.584  1.00  0.00     0.055 A 
ATOM     87  C   UNL A   1      46.915  27.337  34.511  1.00  0.00     0.041 A 
ATOM     88  F   UNL A   1      45.994  29.050  33.208  1.00  0.00    -0.206 F 
ATOM     89  C   UNL A   1      46.758  26.229  35.337  1.00  0.00     0.022 A 
BRANCH  86  90
ATOM     90  S   UNL A   1      45.231  24.391  36.772  1.00  0.00     0.124 S 
ATOM     91  O   UNL A   1      44.292  24.984  37.718  1.00  0.00    -0.237 OA
ATOM     92  O   UNL A   1      44.701  23.324  35.929  1.00  0.00    -0.237 OA
ATOM     93  O   UNL A   1      46.575  24.154  37.298  1.00  0.00    -0.744 OA
ENDBRANCH  86  90
ENDBRANCH  60  83
ENDBRANCH  34  35
ENDBRANCH  27  29
ENDBRANCH  26  27
ENDBRANCH  25  26
ENDBRANCH  24  25
ENDBRANCH  23  24
ENDBRANCH   1  23
TORSDOF 22
ENDMDL
