MODEL 1
REMARK VINA RESULT:     -10.4      0.000      0.000
REMARK SMILES CC(C)SCC(=O)N1Cc2ccccc2C[C@H]1C(=O)OCCOCCOCCOC(=O)c1ccc(-c2c3nc(c(-c4cc(S(=O)(=O)[O-])ccc4F)c4ccc([nH]4)c(-c4cc(S(=O)(=O)[O-])ccc4F)c4nc(c(-c5cc(S(=O)(=O)[O-])ccc5F)c5ccc2[nH]5)C=C4)C=C3)cc1
REMARK SMILES IDX 24 1 23 2 22 3 21 4 20 5 18 6 19 7 17 8 8 9 9 10 10 11 16 12
REMARK SMILES IDX 11 13 15 14 12 15 14 16 13 17 6 18 7 19 5 20 4 21 2 22 1 23
REMARK SMILES IDX 3 24 25 25 26 26 27 27 28 28 29 29 30 30 31 31 32 32 33 33
REMARK SMILES IDX 94 34 34 35 93 36 35 37 36 38 37 39 87 40 38 41 92 42 86 43
REMARK SMILES IDX 88 44 39 45 91 46 85 47 84 48 40 50 72 51 52 52 71 53 53 54
REMARK SMILES IDX 56 55 70 56 89 57 54 58 55 59 69 61 90 62 57 63 41 64 42 65
REMARK SMILES IDX 50 66 43 67 49 68 51 69 48 70 44 71 45 72 46 73 47 74 73 75
REMARK SMILES IDX 74 76 82 77 75 78 81 79 83 80 80 81 76 82 77 83 78 84 79 85
REMARK SMILES IDX 58 86 59 87 67 88 60 89 66 90 68 91 65 92 61 93 62 94 63 95
REMARK SMILES IDX 64 96
REMARK H PARENT 88 49 56 60
REMARK Flexibility Score: inf
ROOT
ATOM      1  C   UNL A   1      33.426  33.954  28.120  1.00  0.00     0.188 C 
ENDROOT
BRANCH   1   2
ATOM      2  O   UNL A   1      33.398  32.525  27.751  1.00  0.00    -0.376 OA
BRANCH   2   3
ATOM      3  C   UNL A   1      34.198  31.326  27.953  1.00  0.00     0.202 C 
BRANCH   3   4
ATOM      4  C   UNL A   1      33.995  29.958  27.240  1.00  0.00     0.261 C 
BRANCH   4   5
ATOM      5  O   UNL A   1      33.135  30.058  26.129  1.00  0.00    -0.462 OA
BRANCH   5   6
ATOM      6  C   UNL A   1      33.305  28.972  25.365  1.00  0.00     0.329 C 
ATOM      7  O   UNL A   1      34.072  28.052  25.631  1.00  0.00    -0.250 OA
BRANCH   6   8
ATOM      8  C   UNL A   1      32.350  28.972  24.207  1.00  0.00     0.199 C 
ATOM      9  N   UNL A   1      32.157  27.779  23.261  1.00  0.00    -0.323 N 
ATOM     10  C   UNL A   1      30.960  27.992  22.355  1.00  0.00     0.156 C 
ATOM     11  C   UNL A   1      30.082  29.241  22.601  1.00  0.00    -0.025 A 
ATOM     12  C   UNL A   1      31.040  29.404  24.873  1.00  0.00     0.073 C 
ATOM     13  C   UNL A   1      29.193  29.742  21.634  1.00  0.00     0.006 A 
ATOM     14  C   UNL A   1      30.140  29.936  23.816  1.00  0.00    -0.040 A 
ATOM     15  C   UNL A   1      28.435  30.909  21.867  1.00  0.00     0.000 A 
ATOM     16  C   UNL A   1      29.411  31.119  24.042  1.00  0.00     0.004 A 
ATOM     17  C   UNL A   1      28.559  31.609  23.064  1.00  0.00     0.000 A 
BRANCH   9  18
ATOM     18  C   UNL A   1      33.123  26.777  22.728  1.00  0.00     0.233 C 
ATOM     19  O   UNL A   1      33.630  27.080  21.628  1.00  0.00    -0.274 OA
BRANCH  18  20
ATOM     20  C   UNL A   1      33.467  25.193  23.320  1.00  0.00     0.169 C 
BRANCH  20  21
ATOM     21  S   UNL A   1      33.236  24.201  25.223  1.00  0.00    -0.149 SA
BRANCH  21  22
ATOM     22  C   UNL A   1      31.452  24.348  26.442  1.00  0.00     0.041 C 
ATOM     23  C   UNL A   1      30.667  25.543  25.857  1.00  0.00     0.019 C 
ATOM     24  C   UNL A   1      30.293  23.327  26.847  1.00  0.00     0.019 C 
ENDBRANCH  21  22
ENDBRANCH  20  21
ENDBRANCH  18  20
ENDBRANCH   9  18
ENDBRANCH   6   8
ENDBRANCH   5   6
ENDBRANCH   4   5
ENDBRANCH   3   4
ENDBRANCH   2   3
ENDBRANCH   1   2
BRANCH   1  25
ATOM     25  C   UNL A   1      33.609  34.958  29.513  1.00  0.00     0.188 C 
BRANCH  25  26
ATOM     26  O   UNL A   1      33.651  34.428  30.851  1.00  0.00    -0.376 OA
BRANCH  26  27
ATOM     27  C   UNL A   1      34.768  33.811  31.553  1.00  0.00     0.202 C 
BRANCH  27  28
ATOM     28  C   UNL A   1      34.941  32.340  32.025  1.00  0.00     0.261 C 
BRANCH  28  29
ATOM     29  O   UNL A   1      35.719  31.511  31.192  1.00  0.00    -0.460 OA
BRANCH  29  30
ATOM     30  C   UNL A   1      36.581  30.709  31.839  1.00  0.00     0.338 C 
ATOM     31  O   UNL A   1      36.331  29.689  32.463  1.00  0.00    -0.246 OA
BRANCH  30  32
ATOM     32  C   UNL A   1      37.890  31.172  31.376  1.00  0.00     0.060 A 
ATOM     33  C   UNL A   1      38.183  31.014  30.021  1.00  0.00     0.016 A 
ATOM     34  C   UNL A   1      38.730  31.900  32.228  1.00  0.00     0.016 A 
ATOM     35  C   UNL A   1      39.341  31.581  29.504  1.00  0.00     0.010 A 
ATOM     36  C   UNL A   1      39.891  32.464  31.713  1.00  0.00     0.010 A 
ATOM     37  C   UNL A   1      40.215  32.270  30.358  1.00  0.00    -0.014 A 
BRANCH  37  38
ATOM     38  C   UNL A   1      41.621  32.440  29.941  1.00  0.00     0.031 A 
ATOM     39  C   UNL A   1      42.023  33.836  29.560  1.00  0.00     0.074 A 
ATOM     40  C   UNL A   1      42.500  31.426  29.907  1.00  0.00     0.049 A 
ATOM     41  N   UNL A   1      43.162  34.280  29.107  1.00  0.00    -0.248 NA
ATOM     42  C   UNL A   1      40.977  34.865  29.689  1.00  0.00     0.031 C 
ATOM     43  C   UNL A   1      42.220  30.048  30.291  1.00  0.00     0.029 A 
ATOM     44  N   UNL A   1      43.818  31.405  29.530  1.00  0.00    -0.354 N 
ATOM     45  C   UNL A   1      42.964  35.638  28.893  1.00  0.00     0.074 A 
ATOM     46  C   UNL A   1      41.583  35.926  29.195  1.00  0.00     0.031 C 
ATOM     47  C   UNL A   1      43.331  29.310  30.130  1.00  0.00     0.029 A 
ATOM     48  C   UNL A   1      44.397  30.160  29.609  1.00  0.00     0.049 A 
ATOM     49  H   UNL A   1      44.305  32.207  29.230  1.00  0.00     0.167 HD
ATOM     50  C   UNL A   1      43.864  36.568  28.498  1.00  0.00     0.034 A 
ATOM     51  C   UNL A   1      45.644  29.762  29.285  1.00  0.00     0.034 A 
ATOM     52  C   UNL A   1      45.223  36.245  28.162  1.00  0.00     0.049 A 
ATOM     53  C   UNL A   1      46.604  30.795  28.744  1.00  0.00     0.074 A 
ATOM     54  C   UNL A   1      46.225  37.086  27.719  1.00  0.00     0.029 A 
ATOM     55  N   UNL A   1      45.764  34.965  28.209  1.00  0.00    -0.354 N 
ATOM     56  N   UNL A   1      46.417  32.082  28.555  1.00  0.00    -0.248 NA
ATOM     57  C   UNL A   1      47.942  30.320  28.372  1.00  0.00     0.031 C 
ATOM     58  C   UNL A   1      47.345  36.303  27.424  1.00  0.00     0.029 A 
ATOM     59  C   UNL A   1      47.076  34.987  27.771  1.00  0.00     0.049 A 
ATOM     60  H   UNL A   1      45.282  34.160  28.510  1.00  0.00     0.167 HD
ATOM     61  C   UNL A   1      47.626  32.577  28.073  1.00  0.00     0.074 A 
ATOM     62  C   UNL A   1      48.536  31.450  28.011  1.00  0.00     0.031 C 
ATOM     63  C   UNL A   1      47.959  33.845  27.716  1.00  0.00     0.034 A 
BRANCH  50  64
ATOM     64  C   UNL A   1      43.347  37.976  28.347  1.00  0.00     0.023 A 
ATOM     65  C   UNL A   1      43.437  38.906  29.401  1.00  0.00     0.031 A 
ATOM     66  C   UNL A   1      42.635  38.350  27.198  1.00  0.00     0.131 A 
ATOM     67  C   UNL A   1      42.718  40.107  29.332  1.00  0.00     0.055 A 
ATOM     68  C   UNL A   1      42.013  39.594  27.092  1.00  0.00     0.041 A 
ATOM     69  F   UNL A   1      42.487  37.491  26.175  1.00  0.00    -0.206 F 
ATOM     70  C   UNL A   1      42.031  40.472  28.173  1.00  0.00     0.022 A 
BRANCH  67  71
ATOM     71  S   UNL A   1      42.510  41.074  30.855  1.00  0.00     0.124 S 
ATOM     72  O   UNL A   1      43.000  40.137  31.864  1.00  0.00    -0.237 OA
ATOM     73  O   UNL A   1      43.348  42.240  30.605  1.00  0.00    -0.237 OA
ATOM     74  O   UNL A   1      41.072  41.334  30.901  1.00  0.00    -0.744 OA
ENDBRANCH  67  71
ENDBRANCH  50  64
BRANCH  51  75
ATOM     75  C   UNL A   1      46.056  28.335  29.430  1.00  0.00     0.023 A 
ATOM     76  C   UNL A   1      45.929  27.431  28.362  1.00  0.00     0.031 A 
ATOM     77  C   UNL A   1      46.527  27.837  30.658  1.00  0.00     0.131 A 
ATOM     78  C   UNL A   1      46.223  26.071  28.555  1.00  0.00     0.055 A 
ATOM     79  C   UNL A   1      46.873  26.495  30.830  1.00  0.00     0.041 A 
ATOM     80  F   UNL A   1      46.666  28.654  31.714  1.00  0.00    -0.206 F 
ATOM     81  C   UNL A   1      46.708  25.600  29.778  1.00  0.00     0.022 A 
BRANCH  78  82
ATOM     82  S   UNL A   1      45.878  24.903  27.209  1.00  0.00     0.124 S 
ATOM     83  O   UNL A   1      47.066  24.057  27.242  1.00  0.00    -0.237 OA
ATOM     84  O   UNL A   1      44.635  24.284  27.655  1.00  0.00    -0.237 OA
ATOM     85  O   UNL A   1      45.757  25.764  26.034  1.00  0.00    -0.744 OA
ENDBRANCH  78  82
ENDBRANCH  51  75
BRANCH  63  86
ATOM     86  C   UNL A   1      49.383  34.086  27.281  1.00  0.00     0.023 A 
ATOM     87  C   UNL A   1      50.444  34.138  28.200  1.00  0.00     0.031 A 
ATOM     88  C   UNL A   1      49.680  34.249  25.915  1.00  0.00     0.131 A 
ATOM     89  C   UNL A   1      51.745  34.398  27.747  1.00  0.00     0.055 A 
ATOM     90  C   UNL A   1      50.985  34.436  25.465  1.00  0.00     0.041 A 
ATOM     91  F   UNL A   1      48.702  34.213  24.994  1.00  0.00    -0.206 F 
ATOM     92  C   UNL A   1      52.025  34.525  26.385  1.00  0.00     0.022 A 
BRANCH  89  93
ATOM     93  S   UNL A   1      53.055  34.666  28.972  1.00  0.00     0.124 S 
ATOM     94  O   UNL A   1      54.015  35.466  28.218  1.00  0.00    -0.237 OA
ATOM     95  O   UNL A   1      52.346  35.361  30.041  1.00  0.00    -0.237 OA
ATOM     96  O   UNL A   1      53.498  33.312  29.301  1.00  0.00    -0.744 OA
ENDBRANCH  89  93
ENDBRANCH  63  86
ENDBRANCH  37  38
ENDBRANCH  30  32
ENDBRANCH  29  30
ENDBRANCH  28  29
ENDBRANCH  27  28
ENDBRANCH  26  27
ENDBRANCH  25  26
ENDBRANCH   1  25
TORSDOF 24
ENDMDL
MODEL 2
REMARK VINA RESULT:     -10.3      3.664      9.075
REMARK SMILES CC(C)SCC(=O)N1Cc2ccccc2C[C@H]1C(=O)OCCOCCOCCOC(=O)c1ccc(-c2c3nc(c(-c4cc(S(=O)(=O)[O-])ccc4F)c4ccc([nH]4)c(-c4cc(S(=O)(=O)[O-])ccc4F)c4nc(c(-c5cc(S(=O)(=O)[O-])ccc5F)c5ccc2[nH]5)C=C4)C=C3)cc1
REMARK SMILES IDX 24 1 23 2 22 3 21 4 20 5 18 6 19 7 17 8 8 9 9 10 10 11 16 12
REMARK SMILES IDX 11 13 15 14 12 15 14 16 13 17 6 18 7 19 5 20 4 21 2 22 1 23
REMARK SMILES IDX 3 24 25 25 26 26 27 27 28 28 29 29 30 30 31 31 32 32 33 33
REMARK SMILES IDX 94 34 34 35 93 36 35 37 36 38 37 39 87 40 38 41 92 42 86 43
REMARK SMILES IDX 88 44 39 45 91 46 85 47 84 48 40 50 72 51 52 52 71 53 53 54
REMARK SMILES IDX 56 55 70 56 89 57 54 58 55 59 69 61 90 62 57 63 41 64 42 65
REMARK SMILES IDX 50 66 43 67 49 68 51 69 48 70 44 71 45 72 46 73 47 74 73 75
REMARK SMILES IDX 74 76 82 77 75 78 81 79 83 80 80 81 76 82 77 83 78 84 79 85
REMARK SMILES IDX 58 86 59 87 67 88 60 89 66 90 68 91 65 92 61 93 62 94 63 95
REMARK SMILES IDX 64 96
REMARK H PARENT 88 49 56 60
REMARK Flexibility Score: inf
ROOT
ATOM      1  C   UNL A   1      38.308  24.074  26.291  1.00  0.00     0.188 C 
ENDROOT
BRANCH   1   2
ATOM      2  O   UNL A   1      37.283  23.693  25.298  1.00  0.00    -0.376 OA
BRANCH   2   3
ATOM      3  C   UNL A   1      37.004  22.602  24.375  1.00  0.00     0.202 C 
BRANCH   3   4
ATOM      4  C   UNL A   1      36.222  22.713  23.035  1.00  0.00     0.261 C 
BRANCH   4   5
ATOM      5  O   UNL A   1      35.273  23.754  23.056  1.00  0.00    -0.462 OA
BRANCH   5   6
ATOM      6  C   UNL A   1      34.062  23.225  22.841  1.00  0.00     0.329 C 
ATOM      7  O   UNL A   1      33.343  23.510  21.889  1.00  0.00    -0.250 OA
BRANCH   6   8
ATOM      8  C   UNL A   1      33.753  22.155  23.847  1.00  0.00     0.199 C 
ATOM      9  N   UNL A   1      33.370  22.442  25.305  1.00  0.00    -0.323 N 
ATOM     10  C   UNL A   1      32.881  21.184  25.996  1.00  0.00     0.156 C 
ATOM     11  C   UNL A   1      32.718  19.907  25.139  1.00  0.00    -0.025 A 
ATOM     12  C   UNL A   1      32.688  21.329  23.118  1.00  0.00     0.073 C 
ATOM     13  C   UNL A   1      32.635  18.623  25.705  1.00  0.00     0.006 A 
ATOM     14  C   UNL A   1      32.647  19.980  23.742  1.00  0.00    -0.040 A 
ATOM     15  C   UNL A   1      32.530  17.470  24.898  1.00  0.00     0.000 A 
ATOM     16  C   UNL A   1      32.575  18.831  22.931  1.00  0.00     0.004 A 
ATOM     17  C   UNL A   1      32.520  17.573  23.510  1.00  0.00     0.000 A 
BRANCH   9  18
ATOM     18  C   UNL A   1      33.833  23.490  26.259  1.00  0.00     0.233 C 
ATOM     19  O   UNL A   1      34.204  23.054  27.369  1.00  0.00    -0.274 OA
BRANCH  18  20
ATOM     20  C   UNL A   1      33.732  25.206  26.103  1.00  0.00     0.169 C 
BRANCH  20  21
ATOM     21  S   UNL A   1      32.705  26.551  24.763  1.00  0.00    -0.149 SA
BRANCH  21  22
ATOM     22  C   UNL A   1      30.842  26.064  23.772  1.00  0.00     0.041 C 
ATOM     23  C   UNL A   1      30.661  24.545  23.988  1.00  0.00     0.019 C 
ATOM     24  C   UNL A   1      29.348  26.618  23.876  1.00  0.00     0.019 C 
ENDBRANCH  21  22
ENDBRANCH  20  21
ENDBRANCH  18  20
ENDBRANCH   9  18
ENDBRANCH   6   8
ENDBRANCH   5   6
ENDBRANCH   4   5
ENDBRANCH   3   4
ENDBRANCH   2   3
ENDBRANCH   1   2
BRANCH   1  25
ATOM     25  C   UNL A   1      39.565  23.359  27.235  1.00  0.00     0.188 C 
BRANCH  25  26
ATOM     26  O   UNL A   1      40.868  23.958  27.372  1.00  0.00    -0.376 OA
BRANCH  26  27
ATOM     27  C   UNL A   1      42.176  23.338  27.222  1.00  0.00     0.202 C 
BRANCH  27  28
ATOM     28  C   UNL A   1      43.420  23.843  26.437  1.00  0.00     0.261 C 
BRANCH  28  29
ATOM     29  O   UNL A   1      43.721  25.214  26.570  1.00  0.00    -0.460 OA
BRANCH  29  30
ATOM     30  C   UNL A   1      43.032  26.025  25.750  1.00  0.00     0.338 C 
ATOM     31  O   UNL A   1      42.273  25.709  24.847  1.00  0.00    -0.246 OA
BRANCH  30  32
ATOM     32  C   UNL A   1      43.174  27.340  26.375  1.00  0.00     0.060 A 
ATOM     33  C   UNL A   1      44.232  27.515  27.269  1.00  0.00     0.016 A 
ATOM     34  C   UNL A   1      42.385  28.418  25.954  1.00  0.00     0.016 A 
ATOM     35  C   UNL A   1      44.504  28.784  27.763  1.00  0.00     0.010 A 
ATOM     36  C   UNL A   1      42.653  29.688  26.452  1.00  0.00     0.010 A 
ATOM     37  C   UNL A   1      43.689  29.862  27.387  1.00  0.00    -0.014 A 
BRANCH  37  38
ATOM     38  C   UNL A   1      43.663  31.061  28.249  1.00  0.00     0.031 A 
ATOM     39  C   UNL A   1      44.726  32.085  27.973  1.00  0.00     0.074 A 
ATOM     40  C   UNL A   1      42.749  31.246  29.214  1.00  0.00     0.049 A 
ATOM     41  N   UNL A   1      44.987  33.202  28.592  1.00  0.00    -0.248 NA
ATOM     42  C   UNL A   1      45.635  31.784  26.853  1.00  0.00     0.031 C 
ATOM     43  C   UNL A   1      41.659  30.332  29.536  1.00  0.00     0.029 A 
ATOM     44  N   UNL A   1      42.595  32.274  30.107  1.00  0.00    -0.354 N 
ATOM     45  C   UNL A   1      46.092  33.732  27.939  1.00  0.00     0.074 A 
ATOM     46  C   UNL A   1      46.493  32.781  26.929  1.00  0.00     0.031 C 
ATOM     47  C   UNL A   1      40.944  30.839  30.555  1.00  0.00     0.029 A 
ATOM     48  C   UNL A   1      41.542  32.103  30.974  1.00  0.00     0.049 A 
ATOM     49  H   UNL A   1      43.185  33.064  30.126  1.00  0.00     0.167 HD
ATOM     50  C   UNL A   1      46.706  34.919  28.149  1.00  0.00     0.034 A 
ATOM     51  C   UNL A   1      41.124  32.879  31.995  1.00  0.00     0.034 A 
ATOM     52  C   UNL A   1      46.312  35.827  29.190  1.00  0.00     0.049 A 
ATOM     53  C   UNL A   1      41.888  34.149  32.284  1.00  0.00     0.074 A 
ATOM     54  C   UNL A   1      46.869  37.044  29.530  1.00  0.00     0.029 A 
ATOM     55  N   UNL A   1      45.269  35.599  30.081  1.00  0.00    -0.354 N 
ATOM     56  N   UNL A   1      42.926  34.654  31.654  1.00  0.00    -0.248 NA
ATOM     57  C   UNL A   1      41.425  34.954  33.421  1.00  0.00     0.031 C 
ATOM     58  C   UNL A   1      46.215  37.514  30.673  1.00  0.00     0.029 A 
ATOM     59  C   UNL A   1      45.187  36.638  30.992  1.00  0.00     0.049 A 
ATOM     60  H   UNL A   1      44.675  34.813  30.067  1.00  0.00     0.167 HD
ATOM     61  C   UNL A   1      43.219  35.852  32.300  1.00  0.00     0.074 A 
ATOM     62  C   UNL A   1      42.240  35.997  33.360  1.00  0.00     0.031 C 
ATOM     63  C   UNL A   1      44.202  36.753  32.043  1.00  0.00     0.034 A 
BRANCH  50  64
ATOM     64  C   UNL A   1      47.897  35.219  27.276  1.00  0.00     0.023 A 
ATOM     65  C   UNL A   1      49.198  34.832  27.654  1.00  0.00     0.031 A 
ATOM     66  C   UNL A   1      47.754  36.018  26.132  1.00  0.00     0.131 A 
ATOM     67  C   UNL A   1      50.305  35.351  26.968  1.00  0.00     0.055 A 
ATOM     68  C   UNL A   1      48.856  36.441  25.389  1.00  0.00     0.041 A 
ATOM     69  F   UNL A   1      46.541  36.446  25.744  1.00  0.00    -0.206 F 
ATOM     70  C   UNL A   1      50.143  36.128  25.820  1.00  0.00     0.022 A 
BRANCH  67  71
ATOM     71  S   UNL A   1      51.944  35.182  27.729  1.00  0.00     0.124 S 
ATOM     72  O   UNL A   1      52.809  35.720  26.680  1.00  0.00    -0.237 OA
ATOM     73  O   UNL A   1      51.819  35.993  28.933  1.00  0.00    -0.237 OA
ATOM     74  O   UNL A   1      52.071  33.743  27.953  1.00  0.00    -0.744 OA
ENDBRANCH  67  71
ENDBRANCH  50  64
BRANCH  51  75
ATOM     75  C   UNL A   1      39.955  32.481  32.833  1.00  0.00     0.023 A 
ATOM     76  C   UNL A   1      38.688  33.053  32.629  1.00  0.00     0.031 A 
ATOM     77  C   UNL A   1      40.099  31.565  33.891  1.00  0.00     0.131 A 
ATOM     78  C   UNL A   1      37.629  32.741  33.499  1.00  0.00     0.055 A 
ATOM     79  C   UNL A   1      39.030  31.214  34.718  1.00  0.00     0.041 A 
ATOM     80  F   UNL A   1      41.287  30.990  34.134  1.00  0.00    -0.206 F 
ATOM     81  C   UNL A   1      37.788  31.814  34.532  1.00  0.00     0.022 A 
BRANCH  78  82
ATOM     82  S   UNL A   1      36.058  33.631  33.316  1.00  0.00     0.124 S 
ATOM     83  O   UNL A   1      35.134  32.744  34.014  1.00  0.00    -0.237 OA
ATOM     84  O   UNL A   1      36.350  34.901  33.974  1.00  0.00    -0.237 OA
ATOM     85  O   UNL A   1      35.877  33.709  31.868  1.00  0.00    -0.744 OA
ENDBRANCH  78  82
ENDBRANCH  51  75
BRANCH  63  86
ATOM     86  C   UNL A   1      44.229  38.003  32.888  1.00  0.00     0.023 A 
ATOM     87  C   UNL A   1      43.505  39.154  32.538  1.00  0.00     0.031 A 
ATOM     88  C   UNL A   1      44.983  38.027  34.076  1.00  0.00     0.131 A 
ATOM     89  C   UNL A   1      43.591  40.301  33.341  1.00  0.00     0.055 A 
ATOM     90  C   UNL A   1      45.007  39.146  34.907  1.00  0.00     0.041 A 
ATOM     91  F   UNL A   1      45.698  36.955  34.454  1.00  0.00    -0.206 F 
ATOM     92  C   UNL A   1      44.319  40.296  34.534  1.00  0.00     0.022 A 
BRANCH  89  93
ATOM     93  S   UNL A   1      42.817  41.832  32.757  1.00  0.00     0.124 S 
ATOM     94  O   UNL A   1      43.856  42.387  31.896  1.00  0.00    -0.237 OA
ATOM     95  O   UNL A   1      41.623  41.340  32.078  1.00  0.00    -0.237 OA
ATOM     96  O   UNL A   1      42.566  42.581  33.987  1.00  0.00    -0.744 OA
ENDBRANCH  89  93
ENDBRANCH  63  86
ENDBRANCH  37  38
ENDBRANCH  30  32
ENDBRANCH  29  30
ENDBRANCH  28  29
ENDBRANCH  27  28
ENDBRANCH  26  27
ENDBRANCH  25  26
ENDBRANCH   1  25
TORSDOF 24
ENDMDL
MODEL 3
REMARK VINA RESULT:     -10.1      1.602      7.551
REMARK SMILES CC(C)SCC(=O)N1Cc2ccccc2C[C@H]1C(=O)OCCOCCOCCOC(=O)c1ccc(-c2c3nc(c(-c4cc(S(=O)(=O)[O-])ccc4F)c4ccc([nH]4)c(-c4cc(S(=O)(=O)[O-])ccc4F)c4nc(c(-c5cc(S(=O)(=O)[O-])ccc5F)c5ccc2[nH]5)C=C4)C=C3)cc1
REMARK SMILES IDX 24 1 23 2 22 3 21 4 20 5 18 6 19 7 17 8 8 9 9 10 10 11 16 12
REMARK SMILES IDX 11 13 15 14 12 15 14 16 13 17 6 18 7 19 5 20 4 21 2 22 1 23
REMARK SMILES IDX 3 24 25 25 26 26 27 27 28 28 29 29 30 30 31 31 32 32 33 33
REMARK SMILES IDX 94 34 34 35 93 36 35 37 36 38 37 39 87 40 38 41 92 42 86 43
REMARK SMILES IDX 88 44 39 45 91 46 85 47 84 48 40 50 72 51 52 52 71 53 53 54
REMARK SMILES IDX 56 55 70 56 89 57 54 58 55 59 69 61 90 62 57 63 41 64 42 65
REMARK SMILES IDX 50 66 43 67 49 68 51 69 48 70 44 71 45 72 46 73 47 74 73 75
REMARK SMILES IDX 74 76 82 77 75 78 81 79 83 80 80 81 76 82 77 83 78 84 79 85
REMARK SMILES IDX 58 86 59 87 67 88 60 89 66 90 68 91 65 92 61 93 62 94 63 95
REMARK SMILES IDX 64 96
REMARK H PARENT 88 49 56 60
REMARK Flexibility Score: inf
ROOT
ATOM      1  C   UNL A   1      33.795  33.919  28.396  1.00  0.00     0.188 C 
ENDROOT
BRANCH   1   2
ATOM      2  O   UNL A   1      33.683  32.497  28.017  1.00  0.00    -0.376 OA
BRANCH   2   3
ATOM      3  C   UNL A   1      34.540  31.326  27.893  1.00  0.00     0.202 C 
BRANCH   3   4
ATOM      4  C   UNL A   1      34.147  29.968  27.243  1.00  0.00     0.261 C 
BRANCH   4   5
ATOM      5  O   UNL A   1      33.298  30.134  26.132  1.00  0.00    -0.462 OA
BRANCH   5   6
ATOM      6  C   UNL A   1      33.347  29.019  25.392  1.00  0.00     0.329 C 
ATOM      7  O   UNL A   1      33.991  28.019  25.692  1.00  0.00    -0.250 OA
BRANCH   6   8
ATOM      8  C   UNL A   1      32.419  29.110  24.216  1.00  0.00     0.199 C 
ATOM      9  N   UNL A   1      32.285  28.015  23.150  1.00  0.00    -0.323 N 
ATOM     10  C   UNL A   1      31.103  28.285  22.239  1.00  0.00     0.156 C 
ATOM     11  C   UNL A   1      30.181  29.477  22.588  1.00  0.00    -0.025 A 
ATOM     12  C   UNL A   1      31.081  29.434  24.889  1.00  0.00     0.073 C 
ATOM     13  C   UNL A   1      29.299  30.048  21.653  1.00  0.00     0.006 A 
ATOM     14  C   UNL A   1      30.189  30.046  23.868  1.00  0.00    -0.040 A 
ATOM     15  C   UNL A   1      28.501  31.163  21.984  1.00  0.00     0.000 A 
ATOM     16  C   UNL A   1      29.419  31.178  24.194  1.00  0.00     0.004 A 
ATOM     17  C   UNL A   1      28.576  31.741  23.249  1.00  0.00     0.000 A 
BRANCH   9  18
ATOM     18  C   UNL A   1      33.294  27.101  22.542  1.00  0.00     0.233 C 
ATOM     19  O   UNL A   1      33.970  27.611  21.625  1.00  0.00    -0.274 OA
BRANCH  18  20
ATOM     20  C   UNL A   1      33.502  25.406  22.798  1.00  0.00     0.169 C 
BRANCH  20  21
ATOM     21  S   UNL A   1      34.242  24.197  24.424  1.00  0.00    -0.149 SA
BRANCH  21  22
ATOM     22  C   UNL A   1      35.326  22.343  24.143  1.00  0.00     0.041 C 
ATOM     23  C   UNL A   1      36.618  22.746  23.399  1.00  0.00     0.019 C 
ATOM     24  C   UNL A   1      35.827  21.188  25.125  1.00  0.00     0.019 C 
ENDBRANCH  21  22
ENDBRANCH  20  21
ENDBRANCH  18  20
ENDBRANCH   9  18
ENDBRANCH   6   8
ENDBRANCH   5   6
ENDBRANCH   4   5
ENDBRANCH   3   4
ENDBRANCH   2   3
ENDBRANCH   1   2
BRANCH   1  25
ATOM     25  C   UNL A   1      33.831  34.913  29.807  1.00  0.00     0.188 C 
BRANCH  25  26
ATOM     26  O   UNL A   1      33.612  34.390  31.131  1.00  0.00    -0.376 OA
BRANCH  26  27
ATOM     27  C   UNL A   1      34.575  33.802  32.050  1.00  0.00     0.202 C 
BRANCH  27  28
ATOM     28  C   UNL A   1      35.030  32.321  32.184  1.00  0.00     0.261 C 
BRANCH  28  29
ATOM     29  O   UNL A   1      36.063  31.910  31.317  1.00  0.00    -0.460 OA
BRANCH  29  30
ATOM     30  C   UNL A   1      36.706  30.793  31.694  1.00  0.00     0.338 C 
ATOM     31  O   UNL A   1      36.222  29.759  32.128  1.00  0.00    -0.246 OA
BRANCH  30  32
ATOM     32  C   UNL A   1      38.065  30.998  31.191  1.00  0.00     0.060 A 
ATOM     33  C   UNL A   1      39.059  31.284  32.129  1.00  0.00     0.016 A 
ATOM     34  C   UNL A   1      38.376  30.740  29.850  1.00  0.00     0.016 A 
ATOM     35  C   UNL A   1      40.387  31.327  31.722  1.00  0.00     0.010 A 
ATOM     36  C   UNL A   1      39.703  30.787  29.441  1.00  0.00     0.010 A 
ATOM     37  C   UNL A   1      40.704  31.119  30.372  1.00  0.00    -0.014 A 
BRANCH  37  38
ATOM     38  C   UNL A   1      41.994  31.628  29.863  1.00  0.00     0.031 A 
ATOM     39  C   UNL A   1      43.002  30.582  29.483  1.00  0.00     0.074 A 
ATOM     40  C   UNL A   1      42.262  32.937  29.733  1.00  0.00     0.049 A 
ATOM     41  N   UNL A   1      44.227  30.721  29.061  1.00  0.00    -0.248 NA
ATOM     42  C   UNL A   1      42.564  29.183  29.627  1.00  0.00     0.031 C 
ATOM     43  C   UNL A   1      41.341  34.025  30.039  1.00  0.00     0.029 A 
ATOM     44  N   UNL A   1      43.398  33.572  29.305  1.00  0.00    -0.354 N 
ATOM     45  C   UNL A   1      44.705  29.428  28.895  1.00  0.00     0.074 A 
ATOM     46  C   UNL A   1      43.666  28.525  29.329  1.00  0.00     0.031 C 
ATOM     47  C   UNL A   1      41.947  35.199  29.790  1.00  0.00     0.029 A 
ATOM     48  C   UNL A   1      43.308  34.944  29.328  1.00  0.00     0.049 A 
ATOM     49  H   UNL A   1      44.205  33.091  29.008  1.00  0.00     0.167 HD
ATOM     50  C   UNL A   1      45.900  29.028  28.402  1.00  0.00     0.034 A 
ATOM     51  C   UNL A   1      44.230  35.879  29.020  1.00  0.00     0.034 A 
ATOM     52  C   UNL A   1      46.933  29.950  28.017  1.00  0.00     0.049 A 
ATOM     53  C   UNL A   1      45.595  35.414  28.574  1.00  0.00     0.074 A 
ATOM     54  C   UNL A   1      48.197  29.676  27.534  1.00  0.00     0.029 A 
ATOM     55  N   UNL A   1      46.824  31.334  28.098  1.00  0.00    -0.354 N 
ATOM     56  N   UNL A   1      46.039  34.188  28.405  1.00  0.00    -0.248 NA
ATOM     57  C   UNL A   1      46.584  36.458  28.277  1.00  0.00     0.031 C 
ATOM     58  C   UNL A   1      48.879  30.889  27.398  1.00  0.00     0.029 A 
ATOM     59  C   UNL A   1      48.011  31.927  27.705  1.00  0.00     0.049 A 
ATOM     60  H   UNL A   1      46.020  31.820  28.392  1.00  0.00     0.167 HD
ATOM     61  C   UNL A   1      47.350  34.316  27.951  1.00  0.00     0.074 A 
ATOM     62  C   UNL A   1      47.616  35.738  27.862  1.00  0.00     0.031 C 
ATOM     63  C   UNL A   1      48.250  33.350  27.631  1.00  0.00     0.034 A 
BRANCH  50  64
ATOM     64  C   UNL A   1      46.136  27.540  28.347  1.00  0.00     0.023 A 
ATOM     65  C   UNL A   1      45.821  26.791  27.197  1.00  0.00     0.031 A 
ATOM     66  C   UNL A   1      46.544  26.845  29.495  1.00  0.00     0.131 A 
ATOM     67  C   UNL A   1      45.797  25.391  27.263  1.00  0.00     0.055 A 
ATOM     68  C   UNL A   1      46.624  25.452  29.520  1.00  0.00     0.041 A 
ATOM     69  F   UNL A   1      46.823  27.504  30.631  1.00  0.00    -0.206 F 
ATOM     70  C   UNL A   1      46.225  24.716  28.407  1.00  0.00     0.022 A 
BRANCH  67  71
ATOM     71  S   UNL A   1      44.987  24.480  25.918  1.00  0.00     0.124 S 
ATOM     72  O   UNL A   1      43.600  24.919  26.062  1.00  0.00    -0.237 OA
ATOM     73  O   UNL A   1      45.692  24.966  24.738  1.00  0.00    -0.237 OA
ATOM     74  O   UNL A   1      45.229  23.080  26.260  1.00  0.00    -0.744 OA
ENDBRANCH  67  71
ENDBRANCH  50  64
BRANCH  51  75
ATOM     75  C   UNL A   1      43.919  37.334  29.144  1.00  0.00     0.023 A 
ATOM     76  C   UNL A   1      43.664  38.120  28.007  1.00  0.00     0.031 A 
ATOM     77  C   UNL A   1      43.929  37.974  30.396  1.00  0.00     0.131 A 
ATOM     78  C   UNL A   1      43.479  39.506  28.140  1.00  0.00     0.055 A 
ATOM     79  C   UNL A   1      43.688  39.343  30.529  1.00  0.00     0.041 A 
ATOM     80  F   UNL A   1      44.169  37.274  31.515  1.00  0.00    -0.206 F 
ATOM     81  C   UNL A   1      43.474  40.121  29.395  1.00  0.00     0.022 A 
BRANCH  78  82
ATOM     82  S   UNL A   1      43.332  40.515  26.639  1.00  0.00     0.124 S 
ATOM     83  O   UNL A   1      43.524  41.861  27.169  1.00  0.00    -0.237 OA
ATOM     84  O   UNL A   1      44.412  39.990  25.812  1.00  0.00    -0.237 OA
ATOM     85  O   UNL A   1      41.983  40.219  26.161  1.00  0.00    -0.744 OA
ENDBRANCH  78  82
ENDBRANCH  51  75
BRANCH  63  86
ATOM     86  C   UNL A   1      49.588  33.805  27.104  1.00  0.00     0.023 A 
ATOM     87  C   UNL A   1      50.752  33.763  27.888  1.00  0.00     0.031 A 
ATOM     88  C   UNL A   1      49.696  34.273  25.781  1.00  0.00     0.131 A 
ATOM     89  C   UNL A   1      51.965  34.229  27.361  1.00  0.00     0.055 A 
ATOM     90  C   UNL A   1      50.918  34.668  25.239  1.00  0.00     0.041 A 
ATOM     91  F   UNL A   1      48.613  34.338  24.988  1.00  0.00    -0.206 F 
ATOM     92  C   UNL A   1      52.059  34.659  26.035  1.00  0.00     0.022 A 
BRANCH  89  93
ATOM     93  S   UNL A   1      53.400  34.357  28.461  1.00  0.00     0.124 S 
ATOM     94  O   UNL A   1      54.027  33.050  28.294  1.00  0.00    -0.237 OA
ATOM     95  O   UNL A   1      54.126  35.489  27.897  1.00  0.00    -0.237 OA
ATOM     96  O   UNL A   1      52.804  34.596  29.774  1.00  0.00    -0.744 OA
ENDBRANCH  89  93
ENDBRANCH  63  86
ENDBRANCH  37  38
ENDBRANCH  30  32
ENDBRANCH  29  30
ENDBRANCH  28  29
ENDBRANCH  27  28
ENDBRANCH  26  27
ENDBRANCH  25  26
ENDBRANCH   1  25
TORSDOF 24
ENDMDL
