MODEL 1
REMARK VINA RESULT:      -9.1      0.000      0.000
REMARK SMILES CS(=O)(=O)c1ccc(-c2cc(Cl)cc3c2O[C@H](C(F)(F)F)C(C(=O)OCCOCCOCCOC(=O)c2ccc(-c4c5nc(c(-c6cc(S(=O)(=O)[O-])ccc6F)c6ccc([nH]6)c(-c6cc(S(=O)(=O)[O-])ccc6F)c6nc(c(-c7cc(S(=O)(=O)[O-])ccc7F)c7ccc4[nH]7)C=C6)C=C5)cc2)=C3)cc1
REMARK SMILES IDX 30 1 29 2 28 3 27 4 26 5 25 6 23 7 24 8 22 9 9 10 10 11
REMARK SMILES IDX 15 12 11 13 14 14 16 15 12 16 13 17 100 18 17 19 8 20 5 21
REMARK SMILES IDX 6 22 102 23 7 24 101 25 2 26 1 27 3 28 4 29 18 30 19 31
REMARK SMILES IDX 20 32 21 33 31 34 32 35 33 36 34 37 35 38 36 39 37 40 38 41
REMARK SMILES IDX 99 42 39 43 98 44 40 45 41 46 42 47 92 48 43 49 97 50 91 51
REMARK SMILES IDX 93 52 44 53 96 54 90 55 89 56 45 58 77 59 57 60 76 61 58 62
REMARK SMILES IDX 61 63 75 64 94 65 59 66 60 67 74 69 95 70 62 71 46 72 47 73
REMARK SMILES IDX 55 74 48 75 54 76 56 77 53 78 49 79 50 80 51 81 52 82 78 83
REMARK SMILES IDX 79 84 87 85 80 86 86 87 88 88 85 89 81 90 82 91 83 92 84 93
REMARK SMILES IDX 63 94 64 95 72 96 65 97 71 98 73 99 70 100 66 101 67 102
REMARK SMILES IDX 68 103 69 104
REMARK H PARENT 93 57 61 68
REMARK Flexibility Score: inf
ROOT
ATOM      1  C   UNL A   1      51.700  25.286  33.995  1.00  0.00     0.188 C 
ENDROOT
BRANCH   1   2
ATOM      2  C   UNL A   1      52.559  24.010  34.152  1.00  0.00     0.188 C 
BRANCH   2   3
ATOM      3  O   UNL A   1      52.867  23.357  32.934  1.00  0.00    -0.376 OA
BRANCH   3   4
ATOM      4  C   UNL A   1      52.435  22.005  32.816  1.00  0.00     0.202 C 
BRANCH   4   5
ATOM      5  C   UNL A   1      52.061  21.297  34.128  1.00  0.00     0.261 C 
BRANCH   5   6
ATOM      6  O   UNL A   1      50.799  20.583  34.029  1.00  0.00    -0.460 OA
BRANCH   6   7
ATOM      7  C   UNL A   1      50.546  19.708  35.026  1.00  0.00     0.338 C 
ATOM      8  O   UNL A   1      51.262  18.752  35.295  1.00  0.00    -0.246 OA
BRANCH   7   9
ATOM      9  C   UNL A   1      49.357  20.084  35.843  1.00  0.00     0.087 C 
ATOM     10  C   UNL A   1      49.021  23.483  38.200  1.00  0.00     0.026 A 
ATOM     11  C   UNL A   1      50.369  23.880  38.343  1.00  0.00     0.033 A 
ATOM     12  C   UNL A   1      48.847  22.231  37.587  1.00  0.00     0.135 A 
ATOM     13  C   UNL A   1      51.449  23.031  38.111  1.00  0.00     0.042 A 
ATOM     14  C   UNL A   1      49.909  21.300  37.614  1.00  0.00     0.019 A 
ATOM     15  O   UNL A   1      47.806  21.896  36.710  1.00  0.00    -0.475 OA
ATOM     16  Cl  UNL A   1      53.064  23.596  38.230  1.00  0.00    -0.084 Cl
ATOM     17  C   UNL A   1      51.218  21.701  37.836  1.00  0.00     0.032 A 
ATOM     18  C   UNL A   1      49.625  19.927  37.149  1.00  0.00     0.027 C 
ATOM     19  C   UNL A   1      48.342  21.169  35.483  1.00  0.00     0.316 C 
BRANCH  10  20
ATOM     20  C   UNL A   1      48.084  24.279  39.069  1.00  0.00    -0.015 A 
ATOM     21  C   UNL A   1      46.558  26.478  40.148  1.00  0.00     0.067 A 
ATOM     22  C   UNL A   1      46.003  25.615  39.199  1.00  0.00     0.021 A 
ATOM     23  C   UNL A   1      47.868  26.256  40.569  1.00  0.00     0.021 A 
ATOM     24  C   UNL A   1      46.754  24.535  38.684  1.00  0.00     0.010 A 
ATOM     25  C   UNL A   1      48.612  25.169  40.035  1.00  0.00     0.010 A 
BRANCH  21  26
ATOM     26  S   UNL A   1      45.497  27.708  40.910  1.00  0.00     0.175 S 
ATOM     27  C   UNL A   1      46.446  28.873  41.839  1.00  0.00     0.163 C 
ATOM     28  O   UNL A   1      44.674  26.965  41.850  1.00  0.00    -0.224 OA
ATOM     29  O   UNL A   1      44.875  28.449  39.829  1.00  0.00    -0.224 OA
ENDBRANCH  21  26
ENDBRANCH  10  20
BRANCH  19  30
ATOM     30  C   UNL A   1      47.237  20.513  34.642  1.00  0.00     0.430 C 
ATOM     31  F   UNL A   1      46.278  21.394  34.276  1.00  0.00    -0.167 F 
ATOM     32  F   UNL A   1      47.717  19.929  33.523  1.00  0.00    -0.167 F 
ATOM     33  F   UNL A   1      46.615  19.533  35.352  1.00  0.00    -0.167 F 
ENDBRANCH  19  30
ENDBRANCH   7   9
ENDBRANCH   6   7
ENDBRANCH   5   6
ENDBRANCH   4   5
ENDBRANCH   3   4
ENDBRANCH   2   3
ENDBRANCH   1   2
BRANCH   1  34
ATOM     34  O   UNL A   1      50.650  25.328  33.039  1.00  0.00    -0.376 OA
BRANCH  34  35
ATOM     35  C   UNL A   1      49.312  25.105  33.460  1.00  0.00     0.202 C 
BRANCH  35  36
ATOM     36  C   UNL A   1      49.019  24.755  34.927  1.00  0.00     0.261 C 
BRANCH  36  37
ATOM     37  O   UNL A   1      47.744  25.191  35.430  1.00  0.00    -0.460 OA
BRANCH  37  38
ATOM     38  C   UNL A   1      47.683  26.494  35.803  1.00  0.00     0.338 C 
ATOM     39  O   UNL A   1      48.550  27.128  36.389  1.00  0.00    -0.246 OA
BRANCH  38  40
ATOM     40  C   UNL A   1      46.474  27.133  35.246  1.00  0.00     0.060 A 
ATOM     41  C   UNL A   1      45.237  26.532  35.494  1.00  0.00     0.016 A 
ATOM     42  C   UNL A   1      46.554  28.253  34.414  1.00  0.00     0.016 A 
ATOM     43  C   UNL A   1      44.085  27.038  34.893  1.00  0.00     0.010 A 
ATOM     44  C   UNL A   1      45.392  28.751  33.803  1.00  0.00     0.010 A 
ATOM     45  C   UNL A   1      44.148  28.142  34.027  1.00  0.00    -0.014 A 
BRANCH  45  46
ATOM     46  C   UNL A   1      42.940  28.534  33.245  1.00  0.00     0.031 A 
ATOM     47  C   UNL A   1      41.999  29.542  33.833  1.00  0.00     0.074 A 
ATOM     48  C   UNL A   1      42.682  28.016  32.030  1.00  0.00     0.049 A 
ATOM     49  N   UNL A   1      40.913  30.057  33.322  1.00  0.00    -0.248 NA
ATOM     50  C   UNL A   1      42.302  29.991  35.198  1.00  0.00     0.031 C 
ATOM     51  C   UNL A   1      43.489  26.989  31.390  1.00  0.00     0.029 A 
ATOM     52  N   UNL A   1      41.716  28.302  31.093  1.00  0.00    -0.354 N 
ATOM     53  C   UNL A   1      40.357  30.838  34.328  1.00  0.00     0.074 A 
ATOM     54  C   UNL A   1      41.253  30.753  35.464  1.00  0.00     0.031 C 
ATOM     55  C   UNL A   1      43.086  26.835  30.118  1.00  0.00     0.029 A 
ATOM     56  C   UNL A   1      41.923  27.680  29.878  1.00  0.00     0.049 A 
ATOM     57  H   UNL A   1      40.952  28.894  31.272  1.00  0.00     0.167 HD
ATOM     58  C   UNL A   1      39.181  31.512  34.319  1.00  0.00     0.034 A 
ATOM     59  C   UNL A   1      41.257  27.791  28.708  1.00  0.00     0.034 A 
ATOM     60  C   UNL A   1      38.289  31.549  33.184  1.00  0.00     0.049 A 
ATOM     61  C   UNL A   1      39.996  28.630  28.687  1.00  0.00     0.074 A 
ATOM     62  C   UNL A   1      37.050  32.159  33.084  1.00  0.00     0.029 A 
ATOM     63  N   UNL A   1      38.533  30.951  31.953  1.00  0.00    -0.354 N 
ATOM     64  N   UNL A   1      39.464  29.343  29.654  1.00  0.00    -0.248 NA
ATOM     65  C   UNL A   1      39.229  28.658  27.434  1.00  0.00     0.031 C 
ATOM     66  C   UNL A   1      36.506  31.847  31.833  1.00  0.00     0.029 A 
ATOM     67  C   UNL A   1      37.447  31.133  31.108  1.00  0.00     0.049 A 
ATOM     68  H   UNL A   1      39.357  30.467  31.715  1.00  0.00     0.167 HD
ATOM     69  C   UNL A   1      38.305  29.908  29.124  1.00  0.00     0.074 A 
ATOM     70  C   UNL A   1      38.237  29.483  27.741  1.00  0.00     0.031 C 
ATOM     71  C   UNL A   1      37.375  30.690  29.732  1.00  0.00     0.034 A 
BRANCH  58  72
ATOM     72  C   UNL A   1      38.743  32.137  35.623  1.00  0.00     0.023 A 
ATOM     73  C   UNL A   1      38.267  31.371  36.702  1.00  0.00     0.031 A 
ATOM     74  C   UNL A   1      38.726  33.538  35.755  1.00  0.00     0.131 A 
ATOM     75  C   UNL A   1      37.713  32.012  37.822  1.00  0.00     0.055 A 
ATOM     76  C   UNL A   1      38.263  34.167  36.911  1.00  0.00     0.041 A 
ATOM     77  F   UNL A   1      39.134  34.326  34.747  1.00  0.00    -0.206 F 
ATOM     78  C   UNL A   1      37.735  33.404  37.946  1.00  0.00     0.022 A 
BRANCH  75  79
ATOM     79  S   UNL A   1      36.797  31.013  39.028  1.00  0.00     0.124 S 
ATOM     80  O   UNL A   1      37.708  31.023  40.171  1.00  0.00    -0.237 OA
ATOM     81  O   UNL A   1      35.560  31.767  39.190  1.00  0.00    -0.237 OA
ATOM     82  O   UNL A   1      36.657  29.717  38.366  1.00  0.00    -0.744 OA
ENDBRANCH  75  79
ENDBRANCH  58  72
BRANCH  59  83
ATOM     83  C   UNL A   1      41.760  27.143  27.452  1.00  0.00     0.023 A 
ATOM     84  C   UNL A   1      41.669  25.752  27.311  1.00  0.00     0.031 A 
ATOM     85  C   UNL A   1      42.363  27.842  26.398  1.00  0.00     0.131 A 
ATOM     86  C   UNL A   1      42.223  25.087  26.209  1.00  0.00     0.055 A 
ATOM     87  C   UNL A   1      42.854  27.188  25.258  1.00  0.00     0.041 A 
ATOM     88  F   UNL A   1      42.478  29.178  26.448  1.00  0.00    -0.206 F 
ATOM     89  C   UNL A   1      42.804  25.798  25.167  1.00  0.00     0.022 A 
BRANCH  86  90
ATOM     90  S   UNL A   1      42.232  23.274  26.235  1.00  0.00     0.124 S 
ATOM     91  O   UNL A   1      43.030  23.002  27.425  1.00  0.00    -0.237 OA
ATOM     92  O   UNL A   1      40.807  22.973  26.352  1.00  0.00    -0.237 OA
ATOM     93  O   UNL A   1      42.849  22.916  24.961  1.00  0.00    -0.744 OA
ENDBRANCH  86  90
ENDBRANCH  59  83
BRANCH  71  94
ATOM     94  C   UNL A   1      36.188  31.144  28.908  1.00  0.00     0.023 A 
ATOM     95  C   UNL A   1      35.252  30.233  28.383  1.00  0.00     0.031 A 
ATOM     96  C   UNL A   1      35.967  32.515  28.676  1.00  0.00     0.131 A 
ATOM     97  C   UNL A   1      34.174  30.698  27.613  1.00  0.00     0.055 A 
ATOM     98  C   UNL A   1      34.857  32.975  27.966  1.00  0.00     0.041 A 
ATOM     99  F   UNL A   1      36.821  33.435  29.153  1.00  0.00    -0.206 F 
ATOM    100  C   UNL A   1      33.959  32.064  27.419  1.00  0.00     0.022 A 
BRANCH  97 101
ATOM    101  S   UNL A   1      33.100  29.486  26.791  1.00  0.00     0.124 S 
ATOM    102  O   UNL A   1      33.854  28.248  26.963  1.00  0.00    -0.237 OA
ATOM    103  O   UNL A   1      31.863  29.592  27.557  1.00  0.00    -0.237 OA
ATOM    104  O   UNL A   1      33.020  29.975  25.416  1.00  0.00    -0.744 OA
ENDBRANCH  97 101
ENDBRANCH  71  94
ENDBRANCH  45  46
ENDBRANCH  38  40
ENDBRANCH  37  38
ENDBRANCH  36  37
ENDBRANCH  35  36
ENDBRANCH  34  35
ENDBRANCH   1  34
TORSDOF 23
ENDMDL
MODEL 2
REMARK VINA RESULT:      -9.1      6.613     14.704
REMARK SMILES CS(=O)(=O)c1ccc(-c2cc(Cl)cc3c2O[C@H](C(F)(F)F)C(C(=O)OCCOCCOCCOC(=O)c2ccc(-c4c5nc(c(-c6cc(S(=O)(=O)[O-])ccc6F)c6ccc([nH]6)c(-c6cc(S(=O)(=O)[O-])ccc6F)c6nc(c(-c7cc(S(=O)(=O)[O-])ccc7F)c7ccc4[nH]7)C=C6)C=C5)cc2)=C3)cc1
REMARK SMILES IDX 30 1 29 2 28 3 27 4 26 5 25 6 23 7 24 8 22 9 9 10 10 11
REMARK SMILES IDX 15 12 11 13 14 14 16 15 12 16 13 17 100 18 17 19 8 20 5 21
REMARK SMILES IDX 6 22 102 23 7 24 101 25 2 26 1 27 3 28 4 29 18 30 19 31
REMARK SMILES IDX 20 32 21 33 31 34 32 35 33 36 34 37 35 38 36 39 37 40 38 41
REMARK SMILES IDX 99 42 39 43 98 44 40 45 41 46 42 47 92 48 43 49 97 50 91 51
REMARK SMILES IDX 93 52 44 53 96 54 90 55 89 56 45 58 77 59 57 60 76 61 58 62
REMARK SMILES IDX 61 63 75 64 94 65 59 66 60 67 74 69 95 70 62 71 46 72 47 73
REMARK SMILES IDX 55 74 48 75 54 76 56 77 53 78 49 79 50 80 51 81 52 82 78 83
REMARK SMILES IDX 79 84 87 85 80 86 86 87 88 88 85 89 81 90 82 91 83 92 84 93
REMARK SMILES IDX 63 94 64 95 72 96 65 97 71 98 73 99 70 100 66 101 67 102
REMARK SMILES IDX 68 103 69 104
REMARK H PARENT 93 57 61 68
REMARK Flexibility Score: inf
ROOT
ATOM      1  C   UNL A   1      37.065  32.784  38.161  1.00  0.00     0.188 C 
ENDROOT
BRANCH   1   2
ATOM      2  C   UNL A   1      37.506  33.418  36.821  1.00  0.00     0.188 C 
BRANCH   2   3
ATOM      3  O   UNL A   1      36.681  33.090  35.718  1.00  0.00    -0.376 OA
BRANCH   3   4
ATOM      4  C   UNL A   1      37.350  32.711  34.520  1.00  0.00     0.202 C 
BRANCH   4   5
ATOM      5  C   UNL A   1      36.457  32.471  33.292  1.00  0.00     0.261 C 
BRANCH   5   6
ATOM      6  O   UNL A   1      36.036  33.713  32.665  1.00  0.00    -0.460 OA
BRANCH   6   7
ATOM      7  C   UNL A   1      36.805  34.135  31.639  1.00  0.00     0.338 C 
ATOM      8  O   UNL A   1      37.983  34.450  31.749  1.00  0.00    -0.246 OA
BRANCH   7   9
ATOM      9  C   UNL A   1      36.104  34.079  30.324  1.00  0.00     0.087 C 
ATOM     10  C   UNL A   1      34.996  30.617  28.321  1.00  0.00     0.026 A 
ATOM     11  C   UNL A   1      35.797  29.639  28.952  1.00  0.00     0.033 A 
ATOM     12  C   UNL A   1      35.302  31.940  28.684  1.00  0.00     0.135 A 
ATOM     13  C   UNL A   1      36.936  29.942  29.696  1.00  0.00     0.042 A 
ATOM     14  C   UNL A   1      36.586  32.231  29.196  1.00  0.00     0.019 A 
ATOM     15  O   UNL A   1      34.369  32.974  28.837  1.00  0.00    -0.475 OA
ATOM     16  Cl  UNL A   1      37.823  28.714  30.500  1.00  0.00    -0.084 Cl
ATOM     17  C   UNL A   1      37.391  31.242  29.740  1.00  0.00     0.032 A 
ATOM     18  C   UNL A   1      36.944  33.654  29.368  1.00  0.00     0.027 C 
ATOM     19  C   UNL A   1      34.624  33.749  30.123  1.00  0.00     0.316 C 
BRANCH  10  20
ATOM     20  C   UNL A   1      34.264  30.083  27.120  1.00  0.00    -0.015 A 
ATOM     21  C   UNL A   1      32.461  28.536  25.481  1.00  0.00     0.067 A 
ATOM     22  C   UNL A   1      32.086  29.786  25.978  1.00  0.00     0.021 A 
ATOM     23  C   UNL A   1      33.729  28.046  25.789  1.00  0.00     0.021 A 
ATOM     24  C   UNL A   1      32.979  30.541  26.771  1.00  0.00     0.010 A 
ATOM     25  C   UNL A   1      34.612  28.815  26.595  1.00  0.00     0.010 A 
BRANCH  21  26
ATOM     26  S   UNL A   1      31.367  27.712  24.321  1.00  0.00     0.175 S 
ATOM     27  C   UNL A   1      30.386  28.883  23.435  1.00  0.00     0.163 C 
ATOM     28  O   UNL A   1      30.468  26.922  25.147  1.00  0.00    -0.224 OA
ATOM     29  O   UNL A   1      32.215  27.058  23.342  1.00  0.00    -0.224 OA
ENDBRANCH  21  26
ENDBRANCH  10  20
BRANCH  19  30
ATOM     30  C   UNL A   1      33.838  35.067  30.197  1.00  0.00     0.430 C 
ATOM     31  F   UNL A   1      34.192  35.817  31.265  1.00  0.00    -0.167 F 
ATOM     32  F   UNL A   1      33.991  35.822  29.087  1.00  0.00    -0.167 F 
ATOM     33  F   UNL A   1      32.505  34.822  30.316  1.00  0.00    -0.167 F 
ENDBRANCH  19  30
ENDBRANCH   7   9
ENDBRANCH   6   7
ENDBRANCH   5   6
ENDBRANCH   4   5
ENDBRANCH   3   4
ENDBRANCH   2   3
ENDBRANCH   1   2
BRANCH   1  34
ATOM     34  O   UNL A   1      37.999  32.065  38.953  1.00  0.00    -0.376 OA
BRANCH  34  35
ATOM     35  C   UNL A   1      37.984  32.220  40.365  1.00  0.00     0.202 C 
BRANCH  35  36
ATOM     36  C   UNL A   1      37.697  33.598  40.981  1.00  0.00     0.261 C 
BRANCH  36  37
ATOM     37  O   UNL A   1      38.746  34.149  41.796  1.00  0.00    -0.460 OA
BRANCH  37  38
ATOM     38  C   UNL A   1      39.068  35.440  41.532  1.00  0.00     0.338 C 
ATOM     39  O   UNL A   1      38.860  36.406  42.253  1.00  0.00    -0.246 OA
BRANCH  38  40
ATOM     40  C   UNL A   1      39.885  35.528  40.306  1.00  0.00     0.060 A 
ATOM     41  C   UNL A   1      39.257  35.927  39.123  1.00  0.00     0.016 A 
ATOM     42  C   UNL A   1      41.226  35.135  40.288  1.00  0.00     0.016 A 
ATOM     43  C   UNL A   1      39.964  35.914  37.921  1.00  0.00     0.010 A 
ATOM     44  C   UNL A   1      41.930  35.114  39.074  1.00  0.00     0.010 A 
ATOM     45  C   UNL A   1      41.303  35.492  37.876  1.00  0.00    -0.014 A 
BRANCH  45  46
ATOM     46  C   UNL A   1      41.969  35.297  36.556  1.00  0.00     0.031 A 
ATOM     47  C   UNL A   1      41.814  33.978  35.860  1.00  0.00     0.074 A 
ATOM     48  C   UNL A   1      42.691  36.273  35.974  1.00  0.00     0.049 A 
ATOM     49  N   UNL A   1      42.269  33.598  34.697  1.00  0.00    -0.248 NA
ATOM     50  C   UNL A   1      41.087  32.938  36.601  1.00  0.00     0.031 C 
ATOM     51  C   UNL A   1      42.958  37.566  36.583  1.00  0.00     0.029 A 
ATOM     52  N   UNL A   1      43.288  36.364  34.738  1.00  0.00    -0.354 N 
ATOM     53  C   UNL A   1      41.950  32.249  34.591  1.00  0.00     0.074 A 
ATOM     54  C   UNL A   1      41.229  31.896  35.797  1.00  0.00     0.031 C 
ATOM     55  C   UNL A   1      43.531  38.374  35.675  1.00  0.00     0.029 A 
ATOM     56  C   UNL A   1      43.764  37.626  34.446  1.00  0.00     0.049 A 
ATOM     57  H   UNL A   1      43.367  35.602  34.121  1.00  0.00     0.167 HD
ATOM     58  C   UNL A   1      42.281  31.380  33.605  1.00  0.00     0.034 A 
ATOM     59  C   UNL A   1      44.314  38.120  33.315  1.00  0.00     0.034 A 
ATOM     60  C   UNL A   1      43.033  31.752  32.429  1.00  0.00     0.049 A 
ATOM     61  C   UNL A   1      44.588  37.153  32.180  1.00  0.00     0.074 A 
ATOM     62  C   UNL A   1      43.467  30.942  31.393  1.00  0.00     0.029 A 
ATOM     63  N   UNL A   1      43.470  33.038  32.131  1.00  0.00    -0.354 N 
ATOM     64  N   UNL A   1      44.306  35.873  32.102  1.00  0.00    -0.248 NA
ATOM     65  C   UNL A   1      45.278  37.686  30.998  1.00  0.00     0.031 C 
ATOM     66  C   UNL A   1      44.245  31.717  30.526  1.00  0.00     0.029 A 
ATOM     67  C   UNL A   1      44.210  33.033  30.958  1.00  0.00     0.049 A 
ATOM     68  H   UNL A   1      43.282  33.837  32.675  1.00  0.00     0.167 HD
ATOM     69  C   UNL A   1      44.779  35.450  30.861  1.00  0.00     0.074 A 
ATOM     70  C   UNL A   1      45.329  36.621  30.210  1.00  0.00     0.031 C 
ATOM     71  C   UNL A   1      44.775  34.203  30.320  1.00  0.00     0.034 A 
BRANCH  58  72
ATOM     72  C   UNL A   1      41.949  29.924  33.838  1.00  0.00     0.023 A 
ATOM     73  C   UNL A   1      42.794  29.067  34.563  1.00  0.00     0.031 A 
ATOM     74  C   UNL A   1      40.798  29.368  33.248  1.00  0.00     0.131 A 
ATOM     75  C   UNL A   1      42.523  27.689  34.602  1.00  0.00     0.055 A 
ATOM     76  C   UNL A   1      40.484  28.014  33.373  1.00  0.00     0.041 A 
ATOM     77  F   UNL A   1      39.970  30.127  32.513  1.00  0.00    -0.206 F 
ATOM     78  C   UNL A   1      41.359  27.162  34.037  1.00  0.00     0.022 A 
BRANCH  75  79
ATOM     79  S   UNL A   1      43.803  26.572  35.240  1.00  0.00     0.124 S 
ATOM     80  O   UNL A   1      44.522  27.445  36.164  1.00  0.00    -0.237 OA
ATOM     81  O   UNL A   1      43.017  25.505  35.848  1.00  0.00    -0.237 OA
ATOM     82  O   UNL A   1      44.553  26.191  34.044  1.00  0.00    -0.744 OA
ENDBRANCH  75  79
ENDBRANCH  58  72
BRANCH  59  83
ATOM     83  C   UNL A   1      44.611  39.582  33.158  1.00  0.00     0.023 A 
ATOM     84  C   UNL A   1      43.682  40.407  32.510  1.00  0.00     0.031 A 
ATOM     85  C   UNL A   1      45.796  40.191  33.591  1.00  0.00     0.131 A 
ATOM     86  C   UNL A   1      43.958  41.753  32.238  1.00  0.00     0.055 A 
ATOM     87  C   UNL A   1      46.046  41.556  33.387  1.00  0.00     0.041 A 
ATOM     88  F   UNL A   1      46.731  39.475  34.232  1.00  0.00    -0.206 F 
ATOM     89  C   UNL A   1      45.133  42.344  32.688  1.00  0.00     0.022 A 
BRANCH  86  90
ATOM     90  S   UNL A   1      42.776  42.667  31.210  1.00  0.00     0.124 S 
ATOM     91  O   UNL A   1      41.685  41.705  31.094  1.00  0.00    -0.237 OA
ATOM     92  O   UNL A   1      42.499  43.833  32.045  1.00  0.00    -0.237 OA
ATOM     93  O   UNL A   1      43.522  42.931  29.983  1.00  0.00    -0.744 OA
ENDBRANCH  86  90
ENDBRANCH  59  83
BRANCH  71  94
ATOM     94  C   UNL A   1      45.388  34.029  28.946  1.00  0.00     0.023 A 
ATOM     95  C   UNL A   1      44.627  34.154  27.769  1.00  0.00     0.031 A 
ATOM     96  C   UNL A   1      46.765  33.771  28.810  1.00  0.00     0.131 A 
ATOM     97  C   UNL A   1      45.234  33.971  26.515  1.00  0.00     0.055 A 
ATOM     98  C   UNL A   1      47.376  33.656  27.560  1.00  0.00     0.041 A 
ATOM     99  F   UNL A   1      47.547  33.644  29.894  1.00  0.00    -0.206 F 
ATOM    100  C   UNL A   1      46.607  33.744  26.403  1.00  0.00     0.022 A 
BRANCH  97 101
ATOM    101  S   UNL A   1      44.188  33.947  25.032  1.00  0.00     0.124 S 
ATOM    102  O   UNL A   1      45.111  34.411  24.002  1.00  0.00    -0.237 OA
ATOM    103  O   UNL A   1      43.792  32.545  24.949  1.00  0.00    -0.237 OA
ATOM    104  O   UNL A   1      43.108  34.876  25.359  1.00  0.00    -0.744 OA
ENDBRANCH  97 101
ENDBRANCH  71  94
ENDBRANCH  45  46
ENDBRANCH  38  40
ENDBRANCH  37  38
ENDBRANCH  36  37
ENDBRANCH  35  36
ENDBRANCH  34  35
ENDBRANCH   1  34
TORSDOF 23
ENDMDL
MODEL 3
REMARK VINA RESULT:      -9.0      4.587     13.496
REMARK SMILES CS(=O)(=O)c1ccc(-c2cc(Cl)cc3c2O[C@H](C(F)(F)F)C(C(=O)OCCOCCOCCOC(=O)c2ccc(-c4c5nc(c(-c6cc(S(=O)(=O)[O-])ccc6F)c6ccc([nH]6)c(-c6cc(S(=O)(=O)[O-])ccc6F)c6nc(c(-c7cc(S(=O)(=O)[O-])ccc7F)c7ccc4[nH]7)C=C6)C=C5)cc2)=C3)cc1
REMARK SMILES IDX 30 1 29 2 28 3 27 4 26 5 25 6 23 7 24 8 22 9 9 10 10 11
REMARK SMILES IDX 15 12 11 13 14 14 16 15 12 16 13 17 100 18 17 19 8 20 5 21
REMARK SMILES IDX 6 22 102 23 7 24 101 25 2 26 1 27 3 28 4 29 18 30 19 31
REMARK SMILES IDX 20 32 21 33 31 34 32 35 33 36 34 37 35 38 36 39 37 40 38 41
REMARK SMILES IDX 99 42 39 43 98 44 40 45 41 46 42 47 92 48 43 49 97 50 91 51
REMARK SMILES IDX 93 52 44 53 96 54 90 55 89 56 45 58 77 59 57 60 76 61 58 62
REMARK SMILES IDX 61 63 75 64 94 65 59 66 60 67 74 69 95 70 62 71 46 72 47 73
REMARK SMILES IDX 55 74 48 75 54 76 56 77 53 78 49 79 50 80 51 81 52 82 78 83
REMARK SMILES IDX 79 84 87 85 80 86 86 87 88 88 85 89 81 90 82 91 83 92 84 93
REMARK SMILES IDX 63 94 64 95 72 96 65 97 71 98 73 99 70 100 66 101 67 102
REMARK SMILES IDX 68 103 69 104
REMARK H PARENT 93 57 61 68
REMARK Flexibility Score: inf
ROOT
ATOM      1  C   UNL A   1      33.069  36.752  32.055  1.00  0.00     0.188 C 
ENDROOT
BRANCH   1   2
ATOM      2  C   UNL A   1      34.038  35.712  32.665  1.00  0.00     0.188 C 
BRANCH   2   3
ATOM      3  O   UNL A   1      33.618  34.367  32.524  1.00  0.00    -0.376 OA
BRANCH   3   4
ATOM      4  C   UNL A   1      34.165  33.434  33.449  1.00  0.00     0.202 C 
BRANCH   4   5
ATOM      5  C   UNL A   1      35.309  33.951  34.336  1.00  0.00     0.261 C 
BRANCH   5   6
ATOM      6  O   UNL A   1      36.617  33.576  33.825  1.00  0.00    -0.460 OA
BRANCH   6   7
ATOM      7  C   UNL A   1      37.012  32.317  34.111  1.00  0.00     0.338 C 
ATOM      8  O   UNL A   1      36.622  31.323  33.512  1.00  0.00    -0.246 OA
BRANCH   7   9
ATOM      9  C   UNL A   1      38.063  32.263  35.168  1.00  0.00     0.087 C 
ATOM     10  C   UNL A   1      41.779  30.454  34.792  1.00  0.00     0.026 A 
ATOM     11  C   UNL A   1      41.588  29.611  33.674  1.00  0.00     0.033 A 
ATOM     12  C   UNL A   1      40.606  31.064  35.266  1.00  0.00     0.135 A 
ATOM     13  C   UNL A   1      40.333  29.230  33.206  1.00  0.00     0.042 A 
ATOM     14  C   UNL A   1      39.358  30.472  34.972  1.00  0.00     0.019 A 
ATOM     15  O   UNL A   1      40.522  32.362  35.789  1.00  0.00    -0.475 OA
ATOM     16  Cl  UNL A   1      40.166  28.265  31.797  1.00  0.00    -0.084 Cl
ATOM     17  C   UNL A   1      39.208  29.584  33.917  1.00  0.00     0.032 A 
ATOM     18  C   UNL A   1      38.166  31.016  35.655  1.00  0.00     0.027 C 
ATOM     19  C   UNL A   1      39.335  33.111  35.197  1.00  0.00     0.316 C 
BRANCH  10  20
ATOM     20  C   UNL A   1      43.099  30.221  35.477  1.00  0.00    -0.015 A 
ATOM     21  C   UNL A   1      45.075  29.295  37.366  1.00  0.00     0.067 A 
ATOM     22  C   UNL A   1      44.801  28.575  36.202  1.00  0.00     0.021 A 
ATOM     23  C   UNL A   1      44.376  30.478  37.601  1.00  0.00     0.021 A 
ATOM     24  C   UNL A   1      43.840  29.041  35.277  1.00  0.00     0.010 A 
ATOM     25  C   UNL A   1      43.406  30.929  36.664  1.00  0.00     0.010 A 
BRANCH  21  26
ATOM     26  S   UNL A   1      46.439  28.763  38.403  1.00  0.00     0.175 S 
ATOM     27  C   UNL A   1      46.005  27.325  39.331  1.00  0.00     0.163 C 
ATOM     28  O   UNL A   1      46.641  29.850  39.347  1.00  0.00    -0.224 OA
ATOM     29  O   UNL A   1      47.513  28.370  37.509  1.00  0.00    -0.224 OA
ENDBRANCH  21  26
ENDBRANCH  10  20
BRANCH  19  30
ATOM     30  C   UNL A   1      39.011  34.412  35.945  1.00  0.00     0.430 C 
ATOM     31  F   UNL A   1      40.010  34.790  36.776  1.00  0.00    -0.167 F 
ATOM     32  F   UNL A   1      38.753  35.439  35.107  1.00  0.00    -0.167 F 
ATOM     33  F   UNL A   1      37.901  34.256  36.716  1.00  0.00    -0.167 F 
ENDBRANCH  19  30
ENDBRANCH   7   9
ENDBRANCH   6   7
ENDBRANCH   5   6
ENDBRANCH   4   5
ENDBRANCH   3   4
ENDBRANCH   2   3
ENDBRANCH   1   2
BRANCH   1  34
ATOM     34  O   UNL A   1      32.273  36.413  30.929  1.00  0.00    -0.376 OA
BRANCH  34  35
ATOM     35  C   UNL A   1      32.814  36.550  29.623  1.00  0.00     0.202 C 
BRANCH  35  36
ATOM     36  C   UNL A   1      33.228  35.300  28.832  1.00  0.00     0.261 C 
BRANCH  36  37
ATOM     37  O   UNL A   1      34.428  34.646  29.280  1.00  0.00    -0.460 OA
BRANCH  37  38
ATOM     38  C   UNL A   1      34.483  33.311  29.047  1.00  0.00     0.338 C 
ATOM     39  O   UNL A   1      33.565  32.599  28.661  1.00  0.00    -0.246 OA
BRANCH  38  40
ATOM     40  C   UNL A   1      35.873  32.825  29.150  1.00  0.00     0.060 A 
ATOM     41  C   UNL A   1      36.103  31.623  29.825  1.00  0.00     0.016 A 
ATOM     42  C   UNL A   1      36.950  33.579  28.677  1.00  0.00     0.016 A 
ATOM     43  C   UNL A   1      37.409  31.187  30.043  1.00  0.00     0.010 A 
ATOM     44  C   UNL A   1      38.263  33.141  28.910  1.00  0.00     0.010 A 
ATOM     45  C   UNL A   1      38.506  31.946  29.606  1.00  0.00    -0.014 A 
BRANCH  45  46
ATOM     46  C   UNL A   1      39.884  31.560  30.028  1.00  0.00     0.031 A 
ATOM     47  C   UNL A   1      40.578  30.454  29.292  1.00  0.00     0.074 A 
ATOM     48  C   UNL A   1      40.518  32.184  31.038  1.00  0.00     0.049 A 
ATOM     49  N   UNL A   1      41.782  29.977  29.459  1.00  0.00    -0.248 NA
ATOM     50  C   UNL A   1      39.786  29.765  28.264  1.00  0.00     0.031 C 
ATOM     51  C   UNL A   1      39.920  33.226  31.858  1.00  0.00     0.029 A 
ATOM     52  N   UNL A   1      41.801  32.084  31.521  1.00  0.00    -0.354 N 
ATOM     53  C   UNL A   1      41.874  28.882  28.608  1.00  0.00     0.074 A 
ATOM     54  C   UNL A   1      40.612  28.795  27.903  1.00  0.00     0.031 C 
ATOM     55  C   UNL A   1      40.867  33.774  32.639  1.00  0.00     0.029 A 
ATOM     56  C   UNL A   1      42.121  33.056  32.448  1.00  0.00     0.049 A 
ATOM     57  H   UNL A   1      42.432  31.386  31.233  1.00  0.00     0.167 HD
ATOM     58  C   UNL A   1      42.896  28.001  28.476  1.00  0.00     0.034 A 
ATOM     59  C   UNL A   1      43.291  33.337  33.062  1.00  0.00     0.034 A 
ATOM     60  C   UNL A   1      44.131  28.091  29.220  1.00  0.00     0.049 A 
ATOM     61  C   UNL A   1      44.458  32.398  32.826  1.00  0.00     0.074 A 
ATOM     62  C   UNL A   1      45.212  27.225  29.201  1.00  0.00     0.029 A 
ATOM     63  N   UNL A   1      44.453  29.102  30.120  1.00  0.00    -0.354 N 
ATOM     64  N   UNL A   1      44.525  31.348  32.039  1.00  0.00    -0.248 NA
ATOM     65  C   UNL A   1      45.692  32.660  33.578  1.00  0.00     0.031 C 
ATOM     66  C   UNL A   1      46.137  27.657  30.158  1.00  0.00     0.029 A 
ATOM     67  C   UNL A   1      45.689  28.851  30.699  1.00  0.00     0.049 A 
ATOM     68  H   UNL A   1      43.885  29.881  30.319  1.00  0.00     0.167 HD
ATOM     69  C   UNL A   1      45.809  30.829  32.198  1.00  0.00     0.074 A 
ATOM     70  C   UNL A   1      46.494  31.705  33.127  1.00  0.00     0.031 C 
ATOM     71  C   UNL A   1      46.362  29.720  31.642  1.00  0.00     0.034 A 
BRANCH  58  72
ATOM     72  C   UNL A   1      42.651  26.798  27.596  1.00  0.00     0.023 A 
ATOM     73  C   UNL A   1      42.253  25.554  28.117  1.00  0.00     0.031 A 
ATOM     74  C   UNL A   1      42.902  26.881  26.214  1.00  0.00     0.131 A 
ATOM     75  C   UNL A   1      42.207  24.429  27.278  1.00  0.00     0.055 A 
ATOM     76  C   UNL A   1      42.760  25.779  25.369  1.00  0.00     0.041 A 
ATOM     77  F   UNL A   1      43.320  28.031  25.661  1.00  0.00    -0.206 F 
ATOM     78  C   UNL A   1      42.429  24.539  25.903  1.00  0.00     0.022 A 
BRANCH  75  79
ATOM     79  S   UNL A   1      42.034  22.789  28.035  1.00  0.00     0.124 S 
ATOM     80  O   UNL A   1      42.572  23.025  29.373  1.00  0.00    -0.237 OA
ATOM     81  O   UNL A   1      40.597  22.554  27.956  1.00  0.00    -0.237 OA
ATOM     82  O   UNL A   1      42.856  21.930  27.185  1.00  0.00    -0.744 OA
ENDBRANCH  75  79
ENDBRANCH  58  72
BRANCH  59  83
ATOM     83  C   UNL A   1      43.458  34.557  33.917  1.00  0.00     0.023 A 
ATOM     84  C   UNL A   1      43.410  34.431  35.312  1.00  0.00     0.031 A 
ATOM     85  C   UNL A   1      43.627  35.852  33.410  1.00  0.00     0.131 A 
ATOM     86  C   UNL A   1      43.448  35.551  36.153  1.00  0.00     0.055 A 
ATOM     87  C   UNL A   1      43.740  36.970  34.251  1.00  0.00     0.041 A 
ATOM     88  F   UNL A   1      43.696  36.058  32.086  1.00  0.00    -0.206 F 
ATOM     89  C   UNL A   1      43.631  36.826  35.633  1.00  0.00     0.022 A 
BRANCH  86  90
ATOM     90  S   UNL A   1      43.166  35.286  37.925  1.00  0.00     0.124 S 
ATOM     91  O   UNL A   1      42.581  33.950  37.932  1.00  0.00    -0.237 OA
ATOM     92  O   UNL A   1      44.523  35.380  38.457  1.00  0.00    -0.237 OA
ATOM     93  O   UNL A   1      42.266  36.375  38.295  1.00  0.00    -0.744 OA
ENDBRANCH  86  90
ENDBRANCH  59  83
BRANCH  71  94
ATOM     94  C   UNL A   1      47.788  29.377  32.020  1.00  0.00     0.023 A 
ATOM     95  C   UNL A   1      48.889  29.855  31.286  1.00  0.00     0.031 A 
ATOM     96  C   UNL A   1      48.051  28.591  33.157  1.00  0.00     0.131 A 
ATOM     97  C   UNL A   1      50.194  29.501  31.664  1.00  0.00     0.055 A 
ATOM     98  C   UNL A   1      49.353  28.297  33.567  1.00  0.00     0.041 A 
ATOM     99  F   UNL A   1      47.045  28.107  33.902  1.00  0.00    -0.206 F 
ATOM    100  C   UNL A   1      50.434  28.743  32.812  1.00  0.00     0.022 A 
BRANCH  97 101
ATOM    101  S   UNL A   1      51.576  29.972  30.585  1.00  0.00     0.124 S 
ATOM    102  O   UNL A   1      51.872  28.715  29.905  1.00  0.00    -0.237 OA
ATOM    103  O   UNL A   1      50.987  31.021  29.759  1.00  0.00    -0.237 OA
ATOM    104  O   UNL A   1      52.603  30.426  31.521  1.00  0.00    -0.744 OA
ENDBRANCH  97 101
ENDBRANCH  71  94
ENDBRANCH  45  46
ENDBRANCH  38  40
ENDBRANCH  37  38
ENDBRANCH  36  37
ENDBRANCH  35  36
ENDBRANCH  34  35
ENDBRANCH   1  34
TORSDOF 23
ENDMDL
