MODEL 1
REMARK VINA RESULT:     -11.1      0.000      0.000
REMARK SMILES C[C@@H](C(=O)OCCOCCOCCOC(=O)c1ccc(-c2c3nc(c(-c4cc(S(=O)(=O)[O-])ccc4F)c4ccc([nH]4)c(-c4cc(S(=O)(=O)[O-])ccc4F)c4nc(c(-c5cc(S(=O)(=O)[O-])ccc5F)c5ccc2[nH]5)C=C4)C=C3)cc1)c1ccc(C[C@H]2CCC[C@H]2O)cc1-c1ccc(O)cc1
REMARK SMILES IDX 9 1 8 2 7 3 6 4 5 5 3 6 4 7 2 8 1 9 80 10 81 11 92 12 82 13
REMARK SMILES IDX 91 14 83 15 93 16 94 17 99 18 95 19 98 20 96 21 97 22 84 24
REMARK SMILES IDX 85 25 86 26 89 27 87 28 88 29 90 30 10 32 11 33 12 34 13 35
REMARK SMILES IDX 14 36 15 37 16 38 17 39 18 40 79 41 19 42 78 43 20 44 21 45
REMARK SMILES IDX 22 46 72 47 23 48 77 49 71 50 73 51 24 52 76 53 70 54 69 55
REMARK SMILES IDX 25 57 57 58 37 59 56 60 38 61 41 62 55 63 74 64 39 65 40 66
REMARK SMILES IDX 54 68 75 69 42 70 26 71 27 72 35 73 28 74 34 75 36 76 33 77
REMARK SMILES IDX 29 78 30 79 31 80 32 81 58 82 59 83 67 84 60 85 66 86 68 87
REMARK SMILES IDX 65 88 61 89 62 90 63 91 64 92 43 93 44 94 52 95 45 96 51 97
REMARK SMILES IDX 53 98 50 99 46 100 47 101 48 102 49 103
REMARK H PARENT 97 23 90 31 73 56 41 67
REMARK Flexibility Score: inf
ROOT
ATOM      1  C   UNL A   1      31.618  29.621  24.977  1.00  0.00     0.188 C 
ENDROOT
BRANCH   1   2
ATOM      2  O   UNL A   1      32.051  28.657  24.019  1.00  0.00    -0.376 OA
BRANCH   2   3
ATOM      3  C   UNL A   1      33.470  28.405  24.014  1.00  0.00     0.202 C 
BRANCH   3   4
ATOM      4  C   UNL A   1      34.060  27.762  25.282  1.00  0.00     0.261 C 
BRANCH   4   5
ATOM      5  O   UNL A   1      34.342  26.359  25.096  1.00  0.00    -0.463 OA
BRANCH   5   6
ATOM      6  C   UNL A   1      33.658  25.476  25.890  1.00  0.00     0.313 C 
ATOM      7  O   UNL A   1      32.642  25.776  26.499  1.00  0.00    -0.252 OA
BRANCH   6   8
ATOM      8  C   UNL A   1      34.423  24.159  25.995  1.00  0.00     0.127 C 
ATOM      9  C   UNL A   1      35.828  24.159  25.362  1.00  0.00     0.025 C 
BRANCH   8  10
ATOM     10  C   UNL A   1      33.713  22.885  25.534  1.00  0.00    -0.026 A 
ATOM     11  C   UNL A   1      33.948  21.746  26.338  1.00  0.00     0.005 A 
ATOM     12  C   UNL A   1      32.993  22.713  24.330  1.00  0.00    -0.014 A 
ATOM     13  C   UNL A   1      33.540  20.471  25.952  1.00  0.00     0.004 A 
ATOM     14  C   UNL A   1      32.696  21.393  23.921  1.00  0.00     0.012 A 
ATOM     15  C   UNL A   1      32.965  20.267  24.706  1.00  0.00    -0.047 A 
BRANCH  12  16
ATOM     16  C   UNL A   1      32.451  23.795  23.487  1.00  0.00    -0.018 A 
ATOM     17  C   UNL A   1      33.270  24.401  22.513  1.00  0.00     0.012 A 
ATOM     18  C   UNL A   1      31.178  24.329  23.678  1.00  0.00     0.012 A 
ATOM     19  C   UNL A   1      32.833  25.495  21.757  1.00  0.00     0.047 A 
ATOM     20  C   UNL A   1      30.723  25.395  22.890  1.00  0.00     0.047 A 
ATOM     21  C   UNL A   1      31.555  25.985  21.952  1.00  0.00     0.115 A 
BRANCH  21  22
ATOM     22  O   UNL A   1      31.138  27.052  21.215  1.00  0.00    -0.508 OA
ATOM     23  H   UNL A   1      30.623  26.917  20.443  1.00  0.00     0.293 HD
ENDBRANCH  21  22
ENDBRANCH  12  16
BRANCH  15  24
ATOM     24  C   UNL A   1      32.576  18.887  24.238  1.00  0.00     0.041 C 
BRANCH  24  25
ATOM     25  C   UNL A   1      33.228  17.665  24.906  1.00  0.00     0.022 C 
ATOM     26  C   UNL A   1      32.285  16.518  25.293  1.00  0.00     0.007 C 
ATOM     27  C   UNL A   1      34.391  16.967  24.187  1.00  0.00     0.117 C 
ATOM     28  C   UNL A   1      33.172  15.267  25.371  1.00  0.00     0.003 C 
ATOM     29  C   UNL A   1      34.595  15.730  25.054  1.00  0.00     0.032 C 
BRANCH  27  30
ATOM     30  O   UNL A   1      34.104  16.527  22.867  1.00  0.00    -0.393 OA
ATOM     31  H   UNL A   1      34.072  15.558  22.849  1.00  0.00     0.210 HD
ENDBRANCH  27  30
ENDBRANCH  24  25
ENDBRANCH  15  24
ENDBRANCH   8  10
ENDBRANCH   6   8
ENDBRANCH   5   6
ENDBRANCH   4   5
ENDBRANCH   3   4
ENDBRANCH   2   3
ENDBRANCH   1   2
BRANCH   1  32
ATOM     32  C   UNL A   1      31.641  29.154  26.435  1.00  0.00     0.188 C 
BRANCH  32  33
ATOM     33  O   UNL A   1      31.839  30.191  27.383  1.00  0.00    -0.376 OA
BRANCH  33  34
ATOM     34  C   UNL A   1      31.724  31.501  26.820  1.00  0.00     0.202 C 
BRANCH  34  35
ATOM     35  C   UNL A   1      32.927  32.413  27.128  1.00  0.00     0.261 C 
BRANCH  35  36
ATOM     36  O   UNL A   1      32.542  33.727  27.608  1.00  0.00    -0.460 OA
BRANCH  36  37
ATOM     37  C   UNL A   1      33.239  34.224  28.666  1.00  0.00     0.338 C 
ATOM     38  O   UNL A   1      32.867  35.131  29.396  1.00  0.00    -0.246 OA
BRANCH  37  39
ATOM     39  C   UNL A   1      34.487  33.441  28.920  1.00  0.00     0.060 A 
ATOM     40  C   UNL A   1      34.399  32.304  29.735  1.00  0.00     0.016 A 
ATOM     41  C   UNL A   1      35.732  33.791  28.381  1.00  0.00     0.016 A 
ATOM     42  C   UNL A   1      35.538  31.533  30.015  1.00  0.00     0.010 A 
ATOM     43  C   UNL A   1      36.876  33.018  28.667  1.00  0.00     0.010 A 
ATOM     44  C   UNL A   1      36.794  31.895  29.505  1.00  0.00    -0.014 A 
BRANCH  44  45
ATOM     45  C   UNL A   1      38.023  31.233  30.048  1.00  0.00     0.031 A 
ATOM     46  C   UNL A   1      38.461  31.594  31.442  1.00  0.00     0.074 A 
ATOM     47  C   UNL A   1      38.727  30.305  29.370  1.00  0.00     0.049 A 
ATOM     48  N   UNL A   1      39.434  31.101  32.165  1.00  0.00    -0.248 NA
ATOM     49  C   UNL A   1      37.707  32.674  32.093  1.00  0.00     0.031 C 
ATOM     50  C   UNL A   1      38.460  29.885  28.003  1.00  0.00     0.029 A 
ATOM     51  N   UNL A   1      39.802  29.531  29.750  1.00  0.00    -0.354 N 
ATOM     52  C   UNL A   1      39.407  31.807  33.362  1.00  0.00     0.074 A 
ATOM     53  C   UNL A   1      38.342  32.783  33.248  1.00  0.00     0.031 C 
ATOM     54  C   UNL A   1      39.288  28.875  27.680  1.00  0.00     0.029 A 
ATOM     55  C   UNL A   1      40.204  28.622  28.793  1.00  0.00     0.049 A 
ATOM     56  H   UNL A   1      40.242  29.618  30.626  1.00  0.00     0.167 HD
ATOM     57  C   UNL A   1      40.195  31.667  34.457  1.00  0.00     0.034 A 
ATOM     58  C   UNL A   1      41.200  27.707  28.805  1.00  0.00     0.034 A 
ATOM     59  C   UNL A   1      41.300  30.748  34.555  1.00  0.00     0.049 A 
ATOM     60  C   UNL A   1      42.109  27.611  30.016  1.00  0.00     0.074 A 
ATOM     61  C   UNL A   1      42.174  30.561  35.613  1.00  0.00     0.029 A 
ATOM     62  N   UNL A   1      41.706  29.878  33.552  1.00  0.00    -0.354 N 
ATOM     63  N   UNL A   1      42.047  28.265  31.153  1.00  0.00    -0.248 NA
ATOM     64  C   UNL A   1      43.233  26.665  29.934  1.00  0.00     0.031 C 
ATOM     65  C   UNL A   1      43.146  29.634  35.225  1.00  0.00     0.029 A 
ATOM     66  C   UNL A   1      42.833  29.178  33.955  1.00  0.00     0.049 A 
ATOM     67  H   UNL A   1      41.258  29.774  32.681  1.00  0.00     0.167 HD
ATOM     68  C   UNL A   1      43.114  27.796  31.922  1.00  0.00     0.074 A 
ATOM     69  C   UNL A   1      43.784  26.786  31.134  1.00  0.00     0.031 C 
ATOM     70  C   UNL A   1      43.507  28.174  33.165  1.00  0.00     0.034 A 
BRANCH  57  71
ATOM     71  C   UNL A   1      39.910  32.596  35.609  1.00  0.00     0.023 A 
ATOM     72  C   UNL A   1      39.072  32.208  36.667  1.00  0.00     0.031 A 
ATOM     73  C   UNL A   1      40.415  33.907  35.610  1.00  0.00     0.131 A 
ATOM     74  C   UNL A   1      38.688  33.148  37.633  1.00  0.00     0.055 A 
ATOM     75  C   UNL A   1      40.100  34.813  36.623  1.00  0.00     0.041 A 
ATOM     76  F   UNL A   1      41.200  34.339  34.609  1.00  0.00    -0.206 F 
ATOM     77  C   UNL A   1      39.216  34.441  37.633  1.00  0.00     0.022 A 
BRANCH  74  78
ATOM     78  S   UNL A   1      37.359  32.707  38.785  1.00  0.00     0.124 S 
ATOM     79  O   UNL A   1      37.642  33.591  39.914  1.00  0.00    -0.237 OA
ATOM     80  O   UNL A   1      36.160  33.017  38.015  1.00  0.00    -0.237 OA
ATOM     81  O   UNL A   1      37.588  31.287  39.042  1.00  0.00    -0.744 OA
ENDBRANCH  74  78
ENDBRANCH  57  71
BRANCH  58  82
ATOM     82  C   UNL A   1      41.463  26.828  27.621  1.00  0.00     0.023 A 
ATOM     83  C   UNL A   1      41.039  25.488  27.600  1.00  0.00     0.031 A 
ATOM     84  C   UNL A   1      42.240  27.284  26.540  1.00  0.00     0.131 A 
ATOM     85  C   UNL A   1      41.440  24.638  26.555  1.00  0.00     0.055 A 
ATOM     86  C   UNL A   1      42.581  26.452  25.471  1.00  0.00     0.041 A 
ATOM     87  F   UNL A   1      42.690  28.548  26.513  1.00  0.00    -0.206 F 
ATOM     88  C   UNL A   1      42.194  25.116  25.482  1.00  0.00     0.022 A 
BRANCH  85  89
ATOM     89  S   UNL A   1      41.060  22.866  26.672  1.00  0.00     0.124 S 
ATOM     90  O   UNL A   1      41.981  22.302  25.692  1.00  0.00    -0.237 OA
ATOM     91  O   UNL A   1      41.359  22.583  28.072  1.00  0.00    -0.237 OA
ATOM     92  O   UNL A   1      39.645  22.795  26.312  1.00  0.00    -0.744 OA
ENDBRANCH  85  89
ENDBRANCH  58  82
BRANCH  70  93
ATOM     93  C   UNL A   1      44.694  27.462  33.775  1.00  0.00     0.023 A 
ATOM     94  C   UNL A   1      46.001  27.979  33.692  1.00  0.00     0.031 A 
ATOM     95  C   UNL A   1      44.510  26.252  34.470  1.00  0.00     0.131 A 
ATOM     96  C   UNL A   1      47.074  27.269  34.257  1.00  0.00     0.055 A 
ATOM     97  C   UNL A   1      45.572  25.579  35.076  1.00  0.00     0.041 A 
ATOM     98  F   UNL A   1      43.286  25.709  34.583  1.00  0.00    -0.206 F 
ATOM     99  C   UNL A   1      46.865  26.081  34.962  1.00  0.00     0.022 A 
BRANCH  96 100
ATOM    100  S   UNL A   1      48.764  27.880  34.000  1.00  0.00     0.124 S 
ATOM    101  O   UNL A   1      48.947  27.681  32.567  1.00  0.00    -0.237 OA
ATOM    102  O   UNL A   1      48.665  29.267  34.445  1.00  0.00    -0.237 OA
ATOM    103  O   UNL A   1      49.575  27.014  34.855  1.00  0.00    -0.744 OA
ENDBRANCH  96 100
ENDBRANCH  70  93
ENDBRANCH  44  45
ENDBRANCH  37  39
ENDBRANCH  36  37
ENDBRANCH  35  36
ENDBRANCH  34  35
ENDBRANCH  33  34
ENDBRANCH  32  33
ENDBRANCH   1  32
TORSDOF 26
ENDMDL
MODEL 2
REMARK VINA RESULT:     -11.0      3.281      6.066
REMARK SMILES C[C@@H](C(=O)OCCOCCOCCOC(=O)c1ccc(-c2c3nc(c(-c4cc(S(=O)(=O)[O-])ccc4F)c4ccc([nH]4)c(-c4cc(S(=O)(=O)[O-])ccc4F)c4nc(c(-c5cc(S(=O)(=O)[O-])ccc5F)c5ccc2[nH]5)C=C4)C=C3)cc1)c1ccc(C[C@H]2CCC[C@H]2O)cc1-c1ccc(O)cc1
REMARK SMILES IDX 9 1 8 2 7 3 6 4 5 5 3 6 4 7 2 8 1 9 80 10 81 11 92 12 82 13
REMARK SMILES IDX 91 14 83 15 93 16 94 17 99 18 95 19 98 20 96 21 97 22 84 24
REMARK SMILES IDX 85 25 86 26 89 27 87 28 88 29 90 30 10 32 11 33 12 34 13 35
REMARK SMILES IDX 14 36 15 37 16 38 17 39 18 40 79 41 19 42 78 43 20 44 21 45
REMARK SMILES IDX 22 46 72 47 23 48 77 49 71 50 73 51 24 52 76 53 70 54 69 55
REMARK SMILES IDX 25 57 57 58 37 59 56 60 38 61 41 62 55 63 74 64 39 65 40 66
REMARK SMILES IDX 54 68 75 69 42 70 26 71 27 72 35 73 28 74 34 75 36 76 33 77
REMARK SMILES IDX 29 78 30 79 31 80 32 81 58 82 59 83 67 84 60 85 66 86 68 87
REMARK SMILES IDX 65 88 61 89 62 90 63 91 64 92 43 93 44 94 52 95 45 96 51 97
REMARK SMILES IDX 53 98 50 99 46 100 47 101 48 102 49 103
REMARK H PARENT 97 23 90 31 73 56 41 67
REMARK Flexibility Score: inf
ROOT
ATOM      1  C   UNL A   1      35.261  32.039  28.870  1.00  0.00     0.188 C 
ENDROOT
BRANCH   1   2
ATOM      2  O   UNL A   1      35.430  31.142  27.774  1.00  0.00    -0.376 OA
BRANCH   2   3
ATOM      3  C   UNL A   1      34.243  30.414  27.401  1.00  0.00     0.202 C 
BRANCH   3   4
ATOM      4  C   UNL A   1      34.434  28.941  27.000  1.00  0.00     0.261 C 
BRANCH   4   5
ATOM      5  O   UNL A   1      33.500  28.532  25.979  1.00  0.00    -0.463 OA
BRANCH   5   6
ATOM      6  C   UNL A   1      33.701  27.304  25.406  1.00  0.00     0.313 C 
ATOM      7  O   UNL A   1      34.156  26.349  26.019  1.00  0.00    -0.252 OA
BRANCH   6   8
ATOM      8  C   UNL A   1      33.409  27.365  23.909  1.00  0.00     0.127 C 
ATOM      9  C   UNL A   1      34.290  28.341  23.104  1.00  0.00     0.025 C 
BRANCH   8  10
ATOM     10  C   UNL A   1      31.961  27.591  23.473  1.00  0.00    -0.026 A 
ATOM     11  C   UNL A   1      31.751  28.735  22.670  1.00  0.00     0.005 A 
ATOM     12  C   UNL A   1      30.829  26.870  23.915  1.00  0.00    -0.014 A 
ATOM     13  C   UNL A   1      30.473  29.192  22.353  1.00  0.00     0.004 A 
ATOM     14  C   UNL A   1      29.553  27.426  23.667  1.00  0.00     0.012 A 
ATOM     15  C   UNL A   1      29.355  28.581  22.902  1.00  0.00    -0.047 A 
BRANCH  12  16
ATOM     16  C   UNL A   1      30.848  25.540  24.552  1.00  0.00    -0.018 A 
ATOM     17  C   UNL A   1      31.092  24.392  23.770  1.00  0.00     0.012 A 
ATOM     18  C   UNL A   1      30.529  25.346  25.895  1.00  0.00     0.012 A 
ATOM     19  C   UNL A   1      31.022  23.103  24.311  1.00  0.00     0.047 A 
ATOM     20  C   UNL A   1      30.504  24.059  26.447  1.00  0.00     0.047 A 
ATOM     21  C   UNL A   1      30.729  22.945  25.652  1.00  0.00     0.115 A 
BRANCH  21  22
ATOM     22  O   UNL A   1      30.660  21.687  26.169  1.00  0.00    -0.508 OA
ATOM     23  H   UNL A   1      31.107  21.483  26.968  1.00  0.00     0.293 HD
ENDBRANCH  21  22
ENDBRANCH  12  16
BRANCH  15  24
ATOM     24  C   UNL A   1      27.964  29.098  22.628  1.00  0.00     0.041 C 
BRANCH  24  25
ATOM     25  C   UNL A   1      27.753  30.612  22.470  1.00  0.00     0.022 C 
ATOM     26  C   UNL A   1      28.546  31.513  23.425  1.00  0.00     0.007 C 
ATOM     27  C   UNL A   1      27.974  31.246  21.088  1.00  0.00     0.117 C 
ATOM     28  C   UNL A   1      28.632  32.877  22.726  1.00  0.00     0.003 C 
ATOM     29  C   UNL A   1      27.870  32.732  21.408  1.00  0.00     0.032 C 
BRANCH  27  30
ATOM     30  O   UNL A   1      29.256  31.014  20.520  1.00  0.00    -0.393 OA
ATOM     31  H   UNL A   1      29.335  31.507  19.689  1.00  0.00     0.210 HD
ENDBRANCH  27  30
ENDBRANCH  24  25
ENDBRANCH  15  24
ENDBRANCH   8  10
ENDBRANCH   6   8
ENDBRANCH   5   6
ENDBRANCH   4   5
ENDBRANCH   3   4
ENDBRANCH   2   3
ENDBRANCH   1   2
BRANCH   1  32
ATOM     32  C   UNL A   1      35.118  33.516  28.494  1.00  0.00     0.188 C 
BRANCH  32  33
ATOM     33  O   UNL A   1      33.849  34.080  28.789  1.00  0.00    -0.376 OA
BRANCH  33  34
ATOM     34  C   UNL A   1      33.868  35.509  28.859  1.00  0.00     0.202 C 
BRANCH  34  35
ATOM     35  C   UNL A   1      32.737  36.100  29.723  1.00  0.00     0.261 C 
BRANCH  35  36
ATOM     36  O   UNL A   1      33.164  36.448  31.066  1.00  0.00    -0.460 OA
BRANCH  36  37
ATOM     37  C   UNL A   1      32.837  35.578  32.060  1.00  0.00     0.338 C 
ATOM     38  O   UNL A   1      31.701  35.308  32.420  1.00  0.00    -0.246 OA
BRANCH  37  39
ATOM     39  C   UNL A   1      34.044  34.879  32.598  1.00  0.00     0.060 A 
ATOM     40  C   UNL A   1      35.300  35.458  32.368  1.00  0.00     0.016 A 
ATOM     41  C   UNL A   1      33.976  33.679  33.319  1.00  0.00     0.016 A 
ATOM     42  C   UNL A   1      36.470  34.844  32.843  1.00  0.00     0.010 A 
ATOM     43  C   UNL A   1      35.151  33.062  33.791  1.00  0.00     0.010 A 
ATOM     44  C   UNL A   1      36.412  33.626  33.537  1.00  0.00    -0.014 A 
BRANCH  44  45
ATOM     45  C   UNL A   1      37.675  32.858  33.774  1.00  0.00     0.031 A 
ATOM     46  C   UNL A   1      38.473  33.176  35.011  1.00  0.00     0.074 A 
ATOM     47  C   UNL A   1      38.108  31.873  32.963  1.00  0.00     0.049 A 
ATOM     48  N   UNL A   1      39.548  32.597  35.482  1.00  0.00    -0.248 NA
ATOM     49  C   UNL A   1      37.998  34.316  35.806  1.00  0.00     0.031 C 
ATOM     50  C   UNL A   1      37.477  31.481  31.711  1.00  0.00     0.029 A 
ATOM     51  N   UNL A   1      39.172  31.006  33.081  1.00  0.00    -0.354 N 
ATOM     52  C   UNL A   1      39.877  33.300  36.635  1.00  0.00     0.074 A 
ATOM     53  C   UNL A   1      38.905  34.366  36.767  1.00  0.00     0.031 C 
ATOM     54  C   UNL A   1      38.110  30.403  31.214  1.00  0.00     0.029 A 
ATOM     55  C   UNL A   1      39.247  30.067  32.073  1.00  0.00     0.049 A 
ATOM     56  H   UNL A   1      39.820  31.052  33.820  1.00  0.00     0.167 HD
ATOM     57  C   UNL A   1      40.896  33.089  37.505  1.00  0.00     0.034 A 
ATOM     58  C   UNL A   1      40.133  29.069  31.858  1.00  0.00     0.034 A 
ATOM     59  C   UNL A   1      41.908  32.075  37.347  1.00  0.00     0.049 A 
ATOM     60  C   UNL A   1      41.300  28.890  32.810  1.00  0.00     0.074 A 
ATOM     61  C   UNL A   1      42.996  31.811  38.161  1.00  0.00     0.029 A 
ATOM     62  N   UNL A   1      41.977  31.176  36.292  1.00  0.00    -0.354 N 
ATOM     63  N   UNL A   1      41.577  29.544  33.915  1.00  0.00    -0.248 NA
ATOM     64  C   UNL A   1      42.284  27.849  32.473  1.00  0.00     0.031 C 
ATOM     65  C   UNL A   1      43.759  30.802  37.564  1.00  0.00     0.029 A 
ATOM     66  C   UNL A   1      43.105  30.378  36.419  1.00  0.00     0.049 A 
ATOM     67  H   UNL A   1      41.321  31.113  35.560  1.00  0.00     0.167 HD
ATOM     68  C   UNL A   1      42.757  28.981  34.406  1.00  0.00     0.074 A 
ATOM     69  C   UNL A   1      43.122  27.918  33.498  1.00  0.00     0.031 C 
ATOM     70  C   UNL A   1      43.474  29.320  35.507  1.00  0.00     0.034 A 
BRANCH  57  71
ATOM     71  C   UNL A   1      40.984  34.036  38.673  1.00  0.00     0.023 A 
ATOM     72  C   UNL A   1      40.205  33.845  39.827  1.00  0.00     0.031 A 
ATOM     73  C   UNL A   1      41.793  35.183  38.602  1.00  0.00     0.131 A 
ATOM     74  C   UNL A   1      40.181  34.832  40.822  1.00  0.00     0.055 A 
ATOM     75  C   UNL A   1      41.831  36.118  39.636  1.00  0.00     0.041 A 
ATOM     76  F   UNL A   1      42.538  35.428  37.512  1.00  0.00    -0.206 F 
ATOM     77  C   UNL A   1      41.007  35.956  40.747  1.00  0.00     0.022 A 
BRANCH  74  78
ATOM     78  S   UNL A   1      38.927  34.708  42.126  1.00  0.00     0.124 S 
ATOM     79  O   UNL A   1      37.888  35.605  41.622  1.00  0.00    -0.237 OA
ATOM     80  O   UNL A   1      38.603  33.286  42.118  1.00  0.00    -0.237 OA
ATOM     81  O   UNL A   1      39.626  35.184  43.318  1.00  0.00    -0.744 OA
ENDBRANCH  74  78
ENDBRANCH  57  71
BRANCH  58  82
ATOM     82  C   UNL A   1      40.019  28.173  30.663  1.00  0.00     0.023 A 
ATOM     83  C   UNL A   1      40.759  28.421  29.493  1.00  0.00     0.031 A 
ATOM     84  C   UNL A   1      39.086  27.121  30.633  1.00  0.00     0.131 A 
ATOM     85  C   UNL A   1      40.514  27.669  28.331  1.00  0.00     0.055 A 
ATOM     86  C   UNL A   1      38.892  26.334  29.496  1.00  0.00     0.041 A 
ATOM     87  F   UNL A   1      38.336  26.848  31.713  1.00  0.00    -0.206 F 
ATOM     88  C   UNL A   1      39.596  26.617  28.330  1.00  0.00     0.022 A 
BRANCH  85  89
ATOM     89  S   UNL A   1      41.327  28.159  26.783  1.00  0.00     0.124 S 
ATOM     90  O   UNL A   1      41.154  26.961  25.968  1.00  0.00    -0.237 OA
ATOM     91  O   UNL A   1      40.544  29.324  26.384  1.00  0.00    -0.237 OA
ATOM     92  O   UNL A   1      42.700  28.444  27.193  1.00  0.00    -0.744 OA
ENDBRANCH  85  89
ENDBRANCH  58  82
BRANCH  70  93
ATOM     93  C   UNL A   1      44.710  28.505  35.820  1.00  0.00     0.023 A 
ATOM     94  C   UNL A   1      44.646  27.288  36.525  1.00  0.00     0.031 A 
ATOM     95  C   UNL A   1      45.973  28.947  35.386  1.00  0.00     0.131 A 
ATOM     96  C   UNL A   1      45.826  26.579  36.809  1.00  0.00     0.055 A 
ATOM     97  C   UNL A   1      47.136  28.211  35.625  1.00  0.00     0.041 A 
ATOM     98  F   UNL A   1      46.098  30.101  34.709  1.00  0.00    -0.206 F 
ATOM     99  C   UNL A   1      47.067  27.025  36.348  1.00  0.00     0.022 A 
BRANCH  96 100
ATOM    100  S   UNL A   1      45.729  25.096  37.851  1.00  0.00     0.124 S 
ATOM    101  O   UNL A   1      46.477  25.505  39.035  1.00  0.00    -0.237 OA
ATOM    102  O   UNL A   1      44.290  24.933  38.029  1.00  0.00    -0.237 OA
ATOM    103  O   UNL A   1      46.372  24.064  37.038  1.00  0.00    -0.744 OA
ENDBRANCH  96 100
ENDBRANCH  70  93
ENDBRANCH  44  45
ENDBRANCH  37  39
ENDBRANCH  36  37
ENDBRANCH  35  36
ENDBRANCH  34  35
ENDBRANCH  33  34
ENDBRANCH  32  33
ENDBRANCH   1  32
TORSDOF 26
ENDMDL
MODEL 3
REMARK VINA RESULT:     -10.5      3.353      6.113
REMARK SMILES C[C@@H](C(=O)OCCOCCOCCOC(=O)c1ccc(-c2c3nc(c(-c4cc(S(=O)(=O)[O-])ccc4F)c4ccc([nH]4)c(-c4cc(S(=O)(=O)[O-])ccc4F)c4nc(c(-c5cc(S(=O)(=O)[O-])ccc5F)c5ccc2[nH]5)C=C4)C=C3)cc1)c1ccc(C[C@H]2CCC[C@H]2O)cc1-c1ccc(O)cc1
REMARK SMILES IDX 9 1 8 2 7 3 6 4 5 5 3 6 4 7 2 8 1 9 80 10 81 11 92 12 82 13
REMARK SMILES IDX 91 14 83 15 93 16 94 17 99 18 95 19 98 20 96 21 97 22 84 24
REMARK SMILES IDX 85 25 86 26 89 27 87 28 88 29 90 30 10 32 11 33 12 34 13 35
REMARK SMILES IDX 14 36 15 37 16 38 17 39 18 40 79 41 19 42 78 43 20 44 21 45
REMARK SMILES IDX 22 46 72 47 23 48 77 49 71 50 73 51 24 52 76 53 70 54 69 55
REMARK SMILES IDX 25 57 57 58 37 59 56 60 38 61 41 62 55 63 74 64 39 65 40 66
REMARK SMILES IDX 54 68 75 69 42 70 26 71 27 72 35 73 28 74 34 75 36 76 33 77
REMARK SMILES IDX 29 78 30 79 31 80 32 81 58 82 59 83 67 84 60 85 66 86 68 87
REMARK SMILES IDX 65 88 61 89 62 90 63 91 64 92 43 93 44 94 52 95 45 96 51 97
REMARK SMILES IDX 53 98 50 99 46 100 47 101 48 102 49 103
REMARK H PARENT 97 23 90 31 73 56 41 67
REMARK Flexibility Score: inf
ROOT
ATOM      1  C   UNL A   1      35.172  31.486  28.951  1.00  0.00     0.188 C 
ENDROOT
BRANCH   1   2
ATOM      2  O   UNL A   1      35.406  30.621  27.841  1.00  0.00    -0.376 OA
BRANCH   2   3
ATOM      3  C   UNL A   1      34.234  29.940  27.350  1.00  0.00     0.202 C 
BRANCH   3   4
ATOM      4  C   UNL A   1      34.438  28.506  26.828  1.00  0.00     0.261 C 
BRANCH   4   5
ATOM      5  O   UNL A   1      33.466  28.153  25.821  1.00  0.00    -0.463 OA
BRANCH   5   6
ATOM      6  C   UNL A   1      33.673  26.984  25.139  1.00  0.00     0.313 C 
ATOM      7  O   UNL A   1      34.178  25.994  25.649  1.00  0.00    -0.252 OA
BRANCH   6   8
ATOM      8  C   UNL A   1      33.319  27.163  23.664  1.00  0.00     0.127 C 
ATOM      9  C   UNL A   1      34.207  28.154  22.887  1.00  0.00     0.025 C 
BRANCH   8  10
ATOM     10  C   UNL A   1      31.864  27.481  23.315  1.00  0.00    -0.026 A 
ATOM     11  C   UNL A   1      31.674  28.672  22.577  1.00  0.00     0.005 A 
ATOM     12  C   UNL A   1      30.720  26.796  23.781  1.00  0.00    -0.014 A 
ATOM     13  C   UNL A   1      30.408  29.206  22.348  1.00  0.00     0.004 A 
ATOM     14  C   UNL A   1      29.464  27.426  23.625  1.00  0.00     0.012 A 
ATOM     15  C   UNL A   1      29.288  28.625  22.926  1.00  0.00    -0.047 A 
BRANCH  12  16
ATOM     16  C   UNL A   1      30.701  25.437  24.354  1.00  0.00    -0.018 A 
ATOM     17  C   UNL A   1      30.362  25.254  25.711  1.00  0.00     0.012 A 
ATOM     18  C   UNL A   1      31.107  24.314  23.636  1.00  0.00     0.012 A 
ATOM     19  C   UNL A   1      30.426  23.997  26.324  1.00  0.00     0.047 A 
ATOM     20  C   UNL A   1      31.126  23.048  24.237  1.00  0.00     0.047 A 
ATOM     21  C   UNL A   1      30.807  22.898  25.578  1.00  0.00     0.115 A 
BRANCH  21  22
ATOM     22  O   UNL A   1      30.870  21.679  26.183  1.00  0.00    -0.508 OA
ATOM     23  H   UNL A   1      31.702  21.287  26.364  1.00  0.00     0.293 HD
ENDBRANCH  21  22
ENDBRANCH  12  16
BRANCH  15  24
ATOM     24  C   UNL A   1      27.915  29.223  22.747  1.00  0.00     0.041 C 
BRANCH  24  25
ATOM     25  C   UNL A   1      27.771  30.752  22.696  1.00  0.00     0.022 C 
ATOM     26  C   UNL A   1      28.654  31.551  23.664  1.00  0.00     0.007 C 
ATOM     27  C   UNL A   1      27.955  31.464  21.348  1.00  0.00     0.117 C 
ATOM     28  C   UNL A   1      28.774  32.952  23.048  1.00  0.00     0.003 C 
ATOM     29  C   UNL A   1      27.941  32.930  21.765  1.00  0.00     0.032 C 
BRANCH  27  30
ATOM     30  O   UNL A   1      29.194  31.211  20.699  1.00  0.00    -0.393 OA
ATOM     31  H   UNL A   1      29.880  31.781  21.079  1.00  0.00     0.210 HD
ENDBRANCH  27  30
ENDBRANCH  24  25
ENDBRANCH  15  24
ENDBRANCH   8  10
ENDBRANCH   6   8
ENDBRANCH   5   6
ENDBRANCH   4   5
ENDBRANCH   3   4
ENDBRANCH   2   3
ENDBRANCH   1   2
BRANCH   1  32
ATOM     32  C   UNL A   1      35.211  32.984  28.636  1.00  0.00     0.188 C 
BRANCH  32  33
ATOM     33  O   UNL A   1      33.976  33.659  28.826  1.00  0.00    -0.376 OA
BRANCH  33  34
ATOM     34  C   UNL A   1      34.117  35.080  28.918  1.00  0.00     0.202 C 
BRANCH  34  35
ATOM     35  C   UNL A   1      32.943  35.771  29.638  1.00  0.00     0.261 C 
BRANCH  35  36
ATOM     36  O   UNL A   1      33.297  36.288  30.947  1.00  0.00    -0.460 OA
BRANCH  36  37
ATOM     37  C   UNL A   1      32.976  35.516  32.021  1.00  0.00     0.338 C 
ATOM     38  O   UNL A   1      31.845  35.321  32.439  1.00  0.00    -0.246 OA
BRANCH  37  39
ATOM     39  C   UNL A   1      34.176  34.817  32.575  1.00  0.00     0.060 A 
ATOM     40  C   UNL A   1      35.420  35.452  32.464  1.00  0.00     0.016 A 
ATOM     41  C   UNL A   1      34.110  33.562  33.197  1.00  0.00     0.016 A 
ATOM     42  C   UNL A   1      36.583  34.841  32.959  1.00  0.00     0.010 A 
ATOM     43  C   UNL A   1      35.279  32.948  33.689  1.00  0.00     0.010 A 
ATOM     44  C   UNL A   1      36.530  33.571  33.555  1.00  0.00    -0.014 A 
BRANCH  44  45
ATOM     45  C   UNL A   1      37.805  32.828  33.807  1.00  0.00     0.031 A 
ATOM     46  C   UNL A   1      38.561  33.132  35.073  1.00  0.00     0.074 A 
ATOM     47  C   UNL A   1      38.285  31.876  32.982  1.00  0.00     0.049 A 
ATOM     48  N   UNL A   1      39.636  32.567  35.559  1.00  0.00    -0.248 NA
ATOM     49  C   UNL A   1      38.036  34.239  35.884  1.00  0.00     0.031 C 
ATOM     50  C   UNL A   1      37.699  31.503  31.703  1.00  0.00     0.029 A 
ATOM     51  N   UNL A   1      39.367  31.033  33.108  1.00  0.00    -0.354 N 
ATOM     52  C   UNL A   1      39.916  33.247  36.739  1.00  0.00     0.074 A 
ATOM     53  C   UNL A   1      38.914  34.285  36.871  1.00  0.00     0.031 C 
ATOM     54  C   UNL A   1      38.373  30.454  31.196  1.00  0.00     0.029 A 
ATOM     55  C   UNL A   1      39.493  30.123  32.078  1.00  0.00     0.049 A 
ATOM     56  H   UNL A   1      39.994  31.075  33.866  1.00  0.00     0.167 HD
ATOM     57  C   UNL A   1      40.915  33.037  37.632  1.00  0.00     0.034 A 
ATOM     58  C   UNL A   1      40.410  29.153  31.862  1.00  0.00     0.034 A 
ATOM     59  C   UNL A   1      41.957  32.053  37.476  1.00  0.00     0.049 A 
ATOM     60  C   UNL A   1      41.555  28.977  32.842  1.00  0.00     0.074 A 
ATOM     61  C   UNL A   1      43.028  31.793  38.313  1.00  0.00     0.029 A 
ATOM     62  N   UNL A   1      42.078  31.185  36.400  1.00  0.00    -0.354 N 
ATOM     63  N   UNL A   1      41.785  29.608  33.970  1.00  0.00    -0.248 NA
ATOM     64  C   UNL A   1      42.574  27.970  32.505  1.00  0.00     0.031 C 
ATOM     65  C   UNL A   1      43.832  30.820  37.711  1.00  0.00     0.029 A 
ATOM     66  C   UNL A   1      43.221  30.412  36.537  1.00  0.00     0.049 A 
ATOM     67  H   UNL A   1      41.444  31.125  35.648  1.00  0.00     0.167 HD
ATOM     68  C   UNL A   1      42.964  29.061  34.480  1.00  0.00     0.074 A 
ATOM     69  C   UNL A   1      43.381  28.032  33.554  1.00  0.00     0.031 C 
ATOM     70  C   UNL A   1      43.642  29.388  35.610  1.00  0.00     0.034 A 
BRANCH  57  71
ATOM     71  C   UNL A   1      40.948  33.955  38.826  1.00  0.00     0.023 A 
ATOM     72  C   UNL A   1      41.717  35.130  38.821  1.00  0.00     0.031 A 
ATOM     73  C   UNL A   1      40.269  33.612  40.008  1.00  0.00     0.131 A 
ATOM     74  C   UNL A   1      41.864  35.872  40.002  1.00  0.00     0.055 A 
ATOM     75  C   UNL A   1      40.349  34.403  41.154  1.00  0.00     0.041 A 
ATOM     76  F   UNL A   1      39.541  32.486  40.076  1.00  0.00    -0.206 F 
ATOM     77  C   UNL A   1      41.166  35.530  41.162  1.00  0.00     0.022 A 
BRANCH  74  78
ATOM     78  S   UNL A   1      43.115  37.184  40.044  1.00  0.00     0.124 S 
ATOM     79  O   UNL A   1      43.229  37.436  41.479  1.00  0.00    -0.237 OA
ATOM     80  O   UNL A   1      44.265  36.544  39.415  1.00  0.00    -0.237 OA
ATOM     81  O   UNL A   1      42.502  38.265  39.275  1.00  0.00    -0.744 OA
ENDBRANCH  74  78
ENDBRANCH  57  71
BRANCH  58  82
ATOM     82  C   UNL A   1      40.352  28.287  30.641  1.00  0.00     0.023 A 
ATOM     83  C   UNL A   1      41.250  28.470  29.574  1.00  0.00     0.031 A 
ATOM     84  C   UNL A   1      39.327  27.338  30.475  1.00  0.00     0.131 A 
ATOM     85  C   UNL A   1      41.072  27.761  28.374  1.00  0.00     0.055 A 
ATOM     86  C   UNL A   1      39.194  26.588  29.304  1.00  0.00     0.041 A 
ATOM     87  F   UNL A   1      38.429  27.132  31.451  1.00  0.00    -0.206 F 
ATOM     88  C   UNL A   1      40.060  26.809  28.238  1.00  0.00     0.022 A 
BRANCH  85  89
ATOM     89  S   UNL A   1      42.113  28.181  26.946  1.00  0.00     0.124 S 
ATOM     90  O   UNL A   1      43.325  27.421  27.230  1.00  0.00    -0.237 OA
ATOM     91  O   UNL A   1      41.303  27.704  25.830  1.00  0.00    -0.237 OA
ATOM     92  O   UNL A   1      42.249  29.634  27.038  1.00  0.00    -0.744 OA
ENDBRANCH  85  89
ENDBRANCH  58  82
BRANCH  70  93
ATOM     93  C   UNL A   1      44.889  28.595  35.936  1.00  0.00     0.023 A 
ATOM     94  C   UNL A   1      46.176  29.045  35.585  1.00  0.00     0.031 A 
ATOM     95  C   UNL A   1      44.786  27.375  36.630  1.00  0.00     0.131 A 
ATOM     96  C   UNL A   1      47.301  28.262  35.892  1.00  0.00     0.055 A 
ATOM     97  C   UNL A   1      45.912  26.627  36.979  1.00  0.00     0.041 A 
ATOM     98  F   UNL A   1      43.585  26.894  36.991  1.00  0.00    -0.206 F 
ATOM     99  C   UNL A   1      47.178  27.064  36.602  1.00  0.00     0.022 A 
BRANCH  96 100
ATOM    100  S   UNL A   1      48.930  28.792  35.292  1.00  0.00     0.124 S 
ATOM    101  O   UNL A   1      49.698  27.552  35.358  1.00  0.00    -0.237 OA
ATOM    102  O   UNL A   1      48.625  29.283  33.952  1.00  0.00    -0.237 OA
ATOM    103  O   UNL A   1      49.331  29.821  36.251  1.00  0.00    -0.744 OA
ENDBRANCH  96 100
ENDBRANCH  70  93
ENDBRANCH  44  45
ENDBRANCH  37  39
ENDBRANCH  36  37
ENDBRANCH  35  36
ENDBRANCH  34  35
ENDBRANCH  33  34
ENDBRANCH  32  33
ENDBRANCH   1  32
TORSDOF 26
ENDMDL
