MODEL 1
REMARK VINA RESULT:     -10.3      0.000      0.000
REMARK SMILES CCC[NH2+][C@]1(C(=O)OCCOCCOCCOC(=O)c2ccc(-c3c4nc(c(-c5cc(S(=O)(=O)[O-])ccc5F)c5ccc([nH]5)c(-c5cc(S(=O)(=O)[O-])ccc5F)c5nc(c(-c6cc(S(=O)(=O)[O-])ccc6F)c6ccc3[nH]6)C=C5)C=C4)cc2)CCC[C@H](Sc2nnc(C)o2)C1
REMARK SMILES IDX 12 1 11 2 10 3 9 4 8 5 6 6 7 7 5 8 83 9 94 10 84 11 86 12
REMARK SMILES IDX 85 13 4 14 3 17 2 18 1 19 87 20 88 21 89 22 93 23 90 24
REMARK SMILES IDX 91 25 92 26 13 27 14 28 15 29 16 30 17 31 18 32 19 33 20 34
REMARK SMILES IDX 21 35 82 36 22 37 81 38 23 39 24 40 25 41 75 42 26 43 80 44
REMARK SMILES IDX 74 45 76 46 27 47 79 48 73 49 72 50 28 52 60 53 40 54 59 55
REMARK SMILES IDX 41 56 44 57 58 58 77 59 42 60 43 61 57 63 78 64 45 65 29 66
REMARK SMILES IDX 30 67 38 68 31 69 37 70 39 71 36 72 32 73 33 74 34 75 35 76
REMARK SMILES IDX 61 77 62 78 70 79 63 80 69 81 71 82 68 83 64 84 65 85 66 86
REMARK SMILES IDX 67 87 46 88 47 89 55 90 48 91 54 92 56 93 53 94 49 95 50 96
REMARK SMILES IDX 51 97 52 98
REMARK H PARENT 4 15 4 16 76 51 44 62
REMARK Flexibility Score: inf
ROOT
ATOM      1  C   UNL A   1      35.147  21.601  25.267  1.00  0.00     0.188 C 
ENDROOT
BRANCH   1   2
ATOM      2  O   UNL A   1      33.879  21.992  24.751  1.00  0.00    -0.376 OA
BRANCH   2   3
ATOM      3  C   UNL A   1      32.723  21.249  25.089  1.00  0.00     0.202 C 
BRANCH   3   4
ATOM      4  C   UNL A   1      31.445  22.023  25.437  1.00  0.00     0.261 C 
BRANCH   4   5
ATOM      5  O   UNL A   1      31.272  23.313  24.822  1.00  0.00    -0.459 OA
BRANCH   5   6
ATOM      6  C   UNL A   1      31.909  24.354  25.443  1.00  0.00     0.368 C 
ATOM      7  O   UNL A   1      32.380  24.271  26.572  1.00  0.00    -0.245 OA
BRANCH   6   8
ATOM      8  C   UNL A   1      31.896  25.676  24.593  1.00  0.00     0.195 C 
ATOM      9  C   UNL A   1      32.927  25.476  23.456  1.00  0.00     0.081 C 
ATOM     10  C   UNL A   1      30.502  25.959  23.934  1.00  0.00     0.096 C 
ATOM     11  C   UNL A   1      32.929  26.564  22.391  1.00  0.00     0.008 C 
ATOM     12  C   UNL A   1      30.470  27.056  22.827  1.00  0.00     0.063 C 
ATOM     13  C   UNL A   1      31.546  26.750  21.785  1.00  0.00     0.015 C 
BRANCH   8  14
ATOM     14  N   UNL A   1      32.191  26.848  25.457  1.00  0.00    -0.332 N 
ATOM     15  H   UNL A   1      31.912  27.684  24.942  1.00  0.00     0.347 HD
ATOM     16  H   UNL A   1      31.674  26.668  26.318  1.00  0.00     0.347 HD
BRANCH  14  17
ATOM     17  C   UNL A   1      33.566  27.045  25.889  1.00  0.00     0.261 C 
BRANCH  17  18
ATOM     18  C   UNL A   1      33.884  28.548  25.935  1.00  0.00     0.058 C 
ATOM     19  C   UNL A   1      34.543  29.009  27.233  1.00  0.00     0.010 C 
ENDBRANCH  17  18
ENDBRANCH  14  17
ENDBRANCH   8  14
BRANCH  12  20
ATOM     20  S   UNL A   1      30.541  28.710  23.619  1.00  0.00    -0.062 SA
BRANCH  20  21
ATOM     21  C   UNL A   1      29.239  29.630  22.954  1.00  0.00     0.276 A 
ATOM     22  N   UNL A   1      28.020  29.751  23.434  1.00  0.00    -0.101 NA
ATOM     23  O   UNL A   1      29.422  30.379  21.817  1.00  0.00    -0.416 OA
ATOM     24  N   UNL A   1      27.334  30.596  22.576  1.00  0.00    -0.112 NA
ATOM     25  C   UNL A   1      28.193  30.947  21.646  1.00  0.00     0.214 A 
ATOM     26  C   UNL A   1      28.025  31.845  20.491  1.00  0.00     0.113 C 
ENDBRANCH  20  21
ENDBRANCH  12  20
ENDBRANCH   6   8
ENDBRANCH   5   6
ENDBRANCH   4   5
ENDBRANCH   3   4
ENDBRANCH   2   3
ENDBRANCH   1   2
BRANCH   1  27
ATOM     27  C   UNL A   1      36.408  21.719  24.388  1.00  0.00     0.188 C 
BRANCH  27  28
ATOM     28  O   UNL A   1      37.572  21.215  25.012  1.00  0.00    -0.376 OA
BRANCH  28  29
ATOM     29  C   UNL A   1      37.754  19.817  24.961  1.00  0.00     0.202 C 
BRANCH  29  30
ATOM     30  C   UNL A   1      39.156  19.339  25.357  1.00  0.00     0.261 C 
BRANCH  30  31
ATOM     31  O   UNL A   1      39.644  19.789  26.637  1.00  0.00    -0.460 OA
BRANCH  31  32
ATOM     32  C   UNL A   1      40.954  20.119  26.721  1.00  0.00     0.338 C 
ATOM     33  O   UNL A   1      41.896  19.416  26.390  1.00  0.00    -0.246 OA
BRANCH  32  34
ATOM     34  C   UNL A   1      41.055  21.555  27.082  1.00  0.00     0.060 A 
ATOM     35  C   UNL A   1      40.411  22.510  26.283  1.00  0.00     0.016 A 
ATOM     36  C   UNL A   1      41.782  21.964  28.203  1.00  0.00     0.016 A 
ATOM     37  C   UNL A   1      40.516  23.875  26.584  1.00  0.00     0.010 A 
ATOM     38  C   UNL A   1      41.905  23.331  28.491  1.00  0.00     0.010 A 
ATOM     39  C   UNL A   1      41.297  24.299  27.669  1.00  0.00    -0.014 A 
BRANCH  39  40
ATOM     40  C   UNL A   1      41.647  25.738  27.835  1.00  0.00     0.031 A 
ATOM     41  C   UNL A   1      42.984  26.212  27.321  1.00  0.00     0.074 A 
ATOM     42  C   UNL A   1      40.814  26.618  28.422  1.00  0.00     0.049 A 
ATOM     43  N   UNL A   1      43.563  27.378  27.444  1.00  0.00    -0.248 NA
ATOM     44  C   UNL A   1      43.773  25.222  26.573  1.00  0.00     0.031 C 
ATOM     45  C   UNL A   1      39.469  26.315  28.906  1.00  0.00     0.029 A 
ATOM     46  N   UNL A   1      40.985  27.951  28.721  1.00  0.00    -0.354 N 
ATOM     47  C   UNL A   1      44.791  27.262  26.798  1.00  0.00     0.074 A 
ATOM     48  C   UNL A   1      44.882  25.900  26.318  1.00  0.00     0.031 C 
ATOM     49  C   UNL A   1      38.943  27.426  29.454  1.00  0.00     0.029 A 
ATOM     50  C   UNL A   1      39.928  28.507  29.405  1.00  0.00     0.049 A 
ATOM     51  H   UNL A   1      41.789  28.460  28.467  1.00  0.00     0.167 HD
ATOM     52  C   UNL A   1      45.751  28.204  26.619  1.00  0.00     0.034 A 
ATOM     53  C   UNL A   1      39.786  29.731  29.961  1.00  0.00     0.034 A 
ATOM     54  C   UNL A   1      45.657  29.555  27.114  1.00  0.00     0.049 A 
ATOM     55  C   UNL A   1      40.917  30.731  29.847  1.00  0.00     0.074 A 
ATOM     56  C   UNL A   1      46.571  30.586  26.981  1.00  0.00     0.029 A 
ATOM     57  N   UNL A   1      44.594  30.063  27.850  1.00  0.00    -0.354 N 
ATOM     58  N   UNL A   1      42.077  30.608  29.242  1.00  0.00    -0.248 NA
ATOM     59  C   UNL A   1      40.716  32.038  30.488  1.00  0.00     0.031 C 
ATOM     60  C   UNL A   1      46.102  31.687  27.705  1.00  0.00     0.029 A 
ATOM     61  C   UNL A   1      44.849  31.379  28.210  1.00  0.00     0.049 A 
ATOM     62  H   UNL A   1      43.778  29.564  28.082  1.00  0.00     0.167 HD
ATOM     63  C   UNL A   1      42.722  31.834  29.399  1.00  0.00     0.074 A 
ATOM     64  C   UNL A   1      41.821  32.685  30.145  1.00  0.00     0.031 C 
ATOM     65  C   UNL A   1      43.948  32.223  28.961  1.00  0.00     0.034 A 
BRANCH  52  66
ATOM     66  C   UNL A   1      47.015  27.776  25.909  1.00  0.00     0.023 A 
ATOM     67  C   UNL A   1      47.222  28.030  24.541  1.00  0.00     0.031 A 
ATOM     68  C   UNL A   1      48.015  27.076  26.606  1.00  0.00     0.131 A 
ATOM     69  C   UNL A   1      48.361  27.522  23.900  1.00  0.00     0.055 A 
ATOM     70  C   UNL A   1      49.188  26.649  25.981  1.00  0.00     0.041 A 
ATOM     71  F   UNL A   1      47.865  26.782  27.907  1.00  0.00    -0.206 F 
ATOM     72  C   UNL A   1      49.360  26.858  24.616  1.00  0.00     0.022 A 
BRANCH  69  73
ATOM     73  S   UNL A   1      48.446  27.602  22.089  1.00  0.00     0.124 S 
ATOM     74  O   UNL A   1      47.167  28.227  21.761  1.00  0.00    -0.237 OA
ATOM     75  O   UNL A   1      49.632  28.418  21.865  1.00  0.00    -0.237 OA
ATOM     76  O   UNL A   1      48.565  26.201  21.690  1.00  0.00    -0.744 OA
ENDBRANCH  69  73
ENDBRANCH  52  66
BRANCH  53  77
ATOM     77  C   UNL A   1      38.555  30.081  30.732  1.00  0.00     0.023 A 
ATOM     78  C   UNL A   1      37.559  30.906  30.184  1.00  0.00     0.031 A 
ATOM     79  C   UNL A   1      38.394  29.658  32.064  1.00  0.00     0.131 A 
ATOM     80  C   UNL A   1      36.477  31.323  30.977  1.00  0.00     0.055 A 
ATOM     81  C   UNL A   1      37.283  30.023  32.829  1.00  0.00     0.041 A 
ATOM     82  F   UNL A   1      39.320  28.880  32.647  1.00  0.00    -0.206 F 
ATOM     83  C   UNL A   1      36.324  30.873  32.289  1.00  0.00     0.022 A 
BRANCH  80  84
ATOM     84  S   UNL A   1      35.322  32.550  30.302  1.00  0.00     0.124 S 
ATOM     85  O   UNL A   1      34.368  32.692  31.396  1.00  0.00    -0.237 OA
ATOM     86  O   UNL A   1      36.198  33.692  30.061  1.00  0.00    -0.237 OA
ATOM     87  O   UNL A   1      34.801  31.904  29.099  1.00  0.00    -0.744 OA
ENDBRANCH  80  84
ENDBRANCH  53  77
BRANCH  65  88
ATOM     88  C   UNL A   1      44.362  33.656  29.221  1.00  0.00     0.023 A 
ATOM     89  C   UNL A   1      43.901  34.723  28.430  1.00  0.00     0.031 A 
ATOM     90  C   UNL A   1      45.234  33.954  30.284  1.00  0.00     0.131 A 
ATOM     91  C   UNL A   1      44.360  36.028  28.677  1.00  0.00     0.055 A 
ATOM     92  C   UNL A   1      45.634  35.262  30.566  1.00  0.00     0.041 A 
ATOM     93  F   UNL A   1      45.711  32.978  31.072  1.00  0.00    -0.206 F 
ATOM     94  C   UNL A   1      45.207  36.306  29.752  1.00  0.00     0.022 A 
BRANCH  91  95
ATOM     95  S   UNL A   1      43.915  37.346  27.512  1.00  0.00     0.124 S 
ATOM     96  O   UNL A   1      45.224  37.817  27.072  1.00  0.00    -0.237 OA
ATOM     97  O   UNL A   1      43.127  36.629  26.515  1.00  0.00    -0.237 OA
ATOM     98  O   UNL A   1      43.160  38.290  28.334  1.00  0.00    -0.744 OA
ENDBRANCH  91  95
ENDBRANCH  65  88
ENDBRANCH  39  40
ENDBRANCH  32  34
ENDBRANCH  31  32
ENDBRANCH  30  31
ENDBRANCH  29  30
ENDBRANCH  28  29
ENDBRANCH  27  28
ENDBRANCH   1  27
TORSDOF 25
ENDMDL
MODEL 2
REMARK VINA RESULT:      -8.5      5.793     10.966
REMARK SMILES CCC[NH2+][C@]1(C(=O)OCCOCCOCCOC(=O)c2ccc(-c3c4nc(c(-c5cc(S(=O)(=O)[O-])ccc5F)c5ccc([nH]5)c(-c5cc(S(=O)(=O)[O-])ccc5F)c5nc(c(-c6cc(S(=O)(=O)[O-])ccc6F)c6ccc3[nH]6)C=C5)C=C4)cc2)CCC[C@H](Sc2nnc(C)o2)C1
REMARK SMILES IDX 12 1 11 2 10 3 9 4 8 5 6 6 7 7 5 8 83 9 94 10 84 11 86 12
REMARK SMILES IDX 85 13 4 14 3 17 2 18 1 19 87 20 88 21 89 22 93 23 90 24
REMARK SMILES IDX 91 25 92 26 13 27 14 28 15 29 16 30 17 31 18 32 19 33 20 34
REMARK SMILES IDX 21 35 82 36 22 37 81 38 23 39 24 40 25 41 75 42 26 43 80 44
REMARK SMILES IDX 74 45 76 46 27 47 79 48 73 49 72 50 28 52 60 53 40 54 59 55
REMARK SMILES IDX 41 56 44 57 58 58 77 59 42 60 43 61 57 63 78 64 45 65 29 66
REMARK SMILES IDX 30 67 38 68 31 69 37 70 39 71 36 72 32 73 33 74 34 75 35 76
REMARK SMILES IDX 61 77 62 78 70 79 63 80 69 81 71 82 68 83 64 84 65 85 66 86
REMARK SMILES IDX 67 87 46 88 47 89 55 90 48 91 54 92 56 93 53 94 49 95 50 96
REMARK SMILES IDX 51 97 52 98
REMARK H PARENT 4 15 4 16 76 51 44 62
REMARK Flexibility Score: inf
ROOT
ATOM      1  C   UNL A   1      36.323  31.081  28.360  1.00  0.00     0.188 C 
ENDROOT
BRANCH   1   2
ATOM      2  O   UNL A   1      36.845  29.970  29.083  1.00  0.00    -0.376 OA
BRANCH   2   3
ATOM      3  C   UNL A   1      37.536  28.945  28.395  1.00  0.00     0.202 C 
BRANCH   3   4
ATOM      4  C   UNL A   1      38.813  29.322  27.634  1.00  0.00     0.261 C 
BRANCH   4   5
ATOM      5  O   UNL A   1      39.990  28.535  27.898  1.00  0.00    -0.459 OA
BRANCH   5   6
ATOM      6  C   UNL A   1      40.857  28.399  26.848  1.00  0.00     0.368 C 
ATOM      7  O   UNL A   1      40.751  29.037  25.807  1.00  0.00    -0.245 OA
BRANCH   6   8
ATOM      8  C   UNL A   1      41.942  27.287  27.090  1.00  0.00     0.195 C 
ATOM      9  C   UNL A   1      42.276  27.321  28.601  1.00  0.00     0.081 C 
ATOM     10  C   UNL A   1      41.424  25.850  26.743  1.00  0.00     0.096 C 
ATOM     11  C   UNL A   1      43.163  26.183  29.089  1.00  0.00     0.008 C 
ATOM     12  C   UNL A   1      42.298  24.659  27.243  1.00  0.00     0.063 C 
ATOM     13  C   UNL A   1      42.569  24.827  28.738  1.00  0.00     0.015 C 
BRANCH   8  14
ATOM     14  N   UNL A   1      43.124  27.521  26.219  1.00  0.00    -0.332 N 
ATOM     15  H   UNL A   1      43.577  26.619  26.073  1.00  0.00     0.347 HD
ATOM     16  H   UNL A   1      42.742  27.964  25.383  1.00  0.00     0.347 HD
BRANCH  14  17
ATOM     17  C   UNL A   1      44.143  28.446  26.691  1.00  0.00     0.261 C 
BRANCH  17  18
ATOM     18  C   UNL A   1      45.538  27.850  26.443  1.00  0.00     0.058 C 
ATOM     19  C   UNL A   1      46.321  28.535  25.325  1.00  0.00     0.010 C 
ENDBRANCH  17  18
ENDBRANCH  14  17
ENDBRANCH   8  14
BRANCH  12  20
ATOM     20  S   UNL A   1      43.767  24.497  26.156  1.00  0.00    -0.062 SA
BRANCH  20  21
ATOM     21  C   UNL A   1      43.862  22.833  25.702  1.00  0.00     0.276 A 
ATOM     22  N   UNL A   1      42.879  22.060  25.289  1.00  0.00    -0.101 NA
ATOM     23  O   UNL A   1      45.066  22.174  25.709  1.00  0.00    -0.416 OA
ATOM     24  N   UNL A   1      43.430  20.816  25.028  1.00  0.00    -0.112 NA
ATOM     25  C   UNL A   1      44.715  20.927  25.280  1.00  0.00     0.214 A 
ATOM     26  C   UNL A   1      45.794  19.932  25.160  1.00  0.00     0.113 C 
ENDBRANCH  20  21
ENDBRANCH  12  20
ENDBRANCH   6   8
ENDBRANCH   5   6
ENDBRANCH   4   5
ENDBRANCH   3   4
ENDBRANCH   2   3
ENDBRANCH   1   2
BRANCH   1  27
ATOM     27  C   UNL A   1      34.903  31.598  28.661  1.00  0.00     0.188 C 
BRANCH  27  28
ATOM     28  O   UNL A   1      34.888  32.900  29.211  1.00  0.00    -0.376 OA
BRANCH  28  29
ATOM     29  C   UNL A   1      35.778  33.138  30.280  1.00  0.00     0.202 C 
BRANCH  29  30
ATOM     30  C   UNL A   1      35.284  32.645  31.646  1.00  0.00     0.261 C 
BRANCH  30  31
ATOM     31  O   UNL A   1      36.024  31.557  32.235  1.00  0.00    -0.460 OA
BRANCH  31  32
ATOM     32  C   UNL A   1      36.918  31.867  33.202  1.00  0.00     0.338 C 
ATOM     33  O   UNL A   1      36.654  32.172  34.355  1.00  0.00    -0.246 OA
BRANCH  32  34
ATOM     34  C   UNL A   1      38.282  31.573  32.695  1.00  0.00     0.060 A 
ATOM     35  C   UNL A   1      38.440  30.653  31.648  1.00  0.00     0.016 A 
ATOM     36  C   UNL A   1      39.403  32.198  33.245  1.00  0.00     0.016 A 
ATOM     37  C   UNL A   1      39.718  30.335  31.171  1.00  0.00     0.010 A 
ATOM     38  C   UNL A   1      40.683  31.863  32.782  1.00  0.00     0.010 A 
ATOM     39  C   UNL A   1      40.854  30.908  31.761  1.00  0.00    -0.014 A 
BRANCH  39  40
ATOM     40  C   UNL A   1      42.214  30.377  31.463  1.00  0.00     0.031 A 
ATOM     41  C   UNL A   1      43.063  31.113  30.456  1.00  0.00     0.074 A 
ATOM     42  C   UNL A   1      42.702  29.273  32.060  1.00  0.00     0.049 A 
ATOM     43  N   UNL A   1      44.225  30.792  29.947  1.00  0.00    -0.248 NA
ATOM     44  C   UNL A   1      42.514  32.381  29.955  1.00  0.00     0.031 C 
ATOM     45  C   UNL A   1      42.020  28.500  33.096  1.00  0.00     0.029 A 
ATOM     46  N   UNL A   1      43.889  28.603  31.869  1.00  0.00    -0.354 N 
ATOM     47  C   UNL A   1      44.543  31.814  29.056  1.00  0.00     0.074 A 
ATOM     48  C   UNL A   1      43.432  32.742  29.072  1.00  0.00     0.031 C 
ATOM     49  C   UNL A   1      42.793  27.454  33.438  1.00  0.00     0.029 A 
ATOM     50  C   UNL A   1      44.003  27.451  32.615  1.00  0.00     0.049 A 
ATOM     51  H   UNL A   1      44.592  28.919  31.257  1.00  0.00     0.167 HD
ATOM     52  C   UNL A   1      45.657  31.966  28.297  1.00  0.00     0.034 A 
ATOM     53  C   UNL A   1      44.951  26.489  32.608  1.00  0.00     0.034 A 
ATOM     54  C   UNL A   1      46.753  31.027  28.277  1.00  0.00     0.049 A 
ATOM     55  C   UNL A   1      46.134  26.621  31.671  1.00  0.00     0.074 A 
ATOM     56  C   UNL A   1      47.928  31.091  27.549  1.00  0.00     0.029 A 
ATOM     57  N   UNL A   1      46.804  29.846  29.005  1.00  0.00    -0.354 N 
ATOM     58  N   UNL A   1      46.419  27.586  30.825  1.00  0.00    -0.248 NA
ATOM     59  C   UNL A   1      47.123  25.534  31.690  1.00  0.00     0.031 C 
ATOM     60  C   UNL A   1      48.649  29.914  27.770  1.00  0.00     0.029 A 
ATOM     61  C   UNL A   1      47.972  29.156  28.713  1.00  0.00     0.049 A 
ATOM     62  H   UNL A   1      46.115  29.542  29.638  1.00  0.00     0.167 HD
ATOM     63  C   UNL A   1      47.639  27.237  30.246  1.00  0.00     0.074 A 
ATOM     64  C   UNL A   1      48.038  25.982  30.843  1.00  0.00     0.031 C 
ATOM     65  C   UNL A   1      48.365  27.899  29.308  1.00  0.00     0.034 A 
BRANCH  52  66
ATOM     66  C   UNL A   1      45.710  33.164  27.378  1.00  0.00     0.023 A 
ATOM     67  C   UNL A   1      46.423  34.328  27.715  1.00  0.00     0.031 A 
ATOM     68  C   UNL A   1      45.010  33.152  26.159  1.00  0.00     0.131 A 
ATOM     69  C   UNL A   1      46.357  35.455  26.881  1.00  0.00     0.055 A 
ATOM     70  C   UNL A   1      45.020  34.246  25.291  1.00  0.00     0.041 A 
ATOM     71  F   UNL A   1      44.290  32.080  25.793  1.00  0.00    -0.206 F 
ATOM     72  C   UNL A   1      45.684  35.413  25.658  1.00  0.00     0.022 A 
BRANCH  69  73
ATOM     73  S   UNL A   1      47.031  37.026  27.490  1.00  0.00     0.124 S 
ATOM     74  O   UNL A   1      47.994  36.566  28.488  1.00  0.00    -0.237 OA
ATOM     75  O   UNL A   1      47.593  37.617  26.283  1.00  0.00    -0.237 OA
ATOM     76  O   UNL A   1      45.860  37.710  28.037  1.00  0.00    -0.744 OA
ENDBRANCH  69  73
ENDBRANCH  52  66
BRANCH  53  77
ATOM     77  C   UNL A   1      44.814  25.275  33.469  1.00  0.00     0.023 A 
ATOM     78  C   UNL A   1      45.263  25.268  34.800  1.00  0.00     0.031 A 
ATOM     79  C   UNL A   1      44.302  24.074  32.945  1.00  0.00     0.131 A 
ATOM     80  C   UNL A   1      45.238  24.076  35.544  1.00  0.00     0.055 A 
ATOM     81  C   UNL A   1      44.221  22.907  33.709  1.00  0.00     0.041 A 
ATOM     82  F   UNL A   1      43.872  24.015  31.674  1.00  0.00    -0.206 F 
ATOM     83  C   UNL A   1      44.705  22.901  35.013  1.00  0.00     0.022 A 
BRANCH  80  84
ATOM     84  S   UNL A   1      46.013  24.056  37.185  1.00  0.00     0.124 S 
ATOM     85  O   UNL A   1      46.884  25.224  37.116  1.00  0.00    -0.237 OA
ATOM     86  O   UNL A   1      44.857  24.169  38.069  1.00  0.00    -0.237 OA
ATOM     87  O   UNL A   1      46.699  22.766  37.223  1.00  0.00    -0.744 OA
ENDBRANCH  80  84
ENDBRANCH  53  77
BRANCH  65  88
ATOM     88  C   UNL A   1      49.702  27.309  28.914  1.00  0.00     0.023 A 
ATOM     89  C   UNL A   1      50.875  27.556  29.650  1.00  0.00     0.031 A 
ATOM     90  C   UNL A   1      49.801  26.483  27.780  1.00  0.00     0.131 A 
ATOM     91  C   UNL A   1      52.102  27.033  29.211  1.00  0.00     0.055 A 
ATOM     92  C   UNL A   1      51.011  25.910  27.386  1.00  0.00     0.041 A 
ATOM     93  F   UNL A   1      48.717  26.213  27.034  1.00  0.00    -0.206 F 
ATOM     94  C   UNL A   1      52.174  26.195  28.095  1.00  0.00     0.022 A 
BRANCH  91  95
ATOM     95  S   UNL A   1      53.623  27.542  30.058  1.00  0.00     0.124 S 
ATOM     96  O   UNL A   1      53.314  27.235  31.450  1.00  0.00    -0.237 OA
ATOM     97  O   UNL A   1      54.631  26.694  29.428  1.00  0.00    -0.237 OA
ATOM     98  O   UNL A   1      53.731  28.966  29.745  1.00  0.00    -0.744 OA
ENDBRANCH  91  95
ENDBRANCH  65  88
ENDBRANCH  39  40
ENDBRANCH  32  34
ENDBRANCH  31  32
ENDBRANCH  30  31
ENDBRANCH  29  30
ENDBRANCH  28  29
ENDBRANCH  27  28
ENDBRANCH   1  27
TORSDOF 25
ENDMDL
MODEL 3
REMARK VINA RESULT:      -8.1      6.692     11.618
REMARK SMILES CCC[NH2+][C@]1(C(=O)OCCOCCOCCOC(=O)c2ccc(-c3c4nc(c(-c5cc(S(=O)(=O)[O-])ccc5F)c5ccc([nH]5)c(-c5cc(S(=O)(=O)[O-])ccc5F)c5nc(c(-c6cc(S(=O)(=O)[O-])ccc6F)c6ccc3[nH]6)C=C5)C=C4)cc2)CCC[C@H](Sc2nnc(C)o2)C1
REMARK SMILES IDX 12 1 11 2 10 3 9 4 8 5 6 6 7 7 5 8 83 9 94 10 84 11 86 12
REMARK SMILES IDX 85 13 4 14 3 17 2 18 1 19 87 20 88 21 89 22 93 23 90 24
REMARK SMILES IDX 91 25 92 26 13 27 14 28 15 29 16 30 17 31 18 32 19 33 20 34
REMARK SMILES IDX 21 35 82 36 22 37 81 38 23 39 24 40 25 41 75 42 26 43 80 44
REMARK SMILES IDX 74 45 76 46 27 47 79 48 73 49 72 50 28 52 60 53 40 54 59 55
REMARK SMILES IDX 41 56 44 57 58 58 77 59 42 60 43 61 57 63 78 64 45 65 29 66
REMARK SMILES IDX 30 67 38 68 31 69 37 70 39 71 36 72 32 73 33 74 34 75 35 76
REMARK SMILES IDX 61 77 62 78 70 79 63 80 69 81 71 82 68 83 64 84 65 85 66 86
REMARK SMILES IDX 67 87 46 88 47 89 55 90 48 91 54 92 56 93 53 94 49 95 50 96
REMARK SMILES IDX 51 97 52 98
REMARK H PARENT 4 15 4 16 76 51 44 62
REMARK Flexibility Score: inf
ROOT
ATOM      1  C   UNL A   1      41.443  30.246  31.771  1.00  0.00     0.188 C 
ENDROOT
BRANCH   1   2
ATOM      2  O   UNL A   1      41.704  28.921  32.222  1.00  0.00    -0.376 OA
BRANCH   2   3
ATOM      3  C   UNL A   1      42.911  28.279  31.858  1.00  0.00     0.202 C 
BRANCH   3   4
ATOM      4  C   UNL A   1      43.219  28.119  30.364  1.00  0.00     0.261 C 
BRANCH   4   5
ATOM      5  O   UNL A   1      43.253  26.777  29.841  1.00  0.00    -0.459 OA
BRANCH   5   6
ATOM      6  C   UNL A   1      42.398  26.526  28.802  1.00  0.00     0.368 C 
ATOM      7  O   UNL A   1      41.519  27.308  28.457  1.00  0.00    -0.245 OA
BRANCH   6   8
ATOM      8  C   UNL A   1      42.611  25.106  28.162  1.00  0.00     0.195 C 
ATOM      9  C   UNL A   1      43.639  24.372  29.057  1.00  0.00     0.081 C 
ATOM     10  C   UNL A   1      41.299  24.250  28.135  1.00  0.00     0.096 C 
ATOM     11  C   UNL A   1      43.839  22.898  28.730  1.00  0.00     0.008 C 
ATOM     12  C   UNL A   1      41.467  22.733  27.821  1.00  0.00     0.063 C 
ATOM     13  C   UNL A   1      42.521  22.140  28.757  1.00  0.00     0.015 C 
BRANCH   8  14
ATOM     14  N   UNL A   1      43.048  25.238  26.748  1.00  0.00    -0.332 N 
ATOM     15  H   UNL A   1      43.035  24.304  26.338  1.00  0.00     0.347 HD
ATOM     16  H   UNL A   1      42.396  25.908  26.340  1.00  0.00     0.347 HD
BRANCH  14  17
ATOM     17  C   UNL A   1      44.364  25.804  26.493  1.00  0.00     0.261 C 
BRANCH  17  18
ATOM     18  C   UNL A   1      45.029  25.061  25.324  1.00  0.00     0.058 C 
ATOM     19  C   UNL A   1      46.526  25.327  25.184  1.00  0.00     0.010 C 
ENDBRANCH  17  18
ENDBRANCH  14  17
ENDBRANCH   8  14
BRANCH  12  20
ATOM     20  S   UNL A   1      41.758  22.523  26.021  1.00  0.00    -0.062 SA
BRANCH  20  21
ATOM     21  C   UNL A   1      42.384  20.927  25.807  1.00  0.00     0.276 A 
ATOM     22  N   UNL A   1      41.709  19.797  25.816  1.00  0.00    -0.101 NA
ATOM     23  O   UNL A   1      43.720  20.727  25.560  1.00  0.00    -0.416 OA
ATOM     24  N   UNL A   1      42.625  18.782  25.591  1.00  0.00    -0.112 NA
ATOM     25  C   UNL A   1      43.791  19.370  25.438  1.00  0.00     0.214 A 
ATOM     26  C   UNL A   1      45.115  18.791  25.156  1.00  0.00     0.113 C 
ENDBRANCH  20  21
ENDBRANCH  12  20
ENDBRANCH   6   8
ENDBRANCH   5   6
ENDBRANCH   4   5
ENDBRANCH   3   4
ENDBRANCH   2   3
ENDBRANCH   1   2
BRANCH   1  27
ATOM     27  C   UNL A   1      40.034  30.630  31.278  1.00  0.00     0.188 C 
BRANCH  27  28
ATOM     28  O   UNL A   1      38.998  30.065  32.057  1.00  0.00    -0.376 OA
BRANCH  28  29
ATOM     29  C   UNL A   1      37.687  30.494  31.760  1.00  0.00     0.202 C 
BRANCH  29  30
ATOM     30  C   UNL A   1      37.184  31.660  32.620  1.00  0.00     0.261 C 
BRANCH  30  31
ATOM     31  O   UNL A   1      37.800  32.940  32.380  1.00  0.00    -0.460 OA
BRANCH  31  32
ATOM     32  C   UNL A   1      37.534  33.546  31.200  1.00  0.00     0.338 C 
ATOM     33  O   UNL A   1      36.425  33.764  30.737  1.00  0.00    -0.246 OA
BRANCH  32  34
ATOM     34  C   UNL A   1      38.802  34.091  30.653  1.00  0.00     0.060 A 
ATOM     35  C   UNL A   1      38.853  34.494  29.311  1.00  0.00     0.016 A 
ATOM     36  C   UNL A   1      39.939  34.205  31.457  1.00  0.00     0.016 A 
ATOM     37  C   UNL A   1      40.046  34.983  28.763  1.00  0.00     0.010 A 
ATOM     38  C   UNL A   1      41.138  34.675  30.901  1.00  0.00     0.010 A 
ATOM     39  C   UNL A   1      41.209  35.040  29.543  1.00  0.00    -0.014 A 
BRANCH  39  40
ATOM     40  C   UNL A   1      42.536  35.287  28.910  1.00  0.00     0.031 A 
ATOM     41  C   UNL A   1      43.482  34.122  28.758  1.00  0.00     0.074 A 
ATOM     42  C   UNL A   1      42.909  36.505  28.474  1.00  0.00     0.049 A 
ATOM     43  N   UNL A   1      44.723  34.100  28.346  1.00  0.00    -0.248 NA
ATOM     44  C   UNL A   1      42.946  32.805  29.131  1.00  0.00     0.031 C 
ATOM     45  C   UNL A   1      42.076  37.705  28.499  1.00  0.00     0.029 A 
ATOM     46  N   UNL A   1      44.100  36.936  27.933  1.00  0.00    -0.354 N 
ATOM     47  C   UNL A   1      45.124  32.768  28.420  1.00  0.00     0.074 A 
ATOM     48  C   UNL A   1      44.001  32.024  28.950  1.00  0.00     0.031 C 
ATOM     49  C   UNL A   1      42.785  38.738  28.009  1.00  0.00     0.029 A 
ATOM     50  C   UNL A   1      44.138  38.289  27.680  1.00  0.00     0.049 A 
ATOM     51  H   UNL A   1      44.854  36.331  27.742  1.00  0.00     0.167 HD
ATOM     52  C   UNL A   1      46.314  32.217  28.076  1.00  0.00     0.034 A 
ATOM     53  C   UNL A   1      45.154  39.078  27.268  1.00  0.00     0.034 A 
ATOM     54  C   UNL A   1      47.433  32.969  27.562  1.00  0.00     0.049 A 
ATOM     55  C   UNL A   1      46.510  38.459  26.997  1.00  0.00     0.074 A 
ATOM     56  C   UNL A   1      48.679  32.505  27.178  1.00  0.00     0.029 A 
ATOM     57  N   UNL A   1      47.449  34.345  27.373  1.00  0.00    -0.354 N 
ATOM     58  N   UNL A   1      46.880  37.201  27.080  1.00  0.00    -0.248 NA
ATOM     59  C   UNL A   1      47.584  39.368  26.573  1.00  0.00     0.031 C 
ATOM     60  C   UNL A   1      49.474  33.604  26.839  1.00  0.00     0.029 A 
ATOM     61  C   UNL A   1      48.696  34.748  26.916  1.00  0.00     0.049 A 
ATOM     62  H   UNL A   1      46.688  34.946  27.537  1.00  0.00     0.167 HD
ATOM     63  C   UNL A   1      48.215  37.168  26.680  1.00  0.00     0.074 A 
ATOM     64  C   UNL A   1      48.582  38.528  26.348  1.00  0.00     0.031 C 
ATOM     65  C   UNL A   1      49.061  36.108  26.590  1.00  0.00     0.034 A 
BRANCH  52  66
ATOM     66  C   UNL A   1      46.482  30.733  28.309  1.00  0.00     0.023 A 
ATOM     67  C   UNL A   1      46.833  30.213  29.567  1.00  0.00     0.031 A 
ATOM     68  C   UNL A   1      46.319  29.827  27.246  1.00  0.00     0.131 A 
ATOM     69  C   UNL A   1      47.083  28.839  29.712  1.00  0.00     0.055 A 
ATOM     70  C   UNL A   1      46.483  28.452  27.417  1.00  0.00     0.041 A 
ATOM     71  F   UNL A   1      46.009  30.265  26.015  1.00  0.00    -0.206 F 
ATOM     72  C   UNL A   1      46.883  27.952  28.653  1.00  0.00     0.022 A 
BRANCH  69  73
ATOM     73  S   UNL A   1      47.825  28.251  31.260  1.00  0.00     0.124 S 
ATOM     74  O   UNL A   1      49.137  28.892  31.220  1.00  0.00    -0.237 OA
ATOM     75  O   UNL A   1      46.897  28.754  32.265  1.00  0.00    -0.237 OA
ATOM     76  O   UNL A   1      47.846  26.799  31.099  1.00  0.00    -0.744 OA
ENDBRANCH  69  73
ENDBRANCH  52  66
BRANCH  53  77
ATOM     77  C   UNL A   1      44.969  40.555  27.137  1.00  0.00     0.023 A 
ATOM     78  C   UNL A   1      44.761  41.157  25.885  1.00  0.00     0.031 A 
ATOM     79  C   UNL A   1      45.077  41.398  28.258  1.00  0.00     0.131 A 
ATOM     80  C   UNL A   1      44.718  42.558  25.777  1.00  0.00     0.055 A 
ATOM     81  C   UNL A   1      44.971  42.787  28.155  1.00  0.00     0.041 A 
ATOM     82  F   UNL A   1      45.292  40.881  29.479  1.00  0.00    -0.206 F 
ATOM     83  C   UNL A   1      44.805  43.375  26.905  1.00  0.00     0.022 A 
BRANCH  80  84
ATOM     84  S   UNL A   1      44.655  43.304  24.123  1.00  0.00     0.124 S 
ATOM     85  O   UNL A   1      45.790  44.218  24.167  1.00  0.00    -0.237 OA
ATOM     86  O   UNL A   1      44.802  42.138  23.258  1.00  0.00    -0.237 OA
ATOM     87  O   UNL A   1      43.340  43.941  24.087  1.00  0.00    -0.744 OA
ENDBRANCH  80  84
ENDBRANCH  53  77
BRANCH  65  88
ATOM     88  C   UNL A   1      50.451  36.366  26.052  1.00  0.00     0.023 A 
ATOM     89  C   UNL A   1      51.553  36.586  26.898  1.00  0.00     0.031 A 
ATOM     90  C   UNL A   1      50.674  36.393  24.663  1.00  0.00     0.131 A 
ATOM     91  C   UNL A   1      52.812  36.879  26.348  1.00  0.00     0.055 A 
ATOM     92  C   UNL A   1      51.941  36.618  24.122  1.00  0.00     0.041 A 
ATOM     93  F   UNL A   1      49.661  36.194  23.804  1.00  0.00    -0.206 F 
ATOM     94  C   UNL A   1      53.017  36.876  24.966  1.00  0.00     0.022 A 
BRANCH  91  95
ATOM     95  S   UNL A   1      54.160  37.364  27.461  1.00  0.00     0.124 S 
ATOM     96  O   UNL A   1      54.012  38.814  27.503  1.00  0.00    -0.237 OA
ATOM     97  O   UNL A   1      53.823  36.652  28.690  1.00  0.00    -0.237 OA
ATOM     98  O   UNL A   1      55.359  36.882  26.777  1.00  0.00    -0.744 OA
ENDBRANCH  91  95
ENDBRANCH  65  88
ENDBRANCH  39  40
ENDBRANCH  32  34
ENDBRANCH  31  32
ENDBRANCH  30  31
ENDBRANCH  29  30
ENDBRANCH  28  29
ENDBRANCH  27  28
ENDBRANCH   1  27
TORSDOF 25
ENDMDL
