MODEL 1
REMARK VINA RESULT:      -9.4      0.000      0.000
REMARK SMILES N#C/C(=C\c1ccc(Oc2ccccc2)cc1Cl)C(=O)OCCOCCOCCOC(=O)c1ccc(-c2c3nc(c(-c4cc(S(=O)(=O)[O-])ccc4F)c4ccc([nH]4)c(-c4cc(S(=O)(=O)[O-])ccc4F)c4nc(c(-c5cc(S(=O)(=O)[O-])ccc5F)c5ccc2[nH]5)C=C4)C=C3)cc1
REMARK SMILES IDX 25 1 24 2 23 3 22 4 21 5 19 6 20 7 3 8 4 9 2 10 1 11 5 12
REMARK SMILES IDX 6 13 17 14 7 15 16 16 18 17 8 18 9 19 10 20 11 21 15 22
REMARK SMILES IDX 12 23 14 24 13 25 26 26 27 27 28 28 29 29 30 30 31 31 32 32
REMARK SMILES IDX 33 33 34 34 95 35 35 36 94 37 36 38 37 39 38 40 88 41 39 42
REMARK SMILES IDX 93 43 87 44 89 45 40 46 92 47 86 48 85 49 41 51 73 52 53 53
REMARK SMILES IDX 72 54 54 55 57 56 71 57 90 58 55 59 56 60 70 62 91 63 58 64
REMARK SMILES IDX 42 65 43 66 51 67 44 68 50 69 52 70 49 71 45 72 46 73 47 74
REMARK SMILES IDX 48 75 74 76 75 77 83 78 76 79 82 80 84 81 81 82 77 83 78 84
REMARK SMILES IDX 79 85 80 86 59 87 60 88 68 89 61 90 67 91 69 92 66 93 62 94
REMARK SMILES IDX 63 95 64 96 65 97
REMARK H PARENT 89 50 57 61
REMARK Flexibility Score: inf
ROOT
ATOM      1  C   UNL A   1      37.280  21.509  24.685  1.00  0.00     0.188 C 
ENDROOT
BRANCH   1   2
ATOM      2  O   UNL A   1      36.837  20.232  25.118  1.00  0.00    -0.376 OA
BRANCH   2   3
ATOM      3  C   UNL A   1      35.498  19.808  24.902  1.00  0.00     0.202 C 
BRANCH   3   4
ATOM      4  C   UNL A   1      34.323  20.724  25.258  1.00  0.00     0.261 C 
BRANCH   4   5
ATOM      5  O   UNL A   1      33.305  20.739  24.250  1.00  0.00    -0.459 OA
BRANCH   5   6
ATOM      6  C   UNL A   1      32.233  21.517  24.536  1.00  0.00     0.348 C 
ATOM      7  O   UNL A   1      31.406  21.301  25.409  1.00  0.00    -0.245 OA
BRANCH   6   8
ATOM      8  C   UNL A   1      32.231  22.747  23.713  1.00  0.00     0.138 C 
ATOM      9  C   UNL A   1      31.251  23.661  23.918  1.00  0.00     0.036 C 
BRANCH   8  10
ATOM     10  C   UNL A   1      33.576  23.196  23.166  1.00  0.00     0.107 C 
ATOM     11  N   UNL A   1      34.692  23.569  22.712  1.00  0.00    -0.192 NA
ENDBRANCH   8  10
BRANCH   9  12
ATOM     12  C   UNL A   1      31.461  25.114  23.700  1.00  0.00    -0.005 A 
ATOM     13  C   UNL A   1      31.358  25.568  22.374  1.00  0.00     0.013 A 
ATOM     14  C   UNL A   1      31.607  26.074  24.716  1.00  0.00     0.052 A 
ATOM     15  C   UNL A   1      31.336  26.938  22.084  1.00  0.00     0.048 A 
ATOM     16  C   UNL A   1      31.493  27.440  24.429  1.00  0.00     0.068 A 
ATOM     17  Cl  UNL A   1      31.944  25.628  26.353  1.00  0.00    -0.084 Cl
ATOM     18  C   UNL A   1      31.379  27.883  23.111  1.00  0.00     0.128 A 
BRANCH  18  19
ATOM     19  O   UNL A   1      31.275  29.195  22.694  1.00  0.00    -0.457 OA
BRANCH  19  20
ATOM     20  C   UNL A   1      30.067  29.846  22.758  1.00  0.00     0.127 A 
ATOM     21  C   UNL A   1      29.218  29.727  21.656  1.00  0.00     0.047 A 
ATOM     22  C   UNL A   1      29.705  30.662  23.832  1.00  0.00     0.047 A 
ATOM     23  C   UNL A   1      27.972  30.355  21.666  1.00  0.00     0.004 A 
ATOM     24  C   UNL A   1      28.446  31.261  23.856  1.00  0.00     0.004 A 
ATOM     25  C   UNL A   1      27.578  31.104  22.775  1.00  0.00     0.000 A 
ENDBRANCH  19  20
ENDBRANCH  18  19
ENDBRANCH   9  12
ENDBRANCH   6   8
ENDBRANCH   5   6
ENDBRANCH   4   5
ENDBRANCH   3   4
ENDBRANCH   2   3
ENDBRANCH   1   2
BRANCH   1  26
ATOM     26  C   UNL A   1      37.451  22.660  25.703  1.00  0.00     0.188 C 
BRANCH  26  27
ATOM     27  O   UNL A   1      38.748  22.929  26.157  1.00  0.00    -0.376 OA
BRANCH  27  28
ATOM     28  C   UNL A   1      39.590  21.841  26.481  1.00  0.00     0.202 C 
BRANCH  28  29
ATOM     29  C   UNL A   1      41.044  21.648  25.990  1.00  0.00     0.261 C 
BRANCH  29  30
ATOM     30  O   UNL A   1      42.087  22.477  26.520  1.00  0.00    -0.460 OA
BRANCH  30  31
ATOM     31  C   UNL A   1      42.840  23.156  25.612  1.00  0.00     0.338 C 
ATOM     32  O   UNL A   1      43.107  22.788  24.475  1.00  0.00    -0.246 OA
BRANCH  31  33
ATOM     33  C   UNL A   1      43.105  24.524  26.118  1.00  0.00     0.060 A 
ATOM     34  C   UNL A   1      43.632  24.694  27.408  1.00  0.00     0.016 A 
ATOM     35  C   UNL A   1      42.818  25.636  25.329  1.00  0.00     0.016 A 
ATOM     36  C   UNL A   1      43.855  25.977  27.921  1.00  0.00     0.010 A 
ATOM     37  C   UNL A   1      43.012  26.919  25.855  1.00  0.00     0.010 A 
ATOM     38  C   UNL A   1      43.504  27.101  27.163  1.00  0.00    -0.014 A 
BRANCH  38  39
ATOM     39  C   UNL A   1      43.452  28.451  27.788  1.00  0.00     0.031 A 
ATOM     40  C   UNL A   1      44.713  29.277  27.800  1.00  0.00     0.074 A 
ATOM     41  C   UNL A   1      42.327  28.938  28.343  1.00  0.00     0.049 A 
ATOM     42  N   UNL A   1      44.958  30.419  28.389  1.00  0.00    -0.248 NA
ATOM     43  C   UNL A   1      45.855  28.729  27.052  1.00  0.00     0.031 C 
ATOM     44  C   UNL A   1      41.025  28.274  28.338  1.00  0.00     0.029 A 
ATOM     45  N   UNL A   1      42.104  30.107  29.033  1.00  0.00    -0.354 N 
ATOM     46  C   UNL A   1      46.284  30.721  28.094  1.00  0.00     0.074 A 
ATOM     47  C   UNL A   1      46.798  29.624  27.301  1.00  0.00     0.031 C 
ATOM     48  C   UNL A   1      40.144  29.036  29.011  1.00  0.00     0.029 A 
ATOM     49  C   UNL A   1      40.826  30.220  29.533  1.00  0.00     0.049 A 
ATOM     50  H   UNL A   1      42.794  30.797  29.158  1.00  0.00     0.167 HD
ATOM     51  C   UNL A   1      47.005  31.814  28.447  1.00  0.00     0.034 A 
ATOM     52  C   UNL A   1      40.282  31.152  30.345  1.00  0.00     0.034 A 
ATOM     53  C   UNL A   1      46.482  32.898  29.243  1.00  0.00     0.049 A 
ATOM     54  C   UNL A   1      41.137  32.310  30.813  1.00  0.00     0.074 A 
ATOM     55  C   UNL A   1      47.124  34.057  29.645  1.00  0.00     0.029 A 
ATOM     56  N   UNL A   1      45.199  32.953  29.771  1.00  0.00    -0.354 N 
ATOM     57  N   UNL A   1      42.391  32.586  30.531  1.00  0.00    -0.248 NA
ATOM     58  C   UNL A   1      40.501  33.288  31.708  1.00  0.00     0.031 C 
ATOM     59  C   UNL A   1      46.260  34.770  30.483  1.00  0.00     0.029 A 
ATOM     60  C   UNL A   1      45.045  34.106  30.527  1.00  0.00     0.049 A 
ATOM     61  H   UNL A   1      44.500  32.274  29.629  1.00  0.00     0.167 HD
ATOM     62  C   UNL A   1      42.674  33.788  31.178  1.00  0.00     0.074 A 
ATOM     63  C   UNL A   1      41.460  34.189  31.856  1.00  0.00     0.031 C 
ATOM     64  C   UNL A   1      43.830  34.500  31.203  1.00  0.00     0.034 A 
BRANCH  51  65
ATOM     65  C   UNL A   1      48.454  31.861  28.025  1.00  0.00     0.023 A 
ATOM     66  C   UNL A   1      49.467  31.226  28.764  1.00  0.00     0.031 A 
ATOM     67  C   UNL A   1      48.828  32.564  26.864  1.00  0.00     0.131 A 
ATOM     68  C   UNL A   1      50.808  31.358  28.370  1.00  0.00     0.055 A 
ATOM     69  C   UNL A   1      50.154  32.623  26.433  1.00  0.00     0.041 A 
ATOM     70  F   UNL A   1      47.908  33.213  26.132  1.00  0.00    -0.206 F 
ATOM     71  C   UNL A   1      51.155  32.027  27.194  1.00  0.00     0.022 A 
BRANCH  68  72
ATOM     72  S   UNL A   1      52.106  30.755  29.485  1.00  0.00     0.124 S 
ATOM     73  O   UNL A   1      51.786  29.332  29.568  1.00  0.00    -0.237 OA
ATOM     74  O   UNL A   1      53.326  31.094  28.762  1.00  0.00    -0.237 OA
ATOM     75  O   UNL A   1      51.879  31.509  30.716  1.00  0.00    -0.744 OA
ENDBRANCH  68  72
ENDBRANCH  51  65
BRANCH  52  76
ATOM     76  C   UNL A   1      38.872  31.022  30.822  1.00  0.00     0.023 A 
ATOM     77  C   UNL A   1      37.808  31.619  30.126  1.00  0.00     0.031 A 
ATOM     78  C   UNL A   1      38.576  30.373  32.035  1.00  0.00     0.131 A 
ATOM     79  C   UNL A   1      36.514  31.608  30.674  1.00  0.00     0.055 A 
ATOM     80  C   UNL A   1      37.278  30.306  32.543  1.00  0.00     0.041 A 
ATOM     81  F   UNL A   1      39.553  29.798  32.754  1.00  0.00    -0.206 F 
ATOM     82  C   UNL A   1      36.239  30.940  31.868  1.00  0.00     0.022 A 
BRANCH  79  83
ATOM     83  S   UNL A   1      35.217  32.587  29.864  1.00  0.00     0.124 S 
ATOM     84  O   UNL A   1      34.297  32.829  30.969  1.00  0.00    -0.237 OA
ATOM     85  O   UNL A   1      35.963  33.744  29.383  1.00  0.00    -0.237 OA
ATOM     86  O   UNL A   1      34.717  31.693  28.822  1.00  0.00    -0.744 OA
ENDBRANCH  79  83
ENDBRANCH  52  76
BRANCH  64  87
ATOM     87  C   UNL A   1      43.819  35.822  31.937  1.00  0.00     0.023 A 
ATOM     88  C   UNL A   1      43.696  37.051  31.264  1.00  0.00     0.031 A 
ATOM     89  C   UNL A   1      43.934  35.849  33.340  1.00  0.00     0.131 A 
ATOM     90  C   UNL A   1      43.750  38.253  31.986  1.00  0.00     0.055 A 
ATOM     91  C   UNL A   1      43.918  37.046  34.058  1.00  0.00     0.041 A 
ATOM     92  F   UNL A   1      44.057  34.709  34.038  1.00  0.00    -0.206 F 
ATOM     93  C   UNL A   1      43.840  38.257  33.381  1.00  0.00     0.022 A 
BRANCH  90  94
ATOM     94  S   UNL A   1      43.802  39.820  31.073  1.00  0.00     0.124 S 
ATOM     95  O   UNL A   1      42.928  40.669  31.876  1.00  0.00    -0.237 OA
ATOM     96  O   UNL A   1      45.221  40.155  31.106  1.00  0.00    -0.237 OA
ATOM     97  O   UNL A   1      43.281  39.467  29.753  1.00  0.00    -0.744 OA
ENDBRANCH  90  94
ENDBRANCH  64  87
ENDBRANCH  38  39
ENDBRANCH  31  33
ENDBRANCH  30  31
ENDBRANCH  29  30
ENDBRANCH  28  29
ENDBRANCH  27  28
ENDBRANCH  26  27
ENDBRANCH   1  26
TORSDOF 24
ENDMDL
MODEL 2
REMARK VINA RESULT:      -9.1      5.150      8.262
REMARK SMILES N#C/C(=C\c1ccc(Oc2ccccc2)cc1Cl)C(=O)OCCOCCOCCOC(=O)c1ccc(-c2c3nc(c(-c4cc(S(=O)(=O)[O-])ccc4F)c4ccc([nH]4)c(-c4cc(S(=O)(=O)[O-])ccc4F)c4nc(c(-c5cc(S(=O)(=O)[O-])ccc5F)c5ccc2[nH]5)C=C4)C=C3)cc1
REMARK SMILES IDX 25 1 24 2 23 3 22 4 21 5 19 6 20 7 3 8 4 9 2 10 1 11 5 12
REMARK SMILES IDX 6 13 17 14 7 15 16 16 18 17 8 18 9 19 10 20 11 21 15 22
REMARK SMILES IDX 12 23 14 24 13 25 26 26 27 27 28 28 29 29 30 30 31 31 32 32
REMARK SMILES IDX 33 33 34 34 95 35 35 36 94 37 36 38 37 39 38 40 88 41 39 42
REMARK SMILES IDX 93 43 87 44 89 45 40 46 92 47 86 48 85 49 41 51 73 52 53 53
REMARK SMILES IDX 72 54 54 55 57 56 71 57 90 58 55 59 56 60 70 62 91 63 58 64
REMARK SMILES IDX 42 65 43 66 51 67 44 68 50 69 52 70 49 71 45 72 46 73 47 74
REMARK SMILES IDX 48 75 74 76 75 77 83 78 76 79 82 80 84 81 81 82 77 83 78 84
REMARK SMILES IDX 79 85 80 86 59 87 60 88 68 89 61 90 67 91 69 92 66 93 62 94
REMARK SMILES IDX 63 95 64 96 65 97
REMARK H PARENT 89 50 57 61
REMARK Flexibility Score: inf
ROOT
ATOM      1  C   UNL A   1      39.902  20.383  25.990  1.00  0.00     0.188 C 
ENDROOT
BRANCH   1   2
ATOM      2  O   UNL A   1      38.792  21.268  26.011  1.00  0.00    -0.376 OA
BRANCH   2   3
ATOM      3  C   UNL A   1      37.860  21.301  24.939  1.00  0.00     0.202 C 
BRANCH   3   4
ATOM      4  C   UNL A   1      36.358  21.436  25.214  1.00  0.00     0.261 C 
BRANCH   4   5
ATOM      5  O   UNL A   1      35.741  22.467  24.435  1.00  0.00    -0.459 OA
BRANCH   5   6
ATOM      6  C   UNL A   1      35.739  23.692  25.014  1.00  0.00     0.348 C 
ATOM      7  O   UNL A   1      36.687  24.216  25.579  1.00  0.00    -0.245 OA
BRANCH   6   8
ATOM      8  C   UNL A   1      34.452  24.387  24.790  1.00  0.00     0.138 C 
ATOM      9  C   UNL A   1      34.003  25.241  25.742  1.00  0.00     0.036 C 
BRANCH   8  10
ATOM     10  C   UNL A   1      34.036  24.590  23.342  1.00  0.00     0.107 C 
ATOM     11  N   UNL A   1      33.691  24.758  22.140  1.00  0.00    -0.192 NA
ENDBRANCH   8  10
BRANCH   9  12
ATOM     12  C   UNL A   1      33.172  26.428  25.419  1.00  0.00    -0.005 A 
ATOM     13  C   UNL A   1      33.863  27.582  25.011  1.00  0.00     0.013 A 
ATOM     14  C   UNL A   1      31.768  26.440  25.349  1.00  0.00     0.052 A 
ATOM     15  C   UNL A   1      33.174  28.684  24.490  1.00  0.00     0.048 A 
ATOM     16  C   UNL A   1      31.093  27.508  24.745  1.00  0.00     0.068 A 
ATOM     17  Cl  UNL A   1      30.810  25.161  26.011  1.00  0.00    -0.084 Cl
ATOM     18  C   UNL A   1      31.787  28.646  24.332  1.00  0.00     0.128 A 
BRANCH  18  19
ATOM     19  O   UNL A   1      31.242  29.768  23.739  1.00  0.00    -0.457 OA
BRANCH  19  20
ATOM     20  C   UNL A   1      29.892  29.831  23.495  1.00  0.00     0.127 A 
ATOM     21  C   UNL A   1      29.236  31.017  23.830  1.00  0.00     0.047 A 
ATOM     22  C   UNL A   1      29.162  28.746  23.003  1.00  0.00     0.047 A 
ATOM     23  C   UNL A   1      27.867  31.147  23.595  1.00  0.00     0.004 A 
ATOM     24  C   UNL A   1      27.800  28.889  22.736  1.00  0.00     0.004 A 
ATOM     25  C   UNL A   1      27.154  30.090  23.027  1.00  0.00     0.000 A 
ENDBRANCH  19  20
ENDBRANCH  18  19
ENDBRANCH   9  12
ENDBRANCH   6   8
ENDBRANCH   5   6
ENDBRANCH   4   5
ENDBRANCH   3   4
ENDBRANCH   2   3
ENDBRANCH   1   2
BRANCH   1  26
ATOM     26  C   UNL A   1      41.324  20.912  26.279  1.00  0.00     0.188 C 
BRANCH  26  27
ATOM     27  O   UNL A   1      41.839  21.883  25.411  1.00  0.00    -0.376 OA
BRANCH  27  28
ATOM     28  C   UNL A   1      43.049  22.526  25.758  1.00  0.00     0.202 C 
BRANCH  28  29
ATOM     29  C   UNL A   1      43.855  23.484  24.849  1.00  0.00     0.261 C 
BRANCH  29  30
ATOM     30  O   UNL A   1      44.288  24.752  25.363  1.00  0.00    -0.460 OA
BRANCH  30  31
ATOM     31  C   UNL A   1      43.335  25.715  25.476  1.00  0.00     0.338 C 
ATOM     32  O   UNL A   1      42.482  25.990  24.641  1.00  0.00    -0.246 OA
BRANCH  31  33
ATOM     33  C   UNL A   1      43.329  26.240  26.863  1.00  0.00     0.060 A 
ATOM     34  C   UNL A   1      42.427  25.709  27.799  1.00  0.00     0.016 A 
ATOM     35  C   UNL A   1      44.198  27.263  27.234  1.00  0.00     0.016 A 
ATOM     36  C   UNL A   1      42.379  26.214  29.104  1.00  0.00     0.010 A 
ATOM     37  C   UNL A   1      44.127  27.790  28.529  1.00  0.00     0.010 A 
ATOM     38  C   UNL A   1      43.199  27.290  29.465  1.00  0.00    -0.014 A 
BRANCH  38  39
ATOM     39  C   UNL A   1      42.962  28.032  30.734  1.00  0.00     0.031 A 
ATOM     40  C   UNL A   1      41.942  29.142  30.730  1.00  0.00     0.074 A 
ATOM     41  C   UNL A   1      43.635  27.745  31.864  1.00  0.00     0.049 A 
ATOM     42  N   UNL A   1      41.648  30.009  31.663  1.00  0.00    -0.248 NA
ATOM     43  C   UNL A   1      41.156  29.295  29.495  1.00  0.00     0.031 C 
ATOM     44  C   UNL A   1      44.595  26.655  32.023  1.00  0.00     0.029 A 
ATOM     45  N   UNL A   1      43.621  28.361  33.094  1.00  0.00    -0.354 N 
ATOM     46  C   UNL A   1      40.652  30.820  31.125  1.00  0.00     0.074 A 
ATOM     47  C   UNL A   1      40.419  30.359  29.773  1.00  0.00     0.031 C 
ATOM     48  C   UNL A   1      45.093  26.692  33.273  1.00  0.00     0.029 A 
ATOM     49  C   UNL A   1      44.522  27.832  33.989  1.00  0.00     0.049 A 
ATOM     50  H   UNL A   1      43.022  29.111  33.312  1.00  0.00     0.167 HD
ATOM     51  C   UNL A   1      39.991  31.851  31.707  1.00  0.00     0.034 A 
ATOM     52  C   UNL A   1      44.870  28.241  35.228  1.00  0.00     0.034 A 
ATOM     53  C   UNL A   1      40.238  32.305  33.055  1.00  0.00     0.049 A 
ATOM     54  C   UNL A   1      44.192  29.460  35.819  1.00  0.00     0.074 A 
ATOM     55  C   UNL A   1      39.613  33.331  33.744  1.00  0.00     0.029 A 
ATOM     56  N   UNL A   1      41.192  31.775  33.913  1.00  0.00    -0.354 N 
ATOM     57  N   UNL A   1      43.254  30.221  35.302  1.00  0.00    -0.248 NA
ATOM     58  C   UNL A   1      44.618  29.872  37.164  1.00  0.00     0.031 C 
ATOM     59  C   UNL A   1      40.245  33.475  34.983  1.00  0.00     0.029 A 
ATOM     60  C   UNL A   1      41.199  32.479  35.108  1.00  0.00     0.049 A 
ATOM     61  H   UNL A   1      41.777  31.011  33.705  1.00  0.00     0.167 HD
ATOM     62  C   UNL A   1      42.951  31.170  36.277  1.00  0.00     0.074 A 
ATOM     63  C   UNL A   1      43.798  30.881  37.415  1.00  0.00     0.031 C 
ATOM     64  C   UNL A   1      42.049  32.185  36.239  1.00  0.00     0.034 A 
BRANCH  51  65
ATOM     65  C   UNL A   1      38.980  32.595  30.868  1.00  0.00     0.023 A 
ATOM     66  C   UNL A   1      37.610  32.277  30.895  1.00  0.00     0.031 A 
ATOM     67  C   UNL A   1      39.397  33.637  30.020  1.00  0.00     0.131 A 
ATOM     68  C   UNL A   1      36.720  32.950  30.044  1.00  0.00     0.055 A 
ATOM     69  C   UNL A   1      38.494  34.357  29.236  1.00  0.00     0.041 A 
ATOM     70  F   UNL A   1      40.695  33.968  29.932  1.00  0.00    -0.206 F 
ATOM     71  C   UNL A   1      37.147  34.007  29.236  1.00  0.00     0.022 A 
BRANCH  68  72
ATOM     72  S   UNL A   1      35.017  32.340  29.908  1.00  0.00     0.124 S 
ATOM     73  O   UNL A   1      35.224  31.013  29.334  1.00  0.00    -0.237 OA
ATOM     74  O   UNL A   1      34.558  32.373  31.292  1.00  0.00    -0.237 OA
ATOM     75  O   UNL A   1      34.377  33.304  29.015  1.00  0.00    -0.744 OA
ENDBRANCH  68  72
ENDBRANCH  51  65
BRANCH  52  76
ATOM     76  C   UNL A   1      45.945  27.539  35.993  1.00  0.00     0.023 A 
ATOM     77  C   UNL A   1      45.658  26.422  36.797  1.00  0.00     0.031 A 
ATOM     78  C   UNL A   1      47.263  28.030  36.003  1.00  0.00     0.131 A 
ATOM     79  C   UNL A   1      46.656  25.873  37.619  1.00  0.00     0.055 A 
ATOM     80  C   UNL A   1      48.268  27.439  36.770  1.00  0.00     0.041 A 
ATOM     81  F   UNL A   1      47.594  29.103  35.268  1.00  0.00    -0.206 F 
ATOM     82  C   UNL A   1      47.963  26.363  37.597  1.00  0.00     0.022 A 
BRANCH  79  83
ATOM     83  S   UNL A   1      46.191  24.586  38.812  1.00  0.00     0.124 S 
ATOM     84  O   UNL A   1      46.788  23.398  38.214  1.00  0.00    -0.237 OA
ATOM     85  O   UNL A   1      46.813  25.069  40.040  1.00  0.00    -0.237 OA
ATOM     86  O   UNL A   1      44.730  24.622  38.799  1.00  0.00    -0.744 OA
ENDBRANCH  79  83
ENDBRANCH  52  76
BRANCH  64  87
ATOM     87  C   UNL A   1      41.885  33.019  37.490  1.00  0.00     0.023 A 
ATOM     88  C   UNL A   1      40.935  32.707  38.479  1.00  0.00     0.031 A 
ATOM     89  C   UNL A   1      42.698  34.150  37.693  1.00  0.00     0.131 A 
ATOM     90  C   UNL A   1      40.783  33.546  39.594  1.00  0.00     0.055 A 
ATOM     91  C   UNL A   1      42.588  34.942  38.837  1.00  0.00     0.041 A 
ATOM     92  F   UNL A   1      43.621  34.502  36.783  1.00  0.00    -0.206 F 
ATOM     93  C   UNL A   1      41.616  34.650  39.789  1.00  0.00     0.022 A 
BRANCH  90  94
ATOM     94  S   UNL A   1      39.412  33.235  40.741  1.00  0.00     0.124 S 
ATOM     95  O   UNL A   1      39.850  33.945  41.938  1.00  0.00    -0.237 OA
ATOM     96  O   UNL A   1      38.276  33.818  40.036  1.00  0.00    -0.237 OA
ATOM     97  O   UNL A   1      39.385  31.778  40.859  1.00  0.00    -0.744 OA
ENDBRANCH  90  94
ENDBRANCH  64  87
ENDBRANCH  38  39
ENDBRANCH  31  33
ENDBRANCH  30  31
ENDBRANCH  29  30
ENDBRANCH  28  29
ENDBRANCH  27  28
ENDBRANCH  26  27
ENDBRANCH   1  26
TORSDOF 24
ENDMDL
MODEL 3
REMARK VINA RESULT:      -8.8      6.377     10.960
REMARK SMILES N#C/C(=C\c1ccc(Oc2ccccc2)cc1Cl)C(=O)OCCOCCOCCOC(=O)c1ccc(-c2c3nc(c(-c4cc(S(=O)(=O)[O-])ccc4F)c4ccc([nH]4)c(-c4cc(S(=O)(=O)[O-])ccc4F)c4nc(c(-c5cc(S(=O)(=O)[O-])ccc5F)c5ccc2[nH]5)C=C4)C=C3)cc1
REMARK SMILES IDX 25 1 24 2 23 3 22 4 21 5 19 6 20 7 3 8 4 9 2 10 1 11 5 12
REMARK SMILES IDX 6 13 17 14 7 15 16 16 18 17 8 18 9 19 10 20 11 21 15 22
REMARK SMILES IDX 12 23 14 24 13 25 26 26 27 27 28 28 29 29 30 30 31 31 32 32
REMARK SMILES IDX 33 33 34 34 95 35 35 36 94 37 36 38 37 39 38 40 88 41 39 42
REMARK SMILES IDX 93 43 87 44 89 45 40 46 92 47 86 48 85 49 41 51 73 52 53 53
REMARK SMILES IDX 72 54 54 55 57 56 71 57 90 58 55 59 56 60 70 62 91 63 58 64
REMARK SMILES IDX 42 65 43 66 51 67 44 68 50 69 52 70 49 71 45 72 46 73 47 74
REMARK SMILES IDX 48 75 74 76 75 77 83 78 76 79 82 80 84 81 81 82 77 83 78 84
REMARK SMILES IDX 79 85 80 86 59 87 60 88 68 89 61 90 67 91 69 92 66 93 62 94
REMARK SMILES IDX 63 95 64 96 65 97
REMARK H PARENT 89 50 57 61
REMARK Flexibility Score: inf
ROOT
ATOM      1  C   UNL A   1      42.328  21.918  25.766  1.00  0.00     0.188 C 
ENDROOT
BRANCH   1   2
ATOM      2  O   UNL A   1      41.559  22.323  26.889  1.00  0.00    -0.376 OA
BRANCH   2   3
ATOM      3  C   UNL A   1      40.143  22.205  26.889  1.00  0.00     0.202 C 
BRANCH   3   4
ATOM      4  C   UNL A   1      39.445  21.186  25.983  1.00  0.00     0.261 C 
BRANCH   4   5
ATOM      5  O   UNL A   1      38.069  21.506  25.745  1.00  0.00    -0.459 OA
BRANCH   5   6
ATOM      6  C   UNL A   1      37.382  20.573  25.042  1.00  0.00     0.348 C 
ATOM      7  O   UNL A   1      37.580  19.368  25.072  1.00  0.00    -0.245 OA
BRANCH   6   8
ATOM      8  C   UNL A   1      36.266  21.186  24.289  1.00  0.00     0.138 C 
ATOM      9  C   UNL A   1      34.999  20.980  24.726  1.00  0.00     0.036 C 
BRANCH   8  10
ATOM     10  C   UNL A   1      36.594  22.443  23.499  1.00  0.00     0.107 C 
ATOM     11  N   UNL A   1      36.866  23.486  22.844  1.00  0.00    -0.192 NA
ENDBRANCH   8  10
BRANCH   9  12
ATOM     12  C   UNL A   1      33.918  21.978  24.530  1.00  0.00    -0.005 A 
ATOM     13  C   UNL A   1      33.050  21.755  23.446  1.00  0.00     0.013 A 
ATOM     14  C   UNL A   1      33.613  23.028  25.413  1.00  0.00     0.052 A 
ATOM     15  C   UNL A   1      31.884  22.514  23.294  1.00  0.00     0.048 A 
ATOM     16  C   UNL A   1      32.402  23.723  25.305  1.00  0.00     0.068 A 
ATOM     17  Cl  UNL A   1      34.710  23.523  26.656  1.00  0.00    -0.084 Cl
ATOM     18  C   UNL A   1      31.539  23.487  24.234  1.00  0.00     0.128 A 
BRANCH  18  19
ATOM     19  O   UNL A   1      30.329  24.111  24.004  1.00  0.00    -0.457 OA
BRANCH  19  20
ATOM     20  C   UNL A   1      30.297  25.410  23.560  1.00  0.00     0.127 A 
ATOM     21  C   UNL A   1      29.246  26.213  24.008  1.00  0.00     0.047 A 
ATOM     22  C   UNL A   1      31.216  25.916  22.638  1.00  0.00     0.047 A 
ATOM     23  C   UNL A   1      29.165  27.545  23.601  1.00  0.00     0.004 A 
ATOM     24  C   UNL A   1      31.154  27.256  22.258  1.00  0.00     0.004 A 
ATOM     25  C   UNL A   1      30.132  28.072  22.744  1.00  0.00     0.000 A 
ENDBRANCH  19  20
ENDBRANCH  18  19
ENDBRANCH   9  12
ENDBRANCH   6   8
ENDBRANCH   5   6
ENDBRANCH   4   5
ENDBRANCH   3   4
ENDBRANCH   2   3
ENDBRANCH   1   2
BRANCH   1  26
ATOM     26  C   UNL A   1      43.262  22.924  25.057  1.00  0.00     0.188 C 
BRANCH  26  27
ATOM     27  O   UNL A   1      43.493  24.149  25.697  1.00  0.00    -0.376 OA
BRANCH  27  28
ATOM     28  C   UNL A   1      42.955  25.323  25.124  1.00  0.00     0.202 C 
BRANCH  28  29
ATOM     29  C   UNL A   1      41.719  26.096  25.641  1.00  0.00     0.261 C 
BRANCH  29  30
ATOM     30  O   UNL A   1      40.857  25.486  26.612  1.00  0.00    -0.460 OA
BRANCH  30  31
ATOM     31  C   UNL A   1      40.698  26.157  27.785  1.00  0.00     0.338 C 
ATOM     32  O   UNL A   1      39.656  26.643  28.205  1.00  0.00    -0.246 OA
BRANCH  31  33
ATOM     33  C   UNL A   1      41.928  26.017  28.601  1.00  0.00     0.060 A 
ATOM     34  C   UNL A   1      42.531  27.163  29.145  1.00  0.00     0.016 A 
ATOM     35  C   UNL A   1      42.495  24.762  28.814  1.00  0.00     0.016 A 
ATOM     36  C   UNL A   1      43.713  27.059  29.887  1.00  0.00     0.010 A 
ATOM     37  C   UNL A   1      43.695  24.663  29.529  1.00  0.00     0.010 A 
ATOM     38  C   UNL A   1      44.328  25.811  30.046  1.00  0.00    -0.014 A 
BRANCH  38  39
ATOM     39  C   UNL A   1      45.719  25.712  30.567  1.00  0.00     0.031 A 
ATOM     40  C   UNL A   1      45.912  25.343  32.015  1.00  0.00     0.074 A 
ATOM     41  C   UNL A   1      46.792  25.953  29.789  1.00  0.00     0.049 A 
ATOM     42  N   UNL A   1      47.006  25.315  32.733  1.00  0.00    -0.248 NA
ATOM     43  C   UNL A   1      44.698  24.962  32.754  1.00  0.00     0.031 C 
ATOM     44  C   UNL A   1      46.749  26.251  28.359  1.00  0.00     0.029 A 
ATOM     45  N   UNL A   1      48.130  25.996  30.100  1.00  0.00    -0.354 N 
ATOM     46  C   UNL A   1      46.611  24.928  34.010  1.00  0.00     0.074 A 
ATOM     47  C   UNL A   1      45.173  24.764  33.974  1.00  0.00     0.031 C 
ATOM     48  C   UNL A   1      48.003  26.466  27.921  1.00  0.00     0.029 A 
ATOM     49  C   UNL A   1      48.933  26.365  29.045  1.00  0.00     0.049 A 
ATOM     50  H   UNL A   1      48.481  25.784  30.995  1.00  0.00     0.167 HD
ATOM     51  C   UNL A   1      47.378  24.723  35.109  1.00  0.00     0.034 A 
ATOM     52  C   UNL A   1      50.258  26.626  29.000  1.00  0.00     0.034 A 
ATOM     53  C   UNL A   1      48.810  24.897  35.133  1.00  0.00     0.049 A 
ATOM     54  C   UNL A   1      51.078  26.493  30.267  1.00  0.00     0.074 A 
ATOM     55  C   UNL A   1      49.682  24.702  36.191  1.00  0.00     0.029 A 
ATOM     56  N   UNL A   1      49.581  25.319  34.058  1.00  0.00    -0.354 N 
ATOM     57  N   UNL A   1      50.696  26.128  31.470  1.00  0.00    -0.248 NA
ATOM     58  C   UNL A   1      52.511  26.802  30.167  1.00  0.00     0.031 C 
ATOM     59  C   UNL A   1      50.963  25.086  35.781  1.00  0.00     0.029 A 
ATOM     60  C   UNL A   1      50.910  25.428  34.440  1.00  0.00     0.049 A 
ATOM     61  H   UNL A   1      49.235  25.511  33.157  1.00  0.00     0.167 HD
ATOM     62  C   UNL A   1      51.849  26.124  32.253  1.00  0.00     0.074 A 
ATOM     63  C   UNL A   1      52.940  26.512  31.386  1.00  0.00     0.031 C 
ATOM     64  C   UNL A   1      51.994  25.819  33.569  1.00  0.00     0.034 A 
BRANCH  51  65
ATOM     65  C   UNL A   1      46.674  24.347  36.391  1.00  0.00     0.023 A 
ATOM     66  C   UNL A   1      46.021  25.302  37.191  1.00  0.00     0.031 A 
ATOM     67  C   UNL A   1      46.665  23.009  36.825  1.00  0.00     0.131 A 
ATOM     68  C   UNL A   1      45.442  24.915  38.410  1.00  0.00     0.055 A 
ATOM     69  C   UNL A   1      46.017  22.617  37.997  1.00  0.00     0.041 A 
ATOM     70  F   UNL A   1      47.294  22.057  36.117  1.00  0.00    -0.206 F 
ATOM     71  C   UNL A   1      45.410  23.575  38.804  1.00  0.00     0.022 A 
BRANCH  68  72
ATOM     72  S   UNL A   1      44.846  26.204  39.538  1.00  0.00     0.124 S 
ATOM     73  O   UNL A   1      45.966  27.142  39.533  1.00  0.00    -0.237 OA
ATOM     74  O   UNL A   1      43.627  26.661  38.880  1.00  0.00    -0.237 OA
ATOM     75  O   UNL A   1      44.645  25.491  40.798  1.00  0.00    -0.744 OA
ENDBRANCH  68  72
ENDBRANCH  51  65
BRANCH  52  76
ATOM     76  C   UNL A   1      50.905  27.090  27.736  1.00  0.00     0.023 A 
ATOM     77  C   UNL A   1      51.077  28.458  27.464  1.00  0.00     0.031 A 
ATOM     78  C   UNL A   1      51.280  26.173  26.737  1.00  0.00     0.131 A 
ATOM     79  C   UNL A   1      51.552  28.871  26.208  1.00  0.00     0.055 A 
ATOM     80  C   UNL A   1      51.814  26.586  25.515  1.00  0.00     0.041 A 
ATOM     81  F   UNL A   1      51.123  24.854  26.931  1.00  0.00    -0.206 F 
ATOM     82  C   UNL A   1      51.938  27.943  25.239  1.00  0.00     0.022 A 
BRANCH  79  83
ATOM     83  S   UNL A   1      51.540  30.643  25.812  1.00  0.00     0.124 S 
ATOM     84  O   UNL A   1      51.606  30.621  24.356  1.00  0.00    -0.237 OA
ATOM     85  O   UNL A   1      50.274  31.077  26.393  1.00  0.00    -0.237 OA
ATOM     86  O   UNL A   1      52.737  31.149  26.482  1.00  0.00    -0.744 OA
ENDBRANCH  79  83
ENDBRANCH  52  76
BRANCH  64  87
ATOM     87  C   UNL A   1      53.397  25.830  34.136  1.00  0.00     0.023 A 
ATOM     88  C   UNL A   1      54.263  24.729  34.012  1.00  0.00     0.031 A 
ATOM     89  C   UNL A   1      53.872  26.967  34.814  1.00  0.00     0.131 A 
ATOM     90  C   UNL A   1      55.534  24.767  34.607  1.00  0.00     0.055 A 
ATOM     91  C   UNL A   1      55.162  27.025  35.345  1.00  0.00     0.041 A 
ATOM     92  F   UNL A   1      53.090  28.049  34.968  1.00  0.00    -0.206 F 
ATOM     93  C   UNL A   1      55.995  25.916  35.255  1.00  0.00     0.022 A 
BRANCH  90  94
ATOM     94  S   UNL A   1      56.543  23.259  34.611  1.00  0.00     0.124 S 
ATOM     95  O   UNL A   1      56.925  23.146  33.208  1.00  0.00    -0.237 OA
ATOM     96  O   UNL A   1      57.616  23.604  35.538  1.00  0.00    -0.237 OA
ATOM     97  O   UNL A   1      55.621  22.230  35.089  1.00  0.00    -0.744 OA
ENDBRANCH  90  94
ENDBRANCH  64  87
ENDBRANCH  38  39
ENDBRANCH  31  33
ENDBRANCH  30  31
ENDBRANCH  29  30
ENDBRANCH  28  29
ENDBRANCH  27  28
ENDBRANCH  26  27
ENDBRANCH   1  26
TORSDOF 24
ENDMDL
