MODEL 1
REMARK VINA RESULT:     -10.7      0.000      0.000
REMARK SMILES O=C(OCCOCCOCCOC(=O)c1nn(-c2ccc([N+](=O)[O-])cc2)cc1CCO)c1ccc(-c2c3nc(c(-c4cc(S(=O)(=O)[O-])ccc4F)c4ccc([nH]4)c(-c4cc(S(=O)(=O)[O-])ccc4F)c4nc(c(-c5cc(S(=O)(=O)[O-])ccc5F)c5ccc2[nH]5)C=C4)C=C3)cc1
REMARK SMILES IDX 7 1 6 2 5 3 4 4 3 5 2 6 1 7 32 8 33 9 94 10 34 11 93 12
REMARK SMILES IDX 35 13 36 14 37 15 87 16 38 17 92 18 86 19 88 20 39 21 91 22
REMARK SMILES IDX 85 23 84 24 40 26 72 27 52 28 71 29 53 30 56 31 70 32 89 33
REMARK SMILES IDX 54 34 55 35 69 37 90 38 57 39 41 40 42 41 50 42 43 43 49 44
REMARK SMILES IDX 51 45 48 46 44 47 45 48 46 49 47 50 73 51 74 52 82 53 75 54
REMARK SMILES IDX 81 55 83 56 80 57 76 58 77 59 78 60 79 61 58 62 59 63 67 64
REMARK SMILES IDX 60 65 66 66 68 67 65 68 61 69 62 70 63 71 64 72 8 73 9 74
REMARK SMILES IDX 10 75 11 76 12 77 13 78 14 79 15 80 16 81 28 82 17 83 27 84
REMARK SMILES IDX 29 85 30 86 31 87 18 89 19 90 26 91 20 92 25 93 21 94 22 95
REMARK SMILES IDX 23 96 24 97
REMARK H PARENT 88 25 56 36 31 88
REMARK Flexibility Score: inf
ROOT
ATOM      1  C   UNL A   1      41.599  20.327  26.298  1.00  0.00     0.188 C 
ENDROOT
BRANCH   1   2
ATOM      2  O   UNL A   1      42.399  21.072  25.396  1.00  0.00    -0.376 OA
BRANCH   2   3
ATOM      3  C   UNL A   1      42.928  22.343  25.722  1.00  0.00     0.202 C 
BRANCH   3   4
ATOM      4  C   UNL A   1      42.251  23.230  26.769  1.00  0.00     0.261 C 
BRANCH   4   5
ATOM      5  O   UNL A   1      41.442  24.268  26.215  1.00  0.00    -0.460 OA
BRANCH   5   6
ATOM      6  C   UNL A   1      40.229  24.742  26.565  1.00  0.00     0.338 C 
ATOM      7  O   UNL A   1      39.244  24.154  26.115  1.00  0.00    -0.246 OA
BRANCH   6   8
ATOM      8  C   UNL A   1      39.984  25.993  27.347  1.00  0.00     0.060 A 
ATOM      9  C   UNL A   1      40.364  27.289  26.997  1.00  0.00     0.016 A 
ATOM     10  C   UNL A   1      39.321  25.813  28.580  1.00  0.00     0.016 A 
ATOM     11  C   UNL A   1      40.257  28.331  27.913  1.00  0.00     0.010 A 
ATOM     12  C   UNL A   1      39.165  26.864  29.480  1.00  0.00     0.010 A 
ATOM     13  C   UNL A   1      39.713  28.106  29.177  1.00  0.00    -0.014 A 
BRANCH  13  14
ATOM     14  C   UNL A   1      39.829  29.184  30.155  1.00  0.00     0.031 A 
ATOM     15  C   UNL A   1      38.671  30.102  30.331  1.00  0.00     0.074 A 
ATOM     16  C   UNL A   1      40.929  29.351  30.915  1.00  0.00     0.049 A 
ATOM     17  N   UNL A   1      38.634  31.386  30.175  1.00  0.00    -0.248 NA
ATOM     18  C   UNL A   1      37.379  29.508  30.693  1.00  0.00     0.031 C 
ATOM     19  C   UNL A   1      42.052  28.424  31.081  1.00  0.00     0.029 A 
ATOM     20  N   UNL A   1      41.218  30.358  31.790  1.00  0.00    -0.354 N 
ATOM     21  C   UNL A   1      37.372  31.798  30.599  1.00  0.00     0.074 A 
ATOM     22  C   UNL A   1      36.610  30.592  30.802  1.00  0.00     0.031 C 
ATOM     23  C   UNL A   1      42.772  28.794  32.159  1.00  0.00     0.029 A 
ATOM     24  C   UNL A   1      42.250  30.054  32.661  1.00  0.00     0.049 A 
ATOM     25  H   UNL A   1      40.739  31.218  31.800  1.00  0.00     0.167 HD
ATOM     26  C   UNL A   1      37.096  33.099  30.899  1.00  0.00     0.034 A 
ATOM     27  C   UNL A   1      42.617  30.736  33.770  1.00  0.00     0.034 A 
ATOM     28  C   UNL A   1      38.051  33.998  30.298  1.00  0.00     0.049 A 
ATOM     29  C   UNL A   1      42.165  32.137  33.615  1.00  0.00     0.074 A 
ATOM     30  C   UNL A   1      38.448  34.269  29.002  1.00  0.00     0.029 A 
ATOM     31  N   UNL A   1      38.981  34.614  31.100  1.00  0.00    -0.354 N 
ATOM     32  N   UNL A   1      42.633  32.955  32.712  1.00  0.00    -0.248 NA
ATOM     33  C   UNL A   1      40.910  32.546  34.224  1.00  0.00     0.031 C 
ATOM     34  C   UNL A   1      39.830  34.605  29.096  1.00  0.00     0.029 A 
ATOM     35  C   UNL A   1      40.185  34.539  30.445  1.00  0.00     0.049 A 
ATOM     36  H   UNL A   1      38.817  35.028  31.978  1.00  0.00     0.167 HD
ATOM     37  C   UNL A   1      41.557  33.747  32.350  1.00  0.00     0.074 A 
ATOM     38  C   UNL A   1      40.570  33.541  33.402  1.00  0.00     0.031 C 
ATOM     39  C   UNL A   1      41.453  34.275  31.094  1.00  0.00     0.034 A 
BRANCH  26  40
ATOM     40  C   UNL A   1      36.113  33.568  31.954  1.00  0.00     0.023 A 
ATOM     41  C   UNL A   1      34.878  34.094  31.517  1.00  0.00     0.031 A 
ATOM     42  C   UNL A   1      36.418  33.781  33.316  1.00  0.00     0.131 A 
ATOM     43  C   UNL A   1      34.065  34.854  32.376  1.00  0.00     0.055 A 
ATOM     44  C   UNL A   1      35.568  34.473  34.187  1.00  0.00     0.041 A 
ATOM     45  F   UNL A   1      37.587  33.418  33.857  1.00  0.00    -0.206 F 
ATOM     46  C   UNL A   1      34.399  35.041  33.713  1.00  0.00     0.022 A 
BRANCH  43  47
ATOM     47  S   UNL A   1      32.670  35.770  31.664  1.00  0.00     0.124 S 
ATOM     48  O   UNL A   1      33.131  37.150  31.775  1.00  0.00    -0.237 OA
ATOM     49  O   UNL A   1      32.607  35.218  30.315  1.00  0.00    -0.237 OA
ATOM     50  O   UNL A   1      31.554  35.417  32.537  1.00  0.00    -0.744 OA
ENDBRANCH  43  47
ENDBRANCH  26  40
BRANCH  27  51
ATOM     51  C   UNL A   1      43.066  30.122  35.042  1.00  0.00     0.023 A 
ATOM     52  C   UNL A   1      42.549  28.907  35.522  1.00  0.00     0.031 A 
ATOM     53  C   UNL A   1      44.187  30.654  35.724  1.00  0.00     0.131 A 
ATOM     54  C   UNL A   1      43.131  28.291  36.652  1.00  0.00     0.055 A 
ATOM     55  C   UNL A   1      44.743  30.055  36.853  1.00  0.00     0.041 A 
ATOM     56  F   UNL A   1      44.829  31.741  35.266  1.00  0.00    -0.206 F 
ATOM     57  C   UNL A   1      44.216  28.864  37.321  1.00  0.00     0.022 A 
BRANCH  54  58
ATOM     58  S   UNL A   1      42.539  26.662  37.202  1.00  0.00     0.124 S 
ATOM     59  O   UNL A   1      41.114  26.899  37.390  1.00  0.00    -0.237 OA
ATOM     60  O   UNL A   1      42.913  25.802  36.085  1.00  0.00    -0.237 OA
ATOM     61  O   UNL A   1      43.293  26.426  38.434  1.00  0.00    -0.744 OA
ENDBRANCH  54  58
ENDBRANCH  27  51
BRANCH  39  62
ATOM     62  C   UNL A   1      42.683  34.311  30.216  1.00  0.00     0.023 A 
ATOM     63  C   UNL A   1      42.994  33.327  29.253  1.00  0.00     0.031 A 
ATOM     64  C   UNL A   1      43.483  35.467  30.254  1.00  0.00     0.131 A 
ATOM     65  C   UNL A   1      44.079  33.518  28.378  1.00  0.00     0.055 A 
ATOM     66  C   UNL A   1      44.550  35.659  29.377  1.00  0.00     0.041 A 
ATOM     67  F   UNL A   1      43.208  36.458  31.119  1.00  0.00    -0.206 F 
ATOM     68  C   UNL A   1      44.855  34.680  28.436  1.00  0.00     0.022 A 
BRANCH  65  69
ATOM     69  S   UNL A   1      44.479  32.257  27.127  1.00  0.00     0.124 S 
ATOM     70  O   UNL A   1      43.815  31.060  27.629  1.00  0.00    -0.237 OA
ATOM     71  O   UNL A   1      43.925  32.836  25.906  1.00  0.00    -0.237 OA
ATOM     72  O   UNL A   1      45.943  32.200  27.159  1.00  0.00    -0.744 OA
ENDBRANCH  65  69
ENDBRANCH  39  62
ENDBRANCH  13  14
ENDBRANCH   6   8
ENDBRANCH   5   6
ENDBRANCH   4   5
ENDBRANCH   3   4
ENDBRANCH   2   3
ENDBRANCH   1   2
BRANCH   1  73
ATOM     73  C   UNL A   1      40.055  20.294  26.254  1.00  0.00     0.188 C 
BRANCH  73  74
ATOM     74  O   UNL A   1      39.386  19.547  25.254  1.00  0.00    -0.376 OA
BRANCH  74  75
ATOM     75  C   UNL A   1      38.039  19.865  24.958  1.00  0.00     0.202 C 
BRANCH  75  76
ATOM     76  C   UNL A   1      37.633  21.335  25.088  1.00  0.00     0.261 C 
BRANCH  76  77
ATOM     77  O   UNL A   1      36.239  21.548  24.820  1.00  0.00    -0.458 OA
BRANCH  77  78
ATOM     78  C   UNL A   1      35.917  22.406  23.813  1.00  0.00     0.359 C 
ATOM     79  O   UNL A   1      36.641  22.693  22.856  1.00  0.00    -0.244 OA
BRANCH  78  80
ATOM     80  C   UNL A   1      34.568  22.942  23.959  1.00  0.00     0.174 A 
ATOM     81  N   UNL A   1      34.392  24.270  24.061  1.00  0.00    -0.161 NA
ATOM     82  C   UNL A   1      33.319  22.252  23.973  1.00  0.00     0.008 A 
ATOM     83  N   UNL A   1      33.068  24.443  24.243  1.00  0.00    -0.240 N 
ATOM     84  C   UNL A   1      32.393  23.248  24.229  1.00  0.00     0.119 A 
BRANCH  82  85
ATOM     85  C   UNL A   1      33.019  20.790  23.820  1.00  0.00     0.068 C 
BRANCH  85  86
ATOM     86  C   UNL A   1      32.912  20.025  25.140  1.00  0.00     0.161 C 
BRANCH  86  87
ATOM     87  O   UNL A   1      34.187  19.752  25.702  1.00  0.00    -0.396 OA
ATOM     88  H   UNL A   1      34.689  19.179  25.102  1.00  0.00     0.210 HD
ENDBRANCH  86  87
ENDBRANCH  85  86
ENDBRANCH  82  85
BRANCH  83  89
ATOM     89  C   UNL A   1      32.537  25.751  24.387  1.00  0.00     0.065 A 
ATOM     90  C   UNL A   1      33.386  26.850  24.165  1.00  0.00     0.035 A 
ATOM     91  C   UNL A   1      31.197  25.958  24.741  1.00  0.00     0.035 A 
ATOM     92  C   UNL A   1      32.897  28.152  24.276  1.00  0.00     0.088 A 
ATOM     93  C   UNL A   1      30.713  27.263  24.887  1.00  0.00     0.088 A 
ATOM     94  C   UNL A   1      31.562  28.354  24.644  1.00  0.00     0.269 A 
BRANCH  94  95
ATOM     95  N   UNL A   1      31.053  29.723  24.778  1.00  0.00     0.062 N 
ATOM     96  O   UNL A   1      31.577  30.450  25.636  1.00  0.00    -0.258 OA
ATOM     97  O   UNL A   1      30.135  30.075  24.025  1.00  0.00    -0.258 OA
ENDBRANCH  94  95
ENDBRANCH  83  89
ENDBRANCH  78  80
ENDBRANCH  77  78
ENDBRANCH  76  77
ENDBRANCH  75  76
ENDBRANCH  74  75
ENDBRANCH  73  74
ENDBRANCH   1  73
TORSDOF 25
ENDMDL
MODEL 2
REMARK VINA RESULT:     -10.7      3.850      8.497
REMARK SMILES O=C(OCCOCCOCCOC(=O)c1nn(-c2ccc([N+](=O)[O-])cc2)cc1CCO)c1ccc(-c2c3nc(c(-c4cc(S(=O)(=O)[O-])ccc4F)c4ccc([nH]4)c(-c4cc(S(=O)(=O)[O-])ccc4F)c4nc(c(-c5cc(S(=O)(=O)[O-])ccc5F)c5ccc2[nH]5)C=C4)C=C3)cc1
REMARK SMILES IDX 7 1 6 2 5 3 4 4 3 5 2 6 1 7 32 8 33 9 94 10 34 11 93 12
REMARK SMILES IDX 35 13 36 14 37 15 87 16 38 17 92 18 86 19 88 20 39 21 91 22
REMARK SMILES IDX 85 23 84 24 40 26 72 27 52 28 71 29 53 30 56 31 70 32 89 33
REMARK SMILES IDX 54 34 55 35 69 37 90 38 57 39 41 40 42 41 50 42 43 43 49 44
REMARK SMILES IDX 51 45 48 46 44 47 45 48 46 49 47 50 73 51 74 52 82 53 75 54
REMARK SMILES IDX 81 55 83 56 80 57 76 58 77 59 78 60 79 61 58 62 59 63 67 64
REMARK SMILES IDX 60 65 66 66 68 67 65 68 61 69 62 70 63 71 64 72 8 73 9 74
REMARK SMILES IDX 10 75 11 76 12 77 13 78 14 79 15 80 16 81 28 82 17 83 27 84
REMARK SMILES IDX 29 85 30 86 31 87 18 89 19 90 26 91 20 92 25 93 21 94 22 95
REMARK SMILES IDX 23 96 24 97
REMARK H PARENT 88 25 56 36 31 88
REMARK Flexibility Score: inf
ROOT
ATOM      1  C   UNL A   1      32.854  27.763  25.987  1.00  0.00     0.188 C 
ENDROOT
BRANCH   1   2
ATOM      2  O   UNL A   1      33.000  28.809  26.932  1.00  0.00    -0.376 OA
BRANCH   2   3
ATOM      3  C   UNL A   1      33.465  30.097  26.574  1.00  0.00     0.202 C 
BRANCH   3   4
ATOM      4  C   UNL A   1      33.965  31.075  27.639  1.00  0.00     0.261 C 
BRANCH   4   5
ATOM      5  O   UNL A   1      35.226  31.671  27.334  1.00  0.00    -0.460 OA
BRANCH   5   6
ATOM      6  C   UNL A   1      36.190  32.183  28.125  1.00  0.00     0.338 C 
ATOM      7  O   UNL A   1      36.267  33.410  28.197  1.00  0.00    -0.246 OA
BRANCH   6   8
ATOM      8  C   UNL A   1      37.250  31.386  28.818  1.00  0.00     0.060 A 
ATOM      9  C   UNL A   1      38.439  31.869  29.367  1.00  0.00     0.016 A 
ATOM     10  C   UNL A   1      37.013  29.997  28.885  1.00  0.00     0.016 A 
ATOM     11  C   UNL A   1      39.429  30.991  29.796  1.00  0.00     0.010 A 
ATOM     12  C   UNL A   1      37.981  29.117  29.362  1.00  0.00     0.010 A 
ATOM     13  C   UNL A   1      39.224  29.614  29.738  1.00  0.00    -0.014 A 
BRANCH  13  14
ATOM     14  C   UNL A   1      40.377  28.756  29.999  1.00  0.00     0.031 A 
ATOM     15  C   UNL A   1      40.835  28.602  31.406  1.00  0.00     0.074 A 
ATOM     16  C   UNL A   1      41.012  28.085  29.018  1.00  0.00     0.049 A 
ATOM     17  N   UNL A   1      41.994  28.882  31.908  1.00  0.00    -0.248 NA
ATOM     18  C   UNL A   1      39.865  28.105  32.388  1.00  0.00     0.031 C 
ATOM     19  C   UNL A   1      40.572  27.896  27.633  1.00  0.00     0.029 A 
ATOM     20  N   UNL A   1      42.149  27.333  29.095  1.00  0.00    -0.354 N 
ATOM     21  C   UNL A   1      41.974  28.425  33.224  1.00  0.00     0.074 A 
ATOM     22  C   UNL A   1      40.607  28.057  33.495  1.00  0.00     0.031 C 
ATOM     23  C   UNL A   1      41.295  26.905  27.072  1.00  0.00     0.029 A 
ATOM     24  C   UNL A   1      42.335  26.500  28.004  1.00  0.00     0.049 A 
ATOM     25  H   UNL A   1      42.776  27.379  29.851  1.00  0.00     0.167 HD
ATOM     26  C   UNL A   1      43.116  28.239  33.946  1.00  0.00     0.034 A 
ATOM     27  C   UNL A   1      43.225  25.489  27.885  1.00  0.00     0.034 A 
ATOM     28  C   UNL A   1      44.222  28.983  33.394  1.00  0.00     0.049 A 
ATOM     29  C   UNL A   1      44.345  25.754  28.816  1.00  0.00     0.074 A 
ATOM     30  C   UNL A   1      44.467  30.321  33.148  1.00  0.00     0.029 A 
ATOM     31  N   UNL A   1      45.217  28.304  32.732  1.00  0.00    -0.354 N 
ATOM     32  N   UNL A   1      45.167  26.761  28.695  1.00  0.00    -0.248 NA
ATOM     33  C   UNL A   1      44.345  25.114  30.122  1.00  0.00     0.031 C 
ATOM     34  C   UNL A   1      45.282  30.345  31.980  1.00  0.00     0.029 A 
ATOM     35  C   UNL A   1      45.502  29.021  31.598  1.00  0.00     0.049 A 
ATOM     36  H   UNL A   1      45.642  27.463  33.017  1.00  0.00     0.167 HD
ATOM     37  C   UNL A   1      45.475  27.133  29.992  1.00  0.00     0.074 A 
ATOM     38  C   UNL A   1      45.053  26.008  30.816  1.00  0.00     0.031 C 
ATOM     39  C   UNL A   1      45.785  28.427  30.306  1.00  0.00     0.034 A 
BRANCH  26  40
ATOM     40  C   UNL A   1      43.321  27.178  35.010  1.00  0.00     0.023 A 
ATOM     41  C   UNL A   1      44.059  26.027  34.659  1.00  0.00     0.031 A 
ATOM     42  C   UNL A   1      42.619  27.102  36.232  1.00  0.00     0.131 A 
ATOM     43  C   UNL A   1      44.010  24.862  35.446  1.00  0.00     0.055 A 
ATOM     44  C   UNL A   1      42.635  25.966  37.050  1.00  0.00     0.041 A 
ATOM     45  F   UNL A   1      41.807  28.078  36.658  1.00  0.00    -0.206 F 
ATOM     46  C   UNL A   1      43.307  24.827  36.645  1.00  0.00     0.022 A 
BRANCH  43  47
ATOM     47  S   UNL A   1      44.707  23.329  34.769  1.00  0.00     0.124 S 
ATOM     48  O   UNL A   1      43.510  22.642  34.294  1.00  0.00    -0.237 OA
ATOM     49  O   UNL A   1      45.609  23.839  33.742  1.00  0.00    -0.237 OA
ATOM     50  O   UNL A   1      45.357  22.716  35.924  1.00  0.00    -0.744 OA
ENDBRANCH  43  47
ENDBRANCH  26  40
BRANCH  27  51
ATOM     51  C   UNL A   1      42.961  24.192  27.219  1.00  0.00     0.023 A 
ATOM     52  C   UNL A   1      43.886  23.579  26.356  1.00  0.00     0.031 A 
ATOM     53  C   UNL A   1      41.829  23.426  27.590  1.00  0.00     0.131 A 
ATOM     54  C   UNL A   1      43.648  22.271  25.882  1.00  0.00     0.055 A 
ATOM     55  C   UNL A   1      41.586  22.144  27.101  1.00  0.00     0.041 A 
ATOM     56  F   UNL A   1      40.955  23.875  28.507  1.00  0.00    -0.206 F 
ATOM     57  C   UNL A   1      42.501  21.558  26.244  1.00  0.00     0.022 A 
BRANCH  54  58
ATOM     58  S   UNL A   1      44.900  21.434  24.864  1.00  0.00     0.124 S 
ATOM     59  O   UNL A   1      44.644  20.028  25.153  1.00  0.00    -0.237 OA
ATOM     60  O   UNL A   1      44.566  21.892  23.520  1.00  0.00    -0.237 OA
ATOM     61  O   UNL A   1      46.165  21.951  25.389  1.00  0.00    -0.744 OA
ENDBRANCH  54  58
ENDBRANCH  27  51
BRANCH  39  62
ATOM     62  C   UNL A   1      46.156  29.378  29.191  1.00  0.00     0.023 A 
ATOM     63  C   UNL A   1      45.216  30.077  28.405  1.00  0.00     0.031 A 
ATOM     64  C   UNL A   1      47.516  29.698  29.028  1.00  0.00     0.131 A 
ATOM     65  C   UNL A   1      45.653  31.054  27.490  1.00  0.00     0.055 A 
ATOM     66  C   UNL A   1      47.945  30.675  28.130  1.00  0.00     0.041 A 
ATOM     67  F   UNL A   1      48.452  29.097  29.781  1.00  0.00    -0.206 F 
ATOM     68  C   UNL A   1      47.012  31.355  27.353  1.00  0.00     0.022 A 
BRANCH  65  69
ATOM     69  S   UNL A   1      44.445  31.968  26.481  1.00  0.00     0.124 S 
ATOM     70  O   UNL A   1      43.423  30.969  26.189  1.00  0.00    -0.237 OA
ATOM     71  O   UNL A   1      44.047  33.054  27.371  1.00  0.00    -0.237 OA
ATOM     72  O   UNL A   1      45.228  32.394  25.318  1.00  0.00    -0.744 OA
ENDBRANCH  65  69
ENDBRANCH  39  62
ENDBRANCH  13  14
ENDBRANCH   6   8
ENDBRANCH   5   6
ENDBRANCH   4   5
ENDBRANCH   3   4
ENDBRANCH   2   3
ENDBRANCH   1   2
BRANCH   1  73
ATOM     73  C   UNL A   1      33.595  26.411  26.080  1.00  0.00     0.188 C 
BRANCH  73  74
ATOM     74  O   UNL A   1      34.343  25.930  24.978  1.00  0.00    -0.376 OA
BRANCH  74  75
ATOM     75  C   UNL A   1      34.883  24.623  25.043  1.00  0.00     0.202 C 
BRANCH  75  76
ATOM     76  C   UNL A   1      35.033  23.873  23.719  1.00  0.00     0.261 C 
BRANCH  76  77
ATOM     77  O   UNL A   1      33.818  23.225  23.312  1.00  0.00    -0.458 OA
BRANCH  77  78
ATOM     78  C   UNL A   1      33.035  23.872  22.406  1.00  0.00     0.359 C 
ATOM     79  O   UNL A   1      33.160  23.816  21.180  1.00  0.00    -0.244 OA
BRANCH  78  80
ATOM     80  C   UNL A   1      31.967  24.632  23.046  1.00  0.00     0.174 A 
ATOM     81  N   UNL A   1      31.551  25.782  22.493  1.00  0.00    -0.161 NA
ATOM     82  C   UNL A   1      31.212  24.319  24.217  1.00  0.00     0.008 A 
ATOM     83  N   UNL A   1      30.617  26.269  23.334  1.00  0.00    -0.240 N 
ATOM     84  C   UNL A   1      30.411  25.431  24.402  1.00  0.00     0.119 A 
BRANCH  82  85
ATOM     85  C   UNL A   1      31.273  23.119  25.116  1.00  0.00     0.068 C 
BRANCH  85  86
ATOM     86  C   UNL A   1      31.005  23.420  26.591  1.00  0.00     0.161 C 
BRANCH  86  87
ATOM     87  O   UNL A   1      29.627  23.648  26.847  1.00  0.00    -0.396 OA
ATOM     88  H   UNL A   1      29.398  23.298  27.722  1.00  0.00     0.210 HD
ENDBRANCH  86  87
ENDBRANCH  85  86
ENDBRANCH  82  85
BRANCH  83  89
ATOM     89  C   UNL A   1      29.965  27.494  23.038  1.00  0.00     0.065 A 
ATOM     90  C   UNL A   1      28.578  27.585  23.245  1.00  0.00     0.035 A 
ATOM     91  C   UNL A   1      30.677  28.599  22.552  1.00  0.00     0.035 A 
ATOM     92  C   UNL A   1      27.904  28.779  22.987  1.00  0.00     0.088 A 
ATOM     93  C   UNL A   1      29.998  29.786  22.259  1.00  0.00     0.088 A 
ATOM     94  C   UNL A   1      28.616  29.874  22.487  1.00  0.00     0.269 A 
BRANCH  94  95
ATOM     95  N   UNL A   1      27.904  31.124  22.198  1.00  0.00     0.062 N 
ATOM     96  O   UNL A   1      27.291  31.666  23.131  1.00  0.00    -0.258 OA
ATOM     97  O   UNL A   1      27.961  31.568  21.043  1.00  0.00    -0.258 OA
ENDBRANCH  94  95
ENDBRANCH  83  89
ENDBRANCH  78  80
ENDBRANCH  77  78
ENDBRANCH  76  77
ENDBRANCH  75  76
ENDBRANCH  74  75
ENDBRANCH  73  74
ENDBRANCH   1  73
TORSDOF 25
ENDMDL
MODEL 3
REMARK VINA RESULT:     -10.0      2.405      4.335
REMARK SMILES O=C(OCCOCCOCCOC(=O)c1nn(-c2ccc([N+](=O)[O-])cc2)cc1CCO)c1ccc(-c2c3nc(c(-c4cc(S(=O)(=O)[O-])ccc4F)c4ccc([nH]4)c(-c4cc(S(=O)(=O)[O-])ccc4F)c4nc(c(-c5cc(S(=O)(=O)[O-])ccc5F)c5ccc2[nH]5)C=C4)C=C3)cc1
REMARK SMILES IDX 7 1 6 2 5 3 4 4 3 5 2 6 1 7 32 8 33 9 94 10 34 11 93 12
REMARK SMILES IDX 35 13 36 14 37 15 87 16 38 17 92 18 86 19 88 20 39 21 91 22
REMARK SMILES IDX 85 23 84 24 40 26 72 27 52 28 71 29 53 30 56 31 70 32 89 33
REMARK SMILES IDX 54 34 55 35 69 37 90 38 57 39 41 40 42 41 50 42 43 43 49 44
REMARK SMILES IDX 51 45 48 46 44 47 45 48 46 49 47 50 73 51 74 52 82 53 75 54
REMARK SMILES IDX 81 55 83 56 80 57 76 58 77 59 78 60 79 61 58 62 59 63 67 64
REMARK SMILES IDX 60 65 66 66 68 67 65 68 61 69 62 70 63 71 64 72 8 73 9 74
REMARK SMILES IDX 10 75 11 76 12 77 13 78 14 79 15 80 16 81 28 82 17 83 27 84
REMARK SMILES IDX 29 85 30 86 31 87 18 89 19 90 26 91 20 92 25 93 21 94 22 95
REMARK SMILES IDX 23 96 24 97
REMARK H PARENT 88 25 56 36 31 88
REMARK Flexibility Score: inf
ROOT
ATOM      1  C   UNL A   1      34.877  21.786  24.978  1.00  0.00     0.188 C 
ENDROOT
BRANCH   1   2
ATOM      2  O   UNL A   1      35.868  21.641  25.981  1.00  0.00    -0.376 OA
BRANCH   2   3
ATOM      3  C   UNL A   1      37.244  21.848  25.725  1.00  0.00     0.202 C 
BRANCH   3   4
ATOM      4  C   UNL A   1      37.779  23.243  25.395  1.00  0.00     0.261 C 
BRANCH   4   5
ATOM      5  O   UNL A   1      38.149  24.009  26.542  1.00  0.00    -0.460 OA
BRANCH   5   6
ATOM      6  C   UNL A   1      39.295  24.641  26.865  1.00  0.00     0.338 C 
ATOM      7  O   UNL A   1      40.351  24.089  26.551  1.00  0.00    -0.246 OA
BRANCH   6   8
ATOM      8  C   UNL A   1      39.391  25.889  27.685  1.00  0.00     0.060 A 
ATOM      9  C   UNL A   1      39.908  27.120  27.282  1.00  0.00     0.016 A 
ATOM     10  C   UNL A   1      38.928  25.774  29.014  1.00  0.00     0.016 A 
ATOM     11  C   UNL A   1      40.126  28.134  28.209  1.00  0.00     0.010 A 
ATOM     12  C   UNL A   1      39.097  26.806  29.933  1.00  0.00     0.010 A 
ATOM     13  C   UNL A   1      39.777  27.956  29.546  1.00  0.00    -0.014 A 
BRANCH  13  14
ATOM     14  C   UNL A   1      40.229  28.969  30.495  1.00  0.00     0.031 A 
ATOM     15  C   UNL A   1      39.244  29.979  30.968  1.00  0.00     0.074 A 
ATOM     16  C   UNL A   1      41.489  28.998  30.972  1.00  0.00     0.049 A 
ATOM     17  N   UNL A   1      39.300  31.267  30.860  1.00  0.00    -0.248 NA
ATOM     18  C   UNL A   1      38.022  29.488  31.615  1.00  0.00     0.031 C 
ATOM     19  C   UNL A   1      42.521  27.966  30.839  1.00  0.00     0.029 A 
ATOM     20  N   UNL A   1      42.076  29.931  31.778  1.00  0.00    -0.354 N 
ATOM     21  C   UNL A   1      38.223  31.771  31.586  1.00  0.00     0.074 A 
ATOM     22  C   UNL A   1      37.413  30.631  31.935  1.00  0.00     0.031 C 
ATOM     23  C   UNL A   1      43.510  28.215  31.721  1.00  0.00     0.029 A 
ATOM     24  C   UNL A   1      43.251  29.490  32.366  1.00  0.00     0.049 A 
ATOM     25  H   UNL A   1      41.703  30.829  31.925  1.00  0.00     0.167 HD
ATOM     26  C   UNL A   1      38.157  33.075  31.978  1.00  0.00     0.034 A 
ATOM     27  C   UNL A   1      43.937  30.081  33.371  1.00  0.00     0.034 A 
ATOM     28  C   UNL A   1      39.027  33.913  31.188  1.00  0.00     0.049 A 
ATOM     29  C   UNL A   1      43.603  31.523  33.366  1.00  0.00     0.074 A 
ATOM     30  C   UNL A   1      39.131  34.209  29.842  1.00  0.00     0.029 A 
ATOM     31  N   UNL A   1      40.178  34.401  31.758  1.00  0.00    -0.354 N 
ATOM     32  N   UNL A   1      43.923  32.339  32.399  1.00  0.00    -0.248 NA
ATOM     33  C   UNL A   1      42.575  32.014  34.270  1.00  0.00     0.031 C 
ATOM     34  C   UNL A   1      40.522  34.414  29.609  1.00  0.00     0.029 A 
ATOM     35  C   UNL A   1      41.178  34.249  30.830  1.00  0.00     0.049 A 
ATOM     36  H   UNL A   1      40.269  34.785  32.660  1.00  0.00     0.167 HD
ATOM     37  C   UNL A   1      42.876  33.242  32.327  1.00  0.00     0.074 A 
ATOM     38  C   UNL A   1      42.152  33.076  33.581  1.00  0.00     0.031 C 
ATOM     39  C   UNL A   1      42.531  33.839  31.148  1.00  0.00     0.034 A 
BRANCH  26  40
ATOM     40  C   UNL A   1      37.505  33.579  33.250  1.00  0.00     0.023 A 
ATOM     41  C   UNL A   1      38.135  33.281  34.477  1.00  0.00     0.031 A 
ATOM     42  C   UNL A   1      36.190  34.083  33.348  1.00  0.00     0.131 A 
ATOM     43  C   UNL A   1      37.448  33.400  35.698  1.00  0.00     0.055 A 
ATOM     44  C   UNL A   1      35.536  34.273  34.571  1.00  0.00     0.041 A 
ATOM     45  F   UNL A   1      35.432  34.332  32.273  1.00  0.00    -0.206 F 
ATOM     46  C   UNL A   1      36.152  33.902  35.754  1.00  0.00     0.022 A 
BRANCH  43  47
ATOM     47  S   UNL A   1      38.199  32.690  37.189  1.00  0.00     0.124 S 
ATOM     48  O   UNL A   1      37.318  31.558  37.458  1.00  0.00    -0.237 OA
ATOM     49  O   UNL A   1      39.542  32.365  36.721  1.00  0.00    -0.237 OA
ATOM     50  O   UNL A   1      38.121  33.780  38.158  1.00  0.00    -0.744 OA
ENDBRANCH  43  47
ENDBRANCH  26  40
BRANCH  27  51
ATOM     51  C   UNL A   1      44.610  29.367  34.481  1.00  0.00     0.023 A 
ATOM     52  C   UNL A   1      43.934  28.478  35.333  1.00  0.00     0.031 A 
ATOM     53  C   UNL A   1      46.021  29.413  34.595  1.00  0.00     0.131 A 
ATOM     54  C   UNL A   1      44.661  27.705  36.265  1.00  0.00     0.055 A 
ATOM     55  C   UNL A   1      46.732  28.666  35.532  1.00  0.00     0.041 A 
ATOM     56  F   UNL A   1      46.765  30.136  33.741  1.00  0.00    -0.206 F 
ATOM     57  C   UNL A   1      46.051  27.802  36.372  1.00  0.00     0.022 A 
BRANCH  54  58
ATOM     58  S   UNL A   1      43.800  26.469  37.284  1.00  0.00     0.124 S 
ATOM     59  O   UNL A   1      43.971  25.251  36.501  1.00  0.00    -0.237 OA
ATOM     60  O   UNL A   1      44.532  26.540  38.544  1.00  0.00    -0.237 OA
ATOM     61  O   UNL A   1      42.428  26.975  37.345  1.00  0.00    -0.744 OA
ENDBRANCH  54  58
ENDBRANCH  27  51
BRANCH  39  62
ATOM     62  C   UNL A   1      43.515  33.806  30.000  1.00  0.00     0.023 A 
ATOM     63  C   UNL A   1      43.682  32.703  29.136  1.00  0.00     0.031 A 
ATOM     64  C   UNL A   1      44.193  34.997  29.683  1.00  0.00     0.131 A 
ATOM     65  C   UNL A   1      44.512  32.816  28.005  1.00  0.00     0.055 A 
ATOM     66  C   UNL A   1      45.006  35.109  28.555  1.00  0.00     0.041 A 
ATOM     67  F   UNL A   1      44.037  36.093  30.444  1.00  0.00    -0.206 F 
ATOM     68  C   UNL A   1      45.171  34.014  27.712  1.00  0.00     0.022 A 
BRANCH  65  69
ATOM     69  S   UNL A   1      44.724  31.401  26.880  1.00  0.00     0.124 S 
ATOM     70  O   UNL A   1      45.802  30.636  27.497  1.00  0.00    -0.237 OA
ATOM     71  O   UNL A   1      43.402  30.780  26.901  1.00  0.00    -0.237 OA
ATOM     72  O   UNL A   1      45.077  32.030  25.605  1.00  0.00    -0.744 OA
ENDBRANCH  65  69
ENDBRANCH  39  62
ENDBRANCH  13  14
ENDBRANCH   6   8
ENDBRANCH   5   6
ENDBRANCH   4   5
ENDBRANCH   3   4
ENDBRANCH   2   3
ENDBRANCH   1   2
BRANCH   1  73
ATOM     73  C   UNL A   1      34.136  23.109  24.684  1.00  0.00     0.188 C 
BRANCH  73  74
ATOM     74  O   UNL A   1      32.997  23.117  23.843  1.00  0.00    -0.376 OA
BRANCH  74  75
ATOM     75  C   UNL A   1      33.000  23.959  22.705  1.00  0.00     0.202 C 
BRANCH  75  76
ATOM     76  C   UNL A   1      32.301  25.313  22.848  1.00  0.00     0.261 C 
BRANCH  76  77
ATOM     77  O   UNL A   1      30.967  25.193  23.362  1.00  0.00    -0.458 OA
BRANCH  77  78
ATOM     78  C   UNL A   1      30.726  25.692  24.606  1.00  0.00     0.359 C 
ATOM     79  O   UNL A   1      30.278  25.053  25.561  1.00  0.00    -0.244 OA
BRANCH  78  80
ATOM     80  C   UNL A   1      31.100  27.098  24.716  1.00  0.00     0.174 A 
ATOM     81  N   UNL A   1      32.003  27.471  25.637  1.00  0.00    -0.161 NA
ATOM     82  C   UNL A   1      30.672  28.211  23.930  1.00  0.00     0.008 A 
ATOM     83  N   UNL A   1      32.089  28.813  25.533  1.00  0.00    -0.240 N 
ATOM     84  C   UNL A   1      31.277  29.296  24.537  1.00  0.00     0.119 A 
BRANCH  82  85
ATOM     85  C   UNL A   1      29.739  28.265  22.757  1.00  0.00     0.068 C 
BRANCH  85  86
ATOM     86  C   UNL A   1      29.473  29.675  22.226  1.00  0.00     0.161 C 
BRANCH  86  87
ATOM     87  O   UNL A   1      30.474  30.098  21.312  1.00  0.00    -0.396 OA
ATOM     88  H   UNL A   1      30.295  31.010  21.035  1.00  0.00     0.210 HD
ENDBRANCH  86  87
ENDBRANCH  85  86
ENDBRANCH  82  85
BRANCH  83  89
ATOM     89  C   UNL A   1      32.970  29.534  26.378  1.00  0.00     0.065 A 
ATOM     90  C   UNL A   1      32.612  30.836  26.770  1.00  0.00     0.035 A 
ATOM     91  C   UNL A   1      34.175  28.973  26.823  1.00  0.00     0.035 A 
ATOM     92  C   UNL A   1      33.441  31.570  27.619  1.00  0.00     0.088 A 
ATOM     93  C   UNL A   1      35.026  29.721  27.645  1.00  0.00     0.088 A 
ATOM     94  C   UNL A   1      34.650  31.011  28.048  1.00  0.00     0.269 A 
BRANCH  94  95
ATOM     95  N   UNL A   1      35.531  31.791  28.925  1.00  0.00     0.062 N 
ATOM     96  O   UNL A   1      36.674  32.044  28.515  1.00  0.00    -0.258 OA
ATOM     97  O   UNL A   1      35.081  32.155  30.019  1.00  0.00    -0.258 OA
ENDBRANCH  94  95
ENDBRANCH  83  89
ENDBRANCH  78  80
ENDBRANCH  77  78
ENDBRANCH  76  77
ENDBRANCH  75  76
ENDBRANCH  74  75
ENDBRANCH  73  74
ENDBRANCH   1  73
TORSDOF 25
ENDMDL
