MODEL 1
REMARK VINA RESULT:     -11.4      0.000      0.000
REMARK SMILES O=C(OCCOCCOCCOC(=O)c1cccc(NC(=O)c2cc3ccccc3[nH]2)c1)c1ccc(-c2c3nc(c(-c4cc(S(=O)(=O)[O-])ccc4F)c4ccc([nH]4)c(-c4cc(S(=O)(=O)[O-])ccc4F)c4nc(c(-c5cc(S(=O)(=O)[O-])ccc5F)c5ccc2[nH]5)C=C4)C=C3)cc1
REMARK SMILES IDX 7 1 6 2 5 3 4 4 3 5 2 6 1 7 33 8 34 9 95 10 35 11 94 12
REMARK SMILES IDX 36 13 37 14 38 15 88 16 39 17 93 18 87 19 89 20 40 21 92 22
REMARK SMILES IDX 86 23 85 24 41 26 73 27 53 28 72 29 54 30 57 31 71 32 90 33
REMARK SMILES IDX 55 34 56 35 70 37 91 38 58 39 42 40 43 41 51 42 44 43 50 44
REMARK SMILES IDX 52 45 49 46 45 47 46 48 47 49 48 50 74 51 75 52 83 53 76 54
REMARK SMILES IDX 82 55 84 56 81 57 77 58 78 59 79 60 80 61 59 62 60 63 68 64
REMARK SMILES IDX 61 65 67 66 69 67 66 68 62 69 63 70 64 71 65 72 8 73 9 74
REMARK SMILES IDX 10 75 11 76 12 77 13 78 14 79 15 80 16 81 32 82 17 83 19 84
REMARK SMILES IDX 18 85 20 86 21 87 22 89 23 90 24 91 31 92 25 93 30 94 26 96
REMARK SMILES IDX 29 97 27 98 28 99
REMARK H PARENT 89 25 57 36 20 88 31 95
REMARK Flexibility Score: inf
ROOT
ATOM      1  C   UNL A   1      35.819  23.037  24.345  1.00  0.00     0.188 C 
ENDROOT
BRANCH   1   2
ATOM      2  O   UNL A   1      36.753  22.015  24.001  1.00  0.00    -0.376 OA
BRANCH   2   3
ATOM      3  C   UNL A   1      36.704  20.888  24.889  1.00  0.00     0.202 C 
BRANCH   3   4
ATOM      4  C   UNL A   1      37.802  19.814  24.695  1.00  0.00     0.261 C 
BRANCH   4   5
ATOM      5  O   UNL A   1      38.696  19.647  25.822  1.00  0.00    -0.460 OA
BRANCH   5   6
ATOM      6  C   UNL A   1      39.962  20.050  26.069  1.00  0.00     0.338 C 
ATOM      7  O   UNL A   1      40.875  19.237  25.942  1.00  0.00    -0.246 OA
BRANCH   6   8
ATOM      8  C   UNL A   1      40.302  21.413  26.562  1.00  0.00     0.060 A 
ATOM      9  C   UNL A   1      39.635  22.568  26.172  1.00  0.00     0.016 A 
ATOM     10  C   UNL A   1      41.300  21.527  27.547  1.00  0.00     0.016 A 
ATOM     11  C   UNL A   1      40.015  23.819  26.644  1.00  0.00     0.010 A 
ATOM     12  C   UNL A   1      41.652  22.777  28.071  1.00  0.00     0.010 A 
ATOM     13  C   UNL A   1      41.037  23.937  27.584  1.00  0.00    -0.014 A 
BRANCH  13  14
ATOM     14  C   UNL A   1      41.544  25.291  27.903  1.00  0.00     0.031 A 
ATOM     15  C   UNL A   1      42.929  25.656  27.453  1.00  0.00     0.074 A 
ATOM     16  C   UNL A   1      40.732  26.222  28.435  1.00  0.00     0.049 A 
ATOM     17  N   UNL A   1      43.595  26.764  27.636  1.00  0.00    -0.248 NA
ATOM     18  C   UNL A   1      43.651  24.638  26.674  1.00  0.00     0.031 C 
ATOM     19  C   UNL A   1      39.323  26.017  28.778  1.00  0.00     0.029 A 
ATOM     20  N   UNL A   1      40.959  27.537  28.748  1.00  0.00    -0.354 N 
ATOM     21  C   UNL A   1      44.814  26.580  26.992  1.00  0.00     0.074 A 
ATOM     22  C   UNL A   1      44.810  25.237  26.453  1.00  0.00     0.031 C 
ATOM     23  C   UNL A   1      38.810  27.172  29.231  1.00  0.00     0.029 A 
ATOM     24  C   UNL A   1      39.865  28.174  29.285  1.00  0.00     0.049 A 
ATOM     25  H   UNL A   1      41.825  27.983  28.603  1.00  0.00     0.167 HD
ATOM     26  C   UNL A   1      45.837  27.457  26.855  1.00  0.00     0.034 A 
ATOM     27  C   UNL A   1      39.742  29.410  29.806  1.00  0.00     0.034 A 
ATOM     28  C   UNL A   1      45.826  28.781  27.424  1.00  0.00     0.049 A 
ATOM     29  C   UNL A   1      40.958  30.290  29.831  1.00  0.00     0.074 A 
ATOM     30  C   UNL A   1      46.826  29.736  27.422  1.00  0.00     0.029 A 
ATOM     31  N   UNL A   1      44.750  29.334  28.110  1.00  0.00    -0.354 N 
ATOM     32  N   UNL A   1      42.147  30.065  29.322  1.00  0.00    -0.248 NA
ATOM     33  C   UNL A   1      40.820  31.578  30.517  1.00  0.00     0.031 C 
ATOM     34  C   UNL A   1      46.377  30.841  28.157  1.00  0.00     0.029 A 
ATOM     35  C   UNL A   1      45.072  30.604  28.559  1.00  0.00     0.049 A 
ATOM     36  H   UNL A   1      43.884  28.887  28.255  1.00  0.00     0.167 HD
ATOM     37  C   UNL A   1      42.896  31.199  29.607  1.00  0.00     0.074 A 
ATOM     38  C   UNL A   1      42.020  32.105  30.327  1.00  0.00     0.031 C 
ATOM     39  C   UNL A   1      44.187  31.475  29.294  1.00  0.00     0.034 A 
BRANCH  26  40
ATOM     40  C   UNL A   1      47.061  26.959  26.131  1.00  0.00     0.023 A 
ATOM     41  C   UNL A   1      48.072  26.241  26.796  1.00  0.00     0.031 A 
ATOM     42  C   UNL A   1      47.268  27.292  24.782  1.00  0.00     0.131 A 
ATOM     43  C   UNL A   1      49.278  25.957  26.137  1.00  0.00     0.055 A 
ATOM     44  C   UNL A   1      48.437  26.935  24.107  1.00  0.00     0.041 A 
ATOM     45  F   UNL A   1      46.353  28.004  24.106  1.00  0.00    -0.206 F 
ATOM     46  C   UNL A   1      49.458  26.280  24.790  1.00  0.00     0.022 A 
BRANCH  43  47
ATOM     47  S   UNL A   1      50.668  25.312  27.109  1.00  0.00     0.124 S 
ATOM     48  O   UNL A   1      51.044  26.483  27.897  1.00  0.00    -0.237 OA
ATOM     49  O   UNL A   1      50.055  24.216  27.850  1.00  0.00    -0.237 OA
ATOM     50  O   UNL A   1      51.641  24.913  26.094  1.00  0.00    -0.744 OA
ENDBRANCH  43  47
ENDBRANCH  26  40
BRANCH  27  51
ATOM     51  C   UNL A   1      38.487  29.844  30.480  1.00  0.00     0.023 A 
ATOM     52  C   UNL A   1      37.522  30.634  29.838  1.00  0.00     0.031 A 
ATOM     53  C   UNL A   1      38.303  29.553  31.840  1.00  0.00     0.131 A 
ATOM     54  C   UNL A   1      36.428  31.129  30.571  1.00  0.00     0.055 A 
ATOM     55  C   UNL A   1      37.192  30.009  32.548  1.00  0.00     0.041 A 
ATOM     56  F   UNL A   1      39.226  28.835  32.497  1.00  0.00    -0.206 F 
ATOM     57  C   UNL A   1      36.249  30.809  31.917  1.00  0.00     0.022 A 
BRANCH  54  58
ATOM     58  S   UNL A   1      35.277  32.274  29.766  1.00  0.00     0.124 S 
ATOM     59  O   UNL A   1      36.181  33.310  29.281  1.00  0.00    -0.237 OA
ATOM     60  O   UNL A   1      34.669  31.423  28.748  1.00  0.00    -0.237 OA
ATOM     61  O   UNL A   1      34.383  32.680  30.848  1.00  0.00    -0.744 OA
ENDBRANCH  54  58
ENDBRANCH  27  51
BRANCH  39  62
ATOM     62  C   UNL A   1      44.688  32.836  29.689  1.00  0.00     0.023 A 
ATOM     63  C   UNL A   1      44.578  33.939  28.827  1.00  0.00     0.031 A 
ATOM     64  C   UNL A   1      45.330  33.013  30.926  1.00  0.00     0.131 A 
ATOM     65  C   UNL A   1      45.162  35.160  29.189  1.00  0.00     0.055 A 
ATOM     66  C   UNL A   1      45.855  34.246  31.306  1.00  0.00     0.041 A 
ATOM     67  F   UNL A   1      45.466  31.984  31.779  1.00  0.00    -0.206 F 
ATOM     68  C   UNL A   1      45.786  35.326  30.429  1.00  0.00     0.022 A 
BRANCH  65  69
ATOM     69  S   UNL A   1      45.184  36.505  27.972  1.00  0.00     0.124 S 
ATOM     70  O   UNL A   1      45.057  35.775  26.714  1.00  0.00    -0.237 OA
ATOM     71  O   UNL A   1      44.028  37.302  28.366  1.00  0.00    -0.237 OA
ATOM     72  O   UNL A   1      46.481  37.143  28.191  1.00  0.00    -0.744 OA
ENDBRANCH  65  69
ENDBRANCH  39  62
ENDBRANCH  13  14
ENDBRANCH   6   8
ENDBRANCH   5   6
ENDBRANCH   4   5
ENDBRANCH   3   4
ENDBRANCH   2   3
ENDBRANCH   1   2
BRANCH   1  73
ATOM     73  C   UNL A   1      35.008  23.667  23.204  1.00  0.00     0.188 C 
BRANCH  73  74
ATOM     74  O   UNL A   1      34.034  24.669  23.434  1.00  0.00    -0.376 OA
BRANCH  74  75
ATOM     75  C   UNL A   1      33.772  25.632  22.432  1.00  0.00     0.202 C 
BRANCH  75  76
ATOM     76  C   UNL A   1      32.483  25.520  21.614  1.00  0.00     0.261 C 
BRANCH  76  77
ATOM     77  O   UNL A   1      31.265  25.516  22.366  1.00  0.00    -0.460 OA
BRANCH  77  78
ATOM     78  C   UNL A   1      30.853  26.753  22.724  1.00  0.00     0.338 C 
ATOM     79  O   UNL A   1      30.520  27.673  21.985  1.00  0.00    -0.246 OA
BRANCH  78  80
ATOM     80  C   UNL A   1      30.996  26.923  24.170  1.00  0.00     0.062 A 
ATOM     81  C   UNL A   1      31.209  28.179  24.746  1.00  0.00     0.016 A 
ATOM     82  C   UNL A   1      31.078  25.761  24.934  1.00  0.00     0.041 A 
ATOM     83  C   UNL A   1      31.531  28.263  26.103  1.00  0.00     0.003 A 
ATOM     84  C   UNL A   1      31.451  25.856  26.270  1.00  0.00     0.042 A 
ATOM     85  C   UNL A   1      31.674  27.099  26.861  1.00  0.00     0.026 A 
BRANCH  84  86
ATOM     86  N   UNL A   1      31.676  24.662  26.979  1.00  0.00    -0.321 N 
ATOM     87  C   UNL A   1      31.165  23.510  26.431  1.00  0.00     0.272 C 
ATOM     88  H   UNL A   1      32.176  24.652  27.829  1.00  0.00     0.170 HD
ATOM     89  O   UNL A   1      29.984  23.211  26.614  1.00  0.00    -0.267 OA
BRANCH  87  90
ATOM     90  C   UNL A   1      32.094  22.594  25.837  1.00  0.00     0.105 A 
ATOM     91  C   UNL A   1      32.890  21.574  26.331  1.00  0.00     0.042 A 
ATOM     92  N   UNL A   1      32.179  22.509  24.466  1.00  0.00    -0.351 N 
ATOM     93  C   UNL A   1      32.959  20.605  25.280  1.00  0.00     0.000 A 
ATOM     94  C   UNL A   1      32.422  21.200  24.139  1.00  0.00     0.046 A 
ATOM     95  H   UNL A   1      32.082  23.256  23.831  1.00  0.00     0.167 HD
ATOM     96  C   UNL A   1      33.251  19.228  25.246  1.00  0.00     0.010 A 
ATOM     97  C   UNL A   1      32.108  20.499  22.976  1.00  0.00     0.026 A 
ATOM     98  C   UNL A   1      32.875  18.494  24.112  1.00  0.00     0.001 A 
ATOM     99  C   UNL A   1      32.301  19.119  23.006  1.00  0.00     0.002 A 
ENDBRANCH  87  90
ENDBRANCH  84  86
ENDBRANCH  78  80
ENDBRANCH  77  78
ENDBRANCH  76  77
ENDBRANCH  75  76
ENDBRANCH  74  75
ENDBRANCH  73  74
ENDBRANCH   1  73
TORSDOF 22
ENDMDL
MODEL 2
REMARK VINA RESULT:     -11.3      1.713      2.496
REMARK SMILES O=C(OCCOCCOCCOC(=O)c1cccc(NC(=O)c2cc3ccccc3[nH]2)c1)c1ccc(-c2c3nc(c(-c4cc(S(=O)(=O)[O-])ccc4F)c4ccc([nH]4)c(-c4cc(S(=O)(=O)[O-])ccc4F)c4nc(c(-c5cc(S(=O)(=O)[O-])ccc5F)c5ccc2[nH]5)C=C4)C=C3)cc1
REMARK SMILES IDX 7 1 6 2 5 3 4 4 3 5 2 6 1 7 33 8 34 9 95 10 35 11 94 12
REMARK SMILES IDX 36 13 37 14 38 15 88 16 39 17 93 18 87 19 89 20 40 21 92 22
REMARK SMILES IDX 86 23 85 24 41 26 73 27 53 28 72 29 54 30 57 31 71 32 90 33
REMARK SMILES IDX 55 34 56 35 70 37 91 38 58 39 42 40 43 41 51 42 44 43 50 44
REMARK SMILES IDX 52 45 49 46 45 47 46 48 47 49 48 50 74 51 75 52 83 53 76 54
REMARK SMILES IDX 82 55 84 56 81 57 77 58 78 59 79 60 80 61 59 62 60 63 68 64
REMARK SMILES IDX 61 65 67 66 69 67 66 68 62 69 63 70 64 71 65 72 8 73 9 74
REMARK SMILES IDX 10 75 11 76 12 77 13 78 14 79 15 80 16 81 32 82 17 83 19 84
REMARK SMILES IDX 18 85 20 86 21 87 22 89 23 90 24 91 31 92 25 93 30 94 26 96
REMARK SMILES IDX 29 97 27 98 28 99
REMARK H PARENT 89 25 57 36 20 88 31 95
REMARK Flexibility Score: inf
ROOT
ATOM      1  C   UNL A   1      36.947  22.987  24.330  1.00  0.00     0.188 C 
ENDROOT
BRANCH   1   2
ATOM      2  O   UNL A   1      37.077  21.634  23.894  1.00  0.00    -0.376 OA
BRANCH   2   3
ATOM      3  C   UNL A   1      37.128  20.698  24.981  1.00  0.00     0.202 C 
BRANCH   3   4
ATOM      4  C   UNL A   1      38.131  19.527  24.831  1.00  0.00     0.261 C 
BRANCH   4   5
ATOM      5  O   UNL A   1      39.087  19.404  25.911  1.00  0.00    -0.460 OA
BRANCH   5   6
ATOM      6  C   UNL A   1      40.340  19.875  26.098  1.00  0.00     0.338 C 
ATOM      7  O   UNL A   1      41.289  19.112  25.932  1.00  0.00    -0.246 OA
BRANCH   6   8
ATOM      8  C   UNL A   1      40.629  21.257  26.571  1.00  0.00     0.060 A 
ATOM      9  C   UNL A   1      39.986  22.392  26.091  1.00  0.00     0.016 A 
ATOM     10  C   UNL A   1      41.546  21.415  27.626  1.00  0.00     0.016 A 
ATOM     11  C   UNL A   1      40.317  23.662  26.549  1.00  0.00     0.010 A 
ATOM     12  C   UNL A   1      41.846  22.685  28.133  1.00  0.00     0.010 A 
ATOM     13  C   UNL A   1      41.262  23.822  27.561  1.00  0.00    -0.014 A 
BRANCH  13  14
ATOM     14  C   UNL A   1      41.731  25.190  27.874  1.00  0.00     0.031 A 
ATOM     15  C   UNL A   1      43.109  25.588  27.429  1.00  0.00     0.074 A 
ATOM     16  C   UNL A   1      40.891  26.104  28.394  1.00  0.00     0.049 A 
ATOM     17  N   UNL A   1      43.745  26.715  27.608  1.00  0.00    -0.248 NA
ATOM     18  C   UNL A   1      43.862  24.584  26.662  1.00  0.00     0.031 C 
ATOM     19  C   UNL A   1      39.486  25.864  28.729  1.00  0.00     0.029 A 
ATOM     20  N   UNL A   1      41.083  27.427  28.698  1.00  0.00    -0.354 N 
ATOM     21  C   UNL A   1      44.971  26.558  26.973  1.00  0.00     0.074 A 
ATOM     22  C   UNL A   1      45.006  25.212  26.444  1.00  0.00     0.031 C 
ATOM     23  C   UNL A   1      38.941  27.009  29.171  1.00  0.00     0.029 A 
ATOM     24  C   UNL A   1      39.968  28.038  29.224  1.00  0.00     0.049 A 
ATOM     25  H   UNL A   1      41.937  27.894  28.555  1.00  0.00     0.167 HD
ATOM     26  C   UNL A   1      45.972  27.461  26.835  1.00  0.00     0.034 A 
ATOM     27  C   UNL A   1      39.810  29.275  29.735  1.00  0.00     0.034 A 
ATOM     28  C   UNL A   1      45.923  28.789  27.395  1.00  0.00     0.049 A 
ATOM     29  C   UNL A   1      41.003  30.186  29.761  1.00  0.00     0.074 A 
ATOM     30  C   UNL A   1      46.898  29.769  27.392  1.00  0.00     0.029 A 
ATOM     31  N   UNL A   1      44.829  29.318  28.070  1.00  0.00    -0.354 N 
ATOM     32  N   UNL A   1      42.200  29.989  29.261  1.00  0.00    -0.248 NA
ATOM     33  C   UNL A   1      40.827  31.475  30.437  1.00  0.00     0.031 C 
ATOM     34  C   UNL A   1      46.415  30.867  28.116  1.00  0.00     0.029 A 
ATOM     35  C   UNL A   1      45.114  30.599  28.512  1.00  0.00     0.049 A 
ATOM     36  H   UNL A   1      43.974  28.850  28.213  1.00  0.00     0.167 HD
ATOM     37  C   UNL A   1      42.917  31.144  29.542  1.00  0.00     0.074 A 
ATOM     38  C   UNL A   1      42.013  32.032  30.250  1.00  0.00     0.031 C 
ATOM     39  C   UNL A   1      44.202  31.451  29.234  1.00  0.00     0.034 A 
BRANCH  26  40
ATOM     40  C   UNL A   1      47.214  26.989  26.122  1.00  0.00     0.023 A 
ATOM     41  C   UNL A   1      48.212  26.253  26.786  1.00  0.00     0.031 A 
ATOM     42  C   UNL A   1      47.449  27.368  24.790  1.00  0.00     0.131 A 
ATOM     43  C   UNL A   1      49.433  25.994  26.145  1.00  0.00     0.055 A 
ATOM     44  C   UNL A   1      48.634  27.036  24.130  1.00  0.00     0.041 A 
ATOM     45  F   UNL A   1      46.546  28.099  24.118  1.00  0.00    -0.206 F 
ATOM     46  C   UNL A   1      49.642  26.361  24.813  1.00  0.00     0.022 A 
BRANCH  43  47
ATOM     47  S   UNL A   1      50.803  25.320  27.125  1.00  0.00     0.124 S 
ATOM     48  O   UNL A   1      51.703  24.837  26.080  1.00  0.00    -0.237 OA
ATOM     49  O   UNL A   1      51.261  26.486  27.872  1.00  0.00    -0.237 OA
ATOM     50  O   UNL A   1      50.170  24.274  27.926  1.00  0.00    -0.744 OA
ENDBRANCH  43  47
ENDBRANCH  26  40
BRANCH  27  51
ATOM     51  C   UNL A   1      38.540  29.680  30.398  1.00  0.00     0.023 A 
ATOM     52  C   UNL A   1      37.582  30.484  29.763  1.00  0.00     0.031 A 
ATOM     53  C   UNL A   1      38.332  29.347  31.745  1.00  0.00     0.131 A 
ATOM     54  C   UNL A   1      36.471  30.950  30.490  1.00  0.00     0.055 A 
ATOM     55  C   UNL A   1      37.206  29.775  32.446  1.00  0.00     0.041 A 
ATOM     56  F   UNL A   1      39.248  28.615  32.397  1.00  0.00    -0.206 F 
ATOM     57  C   UNL A   1      36.269  30.588  31.821  1.00  0.00     0.022 A 
BRANCH  54  58
ATOM     58  S   UNL A   1      35.328  32.112  29.698  1.00  0.00     0.124 S 
ATOM     59  O   UNL A   1      36.242  33.130  29.195  1.00  0.00    -0.237 OA
ATOM     60  O   UNL A   1      34.689  31.268  28.693  1.00  0.00    -0.237 OA
ATOM     61  O   UNL A   1      34.458  32.537  30.793  1.00  0.00    -0.744 OA
ENDBRANCH  54  58
ENDBRANCH  27  51
BRANCH  39  62
ATOM     62  C   UNL A   1      44.665  32.828  29.623  1.00  0.00     0.023 A 
ATOM     63  C   UNL A   1      45.292  33.072  30.856  1.00  0.00     0.031 A 
ATOM     64  C   UNL A   1      44.423  33.915  28.768  1.00  0.00     0.131 A 
ATOM     65  C   UNL A   1      45.601  34.388  31.226  1.00  0.00     0.055 A 
ATOM     66  C   UNL A   1      44.789  35.214  29.116  1.00  0.00     0.041 A 
ATOM     67  F   UNL A   1      43.818  33.731  27.583  1.00  0.00    -0.206 F 
ATOM     68  C   UNL A   1      45.368  35.458  30.358  1.00  0.00     0.022 A 
BRANCH  65  69
ATOM     69  S   UNL A   1      46.221  34.694  32.903  1.00  0.00     0.124 S 
ATOM     70  O   UNL A   1      46.505  36.125  32.863  1.00  0.00    -0.237 OA
ATOM     71  O   UNL A   1      45.089  34.292  33.732  1.00  0.00    -0.237 OA
ATOM     72  O   UNL A   1      47.396  33.829  32.997  1.00  0.00    -0.744 OA
ENDBRANCH  65  69
ENDBRANCH  39  62
ENDBRANCH  13  14
ENDBRANCH   6   8
ENDBRANCH   5   6
ENDBRANCH   4   5
ENDBRANCH   3   4
ENDBRANCH   2   3
ENDBRANCH   1   2
BRANCH   1  73
ATOM     73  C   UNL A   1      35.994  23.264  25.500  1.00  0.00     0.188 C 
BRANCH  73  74
ATOM     74  O   UNL A   1      35.530  24.568  25.803  1.00  0.00    -0.376 OA
BRANCH  74  75
ATOM     75  C   UNL A   1      34.316  25.025  25.239  1.00  0.00     0.202 C 
BRANCH  75  76
ATOM     76  C   UNL A   1      33.254  25.634  26.159  1.00  0.00     0.261 C 
BRANCH  76  77
ATOM     77  O   UNL A   1      33.270  27.060  26.272  1.00  0.00    -0.460 OA
BRANCH  77  78
ATOM     78  C   UNL A   1      32.033  27.607  26.319  1.00  0.00     0.338 C 
ATOM     79  O   UNL A   1      31.248  27.601  27.260  1.00  0.00    -0.246 OA
BRANCH  78  80
ATOM     80  C   UNL A   1      31.665  28.110  24.995  1.00  0.00     0.062 A 
ATOM     81  C   UNL A   1      30.946  29.297  24.832  1.00  0.00     0.016 A 
ATOM     82  C   UNL A   1      31.915  27.270  23.912  1.00  0.00     0.041 A 
ATOM     83  C   UNL A   1      30.453  29.632  23.569  1.00  0.00     0.003 A 
ATOM     84  C   UNL A   1      31.374  27.588  22.671  1.00  0.00     0.042 A 
ATOM     85  C   UNL A   1      30.648  28.765  22.491  1.00  0.00     0.026 A 
BRANCH  84  86
ATOM     86  N   UNL A   1      31.511  26.650  21.631  1.00  0.00    -0.321 N 
ATOM     87  C   UNL A   1      32.613  25.830  21.677  1.00  0.00     0.272 C 
ATOM     88  H   UNL A   1      30.848  26.584  20.905  1.00  0.00     0.170 HD
ATOM     89  O   UNL A   1      33.696  26.229  21.247  1.00  0.00    -0.267 OA
BRANCH  87  90
ATOM     90  C   UNL A   1      32.400  24.459  22.038  1.00  0.00     0.105 A 
ATOM     91  C   UNL A   1      33.188  23.321  22.002  1.00  0.00     0.042 A 
ATOM     92  N   UNL A   1      31.262  24.110  22.728  1.00  0.00    -0.351 N 
ATOM     93  C   UNL A   1      32.764  22.531  23.118  1.00  0.00     0.000 A 
ATOM     94  C   UNL A   1      31.593  23.108  23.606  1.00  0.00     0.046 A 
ATOM     95  H   UNL A   1      30.369  24.507  22.613  1.00  0.00     0.167 HD
ATOM     96  C   UNL A   1      33.368  21.503  23.865  1.00  0.00     0.010 A 
ATOM     97  C   UNL A   1      31.007  22.761  24.822  1.00  0.00     0.026 A 
ATOM     98  C   UNL A   1      32.835  21.190  25.124  1.00  0.00     0.001 A 
ATOM     99  C   UNL A   1      31.684  21.820  25.596  1.00  0.00     0.002 A 
ENDBRANCH  87  90
ENDBRANCH  84  86
ENDBRANCH  78  80
ENDBRANCH  77  78
ENDBRANCH  76  77
ENDBRANCH  75  76
ENDBRANCH  74  75
ENDBRANCH  73  74
ENDBRANCH   1  73
TORSDOF 22
ENDMDL
MODEL 3
REMARK VINA RESULT:     -11.2      4.768      7.923
REMARK SMILES O=C(OCCOCCOCCOC(=O)c1cccc(NC(=O)c2cc3ccccc3[nH]2)c1)c1ccc(-c2c3nc(c(-c4cc(S(=O)(=O)[O-])ccc4F)c4ccc([nH]4)c(-c4cc(S(=O)(=O)[O-])ccc4F)c4nc(c(-c5cc(S(=O)(=O)[O-])ccc5F)c5ccc2[nH]5)C=C4)C=C3)cc1
REMARK SMILES IDX 7 1 6 2 5 3 4 4 3 5 2 6 1 7 33 8 34 9 95 10 35 11 94 12
REMARK SMILES IDX 36 13 37 14 38 15 88 16 39 17 93 18 87 19 89 20 40 21 92 22
REMARK SMILES IDX 86 23 85 24 41 26 73 27 53 28 72 29 54 30 57 31 71 32 90 33
REMARK SMILES IDX 55 34 56 35 70 37 91 38 58 39 42 40 43 41 51 42 44 43 50 44
REMARK SMILES IDX 52 45 49 46 45 47 46 48 47 49 48 50 74 51 75 52 83 53 76 54
REMARK SMILES IDX 82 55 84 56 81 57 77 58 78 59 79 60 80 61 59 62 60 63 68 64
REMARK SMILES IDX 61 65 67 66 69 67 66 68 62 69 63 70 64 71 65 72 8 73 9 74
REMARK SMILES IDX 10 75 11 76 12 77 13 78 14 79 15 80 16 81 32 82 17 83 19 84
REMARK SMILES IDX 18 85 20 86 21 87 22 89 23 90 24 91 31 92 25 93 30 94 26 96
REMARK SMILES IDX 29 97 27 98 28 99
REMARK H PARENT 89 25 57 36 20 88 31 95
REMARK Flexibility Score: inf
ROOT
ATOM      1  C   UNL A   1      31.960  28.125  26.702  1.00  0.00     0.188 C 
ENDROOT
BRANCH   1   2
ATOM      2  O   UNL A   1      31.759  29.444  27.207  1.00  0.00    -0.376 OA
BRANCH   2   3
ATOM      3  C   UNL A   1      31.922  30.460  26.206  1.00  0.00     0.202 C 
BRANCH   3   4
ATOM      4  C   UNL A   1      31.275  31.834  26.511  1.00  0.00     0.261 C 
BRANCH   4   5
ATOM      5  O   UNL A   1      32.208  32.937  26.607  1.00  0.00    -0.460 OA
BRANCH   5   6
ATOM      6  C   UNL A   1      32.891  33.487  27.635  1.00  0.00     0.338 C 
ATOM      7  O   UNL A   1      32.540  34.587  28.055  1.00  0.00    -0.246 OA
BRANCH   6   8
ATOM      8  C   UNL A   1      34.099  32.861  28.239  1.00  0.00     0.060 A 
ATOM      9  C   UNL A   1      34.160  31.537  28.657  1.00  0.00     0.016 A 
ATOM     10  C   UNL A   1      35.275  33.631  28.310  1.00  0.00     0.016 A 
ATOM     11  C   UNL A   1      35.308  31.013  29.241  1.00  0.00     0.010 A 
ATOM     12  C   UNL A   1      36.452  33.095  28.846  1.00  0.00     0.010 A 
ATOM     13  C   UNL A   1      36.458  31.791  29.356  1.00  0.00    -0.014 A 
BRANCH  13  14
ATOM     14  C   UNL A   1      37.583  31.266  30.163  1.00  0.00     0.031 A 
ATOM     15  C   UNL A   1      38.537  30.306  29.511  1.00  0.00     0.074 A 
ATOM     16  C   UNL A   1      37.839  31.756  31.389  1.00  0.00     0.049 A 
ATOM     17  N   UNL A   1      39.575  29.697  30.018  1.00  0.00    -0.248 NA
ATOM     18  C   UNL A   1      38.298  30.013  28.090  1.00  0.00     0.031 C 
ATOM     19  C   UNL A   1      37.059  32.798  32.061  1.00  0.00     0.029 A 
ATOM     20  N   UNL A   1      38.846  31.474  32.275  1.00  0.00    -0.354 N 
ATOM     21  C   UNL A   1      40.115  28.950  28.978  1.00  0.00     0.074 A 
ATOM     22  C   UNL A   1      39.264  29.148  27.825  1.00  0.00     0.031 C 
ATOM     23  C   UNL A   1      37.633  33.079  33.242  1.00  0.00     0.029 A 
ATOM     24  C   UNL A   1      38.767  32.191  33.446  1.00  0.00     0.049 A 
ATOM     25  H   UNL A   1      39.557  30.819  32.091  1.00  0.00     0.167 HD
ATOM     26  C   UNL A   1      41.229  28.177  28.983  1.00  0.00     0.034 A 
ATOM     27  C   UNL A   1      39.500  32.105  34.574  1.00  0.00     0.034 A 
ATOM     28  C   UNL A   1      42.046  27.975  30.154  1.00  0.00     0.049 A 
ATOM     29  C   UNL A   1      40.600  31.085  34.625  1.00  0.00     0.074 A 
ATOM     30  C   UNL A   1      43.151  27.159  30.310  1.00  0.00     0.029 A 
ATOM     31  N   UNL A   1      41.834  28.598  31.378  1.00  0.00    -0.354 N 
ATOM     32  N   UNL A   1      41.033  30.294  33.672  1.00  0.00    -0.248 NA
ATOM     33  C   UNL A   1      41.292  30.933  35.909  1.00  0.00     0.031 C 
ATOM     34  C   UNL A   1      43.570  27.243  31.645  1.00  0.00     0.029 A 
ATOM     35  C   UNL A   1      42.770  28.164  32.302  1.00  0.00     0.049 A 
ATOM     36  H   UNL A   1      41.122  29.253  31.562  1.00  0.00     0.167 HD
ATOM     37  C   UNL A   1      42.071  29.564  34.236  1.00  0.00     0.074 A 
ATOM     38  C   UNL A   1      42.198  30.015  35.610  1.00  0.00     0.031 C 
ATOM     39  C   UNL A   1      42.857  28.614  33.670  1.00  0.00     0.034 A 
BRANCH  26  40
ATOM     40  C   UNL A   1      41.550  27.447  27.704  1.00  0.00     0.023 A 
ATOM     41  C   UNL A   1      41.385  26.055  27.587  1.00  0.00     0.031 A 
ATOM     42  C   UNL A   1      42.123  28.137  26.623  1.00  0.00     0.131 A 
ATOM     43  C   UNL A   1      41.869  25.387  26.451  1.00  0.00     0.055 A 
ATOM     44  C   UNL A   1      42.528  27.477  25.461  1.00  0.00     0.041 A 
ATOM     45  F   UNL A   1      42.334  29.461  26.693  1.00  0.00    -0.206 F 
ATOM     46  C   UNL A   1      42.419  26.092  25.378  1.00  0.00     0.022 A 
BRANCH  43  47
ATOM     47  S   UNL A   1      41.922  23.573  26.468  1.00  0.00     0.124 S 
ATOM     48  O   UNL A   1      42.669  23.312  27.696  1.00  0.00    -0.237 OA
ATOM     49  O   UNL A   1      40.509  23.215  26.493  1.00  0.00    -0.237 OA
ATOM     50  O   UNL A   1      42.630  23.239  25.233  1.00  0.00    -0.744 OA
ENDBRANCH  43  47
ENDBRANCH  26  40
BRANCH  27  51
ATOM     51  C   UNL A   1      39.139  32.883  35.791  1.00  0.00     0.023 A 
ATOM     52  C   UNL A   1      39.699  34.136  36.077  1.00  0.00     0.031 A 
ATOM     53  C   UNL A   1      38.294  32.303  36.750  1.00  0.00     0.131 A 
ATOM     54  C   UNL A   1      39.426  34.756  37.310  1.00  0.00     0.055 A 
ATOM     55  C   UNL A   1      37.992  32.944  37.951  1.00  0.00     0.041 A 
ATOM     56  F   UNL A   1      37.774  31.087  36.529  1.00  0.00    -0.206 F 
ATOM     57  C   UNL A   1      38.564  34.176  38.241  1.00  0.00     0.022 A 
BRANCH  54  58
ATOM     58  S   UNL A   1      40.280  36.299  37.727  1.00  0.00     0.124 S 
ATOM     59  O   UNL A   1      41.406  35.811  38.515  1.00  0.00    -0.237 OA
ATOM     60  O   UNL A   1      40.603  36.830  36.406  1.00  0.00    -0.237 OA
ATOM     61  O   UNL A   1      39.277  37.057  38.471  1.00  0.00    -0.744 OA
ENDBRANCH  54  58
ENDBRANCH  27  51
BRANCH  39  62
ATOM     62  C   UNL A   1      43.950  28.056  34.539  1.00  0.00     0.023 A 
ATOM     63  C   UNL A   1      43.745  26.921  35.342  1.00  0.00     0.031 A 
ATOM     64  C   UNL A   1      45.195  28.703  34.600  1.00  0.00     0.131 A 
ATOM     65  C   UNL A   1      44.753  26.506  36.222  1.00  0.00     0.055 A 
ATOM     66  C   UNL A   1      46.215  28.248  35.433  1.00  0.00     0.041 A 
ATOM     67  F   UNL A   1      45.434  29.797  33.857  1.00  0.00    -0.206 F 
ATOM     68  C   UNL A   1      45.992  27.152  36.261  1.00  0.00     0.022 A 
BRANCH  65  69
ATOM     69  S   UNL A   1      44.385  25.168  37.390  1.00  0.00     0.124 S 
ATOM     70  O   UNL A   1      44.487  25.853  38.675  1.00  0.00    -0.237 OA
ATOM     71  O   UNL A   1      43.042  24.764  36.990  1.00  0.00    -0.237 OA
ATOM     72  O   UNL A   1      45.434  24.185  37.126  1.00  0.00    -0.744 OA
ENDBRANCH  65  69
ENDBRANCH  39  62
ENDBRANCH  13  14
ENDBRANCH   6   8
ENDBRANCH   5   6
ENDBRANCH   4   5
ENDBRANCH   3   4
ENDBRANCH   2   3
ENDBRANCH   1   2
BRANCH   1  73
ATOM     73  C   UNL A   1      33.336  27.801  26.103  1.00  0.00     0.188 C 
BRANCH  73  74
ATOM     74  O   UNL A   1      33.492  27.371  24.762  1.00  0.00    -0.376 OA
BRANCH  74  75
ATOM     75  C   UNL A   1      34.027  28.260  23.801  1.00  0.00     0.202 C 
BRANCH  75  76
ATOM     76  C   UNL A   1      33.110  28.808  22.705  1.00  0.00     0.261 C 
BRANCH  76  77
ATOM     77  O   UNL A   1      31.851  29.326  23.147  1.00  0.00    -0.460 OA
BRANCH  77  78
ATOM     78  C   UNL A   1      30.801  28.863  22.431  1.00  0.00     0.338 C 
ATOM     79  O   UNL A   1      30.122  29.478  21.616  1.00  0.00    -0.246 OA
BRANCH  78  80
ATOM     80  C   UNL A   1      30.459  27.511  22.873  1.00  0.00     0.062 A 
ATOM     81  C   UNL A   1      29.530  27.282  23.891  1.00  0.00     0.016 A 
ATOM     82  C   UNL A   1      31.222  26.468  22.352  1.00  0.00     0.041 A 
ATOM     83  C   UNL A   1      29.384  25.992  24.407  1.00  0.00     0.003 A 
ATOM     84  C   UNL A   1      31.105  25.200  22.910  1.00  0.00     0.042 A 
ATOM     85  C   UNL A   1      30.187  24.954  23.932  1.00  0.00     0.026 A 
BRANCH  84  86
ATOM     86  N   UNL A   1      31.993  24.200  22.472  1.00  0.00    -0.321 N 
ATOM     87  C   UNL A   1      33.321  24.375  22.776  1.00  0.00     0.272 C 
ATOM     88  H   UNL A   1      31.677  23.413  21.970  1.00  0.00     0.170 HD
ATOM     89  O   UNL A   1      34.027  25.093  22.067  1.00  0.00    -0.267 OA
BRANCH  87  90
ATOM     90  C   UNL A   1      33.878  23.539  23.800  1.00  0.00     0.105 A 
ATOM     91  C   UNL A   1      33.710  22.211  24.155  1.00  0.00     0.042 A 
ATOM     92  N   UNL A   1      34.933  24.002  24.553  1.00  0.00    -0.351 N 
ATOM     93  C   UNL A   1      34.982  21.792  24.662  1.00  0.00     0.000 A 
ATOM     94  C   UNL A   1      35.758  22.938  24.819  1.00  0.00     0.046 A 
ATOM     95  H   UNL A   1      35.072  24.930  24.848  1.00  0.00     0.167 HD
ATOM     96  C   UNL A   1      35.598  20.536  24.818  1.00  0.00     0.010 A 
ATOM     97  C   UNL A   1      37.128  22.917  25.073  1.00  0.00     0.026 A 
ATOM     98  C   UNL A   1      36.987  20.493  25.001  1.00  0.00     0.001 A 
ATOM     99  C   UNL A   1      37.737  21.663  25.112  1.00  0.00     0.002 A 
ENDBRANCH  87  90
ENDBRANCH  84  86
ENDBRANCH  78  80
ENDBRANCH  77  78
ENDBRANCH  76  77
ENDBRANCH  75  76
ENDBRANCH  74  75
ENDBRANCH  73  74
ENDBRANCH   1  73
TORSDOF 22
ENDMDL
