MODEL 1
REMARK VINA RESULT:      -9.7      0.000      0.000
REMARK SMILES CN(c1ccc(C(N)=O)nn1)[C@H]1COC[C@@H]1C(=O)OCCOCCOCCOC(=O)c1ccc(-c2c3nc(c(-c4cc(S(=O)(=O)[O-])ccc4F)c4ccc([nH]4)c(-c4cc(S(=O)(=O)[O-])ccc4F)c4nc(c(-c5cc(S(=O)(=O)[O-])ccc5F)c5ccc2[nH]5)C=C4)C=C3)cc1
REMARK SMILES IDX 23 1 22 2 21 3 20 4 19 5 17 6 18 7 16 8 12 9 13 10 14 11
REMARK SMILES IDX 15 12 2 13 1 14 3 15 4 16 11 17 5 18 10 19 6 20 7 21 8 22
REMARK SMILES IDX 9 23 24 26 25 27 26 28 27 29 28 30 29 31 30 32 31 33 32 34
REMARK SMILES IDX 93 35 33 36 92 37 34 38 35 39 36 40 86 41 37 42 91 43 85 44
REMARK SMILES IDX 87 45 38 46 90 47 84 48 83 49 39 51 71 52 51 53 70 54 52 55
REMARK SMILES IDX 55 56 69 57 88 58 53 59 54 60 68 62 89 63 56 64 40 65 41 66
REMARK SMILES IDX 49 67 42 68 48 69 50 70 47 71 43 72 44 73 45 74 46 75 72 76
REMARK SMILES IDX 73 77 81 78 74 79 80 80 82 81 79 82 75 83 76 84 77 85 78 86
REMARK SMILES IDX 57 87 58 88 66 89 59 90 65 91 67 92 64 93 60 94 61 95 62 96
REMARK SMILES IDX 63 97
REMARK H PARENT 8 24 8 25 87 50 55 61
REMARK Flexibility Score: inf
ROOT
ATOM      1  C   UNL A   1      39.666  20.736  26.075  1.00  0.00     0.188 C 
ENDROOT
BRANCH   1   2
ATOM      2  O   UNL A   1      38.441  20.494  25.418  1.00  0.00    -0.376 OA
BRANCH   2   3
ATOM      3  C   UNL A   1      37.569  21.565  25.091  1.00  0.00     0.202 C 
BRANCH   3   4
ATOM      4  C   UNL A   1      36.590  22.254  26.063  1.00  0.00     0.261 C 
BRANCH   4   5
ATOM      5  O   UNL A   1      35.269  21.717  26.112  1.00  0.00    -0.463 OA
BRANCH   5   6
ATOM      6  C   UNL A   1      34.235  22.602  26.117  1.00  0.00     0.313 C 
ATOM      7  O   UNL A   1      34.282  23.713  26.629  1.00  0.00    -0.252 OA
BRANCH   6   8
ATOM      8  C   UNL A   1      33.063  22.076  25.307  1.00  0.00     0.150 C 
ATOM      9  C   UNL A   1      33.550  21.530  23.982  1.00  0.00     0.125 C 
ATOM     10  C   UNL A   1      33.639  22.822  23.168  1.00  0.00     0.186 C 
ATOM     11  O   UNL A   1      32.556  23.667  23.596  1.00  0.00    -0.378 OA
ATOM     12  C   UNL A   1      32.120  23.192  24.882  1.00  0.00     0.177 C 
BRANCH   9  13
ATOM     13  N   UNL A   1      32.612  20.537  23.421  1.00  0.00    -0.352 N 
ATOM     14  C   UNL A   1      31.773  20.784  22.262  1.00  0.00     0.145 C 
BRANCH  13  15
ATOM     15  C   UNL A   1      32.715  19.240  23.906  1.00  0.00     0.151 A 
ATOM     16  C   UNL A   1      33.325  18.251  23.140  1.00  0.00     0.051 A 
ATOM     17  N   UNL A   1      32.227  18.929  25.131  1.00  0.00    -0.132 NA
ATOM     18  C   UNL A   1      33.404  16.950  23.615  1.00  0.00     0.040 A 
ATOM     19  N   UNL A   1      32.263  17.628  25.603  1.00  0.00    -0.143 NA
ATOM     20  C   UNL A   1      32.844  16.670  24.843  1.00  0.00     0.150 A 
BRANCH  20  21
ATOM     21  C   UNL A   1      32.858  15.272  25.334  1.00  0.00     0.269 C 
ATOM     22  N   UNL A   1      31.666  14.743  25.724  1.00  0.00    -0.364 N 
ATOM     23  O   UNL A   1      33.895  14.623  25.351  1.00  0.00    -0.268 OA
ATOM     24  H   UNL A   1      30.852  15.295  25.698  1.00  0.00     0.160 HD
ATOM     25  H   UNL A   1      31.620  13.809  26.032  1.00  0.00     0.160 HD
ENDBRANCH  20  21
ENDBRANCH  13  15
ENDBRANCH   9  13
ENDBRANCH   6   8
ENDBRANCH   5   6
ENDBRANCH   4   5
ENDBRANCH   3   4
ENDBRANCH   2   3
ENDBRANCH   1   2
BRANCH   1  26
ATOM     26  C   UNL A   1      40.642  19.541  26.124  1.00  0.00     0.188 C 
BRANCH  26  27
ATOM     27  O   UNL A   1      41.659  19.433  25.149  1.00  0.00    -0.376 OA
BRANCH  27  28
ATOM     28  C   UNL A   1      43.018  19.523  25.551  1.00  0.00     0.202 C 
BRANCH  28  29
ATOM     29  C   UNL A   1      43.806  20.845  25.687  1.00  0.00     0.261 C 
BRANCH  29  30
ATOM     30  O   UNL A   1      43.096  22.018  26.105  1.00  0.00    -0.460 OA
BRANCH  30  31
ATOM     31  C   UNL A   1      42.771  22.071  27.421  1.00  0.00     0.338 C 
ATOM     32  O   UNL A   1      42.759  21.138  28.210  1.00  0.00    -0.246 OA
BRANCH  31  33
ATOM     33  C   UNL A   1      42.614  23.484  27.824  1.00  0.00     0.060 A 
ATOM     34  C   UNL A   1      42.187  24.426  26.875  1.00  0.00     0.016 A 
ATOM     35  C   UNL A   1      42.918  23.882  29.125  1.00  0.00     0.016 A 
ATOM     36  C   UNL A   1      42.070  25.771  27.224  1.00  0.00     0.010 A 
ATOM     37  C   UNL A   1      42.833  25.236  29.463  1.00  0.00     0.010 A 
ATOM     38  C   UNL A   1      42.431  26.191  28.510  1.00  0.00    -0.014 A 
BRANCH  38  39
ATOM     39  C   UNL A   1      42.557  27.638  28.817  1.00  0.00     0.031 A 
ATOM     40  C   UNL A   1      43.927  28.258  28.788  1.00  0.00     0.074 A 
ATOM     41  C   UNL A   1      41.483  28.374  29.156  1.00  0.00     0.049 A 
ATOM     42  N   UNL A   1      44.296  29.473  29.100  1.00  0.00    -0.248 NA
ATOM     43  C   UNL A   1      45.031  27.375  28.381  1.00  0.00     0.031 C 
ATOM     44  C   UNL A   1      40.116  27.869  29.231  1.00  0.00     0.029 A 
ATOM     45  N   UNL A   1      41.374  29.696  29.513  1.00  0.00    -0.354 N 
ATOM     46  C   UNL A   1      45.681  29.491  28.969  1.00  0.00     0.074 A 
ATOM     47  C   UNL A   1      46.082  28.162  28.559  1.00  0.00     0.031 C 
ATOM     48  C   UNL A   1      39.304  28.871  29.612  1.00  0.00     0.029 A 
ATOM     49  C   UNL A   1      40.088  30.091  29.808  1.00  0.00     0.049 A 
ATOM     50  H   UNL A   1      42.145  30.308  29.554  1.00  0.00     0.167 HD
ATOM     51  C   UNL A   1      46.537  30.520  29.185  1.00  0.00     0.034 A 
ATOM     52  C   UNL A   1      39.605  31.296  30.186  1.00  0.00     0.034 A 
ATOM     53  C   UNL A   1      46.117  31.836  29.602  1.00  0.00     0.049 A 
ATOM     54  C   UNL A   1      40.585  32.431  30.406  1.00  0.00     0.074 A 
ATOM     55  C   UNL A   1      46.897  32.956  29.829  1.00  0.00     0.029 A 
ATOM     56  N   UNL A   1      44.805  32.207  29.868  1.00  0.00    -0.354 N 
ATOM     57  N   UNL A   1      41.890  32.443  30.246  1.00  0.00    -0.248 NA
ATOM     58  C   UNL A   1      40.030  33.710  30.872  1.00  0.00     0.031 C 
ATOM     59  C   UNL A   1      46.071  33.975  30.313  1.00  0.00     0.029 A 
ATOM     60  C   UNL A   1      44.760  33.525  30.294  1.00  0.00     0.049 A 
ATOM     61  H   UNL A   1      44.021  31.619  29.769  1.00  0.00     0.167 HD
ATOM     62  C   UNL A   1      42.303  33.731  30.580  1.00  0.00     0.074 A 
ATOM     63  C   UNL A   1      41.107  34.479  30.907  1.00  0.00     0.031 C 
ATOM     64  C   UNL A   1      43.558  34.252  30.629  1.00  0.00     0.034 A 
BRANCH  51  65
ATOM     65  C   UNL A   1      48.014  30.239  29.045  1.00  0.00     0.023 A 
ATOM     66  C   UNL A   1      48.632  30.104  27.791  1.00  0.00     0.031 A 
ATOM     67  C   UNL A   1      48.812  30.077  30.192  1.00  0.00     0.131 A 
ATOM     68  C   UNL A   1      49.987  29.746  27.713  1.00  0.00     0.055 A 
ATOM     69  C   UNL A   1      50.179  29.808  30.109  1.00  0.00     0.041 A 
ATOM     70  F   UNL A   1      48.273  30.166  31.418  1.00  0.00    -0.206 F 
ATOM     71  C   UNL A   1      50.772  29.626  28.862  1.00  0.00     0.022 A 
BRANCH  68  72
ATOM     72  S   UNL A   1      50.672  29.294  26.097  1.00  0.00     0.124 S 
ATOM     73  O   UNL A   1      51.041  30.601  25.556  1.00  0.00    -0.237 OA
ATOM     74  O   UNL A   1      51.780  28.417  26.456  1.00  0.00    -0.237 OA
ATOM     75  O   UNL A   1      49.553  28.642  25.420  1.00  0.00    -0.744 OA
ENDBRANCH  68  72
ENDBRANCH  51  65
BRANCH  52  76
ATOM     76  C   UNL A   1      38.137  31.514  30.393  1.00  0.00     0.023 A 
ATOM     77  C   UNL A   1      37.280  31.760  29.303  1.00  0.00     0.031 A 
ATOM     78  C   UNL A   1      37.571  31.542  31.680  1.00  0.00     0.131 A 
ATOM     79  C   UNL A   1      35.927  32.067  29.522  1.00  0.00     0.055 A 
ATOM     80  C   UNL A   1      36.208  31.767  31.887  1.00  0.00     0.041 A 
ATOM     81  F   UNL A   1      38.336  31.342  32.765  1.00  0.00    -0.206 F 
ATOM     82  C   UNL A   1      35.380  32.045  30.805  1.00  0.00     0.022 A 
BRANCH  79  83
ATOM     83  S   UNL A   1      34.923  32.650  28.125  1.00  0.00     0.124 S 
ATOM     84  O   UNL A   1      34.647  31.402  27.422  1.00  0.00    -0.237 OA
ATOM     85  O   UNL A   1      33.791  33.271  28.799  1.00  0.00    -0.237 OA
ATOM     86  O   UNL A   1      35.815  33.574  27.428  1.00  0.00    -0.744 OA
ENDBRANCH  79  83
ENDBRANCH  52  76
BRANCH  64  87
ATOM     87  C   UNL A   1      43.692  35.706  31.025  1.00  0.00     0.023 A 
ATOM     88  C   UNL A   1      43.778  36.731  30.065  1.00  0.00     0.031 A 
ATOM     89  C   UNL A   1      43.730  36.071  32.383  1.00  0.00     0.131 A 
ATOM     90  C   UNL A   1      43.955  38.062  30.475  1.00  0.00     0.055 A 
ATOM     91  C   UNL A   1      43.838  37.403  32.784  1.00  0.00     0.041 A 
ATOM     92  F   UNL A   1      43.655  35.136  33.344  1.00  0.00    -0.206 F 
ATOM     93  C   UNL A   1      43.964  38.406  31.829  1.00  0.00     0.022 A 
BRANCH  90  94
ATOM     94  S   UNL A   1      44.270  39.329  29.216  1.00  0.00     0.124 S 
ATOM     95  O   UNL A   1      45.715  39.505  29.317  1.00  0.00    -0.237 OA
ATOM     96  O   UNL A   1      43.792  38.685  27.996  1.00  0.00    -0.237 OA
ATOM     97  O   UNL A   1      43.473  40.467  29.667  1.00  0.00    -0.744 OA
ENDBRANCH  90  94
ENDBRANCH  64  87
ENDBRANCH  38  39
ENDBRANCH  31  33
ENDBRANCH  30  31
ENDBRANCH  29  30
ENDBRANCH  28  29
ENDBRANCH  27  28
ENDBRANCH  26  27
ENDBRANCH   1  26
TORSDOF 23
ENDMDL
MODEL 2
REMARK VINA RESULT:      -9.6      1.921      7.756
REMARK SMILES CN(c1ccc(C(N)=O)nn1)[C@H]1COC[C@@H]1C(=O)OCCOCCOCCOC(=O)c1ccc(-c2c3nc(c(-c4cc(S(=O)(=O)[O-])ccc4F)c4ccc([nH]4)c(-c4cc(S(=O)(=O)[O-])ccc4F)c4nc(c(-c5cc(S(=O)(=O)[O-])ccc5F)c5ccc2[nH]5)C=C4)C=C3)cc1
REMARK SMILES IDX 23 1 22 2 21 3 20 4 19 5 17 6 18 7 16 8 12 9 13 10 14 11
REMARK SMILES IDX 15 12 2 13 1 14 3 15 4 16 11 17 5 18 10 19 6 20 7 21 8 22
REMARK SMILES IDX 9 23 24 26 25 27 26 28 27 29 28 30 29 31 30 32 31 33 32 34
REMARK SMILES IDX 93 35 33 36 92 37 34 38 35 39 36 40 86 41 37 42 91 43 85 44
REMARK SMILES IDX 87 45 38 46 90 47 84 48 83 49 39 51 71 52 51 53 70 54 52 55
REMARK SMILES IDX 55 56 69 57 88 58 53 59 54 60 68 62 89 63 56 64 40 65 41 66
REMARK SMILES IDX 49 67 42 68 48 69 50 70 47 71 43 72 44 73 45 74 46 75 72 76
REMARK SMILES IDX 73 77 81 78 74 79 80 80 82 81 79 82 75 83 76 84 77 85 78 86
REMARK SMILES IDX 57 87 58 88 66 89 59 90 65 91 67 92 64 93 60 94 61 95 62 96
REMARK SMILES IDX 63 97
REMARK H PARENT 8 24 8 25 87 50 55 61
REMARK Flexibility Score: inf
ROOT
ATOM      1  C   UNL A   1      38.499  24.109  26.336  1.00  0.00     0.188 C 
ENDROOT
BRANCH   1   2
ATOM      2  O   UNL A   1      37.315  23.661  25.713  1.00  0.00    -0.376 OA
BRANCH   2   3
ATOM      3  C   UNL A   1      37.295  23.359  24.326  1.00  0.00     0.202 C 
BRANCH   3   4
ATOM      4  C   UNL A   1      36.307  22.401  23.631  1.00  0.00     0.261 C 
BRANCH   4   5
ATOM      5  O   UNL A   1      35.341  23.006  22.773  1.00  0.00    -0.463 OA
BRANCH   5   6
ATOM      6  C   UNL A   1      34.527  23.952  23.316  1.00  0.00     0.313 C 
ATOM      7  O   UNL A   1      34.371  25.074  22.852  1.00  0.00    -0.252 OA
BRANCH   6   8
ATOM      8  C   UNL A   1      33.755  23.393  24.499  1.00  0.00     0.150 C 
ATOM      9  C   UNL A   1      32.383  22.937  24.055  1.00  0.00     0.125 C 
ATOM     10  C   UNL A   1      31.627  24.266  24.085  1.00  0.00     0.186 C 
ATOM     11  O   UNL A   1      32.151  25.025  25.189  1.00  0.00    -0.378 OA
ATOM     12  C   UNL A   1      33.434  24.468  25.526  1.00  0.00     0.177 C 
BRANCH   9  13
ATOM     13  N   UNL A   1      31.825  21.915  24.964  1.00  0.00    -0.352 N 
ATOM     14  C   UNL A   1      30.734  22.166  25.889  1.00  0.00     0.145 C 
BRANCH  13  15
ATOM     15  C   UNL A   1      32.231  20.604  24.751  1.00  0.00     0.151 A 
ATOM     16  C   UNL A   1      32.110  20.029  23.489  1.00  0.00     0.051 A 
ATOM     17  N   UNL A   1      32.750  19.877  25.768  1.00  0.00    -0.132 NA
ATOM     18  C   UNL A   1      32.492  18.711  23.283  1.00  0.00     0.040 A 
ATOM     19  N   UNL A   1      33.100  18.549  25.589  1.00  0.00    -0.143 NA
ATOM     20  C   UNL A   1      32.964  17.994  24.362  1.00  0.00     0.150 A 
BRANCH  20  21
ATOM     21  C   UNL A   1      33.310  16.565  24.176  1.00  0.00     0.269 C 
ATOM     22  N   UNL A   1      32.517  15.652  24.801  1.00  0.00    -0.364 N 
ATOM     23  O   UNL A   1      34.247  16.234  23.462  1.00  0.00    -0.268 OA
ATOM     24  H   UNL A   1      31.772  15.955  25.368  1.00  0.00     0.160 HD
ATOM     25  H   UNL A   1      32.691  14.690  24.685  1.00  0.00     0.160 HD
ENDBRANCH  20  21
ENDBRANCH  13  15
ENDBRANCH   9  13
ENDBRANCH   6   8
ENDBRANCH   5   6
ENDBRANCH   4   5
ENDBRANCH   3   4
ENDBRANCH   2   3
ENDBRANCH   1   2
BRANCH   1  26
ATOM     26  C   UNL A   1      39.426  22.999  26.877  1.00  0.00     0.188 C 
BRANCH  26  27
ATOM     27  O   UNL A   1      39.042  21.646  26.745  1.00  0.00    -0.376 OA
BRANCH  27  28
ATOM     28  C   UNL A   1      39.635  20.853  25.728  1.00  0.00     0.202 C 
BRANCH  28  29
ATOM     29  C   UNL A   1      40.461  19.571  25.984  1.00  0.00     0.261 C 
BRANCH  29  30
ATOM     30  O   UNL A   1      41.714  19.698  26.669  1.00  0.00    -0.460 OA
BRANCH  30  31
ATOM     31  C   UNL A   1      42.698  20.332  25.981  1.00  0.00     0.338 C 
ATOM     32  O   UNL A   1      43.302  19.906  25.009  1.00  0.00    -0.246 OA
BRANCH  31  33
ATOM     33  C   UNL A   1      42.807  21.723  26.467  1.00  0.00     0.060 A 
ATOM     34  C   UNL A   1      42.833  22.776  25.538  1.00  0.00     0.016 A 
ATOM     35  C   UNL A   1      42.917  21.984  27.832  1.00  0.00     0.016 A 
ATOM     36  C   UNL A   1      42.974  24.093  25.974  1.00  0.00     0.010 A 
ATOM     37  C   UNL A   1      43.093  23.303  28.264  1.00  0.00     0.010 A 
ATOM     38  C   UNL A   1      43.146  24.361  27.337  1.00  0.00    -0.014 A 
BRANCH  38  39
ATOM     39  C   UNL A   1      43.551  25.717  27.789  1.00  0.00     0.031 A 
ATOM     40  C   UNL A   1      42.509  26.602  28.415  1.00  0.00     0.074 A 
ATOM     41  C   UNL A   1      44.806  26.165  27.607  1.00  0.00     0.049 A 
ATOM     42  N   UNL A   1      42.602  27.845  28.808  1.00  0.00    -0.248 NA
ATOM     43  C   UNL A   1      41.174  26.009  28.593  1.00  0.00     0.031 C 
ATOM     44  C   UNL A   1      45.887  25.397  26.997  1.00  0.00     0.029 A 
ATOM     45  N   UNL A   1      45.382  27.377  27.905  1.00  0.00    -0.354 N 
ATOM     46  C   UNL A   1      41.328  28.200  29.240  1.00  0.00     0.074 A 
ATOM     47  C   UNL A   1      40.482  27.041  29.050  1.00  0.00     0.031 C 
ATOM     48  C   UNL A   1      46.995  26.157  26.965  1.00  0.00     0.029 A 
ATOM     49  C   UNL A   1      46.710  27.467  27.551  1.00  0.00     0.049 A 
ATOM     50  H   UNL A   1      44.890  28.115  28.334  1.00  0.00     0.167 HD
ATOM     51  C   UNL A   1      40.905  29.389  29.736  1.00  0.00     0.034 A 
ATOM     52  C   UNL A   1      47.588  28.486  27.691  1.00  0.00     0.034 A 
ATOM     53  C   UNL A   1      41.764  30.535  29.909  1.00  0.00     0.049 A 
ATOM     54  C   UNL A   1      47.088  29.798  28.262  1.00  0.00     0.074 A 
ATOM     55  C   UNL A   1      41.444  31.780  30.422  1.00  0.00     0.029 A 
ATOM     56  N   UNL A   1      43.108  30.583  29.563  1.00  0.00    -0.354 N 
ATOM     57  N   UNL A   1      45.886  30.109  28.698  1.00  0.00    -0.248 NA
ATOM     58  C   UNL A   1      48.056  30.900  28.346  1.00  0.00     0.031 C 
ATOM     59  C   UNL A   1      42.567  32.604  30.306  1.00  0.00     0.029 A 
ATOM     60  C   UNL A   1      43.619  31.848  29.814  1.00  0.00     0.049 A 
ATOM     61  H   UNL A   1      43.623  29.830  29.193  1.00  0.00     0.167 HD
ATOM     62  C   UNL A   1      45.965  31.436  29.116  1.00  0.00     0.074 A 
ATOM     63  C   UNL A   1      47.338  31.852  28.922  1.00  0.00     0.031 C 
ATOM     64  C   UNL A   1      44.990  32.249  29.603  1.00  0.00     0.034 A 
BRANCH  51  65
ATOM     65  C   UNL A   1      39.435  29.527  30.054  1.00  0.00     0.023 A 
ATOM     66  C   UNL A   1      38.547  30.202  29.200  1.00  0.00     0.031 A 
ATOM     67  C   UNL A   1      38.919  28.992  31.249  1.00  0.00     0.131 A 
ATOM     68  C   UNL A   1      37.210  30.388  29.586  1.00  0.00     0.055 A 
ATOM     69  C   UNL A   1      37.570  29.104  31.586  1.00  0.00     0.041 A 
ATOM     70  F   UNL A   1      39.723  28.361  32.118  1.00  0.00    -0.206 F 
ATOM     71  C   UNL A   1      36.708  29.819  30.758  1.00  0.00     0.022 A 
BRANCH  68  72
ATOM     72  S   UNL A   1      36.175  31.510  28.608  1.00  0.00     0.124 S 
ATOM     73  O   UNL A   1      36.990  32.724  28.592  1.00  0.00    -0.237 OA
ATOM     74  O   UNL A   1      36.057  30.806  27.337  1.00  0.00    -0.237 OA
ATOM     75  O   UNL A   1      34.943  31.607  29.387  1.00  0.00    -0.744 OA
ENDBRANCH  68  72
ENDBRANCH  51  65
BRANCH  52  76
ATOM     76  C   UNL A   1      49.022  28.335  27.288  1.00  0.00     0.023 A 
ATOM     77  C   UNL A   1      49.421  28.504  25.948  1.00  0.00     0.031 A 
ATOM     78  C   UNL A   1      50.012  27.958  28.214  1.00  0.00     0.131 A 
ATOM     79  C   UNL A   1      50.750  28.255  25.568  1.00  0.00     0.055 A 
ATOM     80  C   UNL A   1      51.349  27.792  27.845  1.00  0.00     0.041 A 
ATOM     81  F   UNL A   1      49.696  27.754  29.503  1.00  0.00    -0.206 F 
ATOM     82  C   UNL A   1      51.722  27.926  26.513  1.00  0.00     0.022 A 
BRANCH  79  83
ATOM     83  S   UNL A   1      51.163  28.212  23.799  1.00  0.00     0.124 S 
ATOM     84  O   UNL A   1      51.998  27.018  23.723  1.00  0.00    -0.237 OA
ATOM     85  O   UNL A   1      49.848  28.118  23.179  1.00  0.00    -0.237 OA
ATOM     86  O   UNL A   1      51.864  29.476  23.584  1.00  0.00    -0.744 OA
ENDBRANCH  79  83
ENDBRANCH  52  76
BRANCH  64  87
ATOM     87  C   UNL A   1      45.386  33.658  29.985  1.00  0.00     0.023 A 
ATOM     88  C   UNL A   1      45.299  34.726  29.073  1.00  0.00     0.031 A 
ATOM     89  C   UNL A   1      45.855  33.936  31.282  1.00  0.00     0.131 A 
ATOM     90  C   UNL A   1      45.726  36.008  29.453  1.00  0.00     0.055 A 
ATOM     91  C   UNL A   1      46.214  35.226  31.674  1.00  0.00     0.041 A 
ATOM     92  F   UNL A   1      45.962  32.957  32.194  1.00  0.00    -0.206 F 
ATOM     93  C   UNL A   1      46.164  36.269  30.753  1.00  0.00     0.022 A 
BRANCH  90  94
ATOM     94  S   UNL A   1      45.795  37.313  28.194  1.00  0.00     0.124 S 
ATOM     95  O   UNL A   1      45.312  38.474  28.935  1.00  0.00    -0.237 OA
ATOM     96  O   UNL A   1      47.210  37.329  27.837  1.00  0.00    -0.237 OA
ATOM     97  O   UNL A   1      44.898  36.829  27.148  1.00  0.00    -0.744 OA
ENDBRANCH  90  94
ENDBRANCH  64  87
ENDBRANCH  38  39
ENDBRANCH  31  33
ENDBRANCH  30  31
ENDBRANCH  29  30
ENDBRANCH  28  29
ENDBRANCH  27  28
ENDBRANCH  26  27
ENDBRANCH   1  26
TORSDOF 23
ENDMDL
MODEL 3
REMARK VINA RESULT:      -9.5      6.102     11.009
REMARK SMILES CN(c1ccc(C(N)=O)nn1)[C@H]1COC[C@@H]1C(=O)OCCOCCOCCOC(=O)c1ccc(-c2c3nc(c(-c4cc(S(=O)(=O)[O-])ccc4F)c4ccc([nH]4)c(-c4cc(S(=O)(=O)[O-])ccc4F)c4nc(c(-c5cc(S(=O)(=O)[O-])ccc5F)c5ccc2[nH]5)C=C4)C=C3)cc1
REMARK SMILES IDX 23 1 22 2 21 3 20 4 19 5 17 6 18 7 16 8 12 9 13 10 14 11
REMARK SMILES IDX 15 12 2 13 1 14 3 15 4 16 11 17 5 18 10 19 6 20 7 21 8 22
REMARK SMILES IDX 9 23 24 26 25 27 26 28 27 29 28 30 29 31 30 32 31 33 32 34
REMARK SMILES IDX 93 35 33 36 92 37 34 38 35 39 36 40 86 41 37 42 91 43 85 44
REMARK SMILES IDX 87 45 38 46 90 47 84 48 83 49 39 51 71 52 51 53 70 54 52 55
REMARK SMILES IDX 55 56 69 57 88 58 53 59 54 60 68 62 89 63 56 64 40 65 41 66
REMARK SMILES IDX 49 67 42 68 48 69 50 70 47 71 43 72 44 73 45 74 46 75 72 76
REMARK SMILES IDX 73 77 81 78 74 79 80 80 82 81 79 82 75 83 76 84 77 85 78 86
REMARK SMILES IDX 57 87 58 88 66 89 59 90 65 91 67 92 64 93 60 94 61 95 62 96
REMARK SMILES IDX 63 97
REMARK H PARENT 8 24 8 25 87 50 55 61
REMARK Flexibility Score: inf
ROOT
ATOM      1  C   UNL A   1      33.521  31.396  27.640  1.00  0.00     0.188 C 
ENDROOT
BRANCH   1   2
ATOM      2  O   UNL A   1      32.228  31.095  27.162  1.00  0.00    -0.376 OA
BRANCH   2   3
ATOM      3  C   UNL A   1      31.908  29.787  26.713  1.00  0.00     0.202 C 
BRANCH   3   4
ATOM      4  C   UNL A   1      31.765  29.355  25.240  1.00  0.00     0.261 C 
BRANCH   4   5
ATOM      5  O   UNL A   1      31.058  28.138  25.006  1.00  0.00    -0.463 OA
BRANCH   5   6
ATOM      6  C   UNL A   1      31.642  27.222  24.186  1.00  0.00     0.313 C 
ATOM      7  O   UNL A   1      31.613  27.277  22.963  1.00  0.00    -0.252 OA
BRANCH   6   8
ATOM      8  C   UNL A   1      32.427  26.196  24.985  1.00  0.00     0.150 C 
ATOM      9  C   UNL A   1      32.180  24.809  24.434  1.00  0.00     0.125 C 
ATOM     10  C   UNL A   1      30.863  24.465  25.133  1.00  0.00     0.186 C 
ATOM     11  O   UNL A   1      30.913  25.058  26.443  1.00  0.00    -0.378 OA
ATOM     12  C   UNL A   1      31.922  26.083  26.415  1.00  0.00     0.177 C 
BRANCH   9  13
ATOM     13  N   UNL A   1      33.286  23.886  24.762  1.00  0.00    -0.352 N 
ATOM     14  C   UNL A   1      34.486  24.285  25.476  1.00  0.00     0.145 C 
BRANCH  13  15
ATOM     15  C   UNL A   1      33.047  22.532  24.562  1.00  0.00     0.151 A 
ATOM     16  C   UNL A   1      32.781  22.048  23.285  1.00  0.00     0.051 A 
ATOM     17  N   UNL A   1      33.077  21.673  25.609  1.00  0.00    -0.132 NA
ATOM     18  C   UNL A   1      32.518  20.700  23.090  1.00  0.00     0.040 A 
ATOM     19  N   UNL A   1      32.778  20.332  25.438  1.00  0.00    -0.143 NA
ATOM     20  C   UNL A   1      32.504  19.873  24.194  1.00  0.00     0.150 A 
BRANCH  20  21
ATOM     21  C   UNL A   1      32.156  18.444  24.014  1.00  0.00     0.269 C 
ATOM     22  N   UNL A   1      31.933  18.020  22.740  1.00  0.00    -0.364 N 
ATOM     23  O   UNL A   1      32.110  17.684  24.971  1.00  0.00    -0.268 OA
ATOM     24  H   UNL A   1      31.978  18.660  21.994  1.00  0.00     0.160 HD
ATOM     25  H   UNL A   1      31.725  17.073  22.567  1.00  0.00     0.160 HD
ENDBRANCH  20  21
ENDBRANCH  13  15
ENDBRANCH   9  13
ENDBRANCH   6   8
ENDBRANCH   5   6
ENDBRANCH   4   5
ENDBRANCH   3   4
ENDBRANCH   2   3
ENDBRANCH   1   2
BRANCH   1  26
ATOM     26  C   UNL A   1      33.802  32.893  27.895  1.00  0.00     0.188 C 
BRANCH  26  27
ATOM     27  O   UNL A   1      32.726  33.808  27.925  1.00  0.00    -0.376 OA
BRANCH  27  28
ATOM     28  C   UNL A   1      32.886  35.045  28.603  1.00  0.00     0.202 C 
BRANCH  28  29
ATOM     29  C   UNL A   1      33.630  35.219  29.947  1.00  0.00     0.261 C 
BRANCH  29  30
ATOM     30  O   UNL A   1      33.144  36.205  30.868  1.00  0.00    -0.460 OA
BRANCH  30  31
ATOM     31  C   UNL A   1      32.756  35.735  32.081  1.00  0.00     0.338 C 
ATOM     32  O   UNL A   1      31.627  35.756  32.546  1.00  0.00    -0.246 OA
BRANCH  31  33
ATOM     33  C   UNL A   1      33.882  35.003  32.697  1.00  0.00     0.060 A 
ATOM     34  C   UNL A   1      35.109  35.659  32.883  1.00  0.00     0.016 A 
ATOM     35  C   UNL A   1      33.735  33.665  33.061  1.00  0.00     0.016 A 
ATOM     36  C   UNL A   1      36.196  34.974  33.428  1.00  0.00     0.010 A 
ATOM     37  C   UNL A   1      34.835  32.972  33.575  1.00  0.00     0.010 A 
ATOM     38  C   UNL A   1      36.077  33.615  33.739  1.00  0.00    -0.014 A 
BRANCH  38  39
ATOM     39  C   UNL A   1      37.282  32.815  34.075  1.00  0.00     0.031 A 
ATOM     40  C   UNL A   1      38.021  33.136  35.344  1.00  0.00     0.074 A 
ATOM     41  C   UNL A   1      37.733  31.854  33.248  1.00  0.00     0.049 A 
ATOM     42  N   UNL A   1      39.138  32.637  35.805  1.00  0.00    -0.248 NA
ATOM     43  C   UNL A   1      37.433  34.185  36.192  1.00  0.00     0.031 C 
ATOM     44  C   UNL A   1      37.103  31.475  31.988  1.00  0.00     0.029 A 
ATOM     45  N   UNL A   1      38.831  31.032  33.337  1.00  0.00    -0.354 N 
ATOM     46  C   UNL A   1      39.411  33.339  36.974  1.00  0.00     0.074 A 
ATOM     47  C   UNL A   1      38.347  34.305  37.142  1.00  0.00     0.031 C 
ATOM     48  C   UNL A   1      37.826  30.494  31.419  1.00  0.00     0.029 A 
ATOM     49  C   UNL A   1      38.971  30.171  32.271  1.00  0.00     0.049 A 
ATOM     50  H   UNL A   1      39.460  31.056  34.094  1.00  0.00     0.167 HD
ATOM     51  C   UNL A   1      40.463  33.197  37.819  1.00  0.00     0.034 A 
ATOM     52  C   UNL A   1      39.911  29.231  32.020  1.00  0.00     0.034 A 
ATOM     53  C   UNL A   1      41.519  32.234  37.627  1.00  0.00     0.049 A 
ATOM     54  C   UNL A   1      41.066  29.087  32.991  1.00  0.00     0.074 A 
ATOM     55  C   UNL A   1      42.619  31.992  38.431  1.00  0.00     0.029 A 
ATOM     56  N   UNL A   1      41.617  31.361  36.550  1.00  0.00    -0.354 N 
ATOM     57  N   UNL A   1      41.294  29.737  34.111  1.00  0.00    -0.248 NA
ATOM     58  C   UNL A   1      42.098  28.096  32.656  1.00  0.00     0.031 C 
ATOM     59  C   UNL A   1      43.423  31.038  37.800  1.00  0.00     0.029 A 
ATOM     60  C   UNL A   1      42.778  30.610  36.651  1.00  0.00     0.049 A 
ATOM     61  H   UNL A   1      40.958  31.288  35.823  1.00  0.00     0.167 HD
ATOM     62  C   UNL A   1      42.487  29.221  34.614  1.00  0.00     0.074 A 
ATOM     63  C   UNL A   1      42.906  28.179  33.701  1.00  0.00     0.031 C 
ATOM     64  C   UNL A   1      43.187  29.581  35.722  1.00  0.00     0.034 A 
BRANCH  51  65
ATOM     65  C   UNL A   1      40.556  34.156  38.981  1.00  0.00     0.023 A 
ATOM     66  C   UNL A   1      40.065  33.833  40.257  1.00  0.00     0.031 A 
ATOM     67  C   UNL A   1      41.126  35.430  38.800  1.00  0.00     0.131 A 
ATOM     68  C   UNL A   1      40.086  34.793  41.280  1.00  0.00     0.055 A 
ATOM     69  C   UNL A   1      41.224  36.350  39.845  1.00  0.00     0.041 A 
ATOM     70  F   UNL A   1      41.587  35.808  37.598  1.00  0.00    -0.206 F 
ATOM     71  C   UNL A   1      40.688  36.039  41.092  1.00  0.00     0.022 A 
BRANCH  68  72
ATOM     72  S   UNL A   1      39.182  34.446  42.813  1.00  0.00     0.124 S 
ATOM     73  O   UNL A   1      40.270  34.098  43.725  1.00  0.00    -0.237 OA
ATOM     74  O   UNL A   1      38.509  35.712  43.077  1.00  0.00    -0.237 OA
ATOM     75  O   UNL A   1      38.304  33.335  42.450  1.00  0.00    -0.744 OA
ENDBRANCH  68  72
ENDBRANCH  51  65
BRANCH  52  76
ATOM     76  C   UNL A   1      39.825  28.352  30.811  1.00  0.00     0.023 A 
ATOM     77  C   UNL A   1      40.496  28.691  29.619  1.00  0.00     0.031 A 
ATOM     78  C   UNL A   1      39.027  27.194  30.797  1.00  0.00     0.131 A 
ATOM     79  C   UNL A   1      40.320  27.913  28.463  1.00  0.00     0.055 A 
ATOM     80  C   UNL A   1      38.922  26.379  29.667  1.00  0.00     0.041 A 
ATOM     81  F   UNL A   1      38.340  26.828  31.890  1.00  0.00    -0.206 F 
ATOM     82  C   UNL A   1      39.559  26.744  28.487  1.00  0.00     0.022 A 
BRANCH  79  83
ATOM     83  S   UNL A   1      40.970  28.531  26.883  1.00  0.00     0.124 S 
ATOM     84  O   UNL A   1      41.203  27.288  26.156  1.00  0.00    -0.237 OA
ATOM     85  O   UNL A   1      39.874  29.361  26.403  1.00  0.00    -0.237 OA
ATOM     86  O   UNL A   1      42.176  29.259  27.275  1.00  0.00    -0.744 OA
ENDBRANCH  79  83
ENDBRANCH  52  76
BRANCH  64  87
ATOM     87  C   UNL A   1      44.460  28.822  36.018  1.00  0.00     0.023 A 
ATOM     88  C   UNL A   1      44.442  27.542  36.602  1.00  0.00     0.031 A 
ATOM     89  C   UNL A   1      45.711  29.386  35.708  1.00  0.00     0.131 A 
ATOM     90  C   UNL A   1      45.650  26.894  36.908  1.00  0.00     0.055 A 
ATOM     91  C   UNL A   1      46.906  28.708  35.953  1.00  0.00     0.041 A 
ATOM     92  F   UNL A   1      45.792  30.606  35.152  1.00  0.00    -0.206 F 
ATOM     93  C   UNL A   1      46.881  27.460  36.568  1.00  0.00     0.022 A 
BRANCH  90  94
ATOM     94  S   UNL A   1      45.594  25.342  37.846  1.00  0.00     0.124 S 
ATOM     95  O   UNL A   1      46.629  24.552  37.187  1.00  0.00    -0.237 OA
ATOM     96  O   UNL A   1      45.899  25.785  39.203  1.00  0.00    -0.237 OA
ATOM     97  O   UNL A   1      44.228  24.866  37.643  1.00  0.00    -0.744 OA
ENDBRANCH  90  94
ENDBRANCH  64  87
ENDBRANCH  38  39
ENDBRANCH  31  33
ENDBRANCH  30  31
ENDBRANCH  29  30
ENDBRANCH  28  29
ENDBRANCH  27  28
ENDBRANCH  26  27
ENDBRANCH   1  26
TORSDOF 23
ENDMDL
