MODEL 1
REMARK VINA RESULT:      -9.0      0.000      0.000
REMARK SMILES C[C@@H](CCC(=O)OCCOCCOCCOC(=O)c1ccc(-c2c3nc(c(-c4cc(S(=O)(=O)[O-])ccc4F)c4ccc([nH]4)c(-c4cc(S(=O)(=O)[O-])ccc4F)c4nc(c(-c5cc(S(=O)(=O)[O-])ccc5F)c5ccc2[nH]5)C=C4)C=C3)cc1)[C@@H]1CC[C@H]2[C@@H]3CC[C@H]4CC(=O)CC[C@@]4(C)[C@H]3CC(=O)[C@@]21C
REMARK SMILES IDX 11 1 10 2 9 3 8 4 7 5 5 6 6 7 4 8 3 9 2 10 1 11 82 12 83 13
REMARK SMILES IDX 101 14 84 15 85 16 99 17 102 18 86 19 98 20 100 21 87 22
REMARK SMILES IDX 97 23 88 24 95 25 89 26 94 27 96 28 90 29 93 30 91 31 92 32
REMARK SMILES IDX 12 33 13 34 14 35 15 36 16 37 17 38 18 39 19 40 20 41 81 42
REMARK SMILES IDX 21 43 80 44 22 45 23 46 24 47 74 48 25 49 79 50 73 51 75 52
REMARK SMILES IDX 26 53 78 54 72 55 71 56 27 58 59 59 39 60 58 61 40 62 43 63
REMARK SMILES IDX 57 64 76 65 41 66 42 67 56 69 77 70 44 71 28 72 29 73 37 74
REMARK SMILES IDX 30 75 36 76 38 77 35 78 31 79 32 80 33 81 34 82 60 83 61 84
REMARK SMILES IDX 69 85 62 86 68 87 70 88 67 89 63 90 64 91 65 92 66 93 45 94
REMARK SMILES IDX 46 95 54 96 47 97 53 98 55 99 52 100 48 101 49 102 50 103
REMARK SMILES IDX 51 104
REMARK H PARENT 75 57 43 68
REMARK Flexibility Score: inf
ROOT
ATOM      1  C   UNL A   1      34.310  34.890  32.730  1.00  0.00     0.188 C 
ENDROOT
BRANCH   1   2
ATOM      2  O   UNL A   1      35.569  35.380  33.170  1.00  0.00    -0.376 OA
BRANCH   2   3
ATOM      3  C   UNL A   1      36.434  34.451  33.813  1.00  0.00     0.202 C 
BRANCH   3   4
ATOM      4  C   UNL A   1      37.408  33.660  32.912  1.00  0.00     0.261 C 
BRANCH   4   5
ATOM      5  O   UNL A   1      38.455  34.458  32.311  1.00  0.00    -0.463 OA
BRANCH   5   6
ATOM      6  C   UNL A   1      39.635  34.469  32.983  1.00  0.00     0.305 C 
ATOM      7  O   UNL A   1      39.756  34.831  34.152  1.00  0.00    -0.252 OA
BRANCH   6   8
ATOM      8  C   UNL A   1      40.845  33.978  32.214  1.00  0.00     0.123 C 
BRANCH   8   9
ATOM      9  C   UNL A   1      41.405  34.688  30.983  1.00  0.00     0.015 C 
BRANCH   9  10
ATOM     10  C   UNL A   1      42.034  33.858  29.825  1.00  0.00    -0.010 C 
ATOM     11  C   UNL A   1      42.022  32.361  30.079  1.00  0.00     0.008 C 
BRANCH  10  12
ATOM     12  C   UNL A   1      43.316  34.550  29.262  1.00  0.00     0.005 C 
ATOM     13  C   UNL A   1      44.302  34.830  30.449  1.00  0.00     0.005 C 
ATOM     14  C   UNL A   1      43.430  35.836  28.352  1.00  0.00     0.032 C 
ATOM     15  C   UNL A   1      45.002  36.141  30.148  1.00  0.00     0.005 C 
ATOM     16  C   UNL A   1      43.953  36.902  29.339  1.00  0.00     0.006 C 
ATOM     17  C   UNL A   1      42.295  36.495  27.576  1.00  0.00     0.139 C 
ATOM     18  C   UNL A   1      44.471  35.540  27.244  1.00  0.00     0.020 C 
ATOM     19  C   UNL A   1      44.477  38.185  28.672  1.00  0.00    -0.003 C 
ATOM     20  C   UNL A   1      42.670  37.780  26.828  1.00  0.00     0.080 C 
ATOM     21  O   UNL A   1      41.186  36.001  27.406  1.00  0.00    -0.299 OA
ATOM     22  C   UNL A   1      44.827  39.234  29.741  1.00  0.00     0.004 C 
ATOM     23  C   UNL A   1      43.439  38.787  27.692  1.00  0.00     0.006 C 
ATOM     24  C   UNL A   1      45.192  40.595  29.160  1.00  0.00     0.005 C 
ATOM     25  C   UNL A   1      44.031  40.048  26.931  1.00  0.00    -0.025 C 
ATOM     26  C   UNL A   1      44.231  41.103  28.053  1.00  0.00     0.002 C 
ATOM     27  C   UNL A   1      45.376  39.840  26.154  1.00  0.00     0.015 C 
ATOM     28  C   UNL A   1      42.995  40.515  25.874  1.00  0.00     0.012 C 
ATOM     29  C   UNL A   1      44.711  42.434  27.492  1.00  0.00     0.079 C 
ATOM     30  C   UNL A   1      46.423  40.978  26.189  1.00  0.00     0.076 C 
ATOM     31  C   UNL A   1      46.079  42.273  26.901  1.00  0.00     0.133 C 
ATOM     32  O   UNL A   1      46.902  43.190  26.977  1.00  0.00    -0.300 OA
ENDBRANCH  10  12
ENDBRANCH   9  10
ENDBRANCH   8   9
ENDBRANCH   6   8
ENDBRANCH   5   6
ENDBRANCH   4   5
ENDBRANCH   3   4
ENDBRANCH   2   3
ENDBRANCH   1   2
BRANCH   1  33
ATOM     33  C   UNL A   1      33.766  35.479  31.432  1.00  0.00     0.188 C 
BRANCH  33  34
ATOM     34  O   UNL A   1      33.504  34.543  30.390  1.00  0.00    -0.376 OA
BRANCH  34  35
ATOM     35  C   UNL A   1      34.394  33.428  30.339  1.00  0.00     0.202 C 
BRANCH  35  36
ATOM     36  C   UNL A   1      35.540  33.569  29.332  1.00  0.00     0.261 C 
BRANCH  36  37
ATOM     37  O   UNL A   1      35.177  32.975  28.085  1.00  0.00    -0.460 OA
BRANCH  37  38
ATOM     38  C   UNL A   1      34.810  31.670  28.153  1.00  0.00     0.338 C 
ATOM     39  O   UNL A   1      33.752  31.188  27.780  1.00  0.00    -0.246 OA
BRANCH  38  40
ATOM     40  C   UNL A   1      36.016  30.880  28.502  1.00  0.00     0.060 A 
ATOM     41  C   UNL A   1      35.924  29.981  29.575  1.00  0.00     0.016 A 
ATOM     42  C   UNL A   1      37.157  30.896  27.689  1.00  0.00     0.016 A 
ATOM     43  C   UNL A   1      36.976  29.113  29.848  1.00  0.00     0.010 A 
ATOM     44  C   UNL A   1      38.211  30.030  27.963  1.00  0.00     0.010 A 
ATOM     45  C   UNL A   1      38.137  29.168  29.068  1.00  0.00    -0.014 A 
BRANCH  45  46
ATOM     46  C   UNL A   1      39.380  28.552  29.572  1.00  0.00     0.031 A 
ATOM     47  C   UNL A   1      39.988  29.174  30.799  1.00  0.00     0.074 A 
ATOM     48  C   UNL A   1      39.933  27.485  28.973  1.00  0.00     0.049 A 
ATOM     49  N   UNL A   1      41.101  28.884  31.416  1.00  0.00    -0.248 NA
ATOM     50  C   UNL A   1      39.237  30.291  31.403  1.00  0.00     0.031 C 
ATOM     51  C   UNL A   1      39.394  26.797  27.799  1.00  0.00     0.029 A 
ATOM     52  N   UNL A   1      41.081  26.798  29.268  1.00  0.00    -0.354 N 
ATOM     53  C   UNL A   1      41.179  29.778  32.480  1.00  0.00     0.074 A 
ATOM     54  C   UNL A   1      40.036  30.655  32.392  1.00  0.00     0.031 C 
ATOM     55  C   UNL A   1      40.219  25.787  27.471  1.00  0.00     0.029 A 
ATOM     56  C   UNL A   1      41.358  25.781  28.384  1.00  0.00     0.049 A 
ATOM     57  H   UNL A   1      41.652  27.011  30.040  1.00  0.00     0.167 HD
ATOM     58  C   UNL A   1      42.117  29.845  33.453  1.00  0.00     0.034 A 
ATOM     59  C   UNL A   1      42.429  24.963  28.321  1.00  0.00     0.034 A 
ATOM     60  C   UNL A   1      43.258  28.969  33.503  1.00  0.00     0.049 A 
ATOM     61  C   UNL A   1      43.508  25.117  29.372  1.00  0.00     0.074 A 
ATOM     62  C   UNL A   1      44.282  28.941  34.430  1.00  0.00     0.029 A 
ATOM     63  N   UNL A   1      43.526  27.969  32.576  1.00  0.00    -0.354 N 
ATOM     64  N   UNL A   1      43.568  25.956  30.384  1.00  0.00    -0.248 NA
ATOM     65  C   UNL A   1      44.654  24.204  29.281  1.00  0.00     0.031 C 
ATOM     66  C   UNL A   1      45.207  27.973  34.023  1.00  0.00     0.029 A 
ATOM     67  C   UNL A   1      44.716  27.336  32.893  1.00  0.00     0.049 A 
ATOM     68  H   UNL A   1      42.954  27.743  31.808  1.00  0.00     0.167 HD
ATOM     69  C   UNL A   1      44.742  25.645  31.066  1.00  0.00     0.074 A 
ATOM     70  C   UNL A   1      45.340  24.526  30.366  1.00  0.00     0.031 C 
ATOM     71  C   UNL A   1      45.287  26.227  32.167  1.00  0.00     0.034 A 
BRANCH  58  72
ATOM     72  C   UNL A   1      41.960  30.923  34.495  1.00  0.00     0.023 A 
ATOM     73  C   UNL A   1      42.636  32.152  34.395  1.00  0.00     0.031 A 
ATOM     74  C   UNL A   1      41.147  30.708  35.620  1.00  0.00     0.131 A 
ATOM     75  C   UNL A   1      42.531  33.095  35.428  1.00  0.00     0.055 A 
ATOM     76  C   UNL A   1      40.984  31.681  36.608  1.00  0.00     0.041 A 
ATOM     77  F   UNL A   1      40.506  29.540  35.788  1.00  0.00    -0.206 F 
ATOM     78  C   UNL A   1      41.687  32.880  36.520  1.00  0.00     0.022 A 
BRANCH  75  79
ATOM     79  S   UNL A   1      43.610  34.553  35.388  1.00  0.00     0.124 S 
ATOM     80  O   UNL A   1      43.857  34.696  33.956  1.00  0.00    -0.237 OA
ATOM     81  O   UNL A   1      42.775  35.581  35.999  1.00  0.00    -0.237 OA
ATOM     82  O   UNL A   1      44.770  34.142  36.176  1.00  0.00    -0.744 OA
ENDBRANCH  75  79
ENDBRANCH  58  72
BRANCH  59  83
ATOM     83  C   UNL A   1      42.571  23.960  27.223  1.00  0.00     0.023 A 
ATOM     84  C   UNL A   1      41.943  22.706  27.298  1.00  0.00     0.031 A 
ATOM     85  C   UNL A   1      43.410  24.205  26.121  1.00  0.00     0.131 A 
ATOM     86  C   UNL A   1      42.216  21.724  26.332  1.00  0.00     0.055 A 
ATOM     87  C   UNL A   1      43.625  23.249  25.126  1.00  0.00     0.041 A 
ATOM     88  F   UNL A   1      44.045  25.381  25.998  1.00  0.00    -0.206 F 
ATOM     89  C   UNL A   1      43.040  21.991  25.239  1.00  0.00     0.022 A 
BRANCH  86  90
ATOM     90  S   UNL A   1      41.581  20.045  26.599  1.00  0.00     0.124 S 
ATOM     91  O   UNL A   1      40.149  20.287  26.732  1.00  0.00    -0.237 OA
ATOM     92  O   UNL A   1      42.005  19.363  25.382  1.00  0.00    -0.237 OA
ATOM     93  O   UNL A   1      42.256  19.615  27.822  1.00  0.00    -0.744 OA
ENDBRANCH  86  90
ENDBRANCH  59  83
BRANCH  71  94
ATOM     94  C   UNL A   1      46.567  25.624  32.694  1.00  0.00     0.023 A 
ATOM     95  C   UNL A   1      46.559  24.617  33.674  1.00  0.00     0.031 A 
ATOM     96  C   UNL A   1      47.811  26.082  32.226  1.00  0.00     0.131 A 
ATOM     97  C   UNL A   1      47.768  24.160  34.214  1.00  0.00     0.055 A 
ATOM     98  C   UNL A   1      49.013  25.565  32.710  1.00  0.00     0.041 A 
ATOM     99  F   UNL A   1      47.880  27.042  31.290  1.00  0.00    -0.206 F 
ATOM    100  C   UNL A   1      48.996  24.612  33.724  1.00  0.00     0.022 A 
BRANCH  97 101
ATOM    101  S   UNL A   1      47.712  23.061  35.655  1.00  0.00     0.124 S 
ATOM    102  O   UNL A   1      49.074  22.540  35.691  1.00  0.00    -0.237 OA
ATOM    103  O   UNL A   1      47.352  23.978  36.733  1.00  0.00    -0.237 OA
ATOM    104  O   UNL A   1      46.683  22.085  35.302  1.00  0.00    -0.744 OA
ENDBRANCH  97 101
ENDBRANCH  71  94
ENDBRANCH  45  46
ENDBRANCH  38  40
ENDBRANCH  37  38
ENDBRANCH  36  37
ENDBRANCH  35  36
ENDBRANCH  34  35
ENDBRANCH  33  34
ENDBRANCH   1  33
TORSDOF 23
ENDMDL
MODEL 2
REMARK VINA RESULT:      -8.9      4.118     12.412
REMARK SMILES C[C@@H](CCC(=O)OCCOCCOCCOC(=O)c1ccc(-c2c3nc(c(-c4cc(S(=O)(=O)[O-])ccc4F)c4ccc([nH]4)c(-c4cc(S(=O)(=O)[O-])ccc4F)c4nc(c(-c5cc(S(=O)(=O)[O-])ccc5F)c5ccc2[nH]5)C=C4)C=C3)cc1)[C@@H]1CC[C@H]2[C@@H]3CC[C@H]4CC(=O)CC[C@@]4(C)[C@H]3CC(=O)[C@@]21C
REMARK SMILES IDX 11 1 10 2 9 3 8 4 7 5 5 6 6 7 4 8 3 9 2 10 1 11 82 12 83 13
REMARK SMILES IDX 101 14 84 15 85 16 99 17 102 18 86 19 98 20 100 21 87 22
REMARK SMILES IDX 97 23 88 24 95 25 89 26 94 27 96 28 90 29 93 30 91 31 92 32
REMARK SMILES IDX 12 33 13 34 14 35 15 36 16 37 17 38 18 39 19 40 20 41 81 42
REMARK SMILES IDX 21 43 80 44 22 45 23 46 24 47 74 48 25 49 79 50 73 51 75 52
REMARK SMILES IDX 26 53 78 54 72 55 71 56 27 58 59 59 39 60 58 61 40 62 43 63
REMARK SMILES IDX 57 64 76 65 41 66 42 67 56 69 77 70 44 71 28 72 29 73 37 74
REMARK SMILES IDX 30 75 36 76 38 77 35 78 31 79 32 80 33 81 34 82 60 83 61 84
REMARK SMILES IDX 69 85 62 86 68 87 70 88 67 89 63 90 64 91 65 92 66 93 45 94
REMARK SMILES IDX 46 95 54 96 47 97 53 98 55 99 52 100 48 101 49 102 50 103
REMARK SMILES IDX 51 104
REMARK H PARENT 75 57 43 68
REMARK Flexibility Score: inf
ROOT
ATOM      1  C   UNL A   1      41.907  35.702  34.720  1.00  0.00     0.188 C 
ENDROOT
BRANCH   1   2
ATOM      2  O   UNL A   1      41.910  34.749  35.774  1.00  0.00    -0.376 OA
BRANCH   2   3
ATOM      3  C   UNL A   1      41.624  33.400  35.423  1.00  0.00     0.202 C 
BRANCH   3   4
ATOM      4  C   UNL A   1      40.548  33.171  34.339  1.00  0.00     0.261 C 
BRANCH   4   5
ATOM      5  O   UNL A   1      40.511  31.827  33.801  1.00  0.00    -0.463 OA
BRANCH   5   6
ATOM      6  C   UNL A   1      40.706  30.834  34.708  1.00  0.00     0.305 C 
ATOM      7  O   UNL A   1      39.942  30.598  35.642  1.00  0.00    -0.252 OA
BRANCH   6   8
ATOM      8  C   UNL A   1      41.940  29.980  34.505  1.00  0.00     0.123 C 
BRANCH   8   9
ATOM      9  C   UNL A   1      42.092  28.571  35.076  1.00  0.00     0.015 C 
BRANCH   9  10
ATOM     10  C   UNL A   1      42.848  27.479  34.262  1.00  0.00    -0.010 C 
ATOM     11  C   UNL A   1      42.729  27.656  32.759  1.00  0.00     0.008 C 
BRANCH  10  12
ATOM     12  C   UNL A   1      42.668  26.066  34.904  1.00  0.00     0.005 C 
ATOM     13  C   UNL A   1      42.378  26.240  36.435  1.00  0.00     0.005 C 
ATOM     14  C   UNL A   1      43.629  24.815  34.830  1.00  0.00     0.032 C 
ATOM     15  C   UNL A   1      43.047  25.082  37.151  1.00  0.00     0.005 C 
ATOM     16  C   UNL A   1      44.242  24.777  36.247  1.00  0.00     0.006 C 
ATOM     17  C   UNL A   1      44.790  24.625  33.860  1.00  0.00     0.139 C 
ATOM     18  C   UNL A   1      42.756  23.563  34.565  1.00  0.00     0.020 C 
ATOM     19  C   UNL A   1      44.976  23.469  36.590  1.00  0.00    -0.003 C 
ATOM     20  C   UNL A   1      45.607  23.342  34.057  1.00  0.00     0.080 C 
ATOM     21  O   UNL A   1      45.009  25.335  32.885  1.00  0.00    -0.299 OA
ATOM     22  C   UNL A   1      45.675  23.595  37.953  1.00  0.00     0.004 C 
ATOM     23  C   UNL A   1      46.027  23.103  35.513  1.00  0.00     0.006 C 
ATOM     24  C   UNL A   1      46.566  22.405  38.291  1.00  0.00     0.005 C 
ATOM     25  C   UNL A   1      46.701  21.699  35.821  1.00  0.00    -0.025 C 
ATOM     26  C   UNL A   1      47.492  21.944  37.134  1.00  0.00     0.002 C 
ATOM     27  C   UNL A   1      45.738  20.476  36.002  1.00  0.00     0.015 C 
ATOM     28  C   UNL A   1      47.637  21.333  34.638  1.00  0.00     0.012 C 
ATOM     29  C   UNL A   1      48.294  20.716  37.543  1.00  0.00     0.079 C 
ATOM     30  C   UNL A   1      46.080  19.434  37.094  1.00  0.00     0.076 C 
ATOM     31  C   UNL A   1      47.363  19.592  37.887  1.00  0.00     0.133 C 
ATOM     32  O   UNL A   1      47.651  18.800  38.787  1.00  0.00    -0.300 OA
ENDBRANCH  10  12
ENDBRANCH   9  10
ENDBRANCH   8   9
ENDBRANCH   6   8
ENDBRANCH   5   6
ENDBRANCH   4   5
ENDBRANCH   3   4
ENDBRANCH   2   3
ENDBRANCH   1   2
BRANCH   1  33
ATOM     33  C   UNL A   1      43.272  36.167  34.221  1.00  0.00     0.188 C 
BRANCH  33  34
ATOM     34  O   UNL A   1      43.267  37.340  33.411  1.00  0.00    -0.376 OA
BRANCH  34  35
ATOM     35  C   UNL A   1      43.878  37.194  32.129  1.00  0.00     0.202 C 
BRANCH  35  36
ATOM     36  C   UNL A   1      45.286  37.787  32.018  1.00  0.00     0.261 C 
BRANCH  36  37
ATOM     37  O   UNL A   1      46.202  36.798  31.548  1.00  0.00    -0.460 OA
BRANCH  37  38
ATOM     38  C   UNL A   1      46.252  36.652  30.200  1.00  0.00     0.338 C 
ATOM     39  O   UNL A   1      46.804  37.396  29.404  1.00  0.00    -0.246 OA
BRANCH  38  40
ATOM     40  C   UNL A   1      45.762  35.290  29.875  1.00  0.00     0.060 A 
ATOM     41  C   UNL A   1      45.061  35.114  28.673  1.00  0.00     0.016 A 
ATOM     42  C   UNL A   1      46.130  34.180  30.648  1.00  0.00     0.016 A 
ATOM     43  C   UNL A   1      44.710  33.835  28.252  1.00  0.00     0.010 A 
ATOM     44  C   UNL A   1      45.778  32.902  30.229  1.00  0.00     0.010 A 
ATOM     45  C   UNL A   1      45.031  32.733  29.052  1.00  0.00    -0.014 A 
BRANCH  45  46
ATOM     46  C   UNL A   1      44.340  31.447  28.828  1.00  0.00     0.031 A 
ATOM     47  C   UNL A   1      45.043  30.452  27.946  1.00  0.00     0.074 A 
ATOM     48  C   UNL A   1      43.152  31.177  29.391  1.00  0.00     0.049 A 
ATOM     49  N   UNL A   1      44.645  29.282  27.529  1.00  0.00    -0.248 NA
ATOM     50  C   UNL A   1      46.378  30.845  27.456  1.00  0.00     0.031 C 
ATOM     51  C   UNL A   1      42.415  32.070  30.286  1.00  0.00     0.029 A 
ATOM     52  N   UNL A   1      42.351  30.071  29.285  1.00  0.00    -0.354 N 
ATOM     53  C   UNL A   1      45.680  28.799  26.734  1.00  0.00     0.074 A 
ATOM     54  C   UNL A   1      46.696  29.824  26.679  1.00  0.00     0.031 C 
ATOM     55  C   UNL A   1      41.262  31.474  30.642  1.00  0.00     0.029 A 
ATOM     56  C   UNL A   1      41.164  30.180  29.971  1.00  0.00     0.049 A 
ATOM     57  H   UNL A   1      42.602  29.274  28.766  1.00  0.00     0.167 HD
ATOM     58  C   UNL A   1      45.777  27.598  26.120  1.00  0.00     0.034 A 
ATOM     59  C   UNL A   1      40.117  29.331  30.023  1.00  0.00     0.034 A 
ATOM     60  C   UNL A   1      44.738  26.603  26.175  1.00  0.00     0.049 A 
ATOM     61  C   UNL A   1      40.215  28.030  29.255  1.00  0.00     0.074 A 
ATOM     62  C   UNL A   1      44.710  25.352  25.590  1.00  0.00     0.029 A 
ATOM     63  N   UNL A   1      43.535  26.756  26.854  1.00  0.00    -0.354 N 
ATOM     64  N   UNL A   1      41.204  27.574  28.516  1.00  0.00    -0.248 NA
ATOM     65  C   UNL A   1      39.063  27.124  29.340  1.00  0.00     0.031 C 
ATOM     66  C   UNL A   1      43.462  24.778  25.854  1.00  0.00     0.029 A 
ATOM     67  C   UNL A   1      42.746  25.633  26.679  1.00  0.00     0.049 A 
ATOM     68  H   UNL A   1      43.282  27.547  27.384  1.00  0.00     0.167 HD
ATOM     69  C   UNL A   1      40.803  26.314  28.079  1.00  0.00     0.074 A 
ATOM     70  C   UNL A   1      39.498  26.074  28.661  1.00  0.00     0.031 C 
ATOM     71  C   UNL A   1      41.444  25.431  27.269  1.00  0.00     0.034 A 
BRANCH  58  72
ATOM     72  C   UNL A   1      47.020  27.330  25.311  1.00  0.00     0.023 A 
ATOM     73  C   UNL A   1      47.148  27.774  23.982  1.00  0.00     0.031 A 
ATOM     74  C   UNL A   1      48.081  26.594  25.864  1.00  0.00     0.131 A 
ATOM     75  C   UNL A   1      48.285  27.431  23.235  1.00  0.00     0.055 A 
ATOM     76  C   UNL A   1      49.244  26.322  25.141  1.00  0.00     0.041 A 
ATOM     77  F   UNL A   1      48.001  26.113  27.115  1.00  0.00    -0.206 F 
ATOM     78  C   UNL A   1      49.346  26.733  23.815  1.00  0.00     0.022 A 
BRANCH  75  79
ATOM     79  S   UNL A   1      48.302  27.800  21.459  1.00  0.00     0.124 S 
ATOM     80  O   UNL A   1      46.953  28.321  21.254  1.00  0.00    -0.237 OA
ATOM     81  O   UNL A   1      49.386  28.770  21.348  1.00  0.00    -0.237 OA
ATOM     82  O   UNL A   1      48.562  26.501  20.842  1.00  0.00    -0.744 OA
ENDBRANCH  75  79
ENDBRANCH  58  72
BRANCH  59  83
ATOM     83  C   UNL A   1      38.878  29.678  30.780  1.00  0.00     0.023 A 
ATOM     84  C   UNL A   1      37.931  30.574  30.256  1.00  0.00     0.031 A 
ATOM     85  C   UNL A   1      38.662  29.188  32.082  1.00  0.00     0.131 A 
ATOM     86  C   UNL A   1      36.856  31.004  31.049  1.00  0.00     0.055 A 
ATOM     87  C   UNL A   1      37.553  29.566  32.841  1.00  0.00     0.041 A 
ATOM     88  F   UNL A   1      39.535  28.335  32.640  1.00  0.00    -0.206 F 
ATOM     89  C   UNL A   1      36.651  30.496  32.332  1.00  0.00     0.022 A 
BRANCH  86  90
ATOM     90  S   UNL A   1      35.800  32.343  30.426  1.00  0.00     0.124 S 
ATOM     91  O   UNL A   1      35.037  31.660  29.388  1.00  0.00    -0.237 OA
ATOM     92  O   UNL A   1      35.057  32.725  31.622  1.00  0.00    -0.237 OA
ATOM     93  O   UNL A   1      36.758  33.336  29.945  1.00  0.00    -0.744 OA
ENDBRANCH  86  90
ENDBRANCH  59  83
BRANCH  71  94
ATOM     94  C   UNL A   1      40.751  24.114  27.013  1.00  0.00     0.023 A 
ATOM     95  C   UNL A   1      39.544  24.042  26.298  1.00  0.00     0.031 A 
ATOM     96  C   UNL A   1      41.295  22.917  27.514  1.00  0.00     0.131 A 
ATOM     97  C   UNL A   1      38.878  22.815  26.174  1.00  0.00     0.055 A 
ATOM     98  C   UNL A   1      40.668  21.687  27.318  1.00  0.00     0.041 A 
ATOM     99  F   UNL A   1      42.447  22.925  28.204  1.00  0.00    -0.206 F 
ATOM    100  C   UNL A   1      39.442  21.634  26.662  1.00  0.00     0.022 A 
BRANCH  97 101
ATOM    101  S   UNL A   1      37.202  22.807  25.482  1.00  0.00     0.124 S 
ATOM    102  O   UNL A   1      36.764  21.444  25.769  1.00  0.00    -0.237 OA
ATOM    103  O   UNL A   1      36.543  23.862  26.246  1.00  0.00    -0.237 OA
ATOM    104  O   UNL A   1      37.415  23.105  24.067  1.00  0.00    -0.744 OA
ENDBRANCH  97 101
ENDBRANCH  71  94
ENDBRANCH  45  46
ENDBRANCH  38  40
ENDBRANCH  37  38
ENDBRANCH  36  37
ENDBRANCH  35  36
ENDBRANCH  34  35
ENDBRANCH  33  34
ENDBRANCH   1  33
TORSDOF 23
ENDMDL
MODEL 3
REMARK VINA RESULT:      -8.8      5.253     11.730
REMARK SMILES C[C@@H](CCC(=O)OCCOCCOCCOC(=O)c1ccc(-c2c3nc(c(-c4cc(S(=O)(=O)[O-])ccc4F)c4ccc([nH]4)c(-c4cc(S(=O)(=O)[O-])ccc4F)c4nc(c(-c5cc(S(=O)(=O)[O-])ccc5F)c5ccc2[nH]5)C=C4)C=C3)cc1)[C@@H]1CC[C@H]2[C@@H]3CC[C@H]4CC(=O)CC[C@@]4(C)[C@H]3CC(=O)[C@@]21C
REMARK SMILES IDX 11 1 10 2 9 3 8 4 7 5 5 6 6 7 4 8 3 9 2 10 1 11 82 12 83 13
REMARK SMILES IDX 101 14 84 15 85 16 99 17 102 18 86 19 98 20 100 21 87 22
REMARK SMILES IDX 97 23 88 24 95 25 89 26 94 27 96 28 90 29 93 30 91 31 92 32
REMARK SMILES IDX 12 33 13 34 14 35 15 36 16 37 17 38 18 39 19 40 20 41 81 42
REMARK SMILES IDX 21 43 80 44 22 45 23 46 24 47 74 48 25 49 79 50 73 51 75 52
REMARK SMILES IDX 26 53 78 54 72 55 71 56 27 58 59 59 39 60 58 61 40 62 43 63
REMARK SMILES IDX 57 64 76 65 41 66 42 67 56 69 77 70 44 71 28 72 29 73 37 74
REMARK SMILES IDX 30 75 36 76 38 77 35 78 31 79 32 80 33 81 34 82 60 83 61 84
REMARK SMILES IDX 69 85 62 86 68 87 70 88 67 89 63 90 64 91 65 92 66 93 45 94
REMARK SMILES IDX 46 95 54 96 47 97 53 98 55 99 52 100 48 101 49 102 50 103
REMARK SMILES IDX 51 104
REMARK H PARENT 75 57 43 68
REMARK Flexibility Score: inf
ROOT
ATOM      1  C   UNL A   1      50.269  32.889  26.435  1.00  0.00     0.188 C 
ENDROOT
BRANCH   1   2
ATOM      2  O   UNL A   1      50.303  31.592  27.015  1.00  0.00    -0.376 OA
BRANCH   2   3
ATOM      3  C   UNL A   1      51.545  30.897  26.967  1.00  0.00     0.202 C 
BRANCH   3   4
ATOM      4  C   UNL A   1      51.556  29.532  26.243  1.00  0.00     0.261 C 
BRANCH   4   5
ATOM      5  O   UNL A   1      50.669  28.540  26.814  1.00  0.00    -0.463 OA
BRANCH   5   6
ATOM      6  C   UNL A   1      49.690  28.092  25.986  1.00  0.00     0.305 C 
ATOM      7  O   UNL A   1      49.812  28.002  24.766  1.00  0.00    -0.252 OA
BRANCH   6   8
ATOM      8  C   UNL A   1      48.396  27.671  26.651  1.00  0.00     0.123 C 
BRANCH   8   9
ATOM      9  C   UNL A   1      47.684  28.507  27.714  1.00  0.00     0.015 C 
BRANCH   9  10
ATOM     10  C   UNL A   1      46.389  29.291  27.348  1.00  0.00    -0.010 C 
ATOM     11  C   UNL A   1      46.481  30.778  27.638  1.00  0.00     0.008 C 
BRANCH  10  12
ATOM     12  C   UNL A   1      45.109  28.489  27.748  1.00  0.00     0.005 C 
ATOM     13  C   UNL A   1      44.038  28.650  26.615  1.00  0.00     0.005 C 
ATOM     14  C   UNL A   1      44.273  28.561  29.086  1.00  0.00     0.032 C 
ATOM     15  C   UNL A   1      42.679  28.691  27.287  1.00  0.00     0.005 C 
ATOM     16  C   UNL A   1      42.998  29.313  28.646  1.00  0.00     0.006 C 
ATOM     17  C   UNL A   1      44.717  29.207  30.394  1.00  0.00     0.139 C 
ATOM     18  C   UNL A   1      43.946  27.110  29.517  1.00  0.00     0.020 C 
ATOM     19  C   UNL A   1      41.841  29.250  29.657  1.00  0.00    -0.003 C 
ATOM     20  C   UNL A   1      43.675  29.197  31.518  1.00  0.00     0.080 C 
ATOM     21  O   UNL A   1      45.858  29.586  30.633  1.00  0.00    -0.299 OA
ATOM     22  C   UNL A   1      40.684  30.152  29.197  1.00  0.00     0.004 C 
ATOM     23  C   UNL A   1      42.292  29.689  31.073  1.00  0.00     0.006 C 
ATOM     24  C   UNL A   1      39.567  30.281  30.225  1.00  0.00     0.005 C 
ATOM     25  C   UNL A   1      41.120  29.518  32.129  1.00  0.00    -0.025 C 
ATOM     26  C   UNL A   1      40.053  30.551  31.674  1.00  0.00     0.002 C 
ATOM     27  C   UNL A   1      40.467  28.097  32.241  1.00  0.00     0.015 C 
ATOM     28  C   UNL A   1      41.678  29.843  33.540  1.00  0.00     0.012 C 
ATOM     29  C   UNL A   1      38.875  30.601  32.637  1.00  0.00     0.079 C 
ATOM     30  C   UNL A   1      38.937  28.011  32.448  1.00  0.00     0.076 C 
ATOM     31  C   UNL A   1      38.143  29.293  32.613  1.00  0.00     0.133 C 
ATOM     32  O   UNL A   1      36.917  29.263  32.747  1.00  0.00    -0.300 OA
ENDBRANCH  10  12
ENDBRANCH   9  10
ENDBRANCH   8   9
ENDBRANCH   6   8
ENDBRANCH   5   6
ENDBRANCH   4   5
ENDBRANCH   3   4
ENDBRANCH   2   3
ENDBRANCH   1   2
BRANCH   1  33
ATOM     33  C   UNL A   1      48.903  33.563  26.356  1.00  0.00     0.188 C 
BRANCH  33  34
ATOM     34  O   UNL A   1      48.712  34.447  25.254  1.00  0.00    -0.376 OA
BRANCH  34  35
ATOM     35  C   UNL A   1      47.534  35.250  25.318  1.00  0.00     0.202 C 
BRANCH  35  36
ATOM     36  C   UNL A   1      46.522  34.819  26.385  1.00  0.00     0.261 C 
BRANCH  36  37
ATOM     37  O   UNL A   1      45.689  33.775  25.882  1.00  0.00    -0.460 OA
BRANCH  37  38
ATOM     38  C   UNL A   1      44.371  34.083  25.787  1.00  0.00     0.338 C 
ATOM     39  O   UNL A   1      43.708  34.155  24.764  1.00  0.00    -0.246 OA
BRANCH  38  40
ATOM     40  C   UNL A   1      43.800  34.047  27.156  1.00  0.00     0.060 A 
ATOM     41  C   UNL A   1      43.702  32.802  27.795  1.00  0.00     0.016 A 
ATOM     42  C   UNL A   1      43.528  35.227  27.862  1.00  0.00     0.016 A 
ATOM     43  C   UNL A   1      43.314  32.732  29.129  1.00  0.00     0.010 A 
ATOM     44  C   UNL A   1      43.137  35.158  29.195  1.00  0.00     0.010 A 
ATOM     45  C   UNL A   1      42.990  33.908  29.816  1.00  0.00    -0.014 A 
BRANCH  45  46
ATOM     46  C   UNL A   1      42.218  33.825  31.072  1.00  0.00     0.031 A 
ATOM     47  C   UNL A   1      42.992  33.489  32.317  1.00  0.00     0.074 A 
ATOM     48  C   UNL A   1      40.894  34.049  31.102  1.00  0.00     0.049 A 
ATOM     49  N   UNL A   1      42.567  33.289  33.533  1.00  0.00    -0.248 NA
ATOM     50  C   UNL A   1      44.452  33.345  32.156  1.00  0.00     0.031 C 
ATOM     51  C   UNL A   1      40.069  34.413  29.949  1.00  0.00     0.029 A 
ATOM     52  N   UNL A   1      40.009  33.995  32.146  1.00  0.00    -0.354 N 
ATOM     53  C   UNL A   1      43.704  33.001  34.282  1.00  0.00     0.074 A 
ATOM     54  C   UNL A   1      44.827  32.995  33.374  1.00  0.00     0.031 C 
ATOM     55  C   UNL A   1      38.792  34.543  30.353  1.00  0.00     0.029 A 
ATOM     56  C   UNL A   1      38.705  34.234  31.778  1.00  0.00     0.049 A 
ATOM     57  H   UNL A   1      40.281  33.803  33.072  1.00  0.00     0.167 HD
ATOM     58  C   UNL A   1      43.800  32.779  35.613  1.00  0.00     0.034 A 
ATOM     59  C   UNL A   1      37.578  34.182  32.517  1.00  0.00     0.034 A 
ATOM     60  C   UNL A   1      42.660  32.772  36.490  1.00  0.00     0.049 A 
ATOM     61  C   UNL A   1      37.704  33.846  33.988  1.00  0.00     0.074 A 
ATOM     62  C   UNL A   1      42.622  32.552  37.853  1.00  0.00     0.029 A 
ATOM     63  N   UNL A   1      41.349  32.988  36.081  1.00  0.00    -0.354 N 
ATOM     64  N   UNL A   1      38.786  33.588  34.691  1.00  0.00    -0.248 NA
ATOM     65  C   UNL A   1      36.460  33.808  34.766  1.00  0.00     0.031 C 
ATOM     66  C   UNL A   1      41.282  32.562  38.256  1.00  0.00     0.029 A 
ATOM     67  C   UNL A   1      40.491  32.879  37.162  1.00  0.00     0.049 A 
ATOM     68  H   UNL A   1      41.071  33.191  35.159  1.00  0.00     0.167 HD
ATOM     69  C   UNL A   1      38.351  33.392  36.000  1.00  0.00     0.074 A 
ATOM     70  C   UNL A   1      36.915  33.591  35.990  1.00  0.00     0.031 C 
ATOM     71  C   UNL A   1      39.062  33.075  37.113  1.00  0.00     0.034 A 
BRANCH  58  72
ATOM     72  C   UNL A   1      45.170  32.486  36.171  1.00  0.00     0.023 A 
ATOM     73  C   UNL A   1      45.934  33.478  36.813  1.00  0.00     0.031 A 
ATOM     74  C   UNL A   1      45.733  31.207  36.032  1.00  0.00     0.131 A 
ATOM     75  C   UNL A   1      47.238  33.188  37.242  1.00  0.00     0.055 A 
ATOM     76  C   UNL A   1      47.001  30.903  36.531  1.00  0.00     0.041 A 
ATOM     77  F   UNL A   1      45.066  30.231  35.395  1.00  0.00    -0.206 F 
ATOM     78  C   UNL A   1      47.766  31.900  37.131  1.00  0.00     0.022 A 
BRANCH  75  79
ATOM     79  S   UNL A   1      48.282  34.550  37.832  1.00  0.00     0.124 S 
ATOM     80  O   UNL A   1      49.620  34.042  37.539  1.00  0.00    -0.237 OA
ATOM     81  O   UNL A   1      47.830  35.671  37.017  1.00  0.00    -0.237 OA
ATOM     82  O   UNL A   1      47.954  34.640  39.253  1.00  0.00    -0.744 OA
ENDBRANCH  75  79
ENDBRANCH  58  72
BRANCH  59  83
ATOM     83  C   UNL A   1      36.238  34.409  31.899  1.00  0.00     0.023 A 
ATOM     84  C   UNL A   1      35.501  35.575  32.165  1.00  0.00     0.031 A 
ATOM     85  C   UNL A   1      35.631  33.423  31.099  1.00  0.00     0.131 A 
ATOM     86  C   UNL A   1      34.182  35.696  31.699  1.00  0.00     0.055 A 
ATOM     87  C   UNL A   1      34.344  33.577  30.581  1.00  0.00     0.041 A 
ATOM     88  F   UNL A   1      36.282  32.283  30.816  1.00  0.00    -0.206 F 
ATOM     89  C   UNL A   1      33.604  34.712  30.896  1.00  0.00     0.022 A 
BRANCH  86  90
ATOM     90  S   UNL A   1      33.186  37.101  32.271  1.00  0.00     0.124 S 
ATOM     91  O   UNL A   1      32.988  37.847  31.033  1.00  0.00    -0.237 OA
ATOM     92  O   UNL A   1      32.006  36.435  32.813  1.00  0.00    -0.237 OA
ATOM     93  O   UNL A   1      34.045  37.749  33.260  1.00  0.00    -0.744 OA
ENDBRANCH  86  90
ENDBRANCH  59  83
BRANCH  71  94
ATOM     94  C   UNL A   1      38.292  32.970  38.408  1.00  0.00     0.023 A 
ATOM     95  C   UNL A   1      38.384  33.958  39.402  1.00  0.00     0.031 A 
ATOM     96  C   UNL A   1      37.474  31.854  38.658  1.00  0.00     0.131 A 
ATOM     97  C   UNL A   1      37.738  33.772  40.633  1.00  0.00     0.055 A 
ATOM     98  C   UNL A   1      36.769  31.713  39.854  1.00  0.00     0.041 A 
ATOM     99  F   UNL A   1      37.348  30.879  37.743  1.00  0.00    -0.206 F 
ATOM    100  C   UNL A   1      36.915  32.666  40.857  1.00  0.00     0.022 A 
BRANCH  97 101
ATOM    101  S   UNL A   1      38.094  34.931  41.980  1.00  0.00     0.124 S 
ATOM    102  O   UNL A   1      39.445  34.537  42.368  1.00  0.00    -0.237 OA
ATOM    103  O   UNL A   1      37.974  36.226  41.318  1.00  0.00    -0.237 OA
ATOM    104  O   UNL A   1      37.056  34.639  42.966  1.00  0.00    -0.744 OA
ENDBRANCH  97 101
ENDBRANCH  71  94
ENDBRANCH  45  46
ENDBRANCH  38  40
ENDBRANCH  37  38
ENDBRANCH  36  37
ENDBRANCH  35  36
ENDBRANCH  34  35
ENDBRANCH  33  34
ENDBRANCH   1  33
TORSDOF 23
ENDMDL
