MODEL 1
REMARK VINA RESULT:     -10.4      0.000      0.000
REMARK SMILES C[C@@H](NC(=O)[C@@H]1CC[C@@H]2CCCC[C@@H]2[NH2+]1)C(=O)OCCOCCOCCOC(=O)c1ccc(-c2c3nc(c(-c4cc(S(=O)(=O)[O-])ccc4F)c4ccc([nH]4)c(-c4cc(S(=O)(=O)[O-])ccc4F)c4nc(c(-c5cc(S(=O)(=O)[O-])ccc5F)c5ccc2[nH]5)C=C4)C=C3)cc1
REMARK SMILES IDX 23 1 22 2 21 3 20 4 19 5 18 6 16 7 17 8 2 9 1 10 3 11 4 12
REMARK SMILES IDX 5 14 6 15 7 16 15 17 8 18 14 19 9 22 13 23 10 24 12 25 11 26
REMARK SMILES IDX 24 27 25 28 26 29 27 30 28 31 29 32 30 33 31 34 92 35 32 36
REMARK SMILES IDX 91 37 33 38 34 39 35 40 85 41 36 42 90 43 84 44 86 45 37 46
REMARK SMILES IDX 89 47 83 48 82 49 38 51 70 52 50 53 69 54 51 55 54 56 68 57
REMARK SMILES IDX 87 58 52 59 53 60 67 62 88 63 55 64 39 65 40 66 48 67 41 68
REMARK SMILES IDX 47 69 49 70 46 71 42 72 43 73 44 74 45 75 71 76 72 77 80 78
REMARK SMILES IDX 73 79 79 80 81 81 78 82 74 83 75 84 76 85 77 86 56 87 57 88
REMARK SMILES IDX 65 89 58 90 64 91 66 92 63 93 59 94 60 95 61 96 62 97
REMARK H PARENT 3 13 15 20 15 21 86 50 54 61
REMARK Flexibility Score: inf
ROOT
ATOM      1  C   UNL A   1      33.285  28.837  24.429  1.00  0.00     0.188 C 
ENDROOT
BRANCH   1   2
ATOM      2  C   UNL A   1      32.751  27.413  24.193  1.00  0.00     0.188 C 
BRANCH   2   3
ATOM      3  O   UNL A   1      32.397  27.165  22.824  1.00  0.00    -0.376 OA
BRANCH   3   4
ATOM      4  C   UNL A   1      31.244  26.345  22.665  1.00  0.00     0.202 C 
BRANCH   4   5
ATOM      5  C   UNL A   1      30.164  26.675  23.705  1.00  0.00     0.261 C 
BRANCH   5   6
ATOM      6  O   UNL A   1      29.711  25.565  24.506  1.00  0.00    -0.462 OA
BRANCH   6   7
ATOM      7  C   UNL A   1      30.219  25.402  25.752  1.00  0.00     0.328 C 
ATOM      8  O   UNL A   1      30.322  26.320  26.557  1.00  0.00    -0.250 OA
BRANCH   7   9
ATOM      9  C   UNL A   1      30.791  23.975  25.967  1.00  0.00     0.189 C 
ATOM     10  C   UNL A   1      29.846  23.178  26.870  1.00  0.00     0.043 C 
BRANCH   9  11
ATOM     11  N   UNL A   1      31.128  23.182  24.766  1.00  0.00    -0.338 N 
ATOM     12  C   UNL A   1      32.339  22.958  24.155  1.00  0.00     0.278 C 
ATOM     13  H   UNL A   1      30.361  22.744  24.333  1.00  0.00     0.164 HD
ATOM     14  O   UNL A   1      32.374  22.054  23.312  1.00  0.00    -0.268 OA
BRANCH  12  15
ATOM     15  C   UNL A   1      33.547  23.901  24.391  1.00  0.00     0.272 C 
ATOM     16  C   UNL A   1      34.521  24.067  23.210  1.00  0.00     0.076 C 
ATOM     17  N   UNL A   1      34.187  23.655  25.688  1.00  0.00    -0.333 N 
ATOM     18  C   UNL A   1      35.770  23.190  23.280  1.00  0.00     0.016 C 
ATOM     19  C   UNL A   1      35.334  22.761  25.705  1.00  0.00     0.186 C 
ATOM     20  H   UNL A   1      33.480  23.260  26.309  1.00  0.00     0.347 HD
ATOM     21  H   UNL A   1      34.556  24.563  25.974  1.00  0.00     0.347 HD
ATOM     22  C   UNL A   1      36.371  23.223  24.690  1.00  0.00     0.048 C 
ATOM     23  C   UNL A   1      34.932  21.292  25.538  1.00  0.00     0.065 C 
ATOM     24  C   UNL A   1      37.618  22.358  24.860  1.00  0.00     0.010 C 
ATOM     25  C   UNL A   1      36.101  20.329  25.327  1.00  0.00     0.006 C 
ATOM     26  C   UNL A   1      37.344  20.881  24.624  1.00  0.00     0.001 C 
ENDBRANCH  12  15
ENDBRANCH   9  11
ENDBRANCH   7   9
ENDBRANCH   6   7
ENDBRANCH   5   6
ENDBRANCH   4   5
ENDBRANCH   3   4
ENDBRANCH   2   3
ENDBRANCH   1   2
BRANCH   1  27
ATOM     27  O   UNL A   1      33.186  29.406  25.734  1.00  0.00    -0.376 OA
BRANCH  27  28
ATOM     28  C   UNL A   1      32.396  30.569  25.934  1.00  0.00     0.202 C 
BRANCH  28  29
ATOM     29  C   UNL A   1      32.564  31.340  27.245  1.00  0.00     0.261 C 
BRANCH  29  30
ATOM     30  O   UNL A   1      32.870  32.724  27.045  1.00  0.00    -0.460 OA
BRANCH  30  31
ATOM     31  C   UNL A   1      33.577  33.274  28.068  1.00  0.00     0.338 C 
ATOM     32  O   UNL A   1      33.221  34.162  28.814  1.00  0.00    -0.246 OA
BRANCH  31  33
ATOM     33  C   UNL A   1      34.817  32.502  28.267  1.00  0.00     0.060 A 
ATOM     34  C   UNL A   1      34.685  31.145  28.591  1.00  0.00     0.016 A 
ATOM     35  C   UNL A   1      36.074  33.105  28.202  1.00  0.00     0.016 A 
ATOM     36  C   UNL A   1      35.809  30.390  28.903  1.00  0.00     0.010 A 
ATOM     37  C   UNL A   1      37.202  32.354  28.544  1.00  0.00     0.010 A 
ATOM     38  C   UNL A   1      37.064  31.011  28.942  1.00  0.00    -0.014 A 
BRANCH  38  39
ATOM     39  C   UNL A   1      38.162  30.354  29.689  1.00  0.00     0.031 A 
ATOM     40  C   UNL A   1      38.390  30.792  31.111  1.00  0.00     0.074 A 
ATOM     41  C   UNL A   1      38.913  29.385  29.143  1.00  0.00     0.049 A 
ATOM     42  N   UNL A   1      39.328  30.448  31.952  1.00  0.00    -0.248 NA
ATOM     43  C   UNL A   1      37.421  31.761  31.649  1.00  0.00     0.031 C 
ATOM     44  C   UNL A   1      38.733  28.824  27.806  1.00  0.00     0.029 A 
ATOM     45  N   UNL A   1      39.987  28.704  29.656  1.00  0.00    -0.354 N 
ATOM     46  C   UNL A   1      39.070  31.166  33.116  1.00  0.00     0.074 A 
ATOM     47  C   UNL A   1      37.910  31.990  32.855  1.00  0.00     0.031 C 
ATOM     48  C   UNL A   1      39.681  27.892  27.598  1.00  0.00     0.029 A 
ATOM     49  C   UNL A   1      40.554  27.823  28.769  1.00  0.00     0.049 A 
ATOM     50  H   UNL A   1      40.320  28.835  30.573  1.00  0.00     0.167 HD
ATOM     51  C   UNL A   1      39.735  31.135  34.295  1.00  0.00     0.034 A 
ATOM     52  C   UNL A   1      41.671  27.075  28.885  1.00  0.00     0.034 A 
ATOM     53  C   UNL A   1      40.903  30.324  34.528  1.00  0.00     0.049 A 
ATOM     54  C   UNL A   1      42.469  27.140  30.167  1.00  0.00     0.074 A 
ATOM     55  C   UNL A   1      41.668  30.220  35.676  1.00  0.00     0.029 A 
ATOM     56  N   UNL A   1      41.487  29.486  33.585  1.00  0.00    -0.354 N 
ATOM     57  N   UNL A   1      42.233  27.836  31.257  1.00  0.00    -0.248 NA
ATOM     58  C   UNL A   1      43.682  26.315  30.233  1.00  0.00     0.031 C 
ATOM     59  C   UNL A   1      42.753  29.378  35.404  1.00  0.00     0.029 A 
ATOM     60  C   UNL A   1      42.620  28.888  34.114  1.00  0.00     0.049 A 
ATOM     61  H   UNL A   1      41.145  29.339  32.673  1.00  0.00     0.167 HD
ATOM     62  C   UNL A   1      43.249  27.501  32.151  1.00  0.00     0.074 A 
ATOM     63  C   UNL A   1      44.095  26.540  31.472  1.00  0.00     0.031 C 
ATOM     64  C   UNL A   1      43.459  27.938  33.420  1.00  0.00     0.034 A 
BRANCH  51  65
ATOM     65  C   UNL A   1      39.247  32.068  35.378  1.00  0.00     0.023 A 
ATOM     66  C   UNL A   1      39.703  33.395  35.475  1.00  0.00     0.031 A 
ATOM     67  C   UNL A   1      38.377  31.597  36.378  1.00  0.00     0.131 A 
ATOM     68  C   UNL A   1      39.364  34.172  36.595  1.00  0.00     0.055 A 
ATOM     69  C   UNL A   1      37.971  32.406  37.441  1.00  0.00     0.041 A 
ATOM     70  F   UNL A   1      37.932  30.332  36.356  1.00  0.00    -0.206 F 
ATOM     71  C   UNL A   1      38.481  33.695  37.566  1.00  0.00     0.022 A 
BRANCH  68  72
ATOM     72  S   UNL A   1      40.241  35.738  36.858  1.00  0.00     0.124 S 
ATOM     73  O   UNL A   1      39.638  36.589  35.834  1.00  0.00    -0.237 OA
ATOM     74  O   UNL A   1      39.902  36.061  38.238  1.00  0.00    -0.237 OA
ATOM     75  O   UNL A   1      41.641  35.390  36.623  1.00  0.00    -0.744 OA
ENDBRANCH  68  72
ENDBRANCH  51  65
BRANCH  52  76
ATOM     76  C   UNL A   1      42.134  26.232  27.746  1.00  0.00     0.023 A 
ATOM     77  C   UNL A   1      41.798  24.872  27.667  1.00  0.00     0.031 A 
ATOM     78  C   UNL A   1      42.964  26.767  26.745  1.00  0.00     0.131 A 
ATOM     79  C   UNL A   1      42.320  24.082  26.630  1.00  0.00     0.055 A 
ATOM     80  C   UNL A   1      43.441  25.989  25.688  1.00  0.00     0.041 A 
ATOM     81  F   UNL A   1      43.318  28.062  26.775  1.00  0.00    -0.206 F 
ATOM     82  C   UNL A   1      43.129  24.635  25.634  1.00  0.00     0.022 A 
BRANCH  79  83
ATOM     83  S   UNL A   1      41.983  22.300  26.639  1.00  0.00     0.124 S 
ATOM     84  O   UNL A   1      40.535  22.274  26.805  1.00  0.00    -0.237 OA
ATOM     85  O   UNL A   1      42.488  21.889  25.333  1.00  0.00    -0.237 OA
ATOM     86  O   UNL A   1      42.752  21.815  27.783  1.00  0.00    -0.744 OA
ENDBRANCH  79  83
ENDBRANCH  52  76
BRANCH  64  87
ATOM     87  C   UNL A   1      44.618  27.332  34.177  1.00  0.00     0.023 A 
ATOM     88  C   UNL A   1      44.487  26.145  34.919  1.00  0.00     0.031 A 
ATOM     89  C   UNL A   1      45.878  27.959  34.150  1.00  0.00     0.131 A 
ATOM     90  C   UNL A   1      45.581  25.653  35.648  1.00  0.00     0.055 A 
ATOM     91  C   UNL A   1      46.977  27.431  34.828  1.00  0.00     0.041 A 
ATOM     92  F   UNL A   1      46.062  29.095  33.459  1.00  0.00    -0.206 F 
ATOM     93  C   UNL A   1      46.829  26.279  35.593  1.00  0.00     0.022 A 
BRANCH  90  94
ATOM     94  S   UNL A   1      45.329  24.233  36.749  1.00  0.00     0.124 S 
ATOM     95  O   UNL A   1      44.467  24.799  37.783  1.00  0.00    -0.237 OA
ATOM     96  O   UNL A   1      44.704  23.258  35.862  1.00  0.00    -0.237 OA
ATOM     97  O   UNL A   1      46.681  23.893  37.188  1.00  0.00    -0.744 OA
ENDBRANCH  90  94
ENDBRANCH  64  87
ENDBRANCH  38  39
ENDBRANCH  31  33
ENDBRANCH  30  31
ENDBRANCH  29  30
ENDBRANCH  28  29
ENDBRANCH  27  28
ENDBRANCH   1  27
TORSDOF 22
ENDMDL
MODEL 2
REMARK VINA RESULT:     -10.1      2.387      3.143
REMARK SMILES C[C@@H](NC(=O)[C@@H]1CC[C@@H]2CCCC[C@@H]2[NH2+]1)C(=O)OCCOCCOCCOC(=O)c1ccc(-c2c3nc(c(-c4cc(S(=O)(=O)[O-])ccc4F)c4ccc([nH]4)c(-c4cc(S(=O)(=O)[O-])ccc4F)c4nc(c(-c5cc(S(=O)(=O)[O-])ccc5F)c5ccc2[nH]5)C=C4)C=C3)cc1
REMARK SMILES IDX 23 1 22 2 21 3 20 4 19 5 18 6 16 7 17 8 2 9 1 10 3 11 4 12
REMARK SMILES IDX 5 14 6 15 7 16 15 17 8 18 14 19 9 22 13 23 10 24 12 25 11 26
REMARK SMILES IDX 24 27 25 28 26 29 27 30 28 31 29 32 30 33 31 34 92 35 32 36
REMARK SMILES IDX 91 37 33 38 34 39 35 40 85 41 36 42 90 43 84 44 86 45 37 46
REMARK SMILES IDX 89 47 83 48 82 49 38 51 70 52 50 53 69 54 51 55 54 56 68 57
REMARK SMILES IDX 87 58 52 59 53 60 67 62 88 63 55 64 39 65 40 66 48 67 41 68
REMARK SMILES IDX 47 69 49 70 46 71 42 72 43 73 44 74 45 75 71 76 72 77 80 78
REMARK SMILES IDX 73 79 79 80 81 81 78 82 74 83 75 84 76 85 77 86 56 87 57 88
REMARK SMILES IDX 65 89 58 90 64 91 66 92 63 93 59 94 60 95 61 96 62 97
REMARK H PARENT 3 13 15 20 15 21 86 50 54 61
REMARK Flexibility Score: inf
ROOT
ATOM      1  C   UNL A   1      34.100  31.515  27.739  1.00  0.00     0.188 C 
ENDROOT
BRANCH   1   2
ATOM      2  C   UNL A   1      33.661  30.237  27.002  1.00  0.00     0.188 C 
BRANCH   2   3
ATOM      3  O   UNL A   1      32.253  30.203  26.725  1.00  0.00    -0.376 OA
BRANCH   3   4
ATOM      4  C   UNL A   1      31.939  29.964  25.357  1.00  0.00     0.202 C 
BRANCH   4   5
ATOM      5  C   UNL A   1      31.436  28.530  25.133  1.00  0.00     0.261 C 
BRANCH   5   6
ATOM      6  O   UNL A   1      30.384  28.386  24.157  1.00  0.00    -0.462 OA
BRANCH   6   7
ATOM      7  C   UNL A   1      30.637  27.699  23.015  1.00  0.00     0.328 C 
ATOM      8  O   UNL A   1      30.386  28.141  21.900  1.00  0.00    -0.250 OA
BRANCH   7   9
ATOM      9  C   UNL A   1      31.122  26.252  23.301  1.00  0.00     0.189 C 
ATOM     10  C   UNL A   1      29.923  25.376  23.673  1.00  0.00     0.043 C 
BRANCH   9  11
ATOM     11  N   UNL A   1      31.933  25.582  22.263  1.00  0.00    -0.338 N 
ATOM     12  C   UNL A   1      32.969  24.685  22.379  1.00  0.00     0.278 C 
ATOM     13  H   UNL A   1      31.694  25.817  21.338  1.00  0.00     0.164 HD
ATOM     14  O   UNL A   1      33.304  24.092  21.347  1.00  0.00    -0.268 OA
BRANCH  12  15
ATOM     15  C   UNL A   1      33.777  24.555  23.695  1.00  0.00     0.272 C 
ATOM     16  C   UNL A   1      35.174  23.919  23.575  1.00  0.00     0.076 C 
ATOM     17  N   UNL A   1      32.955  24.034  24.792  1.00  0.00    -0.333 N 
ATOM     18  C   UNL A   1      35.235  22.432  23.922  1.00  0.00     0.016 C 
ATOM     19  C   UNL A   1      33.002  22.601  25.037  1.00  0.00     0.186 C 
ATOM     20  H   UNL A   1      31.984  24.279  24.593  1.00  0.00     0.347 HD
ATOM     21  H   UNL A   1      33.343  24.457  25.636  1.00  0.00     0.347 HD
ATOM     22  C   UNL A   1      34.446  22.147  25.205  1.00  0.00     0.048 C 
ATOM     23  C   UNL A   1      32.233  21.802  23.978  1.00  0.00     0.065 C 
ATOM     24  C   UNL A   1      34.435  20.678  25.621  1.00  0.00     0.010 C 
ATOM     25  C   UNL A   1      32.429  20.287  24.053  1.00  0.00     0.006 C 
ATOM     26  C   UNL A   1      33.771  19.780  24.588  1.00  0.00     0.001 C 
ENDBRANCH  12  15
ENDBRANCH   9  11
ENDBRANCH   7   9
ENDBRANCH   6   7
ENDBRANCH   5   6
ENDBRANCH   4   5
ENDBRANCH   3   4
ENDBRANCH   2   3
ENDBRANCH   1   2
BRANCH   1  27
ATOM     27  O   UNL A   1      33.122  32.510  28.039  1.00  0.00    -0.376 OA
BRANCH  27  28
ATOM     28  C   UNL A   1      33.347  33.855  27.642  1.00  0.00     0.202 C 
BRANCH  28  29
ATOM     29  C   UNL A   1      32.921  34.972  28.599  1.00  0.00     0.261 C 
BRANCH  29  30
ATOM     30  O   UNL A   1      32.806  34.531  29.956  1.00  0.00    -0.460 OA
BRANCH  30  31
ATOM     31  C   UNL A   1      33.851  34.912  30.738  1.00  0.00     0.338 C 
ATOM     32  O   UNL A   1      33.881  35.831  31.530  1.00  0.00    -0.246 OA
BRANCH  31  33
ATOM     33  C   UNL A   1      34.930  33.914  30.620  1.00  0.00     0.060 A 
ATOM     34  C   UNL A   1      34.749  32.689  31.277  1.00  0.00     0.016 A 
ATOM     35  C   UNL A   1      36.115  34.194  29.938  1.00  0.00     0.016 A 
ATOM     36  C   UNL A   1      35.776  31.753  31.300  1.00  0.00     0.010 A 
ATOM     37  C   UNL A   1      37.157  33.265  29.985  1.00  0.00     0.010 A 
ATOM     38  C   UNL A   1      37.005  32.066  30.707  1.00  0.00    -0.014 A 
BRANCH  38  39
ATOM     39  C   UNL A   1      38.206  31.296  31.105  1.00  0.00     0.031 A 
ATOM     40  C   UNL A   1      38.855  31.655  32.416  1.00  0.00     0.074 A 
ATOM     41  C   UNL A   1      38.691  30.296  30.353  1.00  0.00     0.049 A 
ATOM     42  N   UNL A   1      39.955  31.203  32.955  1.00  0.00    -0.248 NA
ATOM     43  C   UNL A   1      38.159  32.671  33.221  1.00  0.00     0.031 C 
ATOM     44  C   UNL A   1      38.102  29.808  29.108  1.00  0.00     0.029 A 
ATOM     45  N   UNL A   1      39.803  29.514  30.533  1.00  0.00    -0.354 N 
ATOM     46  C   UNL A   1      40.091  31.889  34.158  1.00  0.00     0.074 A 
ATOM     47  C   UNL A   1      38.980  32.810  34.247  1.00  0.00     0.031 C 
ATOM     48  C   UNL A   1      38.871  28.816  28.626  1.00  0.00     0.029 A 
ATOM     49  C   UNL A   1      40.025  28.630  29.505  1.00  0.00     0.049 A 
ATOM     50  H   UNL A   1      40.386  29.579  31.323  1.00  0.00     0.167 HD
ATOM     51  C   UNL A   1      41.051  31.757  35.105  1.00  0.00     0.034 A 
ATOM     52  C   UNL A   1      41.062  27.794  29.291  1.00  0.00     0.034 A 
ATOM     53  C   UNL A   1      42.165  30.850  34.987  1.00  0.00     0.049 A 
ATOM     54  C   UNL A   1      42.185  27.743  30.301  1.00  0.00     0.074 A 
ATOM     55  C   UNL A   1      43.205  30.638  35.874  1.00  0.00     0.029 A 
ATOM     56  N   UNL A   1      42.391  30.010  33.902  1.00  0.00    -0.354 N 
ATOM     57  N   UNL A   1      42.320  28.408  31.427  1.00  0.00    -0.248 NA
ATOM     58  C   UNL A   1      43.294  26.825  30.010  1.00  0.00     0.031 C 
ATOM     59  C   UNL A   1      44.096  29.728  35.293  1.00  0.00     0.029 A 
ATOM     60  C   UNL A   1      43.570  29.304  34.082  1.00  0.00     0.049 A 
ATOM     61  H   UNL A   1      41.799  29.929  33.119  1.00  0.00     0.167 HD
ATOM     62  C   UNL A   1      43.511  27.958  31.995  1.00  0.00     0.074 A 
ATOM     63  C   UNL A   1      44.052  26.965  31.089  1.00  0.00     0.031 C 
ATOM     64  C   UNL A   1      44.100  28.324  33.163  1.00  0.00     0.034 A 
BRANCH  51  65
ATOM     65  C   UNL A   1      40.964  32.678  36.299  1.00  0.00     0.023 A 
ATOM     66  C   UNL A   1      40.141  32.386  37.402  1.00  0.00     0.031 A 
ATOM     67  C   UNL A   1      41.649  33.906  36.297  1.00  0.00     0.131 A 
ATOM     68  C   UNL A   1      39.951  33.348  38.407  1.00  0.00     0.055 A 
ATOM     69  C   UNL A   1      41.527  34.819  37.346  1.00  0.00     0.041 A 
ATOM     70  F   UNL A   1      42.425  34.253  35.259  1.00  0.00    -0.206 F 
ATOM     71  C   UNL A   1      40.658  34.552  38.399  1.00  0.00     0.022 A 
BRANCH  68  72
ATOM     72  S   UNL A   1      38.629  33.080  39.620  1.00  0.00     0.124 S 
ATOM     73  O   UNL A   1      38.468  34.419  40.182  1.00  0.00    -0.237 OA
ATOM     74  O   UNL A   1      37.532  32.598  38.791  1.00  0.00    -0.237 OA
ATOM     75  O   UNL A   1      39.200  32.094  40.536  1.00  0.00    -0.744 OA
ENDBRANCH  68  72
ENDBRANCH  51  65
BRANCH  52  76
ATOM     76  C   UNL A   1      41.118  26.967  28.052  1.00  0.00     0.023 A 
ATOM     77  C   UNL A   1      40.847  25.591  28.085  1.00  0.00     0.031 A 
ATOM     78  C   UNL A   1      41.495  27.537  26.822  1.00  0.00     0.131 A 
ATOM     79  C   UNL A   1      40.993  24.821  26.920  1.00  0.00     0.055 A 
ATOM     80  C   UNL A   1      41.592  26.776  25.656  1.00  0.00     0.041 A 
ATOM     81  F   UNL A   1      41.769  28.848  26.736  1.00  0.00    -0.206 F 
ATOM     82  C   UNL A   1      41.352  25.407  25.704  1.00  0.00     0.022 A 
BRANCH  79  83
ATOM     83  S   UNL A   1      40.774  23.024  27.031  1.00  0.00     0.124 S 
ATOM     84  O   UNL A   1      41.624  22.554  25.943  1.00  0.00    -0.237 OA
ATOM     85  O   UNL A   1      41.248  22.745  28.383  1.00  0.00    -0.237 OA
ATOM     86  O   UNL A   1      39.339  22.843  26.827  1.00  0.00    -0.744 OA
ENDBRANCH  79  83
ENDBRANCH  52  76
BRANCH  64  87
ATOM     87  C   UNL A   1      45.367  27.598  33.555  1.00  0.00     0.023 A 
ATOM     88  C   UNL A   1      46.642  28.089  33.227  1.00  0.00     0.031 A 
ATOM     89  C   UNL A   1      45.289  26.390  34.274  1.00  0.00     0.131 A 
ATOM     90  C   UNL A   1      47.785  27.349  33.567  1.00  0.00     0.055 A 
ATOM     91  C   UNL A   1      46.431  25.690  34.663  1.00  0.00     0.041 A 
ATOM     92  F   UNL A   1      44.098  25.873  34.615  1.00  0.00    -0.206 F 
ATOM     93  C   UNL A   1      47.688  26.162  34.298  1.00  0.00     0.022 A 
BRANCH  90  94
ATOM     94  S   UNL A   1      49.401  27.908  32.961  1.00  0.00     0.124 S 
ATOM     95  O   UNL A   1      50.222  26.714  33.138  1.00  0.00    -0.237 OA
ATOM     96  O   UNL A   1      49.105  28.279  31.581  1.00  0.00    -0.237 OA
ATOM     97  O   UNL A   1      49.733  29.024  33.844  1.00  0.00    -0.744 OA
ENDBRANCH  90  94
ENDBRANCH  64  87
ENDBRANCH  38  39
ENDBRANCH  31  33
ENDBRANCH  30  31
ENDBRANCH  29  30
ENDBRANCH  28  29
ENDBRANCH  27  28
ENDBRANCH   1  27
TORSDOF 22
ENDMDL
MODEL 3
REMARK VINA RESULT:      -9.8      1.524      2.329
REMARK SMILES C[C@@H](NC(=O)[C@@H]1CC[C@@H]2CCCC[C@@H]2[NH2+]1)C(=O)OCCOCCOCCOC(=O)c1ccc(-c2c3nc(c(-c4cc(S(=O)(=O)[O-])ccc4F)c4ccc([nH]4)c(-c4cc(S(=O)(=O)[O-])ccc4F)c4nc(c(-c5cc(S(=O)(=O)[O-])ccc5F)c5ccc2[nH]5)C=C4)C=C3)cc1
REMARK SMILES IDX 23 1 22 2 21 3 20 4 19 5 18 6 16 7 17 8 2 9 1 10 3 11 4 12
REMARK SMILES IDX 5 14 6 15 7 16 15 17 8 18 14 19 9 22 13 23 10 24 12 25 11 26
REMARK SMILES IDX 24 27 25 28 26 29 27 30 28 31 29 32 30 33 31 34 92 35 32 36
REMARK SMILES IDX 91 37 33 38 34 39 35 40 85 41 36 42 90 43 84 44 86 45 37 46
REMARK SMILES IDX 89 47 83 48 82 49 38 51 70 52 50 53 69 54 51 55 54 56 68 57
REMARK SMILES IDX 87 58 52 59 53 60 67 62 88 63 55 64 39 65 40 66 48 67 41 68
REMARK SMILES IDX 47 69 49 70 46 71 42 72 43 73 44 74 45 75 71 76 72 77 80 78
REMARK SMILES IDX 73 79 79 80 81 81 78 82 74 83 75 84 76 85 77 86 56 87 57 88
REMARK SMILES IDX 65 89 58 90 64 91 66 92 63 93 59 94 60 95 61 96 62 97
REMARK H PARENT 3 13 15 20 15 21 86 50 54 61
REMARK Flexibility Score: inf
ROOT
ATOM      1  C   UNL A   1      33.920  31.379  27.554  1.00  0.00     0.188 C 
ENDROOT
BRANCH   1   2
ATOM      2  C   UNL A   1      33.488  30.060  26.890  1.00  0.00     0.188 C 
BRANCH   2   3
ATOM      3  O   UNL A   1      32.070  29.974  26.682  1.00  0.00    -0.376 OA
BRANCH   3   4
ATOM      4  C   UNL A   1      31.697  29.737  25.328  1.00  0.00     0.202 C 
BRANCH   4   5
ATOM      5  C   UNL A   1      31.224  28.292  25.114  1.00  0.00     0.261 C 
BRANCH   5   6
ATOM      6  O   UNL A   1      30.297  28.096  24.027  1.00  0.00    -0.462 OA
BRANCH   6   7
ATOM      7  C   UNL A   1      30.720  27.453  22.911  1.00  0.00     0.328 C 
ATOM      8  O   UNL A   1      30.652  27.943  21.790  1.00  0.00    -0.250 OA
BRANCH   7   9
ATOM      9  C   UNL A   1      31.141  25.988  23.207  1.00  0.00     0.189 C 
ATOM     10  C   UNL A   1      29.902  25.163  23.563  1.00  0.00     0.043 C 
BRANCH   9  11
ATOM     11  N   UNL A   1      31.939  25.282  22.183  1.00  0.00    -0.338 N 
ATOM     12  C   UNL A   1      32.975  24.387  22.317  1.00  0.00     0.278 C 
ATOM     13  H   UNL A   1      31.690  25.487  21.254  1.00  0.00     0.164 HD
ATOM     14  O   UNL A   1      33.298  23.760  21.303  1.00  0.00    -0.268 OA
BRANCH  12  15
ATOM     15  C   UNL A   1      33.798  24.300  23.628  1.00  0.00     0.272 C 
ATOM     16  C   UNL A   1      35.205  23.688  23.508  1.00  0.00     0.076 C 
ATOM     17  N   UNL A   1      32.996  23.786  24.744  1.00  0.00    -0.333 N 
ATOM     18  C   UNL A   1      35.298  22.210  23.884  1.00  0.00     0.016 C 
ATOM     19  C   UNL A   1      33.073  22.360  25.017  1.00  0.00     0.186 C 
ATOM     20  H   UNL A   1      32.019  24.009  24.549  1.00  0.00     0.347 HD
ATOM     21  H   UNL A   1      33.384  24.234  25.575  1.00  0.00     0.347 HD
ATOM     22  C   UNL A   1      34.526  21.937  25.181  1.00  0.00     0.048 C 
ATOM     23  C   UNL A   1      32.310  21.525  23.983  1.00  0.00     0.065 C 
ATOM     24  C   UNL A   1      34.548  20.477  25.627  1.00  0.00     0.010 C 
ATOM     25  C   UNL A   1      32.535  20.016  24.087  1.00  0.00     0.006 C 
ATOM     26  C   UNL A   1      33.891  19.546  24.620  1.00  0.00     0.001 C 
ENDBRANCH  12  15
ENDBRANCH   9  11
ENDBRANCH   7   9
ENDBRANCH   6   7
ENDBRANCH   5   6
ENDBRANCH   4   5
ENDBRANCH   3   4
ENDBRANCH   2   3
ENDBRANCH   1   2
BRANCH   1  27
ATOM     27  O   UNL A   1      32.928  32.359  27.858  1.00  0.00    -0.376 OA
BRANCH  27  28
ATOM     28  C   UNL A   1      33.067  33.678  27.352  1.00  0.00     0.202 C 
BRANCH  28  29
ATOM     29  C   UNL A   1      32.581  34.841  28.221  1.00  0.00     0.261 C 
BRANCH  29  30
ATOM     30  O   UNL A   1      32.545  34.519  29.615  1.00  0.00    -0.460 OA
BRANCH  30  31
ATOM     31  C   UNL A   1      33.617  34.991  30.306  1.00  0.00     0.338 C 
ATOM     32  O   UNL A   1      33.678  36.007  30.967  1.00  0.00    -0.246 OA
BRANCH  31  33
ATOM     33  C   UNL A   1      34.687  33.977  30.286  1.00  0.00     0.060 A 
ATOM     34  C   UNL A   1      34.446  32.773  30.961  1.00  0.00     0.016 A 
ATOM     35  C   UNL A   1      35.918  34.223  29.676  1.00  0.00     0.016 A 
ATOM     36  C   UNL A   1      35.455  31.824  31.076  1.00  0.00     0.010 A 
ATOM     37  C   UNL A   1      36.942  33.282  29.817  1.00  0.00     0.010 A 
ATOM     38  C   UNL A   1      36.725  32.105  30.558  1.00  0.00    -0.014 A 
BRANCH  38  39
ATOM     39  C   UNL A   1      37.886  31.331  31.055  1.00  0.00     0.031 A 
ATOM     40  C   UNL A   1      38.394  31.656  32.435  1.00  0.00     0.074 A 
ATOM     41  C   UNL A   1      38.454  30.356  30.328  1.00  0.00     0.049 A 
ATOM     42  N   UNL A   1      39.438  31.196  33.070  1.00  0.00    -0.248 NA
ATOM     43  C   UNL A   1      37.611  32.644  33.193  1.00  0.00     0.031 C 
ATOM     44  C   UNL A   1      37.999  29.901  29.017  1.00  0.00     0.029 A 
ATOM     45  N   UNL A   1      39.548  29.576  30.599  1.00  0.00    -0.354 N 
ATOM     46  C   UNL A   1      39.444  31.847  34.300  1.00  0.00     0.074 A 
ATOM     47  C   UNL A   1      38.322  32.758  34.301  1.00  0.00     0.031 C 
ATOM     48  C   UNL A   1      38.823  28.928  28.588  1.00  0.00     0.029 A 
ATOM     49  C   UNL A   1      39.882  28.723  29.575  1.00  0.00     0.049 A 
ATOM     50  H   UNL A   1      40.048  29.622  31.446  1.00  0.00     0.167 HD
ATOM     51  C   UNL A   1      40.304  31.694  35.336  1.00  0.00     0.034 A 
ATOM     52  C   UNL A   1      40.943  27.900  29.444  1.00  0.00     0.034 A 
ATOM     53  C   UNL A   1      41.432  30.796  35.307  1.00  0.00     0.049 A 
ATOM     54  C   UNL A   1      41.958  27.827  30.562  1.00  0.00     0.074 A 
ATOM     55  C   UNL A   1      42.378  30.565  36.289  1.00  0.00     0.029 A 
ATOM     56  N   UNL A   1      41.775  29.990  34.227  1.00  0.00    -0.354 N 
ATOM     57  N   UNL A   1      41.971  28.460  31.714  1.00  0.00    -0.248 NA
ATOM     58  C   UNL A   1      43.099  26.924  30.360  1.00  0.00     0.031 C 
ATOM     59  C   UNL A   1      43.332  29.677  35.777  1.00  0.00     0.029 A 
ATOM     60  C   UNL A   1      42.936  29.286  34.507  1.00  0.00     0.049 A 
ATOM     61  H   UNL A   1      41.267  29.928  33.387  1.00  0.00     0.167 HD
ATOM     62  C   UNL A   1      43.102  28.001  32.388  1.00  0.00     0.074 A 
ATOM     63  C   UNL A   1      43.741  27.037  31.514  1.00  0.00     0.031 C 
ATOM     64  C   UNL A   1      43.566  28.335  33.620  1.00  0.00     0.034 A 
BRANCH  51  65
ATOM     65  C   UNL A   1      40.087  32.579  36.540  1.00  0.00     0.023 A 
ATOM     66  C   UNL A   1      40.975  33.620  36.865  1.00  0.00     0.031 A 
ATOM     67  C   UNL A   1      39.022  32.323  37.423  1.00  0.00     0.131 A 
ATOM     68  C   UNL A   1      40.837  34.302  38.085  1.00  0.00     0.055 A 
ATOM     69  C   UNL A   1      38.838  33.068  38.590  1.00  0.00     0.041 A 
ATOM     70  F   UNL A   1      38.160  31.324  37.182  1.00  0.00    -0.206 F 
ATOM     71  C   UNL A   1      39.760  34.050  38.937  1.00  0.00     0.022 A 
BRANCH  68  72
ATOM     72  S   UNL A   1      42.187  35.387  38.625  1.00  0.00     0.124 S 
ATOM     73  O   UNL A   1      43.361  34.574  38.317  1.00  0.00    -0.237 OA
ATOM     74  O   UNL A   1      41.992  36.570  37.796  1.00  0.00    -0.237 OA
ATOM     75  O   UNL A   1      41.925  35.574  40.051  1.00  0.00    -0.744 OA
ENDBRANCH  68  72
ENDBRANCH  51  65
BRANCH  52  76
ATOM     76  C   UNL A   1      41.132  27.110  28.195  1.00  0.00     0.023 A 
ATOM     77  C   UNL A   1      40.887  25.729  28.166  1.00  0.00     0.031 A 
ATOM     78  C   UNL A   1      41.613  27.721  27.022  1.00  0.00     0.131 A 
ATOM     79  C   UNL A   1      41.158  24.995  26.999  1.00  0.00     0.055 A 
ATOM     80  C   UNL A   1      41.834  26.995  25.850  1.00  0.00     0.041 A 
ATOM     81  F   UNL A   1      41.866  29.038  26.997  1.00  0.00    -0.206 F 
ATOM     82  C   UNL A   1      41.618  25.621  25.839  1.00  0.00     0.022 A 
BRANCH  79  83
ATOM     83  S   UNL A   1      40.966  23.192  27.042  1.00  0.00     0.124 S 
ATOM     84  O   UNL A   1      39.516  23.047  26.987  1.00  0.00    -0.237 OA
ATOM     85  O   UNL A   1      41.699  22.781  25.849  1.00  0.00    -0.237 OA
ATOM     86  O   UNL A   1      41.584  22.815  28.311  1.00  0.00    -0.744 OA
ENDBRANCH  79  83
ENDBRANCH  52  76
BRANCH  64  87
ATOM     87  C   UNL A   1      44.792  27.606  34.119  1.00  0.00     0.023 A 
ATOM     88  C   UNL A   1      44.704  26.421  34.869  1.00  0.00     0.031 A 
ATOM     89  C   UNL A   1      46.074  28.114  33.834  1.00  0.00     0.131 A 
ATOM     90  C   UNL A   1      45.872  25.812  35.354  1.00  0.00     0.055 A 
ATOM     91  C   UNL A   1      47.233  27.470  34.267  1.00  0.00     0.041 A 
ATOM     92  F   UNL A   1      46.219  29.243  33.122  1.00  0.00    -0.206 F 
ATOM     93  C   UNL A   1      47.136  26.320  35.043  1.00  0.00     0.022 A 
BRANCH  90  94
ATOM     94  S   UNL A   1      45.717  24.398  36.479  1.00  0.00     0.124 S 
ATOM     95  O   UNL A   1      46.594  23.413  35.852  1.00  0.00    -0.237 OA
ATOM     96  O   UNL A   1      46.186  24.953  37.745  1.00  0.00    -0.237 OA
ATOM     97  O   UNL A   1      44.292  24.076  36.435  1.00  0.00    -0.744 OA
ENDBRANCH  90  94
ENDBRANCH  64  87
ENDBRANCH  38  39
ENDBRANCH  31  33
ENDBRANCH  30  31
ENDBRANCH  29  30
ENDBRANCH  28  29
ENDBRANCH  27  28
ENDBRANCH   1  27
TORSDOF 22
ENDMDL
