MODEL 1
REMARK VINA RESULT:      -9.1      0.000      0.000
REMARK SMILES C[C@H](C(=O)OCCOCCOCCOC(=O)c1ccc(-c2c3nc(c(-c4cc(S(=O)(=O)[O-])ccc4F)c4ccc([nH]4)c(-c4cc(S(=O)(=O)[O-])ccc4F)c4nc(c(-c5cc(S(=O)(=O)[O-])ccc5F)c5ccc2[nH]5)C=C4)C=C3)cc1)c1ccc2c(c1)OCCO2
REMARK SMILES IDX 10 1 9 2 8 3 7 4 6 5 5 6 3 7 4 8 2 9 1 10 80 11 81 12 85 13
REMARK SMILES IDX 82 14 84 15 83 16 86 17 89 18 87 19 88 20 11 21 12 22 13 23
REMARK SMILES IDX 14 24 15 25 16 26 17 27 18 28 79 29 19 30 78 31 20 32 21 33
REMARK SMILES IDX 22 34 72 35 23 36 77 37 71 38 73 39 24 40 76 41 70 42 69 43
REMARK SMILES IDX 25 45 57 46 37 47 56 48 38 49 41 50 55 51 74 52 39 53 40 54
REMARK SMILES IDX 54 56 75 57 42 58 26 59 27 60 35 61 28 62 34 63 36 64 33 65
REMARK SMILES IDX 29 66 30 67 31 68 32 69 58 70 59 71 67 72 60 73 66 74 68 75
REMARK SMILES IDX 65 76 61 77 62 78 63 79 64 80 43 81 44 82 52 83 45 84 51 85
REMARK SMILES IDX 53 86 50 87 46 88 47 89 48 90 49 91
REMARK H PARENT 73 44 41 55
REMARK Flexibility Score: inf
ROOT
ATOM      1  C   UNL A   1      33.332  36.128  29.699  1.00  0.00     0.188 C 
ENDROOT
BRANCH   1   2
ATOM      2  C   UNL A   1      32.768  36.611  31.047  1.00  0.00     0.188 C 
BRANCH   2   3
ATOM      3  O   UNL A   1      33.439  36.269  32.258  1.00  0.00    -0.376 OA
BRANCH   3   4
ATOM      4  C   UNL A   1      33.379  34.928  32.711  1.00  0.00     0.202 C 
BRANCH   4   5
ATOM      5  C   UNL A   1      34.694  34.151  32.678  1.00  0.00     0.261 C 
BRANCH   5   6
ATOM      6  O   UNL A   1      35.680  34.610  33.626  1.00  0.00    -0.463 OA
BRANCH   6   7
ATOM      7  C   UNL A   1      36.713  33.749  33.840  1.00  0.00     0.313 C 
ATOM      8  O   UNL A   1      36.572  32.631  34.326  1.00  0.00    -0.252 OA
BRANCH   7   9
ATOM      9  C   UNL A   1      38.082  34.366  33.584  1.00  0.00     0.126 C 
ATOM     10  C   UNL A   1      39.046  33.877  34.681  1.00  0.00     0.025 C 
BRANCH   9  11
ATOM     11  C   UNL A   1      38.742  34.185  32.217  1.00  0.00    -0.030 A 
ATOM     12  C   UNL A   1      37.942  34.117  31.060  1.00  0.00     0.009 A 
ATOM     13  C   UNL A   1      40.130  34.336  32.048  1.00  0.00     0.055 A 
ATOM     14  C   UNL A   1      38.494  34.322  29.789  1.00  0.00     0.051 A 
ATOM     15  C   UNL A   1      40.672  34.573  30.782  1.00  0.00     0.161 A 
ATOM     16  C   UNL A   1      39.848  34.613  29.660  1.00  0.00     0.161 A 
ATOM     17  O   UNL A   1      42.014  34.849  30.736  1.00  0.00    -0.486 OA
ATOM     18  O   UNL A   1      40.300  34.986  28.419  1.00  0.00    -0.486 OA
ATOM     19  C   UNL A   1      42.511  35.000  29.399  1.00  0.00     0.271 C 
ATOM     20  C   UNL A   1      41.510  35.754  28.542  1.00  0.00     0.271 C 
ENDBRANCH   9  11
ENDBRANCH   7   9
ENDBRANCH   6   7
ENDBRANCH   5   6
ENDBRANCH   4   5
ENDBRANCH   3   4
ENDBRANCH   2   3
ENDBRANCH   1   2
BRANCH   1  21
ATOM     21  O   UNL A   1      32.698  34.930  29.248  1.00  0.00    -0.376 OA
BRANCH  21  22
ATOM     22  C   UNL A   1      33.479  34.176  28.327  1.00  0.00     0.202 C 
BRANCH  22  23
ATOM     23  C   UNL A   1      34.581  33.422  29.066  1.00  0.00     0.261 C 
BRANCH  23  24
ATOM     24  O   UNL A   1      35.342  32.580  28.181  1.00  0.00    -0.460 OA
BRANCH  24  25
ATOM     25  C   UNL A   1      34.945  31.297  28.097  1.00  0.00     0.338 C 
ATOM     26  O   UNL A   1      33.812  30.889  27.863  1.00  0.00    -0.246 OA
BRANCH  25  27
ATOM     27  C   UNL A   1      36.104  30.424  28.334  1.00  0.00     0.060 A 
ATOM     28  C   UNL A   1      36.180  29.679  29.511  1.00  0.00     0.016 A 
ATOM     29  C   UNL A   1      37.168  30.422  27.434  1.00  0.00     0.016 A 
ATOM     30  C   UNL A   1      37.351  28.982  29.829  1.00  0.00     0.010 A 
ATOM     31  C   UNL A   1      38.326  29.695  27.738  1.00  0.00     0.010 A 
ATOM     32  C   UNL A   1      38.450  29.007  28.962  1.00  0.00    -0.014 A 
BRANCH  32  33
ATOM     33  C   UNL A   1      39.777  28.467  29.379  1.00  0.00     0.031 A 
ATOM     34  C   UNL A   1      40.522  29.161  30.494  1.00  0.00     0.074 A 
ATOM     35  C   UNL A   1      40.323  27.373  28.814  1.00  0.00     0.049 A 
ATOM     36  N   UNL A   1      41.773  29.053  30.859  1.00  0.00    -0.248 NA
ATOM     37  C   UNL A   1      39.740  30.115  31.296  1.00  0.00     0.031 C 
ATOM     38  C   UNL A   1      39.682  26.527  27.808  1.00  0.00     0.029 A 
ATOM     39  N   UNL A   1      41.555  26.792  29.002  1.00  0.00    -0.354 N 
ATOM     40  C   UNL A   1      41.946  29.967  31.895  1.00  0.00     0.074 A 
ATOM     41  C   UNL A   1      40.668  30.621  32.093  1.00  0.00     0.031 C 
ATOM     42  C   UNL A   1      40.526  25.539  27.467  1.00  0.00     0.029 A 
ATOM     43  C   UNL A   1      41.798  25.730  28.161  1.00  0.00     0.049 A 
ATOM     44  H   UNL A   1      42.202  27.105  29.675  1.00  0.00     0.167 HD
ATOM     45  C   UNL A   1      43.067  30.237  32.611  1.00  0.00     0.034 A 
ATOM     46  C   UNL A   1      42.929  25.032  27.927  1.00  0.00     0.034 A 
ATOM     47  C   UNL A   1      44.324  29.553  32.426  1.00  0.00     0.049 A 
ATOM     48  C   UNL A   1      44.193  25.407  28.663  1.00  0.00     0.074 A 
ATOM     49  C   UNL A   1      45.525  29.758  33.083  1.00  0.00     0.029 A 
ATOM     50  N   UNL A   1      44.541  28.521  31.521  1.00  0.00    -0.354 N 
ATOM     51  N   UNL A   1      44.380  26.343  29.566  1.00  0.00    -0.248 NA
ATOM     52  C   UNL A   1      45.403  24.639  28.337  1.00  0.00     0.031 C 
ATOM     53  C   UNL A   1      46.480  28.894  32.536  1.00  0.00     0.029 A 
ATOM     54  C   UNL A   1      45.860  28.096  31.589  1.00  0.00     0.049 A 
ATOM     55  H   UNL A   1      43.858  28.145  30.920  1.00  0.00     0.167 HD
ATOM     56  C   UNL A   1      45.724  26.264  29.923  1.00  0.00     0.074 A 
ATOM     57  C   UNL A   1      46.296  25.178  29.155  1.00  0.00     0.031 C 
ATOM     58  C   UNL A   1      46.423  27.021  30.808  1.00  0.00     0.034 A 
BRANCH  45  59
ATOM     59  C   UNL A   1      42.995  31.372  33.604  1.00  0.00     0.023 A 
ATOM     60  C   UNL A   1      42.544  31.188  34.921  1.00  0.00     0.031 A 
ATOM     61  C   UNL A   1      43.346  32.676  33.206  1.00  0.00     0.131 A 
ATOM     62  C   UNL A   1      42.381  32.296  35.768  1.00  0.00     0.055 A 
ATOM     63  C   UNL A   1      43.260  33.762  34.077  1.00  0.00     0.041 A 
ATOM     64  F   UNL A   1      43.762  32.919  31.952  1.00  0.00    -0.206 F 
ATOM     65  C   UNL A   1      42.759  33.578  35.363  1.00  0.00     0.022 A 
BRANCH  62  66
ATOM     66  S   UNL A   1      41.524  32.060  37.349  1.00  0.00     0.124 S 
ATOM     67  O   UNL A   1      42.417  31.125  38.033  1.00  0.00    -0.237 OA
ATOM     68  O   UNL A   1      41.483  33.413  37.890  1.00  0.00    -0.237 OA
ATOM     69  O   UNL A   1      40.232  31.502  36.959  1.00  0.00    -0.744 OA
ENDBRANCH  62  66
ENDBRANCH  45  59
BRANCH  46  70
ATOM     70  C   UNL A   1      42.956  23.968  26.878  1.00  0.00     0.023 A 
ATOM     71  C   UNL A   1      42.343  22.723  27.084  1.00  0.00     0.031 A 
ATOM     72  C   UNL A   1      43.649  24.170  25.669  1.00  0.00     0.131 A 
ATOM     73  C   UNL A   1      42.464  21.715  26.112  1.00  0.00     0.055 A 
ATOM     74  C   UNL A   1      43.716  23.186  24.683  1.00  0.00     0.041 A 
ATOM     75  F   UNL A   1      44.264  25.338  25.426  1.00  0.00    -0.206 F 
ATOM     76  C   UNL A   1      43.131  21.945  24.907  1.00  0.00     0.022 A 
BRANCH  73  77
ATOM     77  S   UNL A   1      41.801  20.066  26.478  1.00  0.00     0.124 S 
ATOM     78  O   UNL A   1      42.312  19.286  25.356  1.00  0.00    -0.237 OA
ATOM     79  O   UNL A   1      42.396  19.781  27.780  1.00  0.00    -0.237 OA
ATOM     80  O   UNL A   1      40.355  20.273  26.488  1.00  0.00    -0.744 OA
ENDBRANCH  73  77
ENDBRANCH  46  70
BRANCH  58  81
ATOM     81  C   UNL A   1      47.874  26.663  31.023  1.00  0.00     0.023 A 
ATOM     82  C   UNL A   1      48.901  27.225  30.241  1.00  0.00     0.031 A 
ATOM     83  C   UNL A   1      48.233  25.736  32.017  1.00  0.00     0.131 A 
ATOM     84  C   UNL A   1      50.229  26.816  30.433  1.00  0.00     0.055 A 
ATOM     85  C   UNL A   1      49.562  25.374  32.240  1.00  0.00     0.041 A 
ATOM     86  F   UNL A   1      47.295  25.168  32.791  1.00  0.00    -0.206 F 
ATOM     87  C   UNL A   1      50.568  25.905  31.438  1.00  0.00     0.022 A 
BRANCH  84  88
ATOM     88  S   UNL A   1      51.505  27.426  29.297  1.00  0.00     0.124 S 
ATOM     89  O   UNL A   1      50.766  27.539  28.044  1.00  0.00    -0.237 OA
ATOM     90  O   UNL A   1      51.903  28.684  29.919  1.00  0.00    -0.237 OA
ATOM     91  O   UNL A   1      52.520  26.374  29.323  1.00  0.00    -0.744 OA
ENDBRANCH  84  88
ENDBRANCH  58  81
ENDBRANCH  32  33
ENDBRANCH  25  27
ENDBRANCH  24  25
ENDBRANCH  23  24
ENDBRANCH  22  23
ENDBRANCH  21  22
ENDBRANCH   1  21
TORSDOF 21
ENDMDL
MODEL 2
REMARK VINA RESULT:      -9.0      2.216      3.519
REMARK SMILES C[C@H](C(=O)OCCOCCOCCOC(=O)c1ccc(-c2c3nc(c(-c4cc(S(=O)(=O)[O-])ccc4F)c4ccc([nH]4)c(-c4cc(S(=O)(=O)[O-])ccc4F)c4nc(c(-c5cc(S(=O)(=O)[O-])ccc5F)c5ccc2[nH]5)C=C4)C=C3)cc1)c1ccc2c(c1)OCCO2
REMARK SMILES IDX 10 1 9 2 8 3 7 4 6 5 5 6 3 7 4 8 2 9 1 10 80 11 81 12 85 13
REMARK SMILES IDX 82 14 84 15 83 16 86 17 89 18 87 19 88 20 11 21 12 22 13 23
REMARK SMILES IDX 14 24 15 25 16 26 17 27 18 28 79 29 19 30 78 31 20 32 21 33
REMARK SMILES IDX 22 34 72 35 23 36 77 37 71 38 73 39 24 40 76 41 70 42 69 43
REMARK SMILES IDX 25 45 57 46 37 47 56 48 38 49 41 50 55 51 74 52 39 53 40 54
REMARK SMILES IDX 54 56 75 57 42 58 26 59 27 60 35 61 28 62 34 63 36 64 33 65
REMARK SMILES IDX 29 66 30 67 31 68 32 69 58 70 59 71 67 72 60 73 66 74 68 75
REMARK SMILES IDX 65 76 61 77 62 78 63 79 64 80 43 81 44 82 52 83 45 84 51 85
REMARK SMILES IDX 53 86 50 87 46 88 47 89 48 90 49 91
REMARK H PARENT 73 44 41 55
REMARK Flexibility Score: inf
ROOT
ATOM      1  C   UNL A   1      33.455  36.010  29.869  1.00  0.00     0.188 C 
ENDROOT
BRANCH   1   2
ATOM      2  C   UNL A   1      32.926  36.642  31.168  1.00  0.00     0.188 C 
BRANCH   2   3
ATOM      3  O   UNL A   1      33.097  35.960  32.408  1.00  0.00    -0.376 OA
BRANCH   3   4
ATOM      4  C   UNL A   1      33.884  34.782  32.430  1.00  0.00     0.202 C 
BRANCH   4   5
ATOM      5  C   UNL A   1      35.372  34.977  32.718  1.00  0.00     0.261 C 
BRANCH   5   6
ATOM      6  O   UNL A   1      36.145  33.759  32.705  1.00  0.00    -0.463 OA
BRANCH   6   7
ATOM      7  C   UNL A   1      37.394  33.879  32.175  1.00  0.00     0.313 C 
ATOM      8  O   UNL A   1      37.606  34.142  30.995  1.00  0.00    -0.252 OA
BRANCH   7   9
ATOM      9  C   UNL A   1      38.504  33.484  33.140  1.00  0.00     0.126 C 
ATOM     10  C   UNL A   1      39.636  34.522  33.027  1.00  0.00     0.025 C 
BRANCH   9  11
ATOM     11  C   UNL A   1      38.171  33.259  34.615  1.00  0.00    -0.030 A 
ATOM     12  C   UNL A   1      37.841  31.966  35.066  1.00  0.00     0.009 A 
ATOM     13  C   UNL A   1      38.427  34.247  35.582  1.00  0.00     0.055 A 
ATOM     14  C   UNL A   1      37.893  31.644  36.428  1.00  0.00     0.051 A 
ATOM     15  C   UNL A   1      38.509  33.915  36.937  1.00  0.00     0.161 A 
ATOM     16  C   UNL A   1      38.289  32.605  37.354  1.00  0.00     0.161 A 
ATOM     17  O   UNL A   1      38.902  34.916  37.786  1.00  0.00    -0.486 OA
ATOM     18  O   UNL A   1      38.500  32.191  38.645  1.00  0.00    -0.486 OA
ATOM     19  C   UNL A   1      38.884  34.521  39.165  1.00  0.00     0.271 C 
ATOM     20  C   UNL A   1      39.391  33.098  39.318  1.00  0.00     0.271 C 
ENDBRANCH   9  11
ENDBRANCH   7   9
ENDBRANCH   6   7
ENDBRANCH   5   6
ENDBRANCH   4   5
ENDBRANCH   3   4
ENDBRANCH   2   3
ENDBRANCH   1   2
BRANCH   1  21
ATOM     21  O   UNL A   1      32.622  34.945  29.409  1.00  0.00    -0.376 OA
BRANCH  21  22
ATOM     22  C   UNL A   1      33.245  34.099  28.449  1.00  0.00     0.202 C 
BRANCH  22  23
ATOM     23  C   UNL A   1      34.431  33.372  29.078  1.00  0.00     0.261 C 
BRANCH  23  24
ATOM     24  O   UNL A   1      35.203  32.656  28.098  1.00  0.00    -0.460 OA
BRANCH  24  25
ATOM     25  C   UNL A   1      34.808  31.397  27.836  1.00  0.00     0.338 C 
ATOM     26  O   UNL A   1      33.716  31.041  27.405  1.00  0.00    -0.246 OA
BRANCH  25  27
ATOM     27  C   UNL A   1      35.911  30.477  28.152  1.00  0.00     0.060 A 
ATOM     28  C   UNL A   1      35.848  29.691  29.303  1.00  0.00     0.016 A 
ATOM     29  C   UNL A   1      37.056  30.467  27.358  1.00  0.00     0.016 A 
ATOM     30  C   UNL A   1      36.960  28.945  29.706  1.00  0.00     0.010 A 
ATOM     31  C   UNL A   1      38.155  29.691  27.746  1.00  0.00     0.010 A 
ATOM     32  C   UNL A   1      38.138  28.959  28.950  1.00  0.00    -0.014 A 
BRANCH  32  33
ATOM     33  C   UNL A   1      39.401  28.361  29.474  1.00  0.00     0.031 A 
ATOM     34  C   UNL A   1      40.025  28.955  30.712  1.00  0.00     0.074 A 
ATOM     35  C   UNL A   1      39.991  27.298  28.894  1.00  0.00     0.049 A 
ATOM     36  N   UNL A   1      41.224  28.793  31.207  1.00  0.00    -0.248 NA
ATOM     37  C   UNL A   1      39.171  29.867  31.490  1.00  0.00     0.031 C 
ATOM     38  C   UNL A   1      39.456  26.540  27.763  1.00  0.00     0.029 A 
ATOM     39  N   UNL A   1      41.186  26.676  29.176  1.00  0.00    -0.354 N 
ATOM     40  C   UNL A   1      41.292  29.626  32.321  1.00  0.00     0.074 A 
ATOM     41  C   UNL A   1      40.010  30.294  32.421  1.00  0.00     0.031 C 
ATOM     42  C   UNL A   1      40.319  25.560  27.447  1.00  0.00     0.029 A 
ATOM     43  C   UNL A   1      41.506  25.671  28.292  1.00  0.00     0.049 A 
ATOM     44  H   UNL A   1      41.756  26.925  29.939  1.00  0.00     0.167 HD
ATOM     45  C   UNL A   1      42.328  29.818  33.176  1.00  0.00     0.034 A 
ATOM     46  C   UNL A   1      42.646  24.966  28.136  1.00  0.00     0.034 A 
ATOM     47  C   UNL A   1      43.588  29.120  33.083  1.00  0.00     0.049 A 
ATOM     48  C   UNL A   1      43.824  25.257  29.035  1.00  0.00     0.074 A 
ATOM     49  C   UNL A   1      44.709  29.250  33.885  1.00  0.00     0.029 A 
ATOM     50  N   UNL A   1      43.891  28.151  32.135  1.00  0.00    -0.354 N 
ATOM     51  N   UNL A   1      43.920  26.122  30.019  1.00  0.00    -0.248 NA
ATOM     52  C   UNL A   1      45.052  24.487  28.791  1.00  0.00     0.031 C 
ATOM     53  C   UNL A   1      45.707  28.405  33.387  1.00  0.00     0.029 A 
ATOM     54  C   UNL A   1      45.187  27.691  32.319  1.00  0.00     0.049 A 
ATOM     55  H   UNL A   1      43.275  27.835  31.435  1.00  0.00     0.167 HD
ATOM     56  C   UNL A   1      45.214  25.987  30.518  1.00  0.00     0.074 A 
ATOM     57  C   UNL A   1      45.853  24.945  29.741  1.00  0.00     0.031 C 
ATOM     58  C   UNL A   1      45.819  26.662  31.529  1.00  0.00     0.034 A 
BRANCH  45  59
ATOM     59  C   UNL A   1      42.161  30.881  34.235  1.00  0.00     0.023 A 
ATOM     60  C   UNL A   1      42.510  32.223  34.011  1.00  0.00     0.031 A 
ATOM     61  C   UNL A   1      41.679  30.531  35.510  1.00  0.00     0.131 A 
ATOM     62  C   UNL A   1      42.449  33.148  35.065  1.00  0.00     0.055 A 
ATOM     63  C   UNL A   1      41.543  31.472  36.531  1.00  0.00     0.041 A 
ATOM     64  F   UNL A   1      41.351  29.260  35.791  1.00  0.00    -0.206 F 
ATOM     65  C   UNL A   1      41.944  32.787  36.317  1.00  0.00     0.022 A 
BRANCH  62  66
ATOM     66  S   UNL A   1      43.182  34.790  34.822  1.00  0.00     0.124 S 
ATOM     67  O   UNL A   1      43.084  34.946  33.372  1.00  0.00    -0.237 OA
ATOM     68  O   UNL A   1      42.308  35.646  35.615  1.00  0.00    -0.237 OA
ATOM     69  O   UNL A   1      44.541  34.638  35.334  1.00  0.00    -0.744 OA
ENDBRANCH  62  66
ENDBRANCH  45  59
BRANCH  46  70
ATOM     70  C   UNL A   1      42.776  23.979  27.021  1.00  0.00     0.023 A 
ATOM     71  C   UNL A   1      42.244  22.685  27.124  1.00  0.00     0.031 A 
ATOM     72  C   UNL A   1      43.489  24.308  25.852  1.00  0.00     0.131 A 
ATOM     73  C   UNL A   1      42.461  21.756  26.093  1.00  0.00     0.055 A 
ATOM     74  C   UNL A   1      43.653  23.399  24.807  1.00  0.00     0.041 A 
ATOM     75  F   UNL A   1      44.031  25.527  25.707  1.00  0.00    -0.206 F 
ATOM     76  C   UNL A   1      43.147  22.110  24.928  1.00  0.00     0.022 A 
BRANCH  73  77
ATOM     77  S   UNL A   1      41.902  20.046  26.327  1.00  0.00     0.124 S 
ATOM     78  O   UNL A   1      40.455  20.186  26.198  1.00  0.00    -0.237 OA
ATOM     79  O   UNL A   1      42.578  19.352  25.236  1.00  0.00    -0.237 OA
ATOM     80  O   UNL A   1      42.379  19.710  27.666  1.00  0.00    -0.744 OA
ENDBRANCH  73  77
ENDBRANCH  46  70
BRANCH  58  81
ATOM     81  C   UNL A   1      47.231  26.256  31.879  1.00  0.00     0.023 A 
ATOM     82  C   UNL A   1      47.507  25.350  32.920  1.00  0.00     0.031 A 
ATOM     83  C   UNL A   1      48.317  26.795  31.168  1.00  0.00     0.131 A 
ATOM     84  C   UNL A   1      48.837  25.051  33.251  1.00  0.00     0.055 A 
ATOM     85  C   UNL A   1      49.636  26.452  31.466  1.00  0.00     0.041 A 
ATOM     86  F   UNL A   1      48.113  27.666  30.165  1.00  0.00    -0.206 F 
ATOM     87  C   UNL A   1      49.903  25.584  32.522  1.00  0.00     0.022 A 
BRANCH  84  88
ATOM     88  S   UNL A   1      49.164  24.018  34.707  1.00  0.00     0.124 S 
ATOM     89  O   UNL A   1      49.952  22.931  34.136  1.00  0.00    -0.237 OA
ATOM     90  O   UNL A   1      49.883  24.934  35.586  1.00  0.00    -0.237 OA
ATOM     91  O   UNL A   1      47.829  23.640  35.167  1.00  0.00    -0.744 OA
ENDBRANCH  84  88
ENDBRANCH  58  81
ENDBRANCH  32  33
ENDBRANCH  25  27
ENDBRANCH  24  25
ENDBRANCH  23  24
ENDBRANCH  22  23
ENDBRANCH  21  22
ENDBRANCH   1  21
TORSDOF 21
ENDMDL
MODEL 3
REMARK VINA RESULT:      -8.9      4.579     10.834
REMARK SMILES C[C@H](C(=O)OCCOCCOCCOC(=O)c1ccc(-c2c3nc(c(-c4cc(S(=O)(=O)[O-])ccc4F)c4ccc([nH]4)c(-c4cc(S(=O)(=O)[O-])ccc4F)c4nc(c(-c5cc(S(=O)(=O)[O-])ccc5F)c5ccc2[nH]5)C=C4)C=C3)cc1)c1ccc2c(c1)OCCO2
REMARK SMILES IDX 10 1 9 2 8 3 7 4 6 5 5 6 3 7 4 8 2 9 1 10 80 11 81 12 85 13
REMARK SMILES IDX 82 14 84 15 83 16 86 17 89 18 87 19 88 20 11 21 12 22 13 23
REMARK SMILES IDX 14 24 15 25 16 26 17 27 18 28 79 29 19 30 78 31 20 32 21 33
REMARK SMILES IDX 22 34 72 35 23 36 77 37 71 38 73 39 24 40 76 41 70 42 69 43
REMARK SMILES IDX 25 45 57 46 37 47 56 48 38 49 41 50 55 51 74 52 39 53 40 54
REMARK SMILES IDX 54 56 75 57 42 58 26 59 27 60 35 61 28 62 34 63 36 64 33 65
REMARK SMILES IDX 29 66 30 67 31 68 32 69 58 70 59 71 67 72 60 73 66 74 68 75
REMARK SMILES IDX 65 76 61 77 62 78 63 79 64 80 43 81 44 82 52 83 45 84 51 85
REMARK SMILES IDX 53 86 50 87 46 88 47 89 48 90 49 91
REMARK H PARENT 73 44 41 55
REMARK Flexibility Score: inf
ROOT
ATOM      1  C   UNL A   1      34.734  21.865  25.123  1.00  0.00     0.188 C 
ENDROOT
BRANCH   1   2
ATOM      2  C   UNL A   1      34.325  23.070  25.988  1.00  0.00     0.188 C 
BRANCH   2   3
ATOM      3  O   UNL A   1      32.944  23.396  26.139  1.00  0.00    -0.376 OA
BRANCH   3   4
ATOM      4  C   UNL A   1      31.989  22.662  25.394  1.00  0.00     0.202 C 
BRANCH   4   5
ATOM      5  C   UNL A   1      31.817  23.078  23.933  1.00  0.00     0.261 C 
BRANCH   5   6
ATOM      6  O   UNL A   1      32.239  24.426  23.645  1.00  0.00    -0.463 OA
BRANCH   6   7
ATOM      7  C   UNL A   1      33.116  24.543  22.609  1.00  0.00     0.313 C 
ATOM      8  O   UNL A   1      33.906  23.660  22.288  1.00  0.00    -0.252 OA
BRANCH   7   9
ATOM      9  C   UNL A   1      33.149  25.936  21.994  1.00  0.00     0.126 C 
ATOM     10  C   UNL A   1      32.100  25.994  20.869  1.00  0.00     0.025 C 
BRANCH   9  11
ATOM     11  C   UNL A   1      32.987  27.159  22.898  1.00  0.00    -0.030 A 
ATOM     12  C   UNL A   1      31.851  27.980  22.762  1.00  0.00     0.009 A 
ATOM     13  C   UNL A   1      33.805  27.349  24.025  1.00  0.00     0.055 A 
ATOM     14  C   UNL A   1      31.478  28.867  23.780  1.00  0.00     0.051 A 
ATOM     15  C   UNL A   1      33.413  28.211  25.053  1.00  0.00     0.161 A 
ATOM     16  C   UNL A   1      32.227  28.933  24.951  1.00  0.00     0.161 A 
ATOM     17  O   UNL A   1      34.203  28.223  26.173  1.00  0.00    -0.486 OA
ATOM     18  O   UNL A   1      31.719  29.678  25.986  1.00  0.00    -0.486 OA
ATOM     19  C   UNL A   1      33.783  29.188  27.147  1.00  0.00     0.271 C 
ATOM     20  C   UNL A   1      32.268  29.228  27.237  1.00  0.00     0.271 C 
ENDBRANCH   9  11
ENDBRANCH   7   9
ENDBRANCH   6   7
ENDBRANCH   5   6
ENDBRANCH   4   5
ENDBRANCH   3   4
ENDBRANCH   2   3
ENDBRANCH   1   2
BRANCH   1  21
ATOM     21  O   UNL A   1      35.677  21.022  25.787  1.00  0.00    -0.376 OA
BRANCH  21  22
ATOM     22  C   UNL A   1      36.209  19.990  24.961  1.00  0.00     0.202 C 
BRANCH  22  23
ATOM     23  C   UNL A   1      37.733  20.055  24.952  1.00  0.00     0.261 C 
BRANCH  23  24
ATOM     24  O   UNL A   1      38.223  21.253  25.581  1.00  0.00    -0.460 OA
BRANCH  24  25
ATOM     25  C   UNL A   1      39.436  21.166  26.157  1.00  0.00     0.338 C 
ATOM     26  O   UNL A   1      40.154  20.174  26.220  1.00  0.00    -0.246 OA
BRANCH  25  27
ATOM     27  C   UNL A   1      39.790  22.478  26.720  1.00  0.00     0.060 A 
ATOM     28  C   UNL A   1      39.070  23.610  26.341  1.00  0.00     0.016 A 
ATOM     29  C   UNL A   1      40.903  22.601  27.550  1.00  0.00     0.016 A 
ATOM     30  C   UNL A   1      39.502  24.882  26.731  1.00  0.00     0.010 A 
ATOM     31  C   UNL A   1      41.313  23.873  27.968  1.00  0.00     0.010 A 
ATOM     32  C   UNL A   1      40.646  25.032  27.523  1.00  0.00    -0.014 A 
BRANCH  32  33
ATOM     33  C   UNL A   1      41.253  26.375  27.759  1.00  0.00     0.031 A 
ATOM     34  C   UNL A   1      42.673  26.617  27.308  1.00  0.00     0.074 A 
ATOM     35  C   UNL A   1      40.574  27.383  28.339  1.00  0.00     0.049 A 
ATOM     36  N   UNL A   1      43.498  27.582  27.619  1.00  0.00    -0.248 NA
ATOM     37  C   UNL A   1      43.235  25.619  26.385  1.00  0.00     0.031 C 
ATOM     38  C   UNL A   1      39.165  27.346  28.727  1.00  0.00     0.029 A 
ATOM     39  N   UNL A   1      40.990  28.640  28.714  1.00  0.00    -0.354 N 
ATOM     40  C   UNL A   1      44.696  27.280  26.978  1.00  0.00     0.074 A 
ATOM     41  C   UNL A   1      44.486  26.036  26.266  1.00  0.00     0.031 C 
ATOM     42  C   UNL A   1      38.834  28.522  29.287  1.00  0.00     0.029 A 
ATOM     43  C   UNL A   1      40.025  29.363  29.378  1.00  0.00     0.049 A 
ATOM     44  H   UNL A   1      41.891  28.989  28.525  1.00  0.00     0.167 HD
ATOM     45  C   UNL A   1      45.863  27.973  26.988  1.00  0.00     0.034 A 
ATOM     46  C   UNL A   1      40.104  30.537  30.040  1.00  0.00     0.034 A 
ATOM     47  C   UNL A   1      46.047  29.229  27.675  1.00  0.00     0.049 A 
ATOM     48  C   UNL A   1      41.433  31.250  30.122  1.00  0.00     0.074 A 
ATOM     49  C   UNL A   1      47.189  30.006  27.764  1.00  0.00     0.029 A 
ATOM     50  N   UNL A   1      45.058  29.899  28.384  1.00  0.00    -0.354 N 
ATOM     51  N   UNL A   1      42.591  30.907  29.605  1.00  0.00    -0.248 NA
ATOM     52  C   UNL A   1      41.468  32.503  30.891  1.00  0.00     0.031 C 
ATOM     53  C   UNL A   1      46.908  31.112  28.574  1.00  0.00     0.029 A 
ATOM     54  C   UNL A   1      45.570  31.067  28.930  1.00  0.00     0.049 A 
ATOM     55  H   UNL A   1      44.129  29.591  28.484  1.00  0.00     0.167 HD
ATOM     56  C   UNL A   1      43.485  31.910  29.975  1.00  0.00     0.074 A 
ATOM     57  C   UNL A   1      42.729  32.879  30.741  1.00  0.00     0.031 C 
ATOM     58  C   UNL A   1      44.811  32.020  29.705  1.00  0.00     0.034 A 
BRANCH  45  59
ATOM     59  C   UNL A   1      47.046  27.342  26.295  1.00  0.00     0.023 A 
ATOM     60  C   UNL A   1      47.989  26.560  26.984  1.00  0.00     0.031 A 
ATOM     61  C   UNL A   1      47.256  27.564  24.921  1.00  0.00     0.131 A 
ATOM     62  C   UNL A   1      49.134  26.096  26.318  1.00  0.00     0.055 A 
ATOM     63  C   UNL A   1      48.355  27.032  24.246  1.00  0.00     0.041 A 
ATOM     64  F   UNL A   1      46.401  28.322  24.214  1.00  0.00    -0.206 F 
ATOM     65  C   UNL A   1      49.312  26.306  24.949  1.00  0.00     0.022 A 
BRANCH  62  66
ATOM     66  S   UNL A   1      50.464  25.349  27.301  1.00  0.00     0.124 S 
ATOM     67  O   UNL A   1      51.419  24.965  26.263  1.00  0.00    -0.237 OA
ATOM     68  O   UNL A   1      50.872  26.448  28.167  1.00  0.00    -0.237 OA
ATOM     69  O   UNL A   1      49.806  24.232  27.974  1.00  0.00    -0.744 OA
ENDBRANCH  62  66
ENDBRANCH  45  59
BRANCH  46  70
ATOM     70  C   UNL A   1      38.916  31.074  30.769  1.00  0.00     0.023 A 
ATOM     71  C   UNL A   1      37.941  31.841  30.114  1.00  0.00     0.031 A 
ATOM     72  C   UNL A   1      38.771  30.868  32.155  1.00  0.00     0.131 A 
ATOM     73  C   UNL A   1      36.883  32.403  30.848  1.00  0.00     0.055 A 
ATOM     74  C   UNL A   1      37.688  31.380  32.869  1.00  0.00     0.041 A 
ATOM     75  F   UNL A   1      39.681  30.152  32.833  1.00  0.00    -0.206 F 
ATOM     76  C   UNL A   1      36.742  32.164  32.218  1.00  0.00     0.022 A 
BRANCH  73  77
ATOM     77  S   UNL A   1      35.733  33.523  30.004  1.00  0.00     0.124 S 
ATOM     78  O   UNL A   1      35.232  34.327  31.114  1.00  0.00    -0.237 OA
ATOM     79  O   UNL A   1      36.611  34.208  29.061  1.00  0.00    -0.237 OA
ATOM     80  O   UNL A   1      34.758  32.619  29.399  1.00  0.00    -0.744 OA
ENDBRANCH  73  77
ENDBRANCH  46  70
BRANCH  58  81
ATOM     81  C   UNL A   1      45.514  33.259  30.205  1.00  0.00     0.023 A 
ATOM     82  C   UNL A   1      45.632  34.416  29.413  1.00  0.00     0.031 A 
ATOM     83  C   UNL A   1      46.086  33.277  31.489  1.00  0.00     0.131 A 
ATOM     84  C   UNL A   1      46.350  35.521  29.894  1.00  0.00     0.055 A 
ATOM     85  C   UNL A   1      46.750  34.399  31.984  1.00  0.00     0.041 A 
ATOM     86  F   UNL A   1      46.004  32.200  32.287  1.00  0.00    -0.206 F 
ATOM     87  C   UNL A   1      46.897  35.526  31.180  1.00  0.00     0.022 A 
BRANCH  84  88
ATOM     88  S   UNL A   1      46.633  36.930  28.785  1.00  0.00     0.124 S 
ATOM     89  O   UNL A   1      45.470  36.862  27.906  1.00  0.00    -0.237 OA
ATOM     90  O   UNL A   1      46.668  38.056  29.712  1.00  0.00    -0.237 OA
ATOM     91  O   UNL A   1      47.910  36.613  28.147  1.00  0.00    -0.744 OA
ENDBRANCH  84  88
ENDBRANCH  58  81
ENDBRANCH  32  33
ENDBRANCH  25  27
ENDBRANCH  24  25
ENDBRANCH  23  24
ENDBRANCH  22  23
ENDBRANCH  21  22
ENDBRANCH   1  21
TORSDOF 21
ENDMDL
