MODEL 1
REMARK VINA RESULT:     -11.1      0.000      0.000
REMARK SMILES O=C(OCCOCCOCCOC(=O)c1ccc(-c2c3nc(c(-c4cc(S(=O)(=O)[O-])ccc4F)c4ccc([nH]4)c(-c4cc(S(=O)(=O)[O-])ccc4F)c4nc(c(-c5cc(S(=O)(=O)[O-])ccc5F)c5ccc2[nH]5)C=C4)C=C3)cc1)C1=Cc2cc(Cl)ccc2O[C@@H]1C(F)(F)F
REMARK SMILES IDX 8 1 7 2 6 3 5 4 4 5 3 6 2 7 1 8 78 9 79 10 88 11 80 12 87 13
REMARK SMILES IDX 81 14 86 15 82 16 85 17 83 18 84 19 89 20 90 21 91 22 92 23
REMARK SMILES IDX 9 24 10 25 11 26 12 27 13 28 14 29 15 30 16 31 77 32 17 33
REMARK SMILES IDX 76 34 18 35 19 36 20 37 70 38 21 39 75 40 69 41 71 42 22 43
REMARK SMILES IDX 74 44 68 45 67 46 23 48 55 49 35 50 54 51 36 52 39 53 53 54
REMARK SMILES IDX 72 55 37 56 38 57 52 59 73 60 40 61 24 62 25 63 33 64 26 65
REMARK SMILES IDX 32 66 34 67 31 68 27 69 28 70 29 71 30 72 56 73 57 74 65 75
REMARK SMILES IDX 58 76 64 77 66 78 63 79 59 80 60 81 61 82 62 83 41 84 42 85
REMARK SMILES IDX 50 86 43 87 49 88 51 89 48 90 44 91 45 92 46 93 47 94
REMARK H PARENT 71 47 39 58
REMARK Flexibility Score: inf
ROOT
ATOM      1  C   UNL A   1      32.814  28.154  23.589  1.00  0.00     0.188 C 
ENDROOT
BRANCH   1   2
ATOM      2  C   UNL A   1      33.647  28.228  22.311  1.00  0.00     0.188 C 
BRANCH   2   3
ATOM      3  O   UNL A   1      33.861  26.951  21.721  1.00  0.00    -0.376 OA
BRANCH   3   4
ATOM      4  C   UNL A   1      33.647  25.840  22.595  1.00  0.00     0.202 C 
BRANCH   4   5
ATOM      5  C   UNL A   1      32.807  24.720  21.968  1.00  0.00     0.261 C 
BRANCH   5   6
ATOM      6  O   UNL A   1      33.582  23.508  21.881  1.00  0.00    -0.460 OA
BRANCH   6   7
ATOM      7  C   UNL A   1      34.475  23.303  22.867  1.00  0.00     0.338 C 
ATOM      8  O   UNL A   1      35.624  23.715  22.823  1.00  0.00    -0.246 OA
BRANCH   7   9
ATOM      9  C   UNL A   1      33.935  22.466  23.975  1.00  0.00     0.087 C 
ATOM     10  C   UNL A   1      34.133  23.027  25.186  1.00  0.00     0.027 C 
ATOM     11  C   UNL A   1      32.643  21.709  23.737  1.00  0.00     0.316 C 
ATOM     12  C   UNL A   1      32.975  23.886  25.516  1.00  0.00     0.019 A 
ATOM     13  O   UNL A   1      31.485  22.347  24.365  1.00  0.00    -0.475 OA
ATOM     14  C   UNL A   1      33.145  25.076  26.225  1.00  0.00     0.032 A 
ATOM     15  C   UNL A   1      31.706  23.517  25.048  1.00  0.00     0.128 A 
ATOM     16  C   UNL A   1      32.049  25.916  26.419  1.00  0.00     0.041 A 
ATOM     17  C   UNL A   1      30.617  24.364  25.240  1.00  0.00     0.048 A 
ATOM     18  Cl  UNL A   1      32.248  27.395  27.274  1.00  0.00    -0.084 Cl
ATOM     19  C   UNL A   1      30.792  25.577  25.911  1.00  0.00     0.024 A 
BRANCH  11  20
ATOM     20  C   UNL A   1      32.735  20.234  24.131  1.00  0.00     0.430 C 
ATOM     21  F   UNL A   1      34.025  19.845  24.265  1.00  0.00    -0.167 F 
ATOM     22  F   UNL A   1      32.127  20.008  25.319  1.00  0.00    -0.167 F 
ATOM     23  F   UNL A   1      32.156  19.430  23.212  1.00  0.00    -0.167 F 
ENDBRANCH  11  20
ENDBRANCH   7   9
ENDBRANCH   6   7
ENDBRANCH   5   6
ENDBRANCH   4   5
ENDBRANCH   3   4
ENDBRANCH   2   3
ENDBRANCH   1   2
BRANCH   1  24
ATOM     24  O   UNL A   1      32.901  29.362  24.343  1.00  0.00    -0.376 OA
BRANCH  24  25
ATOM     25  C   UNL A   1      31.757  29.598  25.170  1.00  0.00     0.202 C 
BRANCH  25  26
ATOM     26  C   UNL A   1      31.769  30.910  25.983  1.00  0.00     0.261 C 
BRANCH  26  27
ATOM     27  O   UNL A   1      32.483  30.898  27.233  1.00  0.00    -0.460 OA
BRANCH  27  28
ATOM     28  C   UNL A   1      33.229  31.987  27.521  1.00  0.00     0.338 C 
ATOM     29  O   UNL A   1      32.830  33.131  27.617  1.00  0.00    -0.246 OA
BRANCH  28  30
ATOM     30  C   UNL A   1      34.620  31.561  27.796  1.00  0.00     0.060 A 
ATOM     31  C   UNL A   1      34.895  30.199  27.953  1.00  0.00     0.016 A 
ATOM     32  C   UNL A   1      35.624  32.510  28.010  1.00  0.00     0.016 A 
ATOM     33  C   UNL A   1      36.167  29.786  28.365  1.00  0.00     0.010 A 
ATOM     34  C   UNL A   1      36.895  32.093  28.436  1.00  0.00     0.010 A 
ATOM     35  C   UNL A   1      37.163  30.731  28.655  1.00  0.00    -0.014 A 
BRANCH  35  36
ATOM     36  C   UNL A   1      38.389  30.288  29.377  1.00  0.00     0.031 A 
ATOM     37  C   UNL A   1      38.612  30.781  30.784  1.00  0.00     0.074 A 
ATOM     38  C   UNL A   1      39.251  29.408  28.834  1.00  0.00     0.049 A 
ATOM     39  N   UNL A   1      39.549  30.465  31.641  1.00  0.00    -0.248 NA
ATOM     40  C   UNL A   1      37.637  31.759  31.292  1.00  0.00     0.031 C 
ATOM     41  C   UNL A   1      39.143  28.836  27.493  1.00  0.00     0.029 A 
ATOM     42  N   UNL A   1      40.390  28.837  29.351  1.00  0.00    -0.354 N 
ATOM     43  C   UNL A   1      39.258  31.176  32.801  1.00  0.00     0.074 A 
ATOM     44  C   UNL A   1      38.094  31.986  32.514  1.00  0.00     0.031 C 
ATOM     45  C   UNL A   1      40.178  27.999  27.292  1.00  0.00     0.029 A 
ATOM     46  C   UNL A   1      41.032  27.987  28.480  1.00  0.00     0.049 A 
ATOM     47  H   UNL A   1      40.715  29.019  30.263  1.00  0.00     0.167 HD
ATOM     48  C   UNL A   1      39.886  31.142  34.004  1.00  0.00     0.034 A 
ATOM     49  C   UNL A   1      42.181  27.290  28.620  1.00  0.00     0.034 A 
ATOM     50  C   UNL A   1      41.077  30.372  34.272  1.00  0.00     0.049 A 
ATOM     51  C   UNL A   1      42.923  27.347  29.939  1.00  0.00     0.074 A 
ATOM     52  C   UNL A   1      41.806  30.291  35.447  1.00  0.00     0.029 A 
ATOM     53  N   UNL A   1      41.726  29.563  33.349  1.00  0.00    -0.354 N 
ATOM     54  N   UNL A   1      42.616  27.999  31.038  1.00  0.00    -0.248 NA
ATOM     55  C   UNL A   1      44.154  26.551  30.042  1.00  0.00     0.031 C 
ATOM     56  C   UNL A   1      42.929  29.488  35.214  1.00  0.00     0.029 A 
ATOM     57  C   UNL A   1      42.859  29.001  33.918  1.00  0.00     0.049 A 
ATOM     58  H   UNL A   1      41.425  29.410  32.423  1.00  0.00     0.167 HD
ATOM     59  C   UNL A   1      43.600  27.663  31.967  1.00  0.00     0.074 A 
ATOM     60  C   UNL A   1      44.492  26.734  31.308  1.00  0.00     0.031 C 
ATOM     61  C   UNL A   1      43.753  28.084  33.251  1.00  0.00     0.034 A 
BRANCH  48  62
ATOM     62  C   UNL A   1      39.306  31.998  35.104  1.00  0.00     0.023 A 
ATOM     63  C   UNL A   1      39.740  33.320  35.310  1.00  0.00     0.031 A 
ATOM     64  C   UNL A   1      38.331  31.482  35.976  1.00  0.00     0.131 A 
ATOM     65  C   UNL A   1      39.254  34.056  36.400  1.00  0.00     0.055 A 
ATOM     66  C   UNL A   1      37.794  32.247  37.013  1.00  0.00     0.041 A 
ATOM     67  F   UNL A   1      37.894  30.221  35.843  1.00  0.00    -0.206 F 
ATOM     68  C   UNL A   1      38.265  33.538  37.239  1.00  0.00     0.022 A 
BRANCH  65  69
ATOM     69  S   UNL A   1      40.030  35.650  36.788  1.00  0.00     0.124 S 
ATOM     70  O   UNL A   1      39.654  36.451  35.626  1.00  0.00    -0.237 OA
ATOM     71  O   UNL A   1      39.394  36.014  38.048  1.00  0.00    -0.237 OA
ATOM     72  O   UNL A   1      41.453  35.326  36.877  1.00  0.00    -0.744 OA
ENDBRANCH  65  69
ENDBRANCH  48  62
BRANCH  49  73
ATOM     73  C   UNL A   1      42.740  26.507  27.479  1.00  0.00     0.023 A 
ATOM     74  C   UNL A   1      42.526  25.123  27.360  1.00  0.00     0.031 A 
ATOM     75  C   UNL A   1      43.582  27.124  26.535  1.00  0.00     0.131 A 
ATOM     76  C   UNL A   1      43.193  24.394  26.359  1.00  0.00     0.055 A 
ATOM     77  C   UNL A   1      44.193  26.405  25.506  1.00  0.00     0.041 A 
ATOM     78  F   UNL A   1      43.828  28.441  26.605  1.00  0.00    -0.206 F 
ATOM     79  C   UNL A   1      44.014  25.028  25.425  1.00  0.00     0.022 A 
BRANCH  76  80
ATOM     80  S   UNL A   1      43.063  22.583  26.368  1.00  0.00     0.124 S 
ATOM     81  O   UNL A   1      44.420  22.189  26.728  1.00  0.00    -0.237 OA
ATOM     82  O   UNL A   1      42.038  22.358  27.382  1.00  0.00    -0.237 OA
ATOM     83  O   UNL A   1      42.663  22.265  24.999  1.00  0.00    -0.744 OA
ENDBRANCH  76  80
ENDBRANCH  49  73
BRANCH  61  84
ATOM     84  C   UNL A   1      44.907  27.500  34.036  1.00  0.00     0.023 A 
ATOM     85  C   UNL A   1      44.768  26.325  34.798  1.00  0.00     0.031 A 
ATOM     86  C   UNL A   1      46.157  28.144  34.044  1.00  0.00     0.131 A 
ATOM     87  C   UNL A   1      45.835  25.872  35.590  1.00  0.00     0.055 A 
ATOM     88  C   UNL A   1      47.236  27.650  34.780  1.00  0.00     0.041 A 
ATOM     89  F   UNL A   1      46.352  29.268  33.337  1.00  0.00    -0.206 F 
ATOM     90  C   UNL A   1      47.074  26.518  35.572  1.00  0.00     0.022 A 
BRANCH  87  91
ATOM     91  S   UNL A   1      45.550  24.492  36.733  1.00  0.00     0.124 S 
ATOM     92  O   UNL A   1      45.468  25.174  38.020  1.00  0.00    -0.237 OA
ATOM     93  O   UNL A   1      44.302  23.925  36.231  1.00  0.00    -0.237 OA
ATOM     94  O   UNL A   1      46.728  23.647  36.552  1.00  0.00    -0.744 OA
ENDBRANCH  87  91
ENDBRANCH  61  84
ENDBRANCH  35  36
ENDBRANCH  28  30
ENDBRANCH  27  28
ENDBRANCH  26  27
ENDBRANCH  25  26
ENDBRANCH  24  25
ENDBRANCH   1  24
TORSDOF 21
ENDMDL
MODEL 2
REMARK VINA RESULT:     -11.0      1.649      2.393
REMARK SMILES O=C(OCCOCCOCCOC(=O)c1ccc(-c2c3nc(c(-c4cc(S(=O)(=O)[O-])ccc4F)c4ccc([nH]4)c(-c4cc(S(=O)(=O)[O-])ccc4F)c4nc(c(-c5cc(S(=O)(=O)[O-])ccc5F)c5ccc2[nH]5)C=C4)C=C3)cc1)C1=Cc2cc(Cl)ccc2O[C@@H]1C(F)(F)F
REMARK SMILES IDX 8 1 7 2 6 3 5 4 4 5 3 6 2 7 1 8 78 9 79 10 88 11 80 12 87 13
REMARK SMILES IDX 81 14 86 15 82 16 85 17 83 18 84 19 89 20 90 21 91 22 92 23
REMARK SMILES IDX 9 24 10 25 11 26 12 27 13 28 14 29 15 30 16 31 77 32 17 33
REMARK SMILES IDX 76 34 18 35 19 36 20 37 70 38 21 39 75 40 69 41 71 42 22 43
REMARK SMILES IDX 74 44 68 45 67 46 23 48 55 49 35 50 54 51 36 52 39 53 53 54
REMARK SMILES IDX 72 55 37 56 38 57 52 59 73 60 40 61 24 62 25 63 33 64 26 65
REMARK SMILES IDX 32 66 34 67 31 68 27 69 28 70 29 71 30 72 56 73 57 74 65 75
REMARK SMILES IDX 58 76 64 77 66 78 63 79 59 80 60 81 61 82 62 83 41 84 42 85
REMARK SMILES IDX 50 86 43 87 49 88 51 89 48 90 44 91 45 92 46 93 47 94
REMARK H PARENT 71 47 39 58
REMARK Flexibility Score: inf
ROOT
ATOM      1  C   UNL A   1      32.753  28.500  23.635  1.00  0.00     0.188 C 
ENDROOT
BRANCH   1   2
ATOM      2  C   UNL A   1      33.761  28.583  22.491  1.00  0.00     0.188 C 
BRANCH   2   3
ATOM      3  O   UNL A   1      33.911  27.346  21.802  1.00  0.00    -0.376 OA
BRANCH   3   4
ATOM      4  C   UNL A   1      33.073  26.288  22.273  1.00  0.00     0.202 C 
BRANCH   4   5
ATOM      5  C   UNL A   1      32.668  25.293  21.178  1.00  0.00     0.261 C 
BRANCH   5   6
ATOM      6  O   UNL A   1      33.332  24.030  21.386  1.00  0.00    -0.460 OA
BRANCH   6   7
ATOM      7  C   UNL A   1      33.659  23.734  22.657  1.00  0.00     0.338 C 
ATOM      8  O   UNL A   1      34.815  23.633  23.042  1.00  0.00    -0.246 OA
BRANCH   7   9
ATOM      9  C   UNL A   1      32.473  23.478  23.519  1.00  0.00     0.087 C 
ATOM     10  C   UNL A   1      31.749  22.420  23.097  1.00  0.00     0.027 C 
ATOM     11  C   UNL A   1      32.610  23.703  25.013  1.00  0.00     0.316 C 
ATOM     12  C   UNL A   1      32.260  21.195  23.749  1.00  0.00     0.019 A 
ATOM     13  O   UNL A   1      32.763  22.457  25.765  1.00  0.00    -0.475 OA
ATOM     14  C   UNL A   1      32.282  19.977  23.067  1.00  0.00     0.032 A 
ATOM     15  C   UNL A   1      32.782  21.288  25.046  1.00  0.00     0.128 A 
ATOM     16  C   UNL A   1      32.874  18.868  23.671  1.00  0.00     0.041 A 
ATOM     17  C   UNL A   1      33.377  20.178  25.642  1.00  0.00     0.048 A 
ATOM     18  Cl  UNL A   1      32.926  17.366  22.835  1.00  0.00    -0.084 Cl
ATOM     19  C   UNL A   1      33.441  18.969  24.945  1.00  0.00     0.024 A 
BRANCH  11  20
ATOM     20  C   UNL A   1      31.481  24.556  25.593  1.00  0.00     0.430 C 
ATOM     21  F   UNL A   1      31.788  24.987  26.840  1.00  0.00    -0.167 F 
ATOM     22  F   UNL A   1      31.263  25.656  24.836  1.00  0.00    -0.167 F 
ATOM     23  F   UNL A   1      30.320  23.870  25.669  1.00  0.00    -0.167 F 
ENDBRANCH  11  20
ENDBRANCH   7   9
ENDBRANCH   6   7
ENDBRANCH   5   6
ENDBRANCH   4   5
ENDBRANCH   3   4
ENDBRANCH   2   3
ENDBRANCH   1   2
BRANCH   1  24
ATOM     24  O   UNL A   1      32.782  29.673  24.447  1.00  0.00    -0.376 OA
BRANCH  24  25
ATOM     25  C   UNL A   1      31.828  29.649  25.513  1.00  0.00     0.202 C 
BRANCH  25  26
ATOM     26  C   UNL A   1      31.728  30.935  26.360  1.00  0.00     0.261 C 
BRANCH  26  27
ATOM     27  O   UNL A   1      32.542  31.003  27.545  1.00  0.00    -0.460 OA
BRANCH  27  28
ATOM     28  C   UNL A   1      33.367  32.066  27.660  1.00  0.00     0.338 C 
ATOM     29  O   UNL A   1      33.042  33.237  27.649  1.00  0.00    -0.246 OA
BRANCH  28  30
ATOM     30  C   UNL A   1      34.747  31.583  27.897  1.00  0.00     0.060 A 
ATOM     31  C   UNL A   1      34.976  30.209  28.008  1.00  0.00     0.016 A 
ATOM     32  C   UNL A   1      35.787  32.490  28.121  1.00  0.00     0.016 A 
ATOM     33  C   UNL A   1      36.239  29.739  28.385  1.00  0.00     0.010 A 
ATOM     34  C   UNL A   1      37.050  32.016  28.511  1.00  0.00     0.010 A 
ATOM     35  C   UNL A   1      37.273  30.639  28.684  1.00  0.00    -0.014 A 
BRANCH  35  36
ATOM     36  C   UNL A   1      38.495  30.132  29.370  1.00  0.00     0.031 A 
ATOM     37  C   UNL A   1      38.796  30.627  30.761  1.00  0.00     0.074 A 
ATOM     38  C   UNL A   1      39.283  29.195  28.810  1.00  0.00     0.049 A 
ATOM     39  N   UNL A   1      39.742  30.266  31.590  1.00  0.00    -0.248 NA
ATOM     40  C   UNL A   1      37.900  31.668  31.289  1.00  0.00     0.031 C 
ATOM     41  C   UNL A   1      39.094  28.615  27.482  1.00  0.00     0.029 A 
ATOM     42  N   UNL A   1      40.403  28.563  29.297  1.00  0.00    -0.354 N 
ATOM     43  C   UNL A   1      39.535  31.007  32.750  1.00  0.00     0.074 A 
ATOM     44  C   UNL A   1      38.412  31.883  32.491  1.00  0.00     0.031 C 
ATOM     45  C   UNL A   1      40.070  27.714  27.258  1.00  0.00     0.029 A 
ATOM     46  C   UNL A   1      40.963  27.666  28.416  1.00  0.00     0.049 A 
ATOM     47  H   UNL A   1      40.771  28.736  30.194  1.00  0.00     0.167 HD
ATOM     48  C   UNL A   1      40.201  30.950  33.930  1.00  0.00     0.034 A 
ATOM     49  C   UNL A   1      42.072  26.902  28.527  1.00  0.00     0.034 A 
ATOM     50  C   UNL A   1      41.352  30.113  34.169  1.00  0.00     0.049 A 
ATOM     51  C   UNL A   1      42.861  26.930  29.819  1.00  0.00     0.074 A 
ATOM     52  C   UNL A   1      42.116  30.002  35.319  1.00  0.00     0.029 A 
ATOM     53  N   UNL A   1      41.920  29.255  33.236  1.00  0.00    -0.354 N 
ATOM     54  N   UNL A   1      42.633  27.613  30.918  1.00  0.00    -0.248 NA
ATOM     55  C   UNL A   1      44.045  26.063  29.890  1.00  0.00     0.031 C 
ATOM     56  C   UNL A   1      43.180  29.130  35.059  1.00  0.00     0.029 A 
ATOM     57  C   UNL A   1      43.036  28.633  33.774  1.00  0.00     0.049 A 
ATOM     58  H   UNL A   1      41.578  29.109  32.323  1.00  0.00     0.167 HD
ATOM     59  C   UNL A   1      43.627  27.229  31.818  1.00  0.00     0.074 A 
ATOM     60  C   UNL A   1      44.439  26.240  31.142  1.00  0.00     0.031 C 
ATOM     61  C   UNL A   1      43.850  27.655  33.089  1.00  0.00     0.034 A 
BRANCH  48  62
ATOM     62  C   UNL A   1      39.712  31.852  35.038  1.00  0.00     0.023 A 
ATOM     63  C   UNL A   1      40.210  33.159  35.191  1.00  0.00     0.031 A 
ATOM     64  C   UNL A   1      38.763  31.396  35.968  1.00  0.00     0.131 A 
ATOM     65  C   UNL A   1      39.808  33.938  36.286  1.00  0.00     0.055 A 
ATOM     66  C   UNL A   1      38.309  32.205  37.013  1.00  0.00     0.041 A 
ATOM     67  F   UNL A   1      38.268  30.151  35.887  1.00  0.00    -0.206 F 
ATOM     68  C   UNL A   1      38.843  33.480  37.185  1.00  0.00     0.022 A 
BRANCH  65  69
ATOM     69  S   UNL A   1      40.667  35.506  36.598  1.00  0.00     0.124 S 
ATOM     70  O   UNL A   1      40.984  35.392  38.019  1.00  0.00    -0.237 OA
ATOM     71  O   UNL A   1      41.799  35.435  35.682  1.00  0.00    -0.237 OA
ATOM     72  O   UNL A   1      39.662  36.517  36.271  1.00  0.00    -0.744 OA
ENDBRANCH  65  69
ENDBRANCH  48  62
BRANCH  49  73
ATOM     73  C   UNL A   1      42.543  26.073  27.378  1.00  0.00     0.023 A 
ATOM     74  C   UNL A   1      42.118  24.744  27.205  1.00  0.00     0.031 A 
ATOM     75  C   UNL A   1      43.507  26.575  26.484  1.00  0.00     0.131 A 
ATOM     76  C   UNL A   1      42.699  23.948  26.202  1.00  0.00     0.055 A 
ATOM     77  C   UNL A   1      44.035  25.798  25.452  1.00  0.00     0.041 A 
ATOM     78  F   UNL A   1      43.955  27.834  26.607  1.00  0.00    -0.206 F 
ATOM     79  C   UNL A   1      43.644  24.469  25.318  1.00  0.00     0.022 A 
BRANCH  76  80
ATOM     80  S   UNL A   1      42.285  22.181  26.144  1.00  0.00     0.124 S 
ATOM     81  O   UNL A   1      42.684  21.738  27.475  1.00  0.00    -0.237 OA
ATOM     82  O   UNL A   1      40.849  22.215  25.882  1.00  0.00    -0.237 OA
ATOM     83  O   UNL A   1      43.105  21.676  25.045  1.00  0.00    -0.744 OA
ENDBRANCH  76  80
ENDBRANCH  49  73
BRANCH  61  84
ATOM     84  C   UNL A   1      44.993  27.012  33.843  1.00  0.00     0.023 A 
ATOM     85  C   UNL A   1      44.821  25.832  34.590  1.00  0.00     0.031 A 
ATOM     86  C   UNL A   1      46.269  27.604  33.835  1.00  0.00     0.131 A 
ATOM     87  C   UNL A   1      45.883  25.324  35.354  1.00  0.00     0.055 A 
ATOM     88  C   UNL A   1      47.341  27.055  34.542  1.00  0.00     0.041 A 
ATOM     89  F   UNL A   1      46.497  28.730  33.141  1.00  0.00    -0.206 F 
ATOM     90  C   UNL A   1      47.147  25.919  35.321  1.00  0.00     0.022 A 
BRANCH  87  91
ATOM     91  S   UNL A   1      45.563  23.939  36.482  1.00  0.00     0.124 S 
ATOM     92  O   UNL A   1      46.520  22.941  36.017  1.00  0.00    -0.237 OA
ATOM     93  O   UNL A   1      45.839  24.530  37.787  1.00  0.00    -0.237 OA
ATOM     94  O   UNL A   1      44.160  23.613  36.235  1.00  0.00    -0.744 OA
ENDBRANCH  87  91
ENDBRANCH  61  84
ENDBRANCH  35  36
ENDBRANCH  28  30
ENDBRANCH  27  28
ENDBRANCH  26  27
ENDBRANCH  25  26
ENDBRANCH  24  25
ENDBRANCH   1  24
TORSDOF 21
ENDMDL
MODEL 3
REMARK VINA RESULT:     -10.8      1.710      7.945
REMARK SMILES O=C(OCCOCCOCCOC(=O)c1ccc(-c2c3nc(c(-c4cc(S(=O)(=O)[O-])ccc4F)c4ccc([nH]4)c(-c4cc(S(=O)(=O)[O-])ccc4F)c4nc(c(-c5cc(S(=O)(=O)[O-])ccc5F)c5ccc2[nH]5)C=C4)C=C3)cc1)C1=Cc2cc(Cl)ccc2O[C@@H]1C(F)(F)F
REMARK SMILES IDX 8 1 7 2 6 3 5 4 4 5 3 6 2 7 1 8 78 9 79 10 88 11 80 12 87 13
REMARK SMILES IDX 81 14 86 15 82 16 85 17 83 18 84 19 89 20 90 21 91 22 92 23
REMARK SMILES IDX 9 24 10 25 11 26 12 27 13 28 14 29 15 30 16 31 77 32 17 33
REMARK SMILES IDX 76 34 18 35 19 36 20 37 70 38 21 39 75 40 69 41 71 42 22 43
REMARK SMILES IDX 74 44 68 45 67 46 23 48 55 49 35 50 54 51 36 52 39 53 53 54
REMARK SMILES IDX 72 55 37 56 38 57 52 59 73 60 40 61 24 62 25 63 33 64 26 65
REMARK SMILES IDX 32 66 34 67 31 68 27 69 28 70 29 71 30 72 56 73 57 74 65 75
REMARK SMILES IDX 58 76 64 77 66 78 63 79 59 80 60 81 61 82 62 83 41 84 42 85
REMARK SMILES IDX 50 86 43 87 49 88 51 89 48 90 44 91 45 92 46 93 47 94
REMARK H PARENT 71 47 39 58
REMARK Flexibility Score: inf
ROOT
ATOM      1  C   UNL A   1      31.618  27.036  23.533  1.00  0.00     0.188 C 
ENDROOT
BRANCH   1   2
ATOM      2  C   UNL A   1      33.112  27.122  23.227  1.00  0.00     0.188 C 
BRANCH   2   3
ATOM      3  O   UNL A   1      33.612  25.944  22.602  1.00  0.00    -0.376 OA
BRANCH   3   4
ATOM      4  C   UNL A   1      32.666  25.245  21.791  1.00  0.00     0.202 C 
BRANCH   4   5
ATOM      5  C   UNL A   1      33.125  23.836  21.391  1.00  0.00     0.261 C 
BRANCH   5   6
ATOM      6  O   UNL A   1      33.504  23.088  22.563  1.00  0.00    -0.460 OA
BRANCH   6   7
ATOM      7  C   UNL A   1      32.583  22.235  23.047  1.00  0.00     0.338 C 
ATOM      8  O   UNL A   1      31.810  21.613  22.333  1.00  0.00    -0.246 OA
BRANCH   7   9
ATOM      9  C   UNL A   1      32.560  22.184  24.535  1.00  0.00     0.087 C 
ATOM     10  C   UNL A   1      33.174  21.086  25.022  1.00  0.00     0.027 C 
ATOM     11  C   UNL A   1      32.708  23.487  25.298  1.00  0.00     0.316 C 
ATOM     12  C   UNL A   1      34.606  21.388  25.235  1.00  0.00     0.019 A 
ATOM     13  O   UNL A   1      34.049  23.673  25.853  1.00  0.00    -0.475 OA
ATOM     14  C   UNL A   1      35.584  20.417  25.015  1.00  0.00     0.032 A 
ATOM     15  C   UNL A   1      34.974  22.690  25.604  1.00  0.00     0.128 A 
ATOM     16  C   UNL A   1      36.930  20.769  25.116  1.00  0.00     0.041 A 
ATOM     17  C   UNL A   1      36.320  23.036  25.698  1.00  0.00     0.048 A 
ATOM     18  Cl  UNL A   1      38.145  19.587  24.827  1.00  0.00    -0.084 Cl
ATOM     19  C   UNL A   1      37.302  22.078  25.434  1.00  0.00     0.024 A 
BRANCH  11  20
ATOM     20  C   UNL A   1      31.639  23.669  26.377  1.00  0.00     0.430 C 
ATOM     21  F   UNL A   1      31.787  22.757  27.367  1.00  0.00    -0.167 F 
ATOM     22  F   UNL A   1      31.727  24.893  26.948  1.00  0.00    -0.167 F 
ATOM     23  F   UNL A   1      30.391  23.536  25.877  1.00  0.00    -0.167 F 
ENDBRANCH  11  20
ENDBRANCH   7   9
ENDBRANCH   6   7
ENDBRANCH   5   6
ENDBRANCH   4   5
ENDBRANCH   3   4
ENDBRANCH   2   3
ENDBRANCH   1   2
BRANCH   1  24
ATOM     24  O   UNL A   1      31.156  28.196  24.224  1.00  0.00    -0.376 OA
BRANCH  24  25
ATOM     25  C   UNL A   1      32.203  28.925  24.873  1.00  0.00     0.202 C 
BRANCH  25  26
ATOM     26  C   UNL A   1      31.775  30.213  25.607  1.00  0.00     0.261 C 
BRANCH  26  27
ATOM     27  O   UNL A   1      32.242  30.382  26.958  1.00  0.00    -0.460 OA
BRANCH  27  28
ATOM     28  C   UNL A   1      32.946  31.503  27.226  1.00  0.00     0.338 C 
ATOM     29  O   UNL A   1      32.535  32.646  27.168  1.00  0.00    -0.246 OA
BRANCH  28  30
ATOM     30  C   UNL A   1      34.298  31.125  27.697  1.00  0.00     0.060 A 
ATOM     31  C   UNL A   1      34.576  29.779  27.954  1.00  0.00     0.016 A 
ATOM     32  C   UNL A   1      35.248  32.107  27.992  1.00  0.00     0.016 A 
ATOM     33  C   UNL A   1      35.791  29.417  28.545  1.00  0.00     0.010 A 
ATOM     34  C   UNL A   1      36.461  31.742  28.596  1.00  0.00     0.010 A 
ATOM     35  C   UNL A   1      36.724  30.398  28.913  1.00  0.00    -0.014 A 
BRANCH  35  36
ATOM     36  C   UNL A   1      37.854  30.019  29.807  1.00  0.00     0.031 A 
ATOM     37  C   UNL A   1      38.864  29.018  29.304  1.00  0.00     0.074 A 
ATOM     38  C   UNL A   1      38.033  30.600  31.008  1.00  0.00     0.049 A 
ATOM     39  N   UNL A   1      39.974  28.602  29.858  1.00  0.00    -0.248 NA
ATOM     40  C   UNL A   1      38.581  28.412  27.994  1.00  0.00     0.031 C 
ATOM     41  C   UNL A   1      37.146  31.597  31.604  1.00  0.00     0.029 A 
ATOM     42  N   UNL A   1      39.029  30.436  31.941  1.00  0.00    -0.354 N 
ATOM     43  C   UNL A   1      40.542  27.713  28.950  1.00  0.00     0.074 A 
ATOM     44  C   UNL A   1      39.619  27.605  27.839  1.00  0.00     0.031 C 
ATOM     45  C   UNL A   1      37.636  31.952  32.807  1.00  0.00     0.029 A 
ATOM     46  C   UNL A   1      38.860  31.197  33.075  1.00  0.00     0.049 A 
ATOM     47  H   UNL A   1      39.794  29.830  31.809  1.00  0.00     0.167 HD
ATOM     48  C   UNL A   1      41.731  27.064  29.019  1.00  0.00     0.034 A 
ATOM     49  C   UNL A   1      39.601  31.268  34.202  1.00  0.00     0.034 A 
ATOM     50  C   UNL A   1      42.625  27.134  30.150  1.00  0.00     0.049 A 
ATOM     51  C   UNL A   1      40.875  30.455  34.302  1.00  0.00     0.074 A 
ATOM     52  C   UNL A   1      43.839  26.493  30.332  1.00  0.00     0.029 A 
ATOM     53  N   UNL A   1      42.396  27.876  31.301  1.00  0.00    -0.354 N 
ATOM     54  N   UNL A   1      41.414  29.644  33.420  1.00  0.00    -0.248 NA
ATOM     55  C   UNL A   1      41.651  30.589  35.542  1.00  0.00     0.031 C 
ATOM     56  C   UNL A   1      44.308  26.795  31.616  1.00  0.00     0.029 A 
ATOM     57  C   UNL A   1      43.429  27.689  32.206  1.00  0.00     0.049 A 
ATOM     58  H   UNL A   1      41.611  28.453  31.452  1.00  0.00     0.167 HD
ATOM     59  C   UNL A   1      42.607  29.200  33.990  1.00  0.00     0.074 A 
ATOM     60  C   UNL A   1      42.718  29.852  35.277  1.00  0.00     0.031 C 
ATOM     61  C   UNL A   1      43.529  28.333  33.495  1.00  0.00     0.034 A 
BRANCH  48  62
ATOM     62  C   UNL A   1      42.106  26.192  27.844  1.00  0.00     0.023 A 
ATOM     63  C   UNL A   1      41.688  24.851  27.765  1.00  0.00     0.031 A 
ATOM     64  C   UNL A   1      42.911  26.693  26.807  1.00  0.00     0.131 A 
ATOM     65  C   UNL A   1      42.134  24.039  26.712  1.00  0.00     0.055 A 
ATOM     66  C   UNL A   1      43.288  25.901  25.720  1.00  0.00     0.041 A 
ATOM     67  F   UNL A   1      43.359  27.957  26.838  1.00  0.00    -0.206 F 
ATOM     68  C   UNL A   1      42.910  24.561  25.675  1.00  0.00     0.022 A 
BRANCH  65  69
ATOM     69  S   UNL A   1      41.796  22.258  26.786  1.00  0.00     0.124 S 
ATOM     70  O   UNL A   1      42.185  21.828  25.445  1.00  0.00    -0.237 OA
ATOM     71  O   UNL A   1      42.660  21.816  27.873  1.00  0.00    -0.237 OA
ATOM     72  O   UNL A   1      40.362  22.192  27.061  1.00  0.00    -0.744 OA
ENDBRANCH  65  69
ENDBRANCH  48  62
BRANCH  49  73
ATOM     73  C   UNL A   1      39.152  32.102  35.357  1.00  0.00     0.023 A 
ATOM     74  C   UNL A   1      39.589  33.427  35.524  1.00  0.00     0.031 A 
ATOM     75  C   UNL A   1      38.346  31.545  36.368  1.00  0.00     0.131 A 
ATOM     76  C   UNL A   1      39.269  34.128  36.699  1.00  0.00     0.055 A 
ATOM     77  C   UNL A   1      37.981  32.268  37.505  1.00  0.00     0.041 A 
ATOM     78  F   UNL A   1      37.907  30.281  36.266  1.00  0.00    -0.206 F 
ATOM     79  C   UNL A   1      38.458  33.562  37.684  1.00  0.00     0.022 A 
BRANCH  76  80
ATOM     80  S   UNL A   1      40.026  35.755  36.977  1.00  0.00     0.124 S 
ATOM     81  O   UNL A   1      41.436  35.409  37.110  1.00  0.00    -0.237 OA
ATOM     82  O   UNL A   1      39.653  36.474  35.762  1.00  0.00    -0.237 OA
ATOM     83  O   UNL A   1      39.380  36.226  38.200  1.00  0.00    -0.744 OA
ENDBRANCH  76  80
ENDBRANCH  49  73
BRANCH  61  84
ATOM     84  C   UNL A   1      44.761  28.080  34.335  1.00  0.00     0.023 A 
ATOM     85  C   UNL A   1      44.837  27.002  35.238  1.00  0.00     0.031 A 
ATOM     86  C   UNL A   1      45.867  28.945  34.251  1.00  0.00     0.131 A 
ATOM     87  C   UNL A   1      45.960  26.861  36.069  1.00  0.00     0.055 A 
ATOM     88  C   UNL A   1      47.009  28.759  35.031  1.00  0.00     0.041 A 
ATOM     89  F   UNL A   1      45.854  29.990  33.408  1.00  0.00    -0.206 F 
ATOM     90  C   UNL A   1      47.054  27.723  35.959  1.00  0.00     0.022 A 
BRANCH  87  91
ATOM     91  S   UNL A   1      45.925  25.603  37.376  1.00  0.00     0.124 S 
ATOM     92  O   UNL A   1      46.091  26.411  38.580  1.00  0.00    -0.237 OA
ATOM     93  O   UNL A   1      44.610  24.998  37.191  1.00  0.00    -0.237 OA
ATOM     94  O   UNL A   1      47.056  24.738  37.050  1.00  0.00    -0.744 OA
ENDBRANCH  87  91
ENDBRANCH  61  84
ENDBRANCH  35  36
ENDBRANCH  28  30
ENDBRANCH  27  28
ENDBRANCH  26  27
ENDBRANCH  25  26
ENDBRANCH  24  25
ENDBRANCH   1  24
TORSDOF 21
ENDMDL
