MODEL 1
REMARK VINA RESULT:      -8.4      0.000      0.000
REMARK SMILES Cc1ccc(S(=O)(=O)n2cc(C(=O)C(=O)N[C@@H](Cc3cnc[nH]3)C(=O)OCCOCCOCCOC(=O)c3ccc(-c4c5nc(c(-c6cc(S(=O)(=O)[O-])ccc6F)c6ccc([nH]6)c(-c6cc(S(=O)(=O)[O-])ccc6F)c6nc(c(-c7cc(S(=O)(=O)[O-])ccc7F)c7ccc4[nH]7)C=C6)C=C5)cc3)c3ccccc32)cc1
REMARK SMILES IDX 30 1 29 2 28 3 27 4 26 5 24 6 25 7 17 8 16 9 14 10 15 11
REMARK SMILES IDX 12 13 13 14 11 15 9 16 10 17 106 18 101 19 105 20 102 21
REMARK SMILES IDX 104 22 103 23 6 24 7 25 8 26 5 27 1 28 2 29 3 30 108 31 4 32
REMARK SMILES IDX 107 33 18 34 19 35 20 36 23 37 21 38 22 39 31 41 32 42 33 43
REMARK SMILES IDX 34 44 35 45 36 46 37 47 38 48 39 49 100 50 40 51 99 52 41 53
REMARK SMILES IDX 42 54 43 55 93 56 44 57 98 58 92 59 94 60 45 61 97 62 91 63
REMARK SMILES IDX 90 64 46 66 78 67 58 68 77 69 59 70 62 71 76 72 95 73 60 74
REMARK SMILES IDX 61 75 75 77 96 78 63 79 47 80 48 81 56 82 49 83 55 84 57 85
REMARK SMILES IDX 54 86 50 87 51 88 52 89 53 90 79 91 80 92 88 93 81 94 87 95
REMARK SMILES IDX 89 96 86 97 82 98 83 99 84 100 85 101 64 102 65 103 73 104
REMARK SMILES IDX 66 105 72 106 74 107 71 108 67 109 68 110 69 111 70 112
REMARK H PARENT 16 12 23 40 94 65 62 76
REMARK Flexibility Score: inf
ROOT
ATOM      1  C   UNL A   1      43.151  25.974  37.517  1.00  0.00     0.188 C 
ENDROOT
BRANCH   1   2
ATOM      2  O   UNL A   1      42.590  25.801  36.223  1.00  0.00    -0.376 OA
BRANCH   2   3
ATOM      3  C   UNL A   1      43.410  26.409  35.247  1.00  0.00     0.202 C 
BRANCH   3   4
ATOM      4  C   UNL A   1      42.610  26.970  34.061  1.00  0.00     0.261 C 
BRANCH   4   5
ATOM      5  O   UNL A   1      43.400  27.772  32.884  1.00  0.00    -0.462 OA
BRANCH   5   6
ATOM      6  C   UNL A   1      44.530  27.977  32.045  1.00  0.00     0.329 C 
ATOM      7  O   UNL A   1      44.515  29.093  31.507  1.00  0.00    -0.250 OA
BRANCH   6   8
ATOM      8  C   UNL A   1      45.959  26.900  31.654  1.00  0.00     0.198 C 
BRANCH   8   9
ATOM      9  N   UNL A   1      45.392  25.450  31.740  1.00  0.00    -0.335 N 
ATOM     10  C   UNL A   1      44.664  24.581  30.881  1.00  0.00     0.293 C 
ATOM     11  O   UNL A   1      44.566  23.397  31.222  1.00  0.00    -0.265 OA
ATOM     12  H   UNL A   1      45.588  25.030  32.609  1.00  0.00     0.164 HD
BRANCH  10  13
ATOM     13  C   UNL A   1      43.931  24.977  29.569  1.00  0.00     0.252 C 
ATOM     14  O   UNL A   1      43.652  26.179  29.506  1.00  0.00    -0.283 OA
BRANCH  13  15
ATOM     15  C   UNL A   1      43.341  24.015  28.526  1.00  0.00     0.054 A 
ATOM     16  N   UNL A   1      42.209  22.443  27.305  1.00  0.00    -0.240 N 
ATOM     17  C   UNL A   1      42.286  23.085  28.551  1.00  0.00     0.117 A 
ATOM     18  C   UNL A   1      43.059  23.039  26.405  1.00  0.00     0.065 A 
ATOM     19  C   UNL A   1      43.842  23.930  27.153  1.00  0.00     0.012 A 
ATOM     20  C   UNL A   1      43.234  22.866  25.014  1.00  0.00     0.028 A 
ATOM     21  C   UNL A   1      44.888  24.597  26.475  1.00  0.00     0.011 A 
ATOM     22  C   UNL A   1      44.272  23.552  24.383  1.00  0.00     0.002 A 
ATOM     23  C   UNL A   1      45.101  24.393  25.108  1.00  0.00     0.001 A 
BRANCH  16  24
ATOM     24  S   UNL A   1      41.037  21.243  26.845  1.00  0.00     0.268 S 
ATOM     25  O   UNL A   1      40.706  20.569  28.121  1.00  0.00    -0.201 OA
ATOM     26  O   UNL A   1      41.581  20.532  25.749  1.00  0.00    -0.201 OA
BRANCH  24  27
ATOM     27  C   UNL A   1      39.494  22.011  26.302  1.00  0.00     0.088 A 
ATOM     28  C   UNL A   1      35.862  24.037  25.047  1.00  0.00     0.044 C 
ATOM     29  C   UNL A   1      37.128  23.341  25.475  1.00  0.00    -0.051 A 
ATOM     30  C   UNL A   1      38.079  24.011  26.253  1.00  0.00     0.005 A 
ATOM     31  C   UNL A   1      37.371  22.005  25.128  1.00  0.00     0.005 A 
ATOM     32  C   UNL A   1      39.257  23.355  26.657  1.00  0.00     0.022 A 
ATOM     33  C   UNL A   1      38.539  21.338  25.544  1.00  0.00     0.022 A 
ENDBRANCH  24  27
ENDBRANCH  16  24
ENDBRANCH  13  15
ENDBRANCH  10  13
ENDBRANCH   8   9
BRANCH   8  34
ATOM     34  C   UNL A   1      47.479  27.049  30.510  1.00  0.00     0.092 C 
BRANCH  34  35
ATOM     35  C   UNL A   1      47.729  27.056  28.641  1.00  0.00     0.037 A 
ATOM     36  C   UNL A   1      48.102  26.142  27.566  1.00  0.00     0.134 A 
ATOM     37  N   UNL A   1      47.339  28.118  27.811  1.00  0.00    -0.348 N 
ATOM     38  N   UNL A   1      47.919  26.588  26.294  1.00  0.00    -0.245 NA
ATOM     39  C   UNL A   1      47.504  27.805  26.474  1.00  0.00     0.196 A 
ATOM     40  H   UNL A   1      46.991  28.978  28.139  1.00  0.00     0.167 HD
ENDBRANCH  34  35
ENDBRANCH   8  34
ENDBRANCH   6   8
ENDBRANCH   5   6
ENDBRANCH   4   5
ENDBRANCH   3   4
ENDBRANCH   2   3
ENDBRANCH   1   2
BRANCH   1  41
ATOM     41  C   UNL A   1      43.839  27.322  37.709  1.00  0.00     0.188 C 
BRANCH  41  42
ATOM     42  O   UNL A   1      44.870  27.346  38.673  1.00  0.00    -0.376 OA
BRANCH  42  43
ATOM     43  C   UNL A   1      46.211  27.122  38.247  1.00  0.00     0.202 C 
BRANCH  43  44
ATOM     44  C   UNL A   1      46.409  28.094  37.103  1.00  0.00     0.261 C 
BRANCH  44  45
ATOM     45  O   UNL A   1      47.744  27.909  36.557  1.00  0.00    -0.460 OA
BRANCH  45  46
ATOM     46  C   UNL A   1      48.576  28.988  36.675  1.00  0.00     0.338 C 
ATOM     47  O   UNL A   1      49.520  29.059  37.447  1.00  0.00    -0.246 OA
BRANCH  46  48
ATOM     48  C   UNL A   1      48.041  30.139  35.865  1.00  0.00     0.060 A 
ATOM     49  C   UNL A   1      47.819  31.352  36.499  1.00  0.00     0.016 A 
ATOM     50  C   UNL A   1      47.518  29.972  34.572  1.00  0.00     0.016 A 
ATOM     51  C   UNL A   1      46.931  32.273  35.924  1.00  0.00     0.010 A 
ATOM     52  C   UNL A   1      46.547  30.860  34.062  1.00  0.00     0.010 A 
ATOM     53  C   UNL A   1      46.109  31.935  34.832  1.00  0.00    -0.014 A 
BRANCH  53  54
ATOM     54  C   UNL A   1      44.728  32.598  34.560  1.00  0.00     0.031 A 
ATOM     55  C   UNL A   1      43.551  31.687  35.587  1.00  0.00     0.074 A 
ATOM     56  C   UNL A   1      44.500  33.721  33.509  1.00  0.00     0.049 A 
ATOM     57  N   UNL A   1      42.222  31.607  35.512  1.00  0.00    -0.248 NA
ATOM     58  C   UNL A   1      43.943  31.043  36.858  1.00  0.00     0.031 C 
ATOM     59  C   UNL A   1      44.293  35.248  33.578  1.00  0.00     0.029 A 
ATOM     60  N   UNL A   1      44.204  33.692  32.041  1.00  0.00    -0.354 N 
ATOM     61  C   UNL A   1      41.717  31.727  36.808  1.00  0.00     0.074 A 
ATOM     62  C   UNL A   1      42.765  31.012  37.521  1.00  0.00     0.031 C 
ATOM     63  C   UNL A   1      43.599  35.739  32.501  1.00  0.00     0.029 A 
ATOM     64  C   UNL A   1      43.502  34.740  31.474  1.00  0.00     0.049 A 
ATOM     65  H   UNL A   1      44.506  32.937  31.486  1.00  0.00     0.167 HD
ATOM     66  C   UNL A   1      40.763  32.676  37.224  1.00  0.00     0.034 A 
ATOM     67  C   UNL A   1      42.843  34.702  30.280  1.00  0.00     0.034 A 
ATOM     68  C   UNL A   1      39.951  33.498  36.192  1.00  0.00     0.049 A 
ATOM     69  C   UNL A   1      41.326  34.591  30.550  1.00  0.00     0.074 A 
ATOM     70  C   UNL A   1      39.524  34.842  36.206  1.00  0.00     0.029 A 
ATOM     71  N   UNL A   1      39.565  33.080  34.902  1.00  0.00    -0.354 N 
ATOM     72  N   UNL A   1      40.756  34.719  31.732  1.00  0.00    -0.248 NA
ATOM     73  C   UNL A   1      40.360  34.219  29.509  1.00  0.00     0.031 C 
ATOM     74  C   UNL A   1      39.035  35.249  34.939  1.00  0.00     0.029 A 
ATOM     75  C   UNL A   1      39.137  34.166  34.096  1.00  0.00     0.049 A 
ATOM     76  H   UNL A   1      39.591  32.145  34.595  1.00  0.00     0.167 HD
ATOM     77  C   UNL A   1      39.448  34.257  31.655  1.00  0.00     0.074 A 
ATOM     78  C   UNL A   1      39.241  34.027  30.228  1.00  0.00     0.031 C 
ATOM     79  C   UNL A   1      38.620  34.036  32.734  1.00  0.00     0.034 A 
BRANCH  66  80
ATOM     80  C   UNL A   1      40.756  33.268  38.718  1.00  0.00     0.023 A 
ATOM     81  C   UNL A   1      39.624  33.058  39.560  1.00  0.00     0.031 A 
ATOM     82  C   UNL A   1      41.674  34.189  39.273  1.00  0.00     0.131 A 
ATOM     83  C   UNL A   1      39.352  33.856  40.699  1.00  0.00     0.055 A 
ATOM     84  C   UNL A   1      41.488  34.847  40.506  1.00  0.00     0.041 A 
ATOM     85  F   UNL A   1      42.799  34.566  38.661  1.00  0.00    -0.206 F 
ATOM     86  C   UNL A   1      40.304  34.721  41.205  1.00  0.00     0.022 A 
BRANCH  83  87
ATOM     87  S   UNL A   1      37.689  33.880  41.452  1.00  0.00     0.124 S 
ATOM     88  O   UNL A   1      37.805  32.843  42.475  1.00  0.00    -0.237 OA
ATOM     89  O   UNL A   1      37.562  35.247  41.940  1.00  0.00    -0.237 OA
ATOM     90  O   UNL A   1      36.813  33.543  40.330  1.00  0.00    -0.744 OA
ENDBRANCH  83  87
ENDBRANCH  66  80
BRANCH  67  91
ATOM     91  C   UNL A   1      43.577  33.947  29.168  1.00  0.00     0.023 A 
ATOM     92  C   UNL A   1      43.476  32.526  29.118  1.00  0.00     0.031 A 
ATOM     93  C   UNL A   1      44.141  34.560  28.035  1.00  0.00     0.131 A 
ATOM     94  C   UNL A   1      43.840  31.797  27.958  1.00  0.00     0.055 A 
ATOM     95  C   UNL A   1      44.456  33.837  26.865  1.00  0.00     0.041 A 
ATOM     96  F   UNL A   1      44.328  35.886  28.009  1.00  0.00    -0.206 F 
ATOM     97  C   UNL A   1      44.272  32.458  26.810  1.00  0.00     0.022 A 
BRANCH  94  98
ATOM     98  S   UNL A   1      43.595  29.985  27.836  1.00  0.00     0.124 S 
ATOM     99  O   UNL A   1      43.277  29.801  26.425  1.00  0.00    -0.237 OA
ATOM    100  O   UNL A   1      44.882  29.453  28.270  1.00  0.00    -0.237 OA
ATOM    101  O   UNL A   1      42.485  29.750  28.759  1.00  0.00    -0.744 OA
ENDBRANCH  94  98
ENDBRANCH  67  91
BRANCH  79 102
ATOM    102  C   UNL A   1      37.111  33.859  32.643  1.00  0.00     0.023 A 
ATOM    103  C   UNL A   1      36.206  34.926  32.651  1.00  0.00     0.031 A 
ATOM    104  C   UNL A   1      36.526  32.566  32.717  1.00  0.00     0.131 A 
ATOM    105  C   UNL A   1      34.822  34.698  32.575  1.00  0.00     0.055 A 
ATOM    106  C   UNL A   1      35.152  32.346  32.767  1.00  0.00     0.041 A 
ATOM    107  F   UNL A   1      37.266  31.449  32.745  1.00  0.00    -0.206 F 
ATOM    108  C   UNL A   1      34.284  33.416  32.655  1.00  0.00     0.022 A 
BRANCH 105 109
ATOM    109  S   UNL A   1      33.752  36.114  32.231  1.00  0.00     0.124 S 
ATOM    110  O   UNL A   1      32.542  35.781  32.976  1.00  0.00    -0.237 OA
ATOM    111  O   UNL A   1      34.545  37.216  32.771  1.00  0.00    -0.237 OA
ATOM    112  O   UNL A   1      33.619  36.100  30.777  1.00  0.00    -0.744 OA
ENDBRANCH 105 109
ENDBRANCH  79 102
ENDBRANCH  53  54
ENDBRANCH  46  48
ENDBRANCH  45  46
ENDBRANCH  44  45
ENDBRANCH  43  44
ENDBRANCH  42  43
ENDBRANCH  41  42
ENDBRANCH   1  41
TORSDOF 27
ENDMDL
MODEL 2
REMARK VINA RESULT:      -8.0      5.117      7.781
REMARK SMILES Cc1ccc(S(=O)(=O)n2cc(C(=O)C(=O)N[C@@H](Cc3cnc[nH]3)C(=O)OCCOCCOCCOC(=O)c3ccc(-c4c5nc(c(-c6cc(S(=O)(=O)[O-])ccc6F)c6ccc([nH]6)c(-c6cc(S(=O)(=O)[O-])ccc6F)c6nc(c(-c7cc(S(=O)(=O)[O-])ccc7F)c7ccc4[nH]7)C=C6)C=C5)cc3)c3ccccc32)cc1
REMARK SMILES IDX 30 1 29 2 28 3 27 4 26 5 24 6 25 7 17 8 16 9 14 10 15 11
REMARK SMILES IDX 12 13 13 14 11 15 9 16 10 17 106 18 101 19 105 20 102 21
REMARK SMILES IDX 104 22 103 23 6 24 7 25 8 26 5 27 1 28 2 29 3 30 108 31 4 32
REMARK SMILES IDX 107 33 18 34 19 35 20 36 23 37 21 38 22 39 31 41 32 42 33 43
REMARK SMILES IDX 34 44 35 45 36 46 37 47 38 48 39 49 100 50 40 51 99 52 41 53
REMARK SMILES IDX 42 54 43 55 93 56 44 57 98 58 92 59 94 60 45 61 97 62 91 63
REMARK SMILES IDX 90 64 46 66 78 67 58 68 77 69 59 70 62 71 76 72 95 73 60 74
REMARK SMILES IDX 61 75 75 77 96 78 63 79 47 80 48 81 56 82 49 83 55 84 57 85
REMARK SMILES IDX 54 86 50 87 51 88 52 89 53 90 79 91 80 92 88 93 81 94 87 95
REMARK SMILES IDX 89 96 86 97 82 98 83 99 84 100 85 101 64 102 65 103 73 104
REMARK SMILES IDX 66 105 72 106 74 107 71 108 67 109 68 110 69 111 70 112
REMARK H PARENT 16 12 23 40 94 65 62 76
REMARK Flexibility Score: inf
ROOT
ATOM      1  C   UNL A   1      43.271  25.820  37.582  1.00  0.00     0.188 C 
ENDROOT
BRANCH   1   2
ATOM      2  O   UNL A   1      43.508  24.883  36.541  1.00  0.00    -0.376 OA
BRANCH   2   3
ATOM      3  C   UNL A   1      44.888  24.807  36.252  1.00  0.00     0.202 C 
BRANCH   3   4
ATOM      4  C   UNL A   1      45.181  24.085  34.927  1.00  0.00     0.261 C 
BRANCH   4   5
ATOM      5  O   UNL A   1      46.700  24.097  34.340  1.00  0.00    -0.462 OA
BRANCH   5   6
ATOM      6  C   UNL A   1      48.112  24.098  34.511  1.00  0.00     0.329 C 
ATOM      7  O   UNL A   1      48.696  24.635  33.559  1.00  0.00    -0.250 OA
BRANCH   6   8
ATOM      8  C   UNL A   1      49.169  23.466  35.867  1.00  0.00     0.198 C 
BRANCH   8   9
ATOM      9  N   UNL A   1      48.440  23.911  37.171  1.00  0.00    -0.335 N 
ATOM     10  C   UNL A   1      47.664  23.276  38.181  1.00  0.00     0.293 C 
ATOM     11  O   UNL A   1      47.417  23.928  39.201  1.00  0.00    -0.265 OA
ATOM     12  H   UNL A   1      48.542  24.876  37.339  1.00  0.00     0.164 HD
BRANCH  10  13
ATOM     13  C   UNL A   1      47.049  21.849  38.115  1.00  0.00     0.252 C 
ATOM     14  O   UNL A   1      46.478  21.610  37.046  1.00  0.00    -0.283 OA
BRANCH  13  15
ATOM     15  C   UNL A   1      46.887  20.870  39.288  1.00  0.00     0.054 A 
ATOM     16  N   UNL A   1      46.256  19.608  41.092  1.00  0.00    -0.240 N 
ATOM     17  C   UNL A   1      45.836  20.589  40.179  1.00  0.00     0.117 A 
ATOM     18  C   UNL A   1      47.482  19.106  40.726  1.00  0.00     0.065 A 
ATOM     19  C   UNL A   1      47.939  19.936  39.692  1.00  0.00     0.012 A 
ATOM     20  C   UNL A   1      48.244  18.023  41.217  1.00  0.00     0.028 A 
ATOM     21  C   UNL A   1      49.247  19.703  39.208  1.00  0.00     0.011 A 
ATOM     22  C   UNL A   1      49.525  17.823  40.703  1.00  0.00     0.002 A 
ATOM     23  C   UNL A   1      50.028  18.664  39.723  1.00  0.00     0.001 A 
BRANCH  16  24
ATOM     24  S   UNL A   1      45.289  18.908  42.357  1.00  0.00     0.268 S 
ATOM     25  O   UNL A   1      44.292  19.961  42.659  1.00  0.00    -0.201 OA
ATOM     26  O   UNL A   1      46.183  18.428  43.343  1.00  0.00    -0.201 OA
BRANCH  24  27
ATOM     27  C   UNL A   1      44.326  17.507  41.745  1.00  0.00     0.088 A 
ATOM     28  C   UNL A   1      41.921  14.127  40.454  1.00  0.00     0.044 C 
ATOM     29  C   UNL A   1      42.745  15.305  40.905  1.00  0.00    -0.051 A 
ATOM     30  C   UNL A   1      42.848  15.623  42.263  1.00  0.00     0.005 A 
ATOM     31  C   UNL A   1      43.447  16.092  39.981  1.00  0.00     0.005 A 
ATOM     32  C   UNL A   1      43.624  16.720  42.682  1.00  0.00     0.022 A 
ATOM     33  C   UNL A   1      44.240  17.180  40.393  1.00  0.00     0.022 A 
ENDBRANCH  24  27
ENDBRANCH  16  24
ENDBRANCH  13  15
ENDBRANCH  10  13
ENDBRANCH   8   9
BRANCH   8  34
ATOM     34  C   UNL A   1      50.268  21.926  36.106  1.00  0.00     0.092 C 
BRANCH  34  35
ATOM     35  C   UNL A   1      51.934  21.373  35.415  1.00  0.00     0.037 A 
ATOM     36  C   UNL A   1      52.628  21.268  34.135  1.00  0.00     0.134 A 
ATOM     37  N   UNL A   1      53.050  21.089  36.218  1.00  0.00    -0.348 N 
ATOM     38  N   UNL A   1      53.960  21.003  34.182  1.00  0.00    -0.245 NA
ATOM     39  C   UNL A   1      54.177  20.849  35.453  1.00  0.00     0.196 A 
ATOM     40  H   UNL A   1      53.033  21.064  37.201  1.00  0.00     0.167 HD
ENDBRANCH  34  35
ENDBRANCH   8  34
ENDBRANCH   6   8
ENDBRANCH   5   6
ENDBRANCH   4   5
ENDBRANCH   3   4
ENDBRANCH   2   3
ENDBRANCH   1   2
BRANCH   1  41
ATOM     41  C   UNL A   1      43.753  27.231  37.256  1.00  0.00     0.188 C 
BRANCH  41  42
ATOM     42  O   UNL A   1      44.556  27.843  38.243  1.00  0.00    -0.376 OA
BRANCH  42  43
ATOM     43  C   UNL A   1      45.973  27.755  38.124  1.00  0.00     0.202 C 
BRANCH  43  44
ATOM     44  C   UNL A   1      46.269  28.298  36.742  1.00  0.00     0.261 C 
BRANCH  44  45
ATOM     45  O   UNL A   1      47.636  27.953  36.386  1.00  0.00    -0.460 OA
BRANCH  45  46
ATOM     46  C   UNL A   1      48.502  29.008  36.311  1.00  0.00     0.338 C 
ATOM     47  O   UNL A   1      49.516  29.126  36.981  1.00  0.00    -0.246 OA
BRANCH  46  48
ATOM     48  C   UNL A   1      47.921  30.087  35.435  1.00  0.00     0.060 A 
ATOM     49  C   UNL A   1      47.833  31.376  35.939  1.00  0.00     0.016 A 
ATOM     50  C   UNL A   1      47.234  29.802  34.244  1.00  0.00     0.016 A 
ATOM     51  C   UNL A   1      46.922  32.275  35.365  1.00  0.00     0.010 A 
ATOM     52  C   UNL A   1      46.247  30.680  33.748  1.00  0.00     0.010 A 
ATOM     53  C   UNL A   1      45.956  31.861  34.427  1.00  0.00    -0.014 A 
BRANCH  53  54
ATOM     54  C   UNL A   1      44.583  32.568  34.242  1.00  0.00     0.031 A 
ATOM     55  C   UNL A   1      43.453  31.718  35.371  1.00  0.00     0.074 A 
ATOM     56  C   UNL A   1      44.317  33.679  33.187  1.00  0.00     0.049 A 
ATOM     57  N   UNL A   1      42.120  31.685  35.393  1.00  0.00    -0.248 NA
ATOM     58  C   UNL A   1      43.914  31.085  36.623  1.00  0.00     0.031 C 
ATOM     59  C   UNL A   1      44.168  35.213  33.239  1.00  0.00     0.029 A 
ATOM     60  N   UNL A   1      43.913  33.634  31.745  1.00  0.00    -0.354 N 
ATOM     61  C   UNL A   1      41.715  31.846  36.719  1.00  0.00     0.074 A 
ATOM     62  C   UNL A   1      42.787  31.108  37.370  1.00  0.00     0.031 C 
ATOM     63  C   UNL A   1      43.414  35.709  32.204  1.00  0.00     0.029 A 
ATOM     64  C   UNL A   1      43.208  34.695  31.209  1.00  0.00     0.049 A 
ATOM     65  H   UNL A   1      44.148  32.858  31.186  1.00  0.00     0.167 HD
ATOM     66  C   UNL A   1      40.827  32.836  37.183  1.00  0.00     0.034 A 
ATOM     67  C   UNL A   1      42.463  34.659  30.066  1.00  0.00     0.034 A 
ATOM     68  C   UNL A   1      39.970  33.668  36.196  1.00  0.00     0.049 A 
ATOM     69  C   UNL A   1      40.967  34.607  30.448  1.00  0.00     0.074 A 
ATOM     70  C   UNL A   1      39.592  35.026  36.213  1.00  0.00     0.029 A 
ATOM     71  N   UNL A   1      39.478  33.240  34.946  1.00  0.00    -0.354 N 
ATOM     72  N   UNL A   1      40.490  34.777  31.665  1.00  0.00    -0.248 NA
ATOM     73  C   UNL A   1      39.916  34.250  29.488  1.00  0.00     0.031 C 
ATOM     74  C   UNL A   1      39.026  35.426  34.976  1.00  0.00     0.029 A 
ATOM     75  C   UNL A   1      39.029  34.326  34.150  1.00  0.00     0.049 A 
ATOM     76  H   UNL A   1      39.449  32.299  34.658  1.00  0.00     0.167 HD
ATOM     77  C   UNL A   1      39.165  34.360  31.692  1.00  0.00     0.074 A 
ATOM     78  C   UNL A   1      38.846  34.112  30.289  1.00  0.00     0.031 C 
ATOM     79  C   UNL A   1      38.410  34.189  32.833  1.00  0.00     0.034 A 
BRANCH  66  80
ATOM     80  C   UNL A   1      40.949  33.455  38.661  1.00  0.00     0.023 A 
ATOM     81  C   UNL A   1      39.874  33.304  39.586  1.00  0.00     0.031 A 
ATOM     82  C   UNL A   1      41.938  34.352  39.130  1.00  0.00     0.131 A 
ATOM     83  C   UNL A   1      39.714  34.133  40.724  1.00  0.00     0.055 A 
ATOM     84  C   UNL A   1      41.865  35.039  40.359  1.00  0.00     0.041 A 
ATOM     85  F   UNL A   1      43.029  34.674  38.431  1.00  0.00    -0.206 F 
ATOM     86  C   UNL A   1      40.731  34.970  41.144  1.00  0.00     0.022 A 
BRANCH  83  87
ATOM     87  S   UNL A   1      38.112  34.233  41.594  1.00  0.00     0.124 S 
ATOM     88  O   UNL A   1      38.440  33.666  42.900  1.00  0.00    -0.237 OA
ATOM     89  O   UNL A   1      37.809  35.659  41.574  1.00  0.00    -0.237 OA
ATOM     90  O   UNL A   1      37.234  33.406  40.766  1.00  0.00    -0.744 OA
ENDBRANCH  83  87
ENDBRANCH  66  80
BRANCH  67  91
ATOM     91  C   UNL A   1      43.088  33.858  28.920  1.00  0.00     0.023 A 
ATOM     92  C   UNL A   1      43.868  34.545  27.945  1.00  0.00     0.031 A 
ATOM     93  C   UNL A   1      43.169  32.455  28.889  1.00  0.00     0.131 A 
ATOM     94  C   UNL A   1      44.736  33.850  27.065  1.00  0.00     0.055 A 
ATOM     95  C   UNL A   1      44.069  31.770  28.046  1.00  0.00     0.041 A 
ATOM     96  F   UNL A   1      42.431  31.719  29.730  1.00  0.00    -0.206 F 
ATOM     97  C   UNL A   1      44.882  32.468  27.156  1.00  0.00     0.022 A 
BRANCH  94  98
ATOM     98  S   UNL A   1      45.837  34.731  25.895  1.00  0.00     0.124 S 
ATOM     99  O   UNL A   1      45.292  34.351  24.597  1.00  0.00    -0.237 OA
ATOM    100  O   UNL A   1      45.661  36.129  26.271  1.00  0.00    -0.237 OA
ATOM    101  O   UNL A   1      47.150  34.167  26.206  1.00  0.00    -0.744 OA
ENDBRANCH  94  98
ENDBRANCH  67  91
BRANCH  79 102
ATOM    102  C   UNL A   1      36.893  34.065  32.855  1.00  0.00     0.023 A 
ATOM    103  C   UNL A   1      36.030  35.159  32.968  1.00  0.00     0.031 A 
ATOM    104  C   UNL A   1      36.271  32.789  32.932  1.00  0.00     0.131 A 
ATOM    105  C   UNL A   1      34.637  34.979  32.994  1.00  0.00     0.055 A 
ATOM    106  C   UNL A   1      34.897  32.612  33.082  1.00  0.00     0.041 A 
ATOM    107  F   UNL A   1      36.972  31.648  32.866  1.00  0.00    -0.206 F 
ATOM    108  C   UNL A   1      34.062  33.713  33.074  1.00  0.00     0.022 A 
BRANCH 105 109
ATOM    109  S   UNL A   1      33.593  36.440  32.781  1.00  0.00     0.124 S 
ATOM    110  O   UNL A   1      32.255  35.863  32.721  1.00  0.00    -0.237 OA
ATOM    111  O   UNL A   1      33.903  37.198  33.992  1.00  0.00    -0.237 OA
ATOM    112  O   UNL A   1      34.080  37.032  31.538  1.00  0.00    -0.744 OA
ENDBRANCH 105 109
ENDBRANCH  79 102
ENDBRANCH  53  54
ENDBRANCH  46  48
ENDBRANCH  45  46
ENDBRANCH  44  45
ENDBRANCH  43  44
ENDBRANCH  42  43
ENDBRANCH  41  42
ENDBRANCH   1  41
TORSDOF 27
ENDMDL
MODEL 3
REMARK VINA RESULT:      -7.9      4.652     12.793
REMARK SMILES Cc1ccc(S(=O)(=O)n2cc(C(=O)C(=O)N[C@@H](Cc3cnc[nH]3)C(=O)OCCOCCOCCOC(=O)c3ccc(-c4c5nc(c(-c6cc(S(=O)(=O)[O-])ccc6F)c6ccc([nH]6)c(-c6cc(S(=O)(=O)[O-])ccc6F)c6nc(c(-c7cc(S(=O)(=O)[O-])ccc7F)c7ccc4[nH]7)C=C6)C=C5)cc3)c3ccccc32)cc1
REMARK SMILES IDX 30 1 29 2 28 3 27 4 26 5 24 6 25 7 17 8 16 9 14 10 15 11
REMARK SMILES IDX 12 13 13 14 11 15 9 16 10 17 106 18 101 19 105 20 102 21
REMARK SMILES IDX 104 22 103 23 6 24 7 25 8 26 5 27 1 28 2 29 3 30 108 31 4 32
REMARK SMILES IDX 107 33 18 34 19 35 20 36 23 37 21 38 22 39 31 41 32 42 33 43
REMARK SMILES IDX 34 44 35 45 36 46 37 47 38 48 39 49 100 50 40 51 99 52 41 53
REMARK SMILES IDX 42 54 43 55 93 56 44 57 98 58 92 59 94 60 45 61 97 62 91 63
REMARK SMILES IDX 90 64 46 66 78 67 58 68 77 69 59 70 62 71 76 72 95 73 60 74
REMARK SMILES IDX 61 75 75 77 96 78 63 79 47 80 48 81 56 82 49 83 55 84 57 85
REMARK SMILES IDX 54 86 50 87 51 88 52 89 53 90 79 91 80 92 88 93 81 94 87 95
REMARK SMILES IDX 89 96 86 97 82 98 83 99 84 100 85 101 64 102 65 103 73 104
REMARK SMILES IDX 66 105 72 106 74 107 71 108 67 109 68 110 69 111 70 112
REMARK H PARENT 16 12 23 40 94 65 62 76
REMARK Flexibility Score: inf
ROOT
ATOM      1  C   UNL A   1      41.680  34.422  32.806  1.00  0.00     0.188 C 
ENDROOT
BRANCH   1   2
ATOM      2  O   UNL A   1      41.750  35.637  33.540  1.00  0.00    -0.376 OA
BRANCH   2   3
ATOM      3  C   UNL A   1      41.711  35.376  34.928  1.00  0.00     0.202 C 
BRANCH   3   4
ATOM      4  C   UNL A   1      41.226  36.581  35.748  1.00  0.00     0.261 C 
BRANCH   4   5
ATOM      5  O   UNL A   1      40.940  36.391  37.339  1.00  0.00    -0.462 OA
BRANCH   5   6
ATOM      6  C   UNL A   1      40.173  35.884  38.425  1.00  0.00     0.329 C 
ATOM      7  O   UNL A   1      40.154  36.665  39.387  1.00  0.00    -0.250 OA
BRANCH   6   8
ATOM      8  C   UNL A   1      39.235  34.323  38.621  1.00  0.00     0.198 C 
BRANCH   8   9
ATOM      9  N   UNL A   1      39.931  33.323  37.648  1.00  0.00    -0.335 N 
ATOM     10  C   UNL A   1      39.615  32.721  36.399  1.00  0.00     0.293 C 
ATOM     11  O   UNL A   1      40.523  32.123  35.811  1.00  0.00    -0.265 OA
ATOM     12  H   UNL A   1      40.812  33.037  37.983  1.00  0.00     0.164 HD
BRANCH  10  13
ATOM     13  C   UNL A   1      38.222  32.695  35.709  1.00  0.00     0.252 C 
ATOM     14  O   UNL A   1      37.329  32.232  36.426  1.00  0.00    -0.283 OA
BRANCH  13  15
ATOM     15  C   UNL A   1      37.934  32.948  34.221  1.00  0.00     0.054 A 
ATOM     16  N   UNL A   1      37.901  33.140  31.939  1.00  0.00    -0.240 N 
ATOM     17  C   UNL A   1      38.612  32.619  33.033  1.00  0.00     0.117 A 
ATOM     18  C   UNL A   1      36.692  33.647  32.350  1.00  0.00     0.065 A 
ATOM     19  C   UNL A   1      36.734  33.642  33.752  1.00  0.00     0.012 A 
ATOM     20  C   UNL A   1      35.577  34.132  31.630  1.00  0.00     0.028 A 
ATOM     21  C   UNL A   1      35.642  34.228  34.433  1.00  0.00     0.011 A 
ATOM     22  C   UNL A   1      34.517  34.691  32.343  1.00  0.00     0.002 A 
ATOM     23  C   UNL A   1      34.557  34.755  33.727  1.00  0.00     0.001 A 
BRANCH  16  24
ATOM     24  S   UNL A   1      38.327  32.956  30.263  1.00  0.00     0.268 S 
ATOM     25  O   UNL A   1      39.640  32.272  30.308  1.00  0.00    -0.201 OA
ATOM     26  O   UNL A   1      38.172  34.224  29.655  1.00  0.00    -0.201 OA
BRANCH  24  27
ATOM     27  C   UNL A   1      37.219  31.796  29.431  1.00  0.00     0.088 A 
ATOM     28  C   UNL A   1      34.503  29.158  27.301  1.00  0.00     0.044 C 
ATOM     29  C   UNL A   1      35.450  30.075  28.030  1.00  0.00    -0.051 A 
ATOM     30  C   UNL A   1      35.398  31.458  27.826  1.00  0.00     0.005 A 
ATOM     31  C   UNL A   1      36.386  29.570  28.944  1.00  0.00     0.005 A 
ATOM     32  C   UNL A   1      36.280  32.313  28.514  1.00  0.00     0.022 A 
ATOM     33  C   UNL A   1      37.258  30.421  29.649  1.00  0.00     0.022 A 
ENDBRANCH  24  27
ENDBRANCH  16  24
ENDBRANCH  13  15
ENDBRANCH  10  13
ENDBRANCH   8   9
BRANCH   8  34
ATOM     34  C   UNL A   1      38.344  33.465  40.074  1.00  0.00     0.092 C 
BRANCH  34  35
ATOM     35  C   UNL A   1      36.542  33.298  40.603  1.00  0.00     0.037 A 
ATOM     36  C   UNL A   1      35.350  32.527  40.264  1.00  0.00     0.134 A 
ATOM     37  N   UNL A   1      36.017  33.888  41.764  1.00  0.00    -0.348 N 
ATOM     38  N   UNL A   1      34.298  32.619  41.121  1.00  0.00    -0.245 NA
ATOM     39  C   UNL A   1      34.713  33.489  41.991  1.00  0.00     0.196 A 
ATOM     40  H   UNL A   1      36.515  34.507  42.344  1.00  0.00     0.167 HD
ENDBRANCH  34  35
ENDBRANCH   8  34
ENDBRANCH   6   8
ENDBRANCH   5   6
ENDBRANCH   4   5
ENDBRANCH   3   4
ENDBRANCH   2   3
ENDBRANCH   1   2
BRANCH   1  41
ATOM     41  C   UNL A   1      41.996  34.586  31.322  1.00  0.00     0.188 C 
BRANCH  41  42
ATOM     42  O   UNL A   1      43.119  35.388  31.025  1.00  0.00    -0.376 OA
BRANCH  42  43
ATOM     43  C   UNL A   1      43.136  36.117  29.802  1.00  0.00     0.202 C 
BRANCH  43  44
ATOM     44  C   UNL A   1      42.822  35.081  28.742  1.00  0.00     0.261 C 
BRANCH  44  45
ATOM     45  O   UNL A   1      42.946  35.699  27.432  1.00  0.00    -0.460 OA
BRANCH  45  46
ATOM     46  C   UNL A   1      44.228  35.893  26.999  1.00  0.00     0.338 C 
ATOM     47  O   UNL A   1      44.755  36.985  26.848  1.00  0.00    -0.246 OA
BRANCH  46  48
ATOM     48  C   UNL A   1      44.822  34.584  26.551  1.00  0.00     0.060 A 
ATOM     49  C   UNL A   1      43.998  33.472  26.474  1.00  0.00     0.016 A 
ATOM     50  C   UNL A   1      46.209  34.377  26.458  1.00  0.00     0.016 A 
ATOM     51  C   UNL A   1      44.569  32.192  26.507  1.00  0.00     0.010 A 
ATOM     52  C   UNL A   1      46.761  33.087  26.599  1.00  0.00     0.010 A 
ATOM     53  C   UNL A   1      45.930  31.989  26.811  1.00  0.00    -0.014 A 
BRANCH  53  54
ATOM     54  C   UNL A   1      46.476  30.694  27.477  1.00  0.00     0.031 A 
ATOM     55  C   UNL A   1      47.047  31.204  29.116  1.00  0.00     0.074 A 
ATOM     56  C   UNL A   1      46.578  29.324  26.749  1.00  0.00     0.049 A 
ATOM     57  N   UNL A   1      47.879  30.600  29.966  1.00  0.00    -0.248 NA
ATOM     58  C   UNL A   1      46.446  32.339  29.845  1.00  0.00     0.031 C 
ATOM     59  C   UNL A   1      45.767  28.012  26.783  1.00  0.00     0.029 A 
ATOM     60  N   UNL A   1      47.633  28.713  25.879  1.00  0.00    -0.354 N 
ATOM     61  C   UNL A   1      47.319  30.692  31.241  1.00  0.00     0.074 A 
ATOM     62  C   UNL A   1      46.725  32.015  31.128  1.00  0.00     0.031 C 
ATOM     63  C   UNL A   1      46.510  26.918  26.414  1.00  0.00     0.029 A 
ATOM     64  C   UNL A   1      47.754  27.336  25.831  1.00  0.00     0.049 A 
ATOM     65  H   UNL A   1      48.233  29.285  25.347  1.00  0.00     0.167 HD
ATOM     66  C   UNL A   1      47.052  29.602  32.093  1.00  0.00     0.034 A 
ATOM     67  C   UNL A   1      48.854  26.649  25.407  1.00  0.00     0.034 A 
ATOM     68  C   UNL A   1      47.643  28.199  31.803  1.00  0.00     0.049 A 
ATOM     69  C   UNL A   1      49.602  26.094  26.641  1.00  0.00     0.074 A 
ATOM     70  C   UNL A   1      47.093  26.910  31.964  1.00  0.00     0.029 A 
ATOM     71  N   UNL A   1      48.867  27.919  31.163  1.00  0.00    -0.354 N 
ATOM     72  N   UNL A   1      49.141  26.110  27.876  1.00  0.00    -0.248 NA
ATOM     73  C   UNL A   1      50.975  25.581  26.570  1.00  0.00     0.031 C 
ATOM     74  C   UNL A   1      47.884  25.921  31.327  1.00  0.00     0.029 A 
ATOM     75  C   UNL A   1      48.957  26.564  30.752  1.00  0.00     0.049 A 
ATOM     76  H   UNL A   1      49.577  28.585  31.017  1.00  0.00     0.167 HD
ATOM     77  C   UNL A   1      50.183  25.826  28.750  1.00  0.00     0.074 A 
ATOM     78  C   UNL A   1      51.282  25.434  27.870  1.00  0.00     0.031 C 
ATOM     79  C   UNL A   1      50.130  25.964  30.120  1.00  0.00     0.034 A 
BRANCH  66  80
ATOM     80  C   UNL A   1      45.824  29.619  33.129  1.00  0.00     0.023 A 
ATOM     81  C   UNL A   1      44.549  29.124  32.726  1.00  0.00     0.031 A 
ATOM     82  C   UNL A   1      45.774  30.279  34.379  1.00  0.00     0.131 A 
ATOM     83  C   UNL A   1      43.345  29.463  33.393  1.00  0.00     0.055 A 
ATOM     84  C   UNL A   1      44.597  30.452  35.135  1.00  0.00     0.041 A 
ATOM     85  F   UNL A   1      46.836  30.847  34.954  1.00  0.00    -0.206 F 
ATOM     86  C   UNL A   1      43.366  30.086  34.627  1.00  0.00     0.022 A 
BRANCH  83  87
ATOM     87  S   UNL A   1      41.725  29.219  32.588  1.00  0.00     0.124 S 
ATOM     88  O   UNL A   1      40.948  30.333  33.126  1.00  0.00    -0.237 OA
ATOM     89  O   UNL A   1      42.043  29.290  31.167  1.00  0.00    -0.237 OA
ATOM     90  O   UNL A   1      41.316  27.896  33.062  1.00  0.00    -0.744 OA
ENDBRANCH  83  87
ENDBRANCH  66  80
BRANCH  67  91
ATOM     91  C   UNL A   1      49.545  27.243  24.177  1.00  0.00     0.023 A 
ATOM     92  C   UNL A   1      50.522  28.264  24.362  1.00  0.00     0.031 A 
ATOM     93  C   UNL A   1      49.479  26.687  22.887  1.00  0.00     0.131 A 
ATOM     94  C   UNL A   1      51.426  28.622  23.329  1.00  0.00     0.055 A 
ATOM     95  C   UNL A   1      50.409  27.010  21.878  1.00  0.00     0.041 A 
ATOM     96  F   UNL A   1      48.556  25.760  22.600  1.00  0.00    -0.206 F 
ATOM     97  C   UNL A   1      51.409  27.953  22.107  1.00  0.00     0.022 A 
BRANCH  94  98
ATOM     98  S   UNL A   1      52.768  29.840  23.595  1.00  0.00     0.124 S 
ATOM     99  O   UNL A   1      53.471  29.293  24.748  1.00  0.00    -0.237 OA
ATOM    100  O   UNL A   1      53.497  29.803  22.332  1.00  0.00    -0.237 OA
ATOM    101  O   UNL A   1      52.030  31.078  23.847  1.00  0.00    -0.744 OA
ENDBRANCH  94  98
ENDBRANCH  67  91
BRANCH  79 102
ATOM    102  C   UNL A   1      51.126  25.345  31.090  1.00  0.00     0.023 A 
ATOM    103  C   UNL A   1      50.904  24.139  31.762  1.00  0.00     0.031 A 
ATOM    104  C   UNL A   1      52.283  26.064  31.497  1.00  0.00     0.131 A 
ATOM    105  C   UNL A   1      51.859  23.625  32.655  1.00  0.00     0.055 A 
ATOM    106  C   UNL A   1      53.166  25.609  32.475  1.00  0.00     0.041 A 
ATOM    107  F   UNL A   1      52.613  27.248  30.964  1.00  0.00    -0.206 F 
ATOM    108  C   UNL A   1      52.979  24.359  33.035  1.00  0.00     0.022 A 
BRANCH 105 109
ATOM    109  S   UNL A   1      51.667  21.912  33.201  1.00  0.00     0.124 S 
ATOM    110  O   UNL A   1      52.435  21.889  34.440  1.00  0.00    -0.237 OA
ATOM    111  O   UNL A   1      50.216  21.816  33.353  1.00  0.00    -0.237 OA
ATOM    112  O   UNL A   1      52.226  21.135  32.098  1.00  0.00    -0.744 OA
ENDBRANCH 105 109
ENDBRANCH  79 102
ENDBRANCH  53  54
ENDBRANCH  46  48
ENDBRANCH  45  46
ENDBRANCH  44  45
ENDBRANCH  43  44
ENDBRANCH  42  43
ENDBRANCH  41  42
ENDBRANCH   1  41
TORSDOF 27
ENDMDL
