MODEL 1
REMARK VINA RESULT:     -10.2      0.000      0.000
REMARK SMILES Cn1cncc1COc1c(F)cc(C(=O)OCCOCCOCCOC(=O)c2ccc(-c3c4nc(c(-c5cc(S(=O)(=O)[O-])ccc5F)c5ccc([nH]5)c(-c5cc(S(=O)(=O)[O-])ccc5F)c5nc(c(-c6cc(S(=O)(=O)[O-])ccc6F)c6ccc3[nH]6)C=C5)C=C4)cc2)cc1F
REMARK SMILES IDX 20 1 19 2 18 3 17 4 16 5 14 6 15 7 13 8 9 9 10 10 92 11
REMARK SMILES IDX 11 12 12 13 91 14 93 15 8 16 7 17 6 18 1 19 2 20 3 21 4 22
REMARK SMILES IDX 5 23 21 24 22 25 23 26 24 27 25 28 26 29 27 30 28 31 29 32
REMARK SMILES IDX 90 33 30 34 89 35 31 36 32 37 33 38 83 39 34 40 88 41 82 42
REMARK SMILES IDX 84 43 35 44 87 45 81 46 80 47 36 49 68 50 48 51 67 52 49 53
REMARK SMILES IDX 52 54 66 55 85 56 50 57 51 58 65 60 86 61 53 62 37 63 38 64
REMARK SMILES IDX 46 65 39 66 45 67 47 68 44 69 40 70 41 71 42 72 43 73 69 74
REMARK SMILES IDX 70 75 78 76 71 77 77 78 79 79 76 80 72 81 73 82 74 83 75 84
REMARK SMILES IDX 54 85 55 86 63 87 56 88 62 89 64 90 61 91 57 92 58 93 59 94
REMARK SMILES IDX 60 95
REMARK H PARENT 84 48 52 59
REMARK Flexibility Score: inf
ROOT
ATOM      1  C   UNL A   1      33.869  28.519  26.235  1.00  0.00     0.188 C 
ENDROOT
BRANCH   1   2
ATOM      2  O   UNL A   1      33.709  28.035  24.905  1.00  0.00    -0.376 OA
BRANCH   2   3
ATOM      3  C   UNL A   1      33.218  28.899  23.889  1.00  0.00     0.202 C 
BRANCH   3   4
ATOM      4  C   UNL A   1      31.734  28.814  23.516  1.00  0.00     0.261 C 
BRANCH   4   5
ATOM      5  O   UNL A   1      30.928  28.189  24.525  1.00  0.00    -0.460 OA
BRANCH   5   6
ATOM      6  C   UNL A   1      29.989  27.314  24.088  1.00  0.00     0.338 C 
ATOM      7  O   UNL A   1      29.013  27.559  23.400  1.00  0.00    -0.246 OA
BRANCH   6   8
ATOM      8  C   UNL A   1      30.398  25.940  24.455  1.00  0.00     0.066 A 
ATOM      9  C   UNL A   1      31.297  23.364  25.069  1.00  0.00     0.191 A 
ATOM     10  C   UNL A   1      31.262  24.357  26.046  1.00  0.00     0.169 A 
ATOM     11  C   UNL A   1      30.923  23.687  23.768  1.00  0.00     0.169 A 
ATOM     12  F   UNL A   1      31.695  24.117  27.290  1.00  0.00    -0.203 F 
ATOM     13  C   UNL A   1      30.787  25.631  25.761  1.00  0.00     0.059 A 
ATOM     14  C   UNL A   1      30.472  24.966  23.451  1.00  0.00     0.059 A 
ATOM     15  F   UNL A   1      30.999  22.765  22.798  1.00  0.00    -0.203 F 
BRANCH   9  16
ATOM     16  O   UNL A   1      31.759  22.108  25.358  1.00  0.00    -0.481 OA
BRANCH  16  17
ATOM     17  C   UNL A   1      33.124  21.931  24.943  1.00  0.00     0.285 C 
BRANCH  17  18
ATOM     18  C   UNL A   1      33.375  20.472  24.794  1.00  0.00     0.075 A 
ATOM     19  C   UNL A   1      35.886  20.487  25.060  1.00  0.00     0.151 C 
ATOM     20  N   UNL A   1      34.609  19.866  24.816  1.00  0.00    -0.335 N 
ATOM     21  C   UNL A   1      34.427  18.543  24.525  1.00  0.00     0.199 A 
ATOM     22  N   UNL A   1      33.156  18.249  24.381  1.00  0.00    -0.245 NA
ATOM     23  C   UNL A   1      32.494  19.440  24.530  1.00  0.00     0.138 A 
ENDBRANCH  17  18
ENDBRANCH  16  17
ENDBRANCH   9  16
ENDBRANCH   6   8
ENDBRANCH   5   6
ENDBRANCH   4   5
ENDBRANCH   3   4
ENDBRANCH   2   3
ENDBRANCH   1   2
BRANCH   1  24
ATOM     24  C   UNL A   1      33.654  30.017  26.538  1.00  0.00     0.188 C 
BRANCH  24  25
ATOM     25  O   UNL A   1      32.363  30.320  27.031  1.00  0.00    -0.376 OA
BRANCH  25  26
ATOM     26  C   UNL A   1      31.686  31.400  26.410  1.00  0.00     0.202 C 
BRANCH  26  27
ATOM     27  C   UNL A   1      31.779  32.786  27.071  1.00  0.00     0.261 C 
BRANCH  27  28
ATOM     28  O   UNL A   1      33.050  33.452  27.000  1.00  0.00    -0.460 OA
BRANCH  28  29
ATOM     29  C   UNL A   1      33.530  34.001  28.140  1.00  0.00     0.338 C 
ATOM     30  O   UNL A   1      33.036  34.917  28.770  1.00  0.00    -0.246 OA
BRANCH  29  31
ATOM     31  C   UNL A   1      34.676  33.173  28.586  1.00  0.00     0.060 A 
ATOM     32  C   UNL A   1      34.434  31.975  29.270  1.00  0.00     0.016 A 
ATOM     33  C   UNL A   1      35.987  33.574  28.312  1.00  0.00     0.016 A 
ATOM     34  C   UNL A   1      35.506  31.183  29.695  1.00  0.00     0.010 A 
ATOM     35  C   UNL A   1      37.057  32.788  28.753  1.00  0.00     0.010 A 
ATOM     36  C   UNL A   1      36.826  31.597  29.467  1.00  0.00    -0.014 A 
BRANCH  36  37
ATOM     37  C   UNL A   1      37.964  30.885  30.105  1.00  0.00     0.031 A 
ATOM     38  C   UNL A   1      38.342  31.255  31.515  1.00  0.00     0.074 A 
ATOM     39  C   UNL A   1      38.659  29.937  29.450  1.00  0.00     0.049 A 
ATOM     40  N   UNL A   1      39.340  30.833  32.250  1.00  0.00    -0.248 NA
ATOM     41  C   UNL A   1      37.478  32.242  32.180  1.00  0.00     0.031 C 
ATOM     42  C   UNL A   1      38.370  29.461  28.099  1.00  0.00     0.029 A 
ATOM     43  N   UNL A   1      39.761  29.210  29.833  1.00  0.00    -0.354 N 
ATOM     44  C   UNL A   1      39.225  31.504  33.463  1.00  0.00     0.074 A 
ATOM     45  C   UNL A   1      38.084  32.388  33.347  1.00  0.00     0.031 C 
ATOM     46  C   UNL A   1      39.281  28.532  27.759  1.00  0.00     0.029 A 
ATOM     47  C   UNL A   1      40.242  28.374  28.851  1.00  0.00     0.049 A 
ATOM     48  H   UNL A   1      40.169  29.282  30.727  1.00  0.00     0.167 HD
ATOM     49  C   UNL A   1      39.995  31.389  34.573  1.00  0.00     0.034 A 
ATOM     50  C   UNL A   1      41.345  27.596  28.826  1.00  0.00     0.034 A 
ATOM     51  C   UNL A   1      41.142  30.519  34.669  1.00  0.00     0.049 A 
ATOM     52  C   UNL A   1      42.246  27.555  30.041  1.00  0.00     0.074 A 
ATOM     53  C   UNL A   1      41.983  30.317  35.750  1.00  0.00     0.029 A 
ATOM     54  N   UNL A   1      41.622  29.719  33.640  1.00  0.00    -0.354 N 
ATOM     55  N   UNL A   1      42.121  28.185  31.186  1.00  0.00    -0.248 NA
ATOM     56  C   UNL A   1      43.435  26.695  29.958  1.00  0.00     0.031 C 
ATOM     57  C   UNL A   1      43.010  29.455  35.352  1.00  0.00     0.029 A 
ATOM     58  C   UNL A   1      42.766  29.050  34.050  1.00  0.00     0.049 A 
ATOM     59  H   UNL A   1      41.210  29.638  32.750  1.00  0.00     0.167 HD
ATOM     60  C   UNL A   1      43.194  27.766  31.972  1.00  0.00     0.074 A 
ATOM     61  C   UNL A   1      43.951  26.827  31.172  1.00  0.00     0.031 C 
ATOM     62  C   UNL A   1      43.518  28.118  33.242  1.00  0.00     0.034 A 
BRANCH  49  63
ATOM     63  C   UNL A   1      39.648  32.269  35.750  1.00  0.00     0.023 A 
ATOM     64  C   UNL A   1      38.753  31.849  36.750  1.00  0.00     0.031 A 
ATOM     65  C   UNL A   1      40.195  33.560  35.857  1.00  0.00     0.131 A 
ATOM     66  C   UNL A   1      38.378  32.736  37.771  1.00  0.00     0.055 A 
ATOM     67  C   UNL A   1      39.880  34.407  36.919  1.00  0.00     0.041 A 
ATOM     68  F   UNL A   1      41.037  34.025  34.920  1.00  0.00    -0.206 F 
ATOM     69  C   UNL A   1      38.955  34.003  37.877  1.00  0.00     0.022 A 
BRANCH  66  70
ATOM     70  S   UNL A   1      37.017  32.263  38.874  1.00  0.00     0.124 S 
ATOM     71  O   UNL A   1      35.885  32.950  38.257  1.00  0.00    -0.237 OA
ATOM     72  O   UNL A   1      37.018  30.808  38.768  1.00  0.00    -0.237 OA
ATOM     73  O   UNL A   1      37.427  32.795  40.171  1.00  0.00    -0.744 OA
ENDBRANCH  66  70
ENDBRANCH  49  63
BRANCH  50  74
ATOM     74  C   UNL A   1      41.700  26.821  27.601  1.00  0.00     0.023 A 
ATOM     75  C   UNL A   1      41.444  25.443  27.510  1.00  0.00     0.031 A 
ATOM     76  C   UNL A   1      42.363  27.438  26.525  1.00  0.00     0.131 A 
ATOM     77  C   UNL A   1      41.889  24.720  26.392  1.00  0.00     0.055 A 
ATOM     78  C   UNL A   1      42.754  26.725  25.390  1.00  0.00     0.041 A 
ATOM     79  F   UNL A   1      42.639  28.752  26.561  1.00  0.00    -0.206 F 
ATOM     80  C   UNL A   1      42.529  25.355  25.325  1.00  0.00     0.022 A 
BRANCH  77  81
ATOM     81  S   UNL A   1      41.698  22.915  26.389  1.00  0.00     0.124 S 
ATOM     82  O   UNL A   1      40.248  22.771  26.327  1.00  0.00    -0.237 OA
ATOM     83  O   UNL A   1      42.433  22.534  25.188  1.00  0.00    -0.237 OA
ATOM     84  O   UNL A   1      42.312  22.506  27.650  1.00  0.00    -0.744 OA
ENDBRANCH  77  81
ENDBRANCH  50  74
BRANCH  62  85
ATOM     85  C   UNL A   1      44.712  27.437  33.870  1.00  0.00     0.023 A 
ATOM     86  C   UNL A   1      44.598  26.222  34.568  1.00  0.00     0.031 A 
ATOM     87  C   UNL A   1      45.989  28.016  33.757  1.00  0.00     0.131 A 
ATOM     88  C   UNL A   1      45.732  25.650  35.166  1.00  0.00     0.055 A 
ATOM     89  C   UNL A   1      47.123  27.414  34.303  1.00  0.00     0.041 A 
ATOM     90  F   UNL A   1      46.157  29.177  33.103  1.00  0.00    -0.206 F 
ATOM     91  C   UNL A   1      46.996  26.229  35.022  1.00  0.00     0.022 A 
BRANCH  88  92
ATOM     92  S   UNL A   1      45.526  24.176  36.204  1.00  0.00     0.124 S 
ATOM     93  O   UNL A   1      46.906  23.741  36.391  1.00  0.00    -0.237 OA
ATOM     94  O   UNL A   1      44.862  24.717  37.387  1.00  0.00    -0.237 OA
ATOM     95  O   UNL A   1      44.702  23.291  35.384  1.00  0.00    -0.744 OA
ENDBRANCH  88  92
ENDBRANCH  62  85
ENDBRANCH  36  37
ENDBRANCH  29  31
ENDBRANCH  28  29
ENDBRANCH  27  28
ENDBRANCH  26  27
ENDBRANCH  25  26
ENDBRANCH  24  25
ENDBRANCH   1  24
TORSDOF 23
ENDMDL
MODEL 2
REMARK VINA RESULT:     -10.0      1.966      2.229
REMARK SMILES Cn1cncc1COc1c(F)cc(C(=O)OCCOCCOCCOC(=O)c2ccc(-c3c4nc(c(-c5cc(S(=O)(=O)[O-])ccc5F)c5ccc([nH]5)c(-c5cc(S(=O)(=O)[O-])ccc5F)c5nc(c(-c6cc(S(=O)(=O)[O-])ccc6F)c6ccc3[nH]6)C=C5)C=C4)cc2)cc1F
REMARK SMILES IDX 20 1 19 2 18 3 17 4 16 5 14 6 15 7 13 8 9 9 10 10 92 11
REMARK SMILES IDX 11 12 12 13 91 14 93 15 8 16 7 17 6 18 1 19 2 20 3 21 4 22
REMARK SMILES IDX 5 23 21 24 22 25 23 26 24 27 25 28 26 29 27 30 28 31 29 32
REMARK SMILES IDX 90 33 30 34 89 35 31 36 32 37 33 38 83 39 34 40 88 41 82 42
REMARK SMILES IDX 84 43 35 44 87 45 81 46 80 47 36 49 68 50 48 51 67 52 49 53
REMARK SMILES IDX 52 54 66 55 85 56 50 57 51 58 65 60 86 61 53 62 37 63 38 64
REMARK SMILES IDX 46 65 39 66 45 67 47 68 44 69 40 70 41 71 42 72 43 73 69 74
REMARK SMILES IDX 70 75 78 76 71 77 77 78 79 79 76 80 72 81 73 82 74 83 75 84
REMARK SMILES IDX 54 85 55 86 63 87 56 88 62 89 64 90 61 91 57 92 58 93 59 94
REMARK SMILES IDX 60 95
REMARK H PARENT 84 48 52 59
REMARK Flexibility Score: inf
ROOT
ATOM      1  C   UNL A   1      33.464  28.275  26.398  1.00  0.00     0.188 C 
ENDROOT
BRANCH   1   2
ATOM      2  O   UNL A   1      33.677  27.706  25.110  1.00  0.00    -0.376 OA
BRANCH   2   3
ATOM      3  C   UNL A   1      34.030  28.541  24.015  1.00  0.00     0.202 C 
BRANCH   3   4
ATOM      4  C   UNL A   1      33.007  28.738  22.891  1.00  0.00     0.261 C 
BRANCH   4   5
ATOM      5  O   UNL A   1      31.682  29.008  23.368  1.00  0.00    -0.460 OA
BRANCH   5   6
ATOM      6  C   UNL A   1      30.680  28.297  22.796  1.00  0.00     0.338 C 
ATOM      7  O   UNL A   1      29.941  28.654  21.894  1.00  0.00    -0.246 OA
BRANCH   6   8
ATOM      8  C   UNL A   1      30.692  26.920  23.336  1.00  0.00     0.066 A 
ATOM      9  C   UNL A   1      30.863  24.329  24.374  1.00  0.00     0.191 A 
ATOM     10  C   UNL A   1      30.286  25.356  25.118  1.00  0.00     0.169 A 
ATOM     11  C   UNL A   1      31.399  24.623  23.123  1.00  0.00     0.169 A 
ATOM     12  F   UNL A   1      29.837  25.141  26.360  1.00  0.00    -0.203 F 
ATOM     13  C   UNL A   1      30.166  26.640  24.600  1.00  0.00     0.059 A 
ATOM     14  C   UNL A   1      31.317  25.909  22.596  1.00  0.00     0.059 A 
ATOM     15  F   UNL A   1      32.007  23.664  22.411  1.00  0.00    -0.203 F 
BRANCH   9  16
ATOM     16  O   UNL A   1      30.972  23.064  24.887  1.00  0.00    -0.481 OA
BRANCH  16  17
ATOM     17  C   UNL A   1      32.188  22.892  25.634  1.00  0.00     0.285 C 
BRANCH  17  18
ATOM     18  C   UNL A   1      32.787  21.587  25.244  1.00  0.00     0.075 A 
ATOM     19  C   UNL A   1      35.083  21.906  26.245  1.00  0.00     0.151 C 
ATOM     20  N   UNL A   1      34.079  21.192  25.498  1.00  0.00    -0.335 N 
ATOM     21  C   UNL A   1      34.275  19.990  24.877  1.00  0.00     0.199 A 
ATOM     22  N   UNL A   1      33.179  19.559  24.297  1.00  0.00    -0.245 NA
ATOM     23  C   UNL A   1      32.254  20.547  24.505  1.00  0.00     0.138 A 
ENDBRANCH  17  18
ENDBRANCH  16  17
ENDBRANCH   9  16
ENDBRANCH   6   8
ENDBRANCH   5   6
ENDBRANCH   4   5
ENDBRANCH   3   4
ENDBRANCH   2   3
ENDBRANCH   1   2
BRANCH   1  24
ATOM     24  C   UNL A   1      33.302  29.802  26.545  1.00  0.00     0.188 C 
BRANCH  24  25
ATOM     25  O   UNL A   1      31.991  30.206  26.891  1.00  0.00    -0.376 OA
BRANCH  25  26
ATOM     26  C   UNL A   1      31.458  31.306  26.172  1.00  0.00     0.202 C 
BRANCH  26  27
ATOM     27  C   UNL A   1      31.539  32.699  26.818  1.00  0.00     0.261 C 
BRANCH  27  28
ATOM     28  O   UNL A   1      32.817  33.356  26.782  1.00  0.00    -0.460 OA
BRANCH  28  29
ATOM     29  C   UNL A   1      33.252  33.935  27.925  1.00  0.00     0.338 C 
ATOM     30  O   UNL A   1      32.697  34.821  28.548  1.00  0.00    -0.246 OA
BRANCH  29  31
ATOM     31  C   UNL A   1      34.441  33.179  28.385  1.00  0.00     0.060 A 
ATOM     32  C   UNL A   1      34.271  31.917  28.967  1.00  0.00     0.016 A 
ATOM     33  C   UNL A   1      35.724  33.712  28.223  1.00  0.00     0.016 A 
ATOM     34  C   UNL A   1      35.385  31.191  29.403  1.00  0.00     0.010 A 
ATOM     35  C   UNL A   1      36.834  32.991  28.676  1.00  0.00     0.010 A 
ATOM     36  C   UNL A   1      36.672  31.735  29.289  1.00  0.00    -0.014 A 
BRANCH  36  37
ATOM     37  C   UNL A   1      37.832  31.079  29.948  1.00  0.00     0.031 A 
ATOM     38  C   UNL A   1      38.156  31.452  31.370  1.00  0.00     0.074 A 
ATOM     39  C   UNL A   1      38.594  30.178  29.300  1.00  0.00     0.049 A 
ATOM     40  N   UNL A   1      39.157  31.078  32.124  1.00  0.00    -0.248 NA
ATOM     41  C   UNL A   1      37.223  32.382  32.024  1.00  0.00     0.031 C 
ATOM     42  C   UNL A   1      38.365  29.703  27.937  1.00  0.00     0.029 A 
ATOM     43  N   UNL A   1      39.725  29.509  29.702  1.00  0.00    -0.354 N 
ATOM     44  C   UNL A   1      38.977  31.726  33.342  1.00  0.00     0.074 A 
ATOM     45  C   UNL A   1      37.792  32.548  33.207  1.00  0.00     0.031 C 
ATOM     46  C   UNL A   1      39.333  28.829  27.610  1.00  0.00     0.029 A 
ATOM     47  C   UNL A   1      40.275  28.712  28.723  1.00  0.00     0.049 A 
ATOM     48  H   UNL A   1      40.107  29.592  30.606  1.00  0.00     0.167 HD
ATOM     49  C   UNL A   1      39.725  31.641  34.469  1.00  0.00     0.034 A 
ATOM     50  C   UNL A   1      41.419  27.996  28.717  1.00  0.00     0.034 A 
ATOM     51  C   UNL A   1      40.916  30.834  34.584  1.00  0.00     0.049 A 
ATOM     52  C   UNL A   1      42.292  27.990  29.953  1.00  0.00     0.074 A 
ATOM     53  C   UNL A   1      41.740  30.665  35.683  1.00  0.00     0.029 A 
ATOM     54  N   UNL A   1      41.464  30.074  33.558  1.00  0.00    -0.354 N 
ATOM     55  N   UNL A   1      42.105  28.599  31.102  1.00  0.00    -0.248 NA
ATOM     56  C   UNL A   1      43.528  27.197  29.891  1.00  0.00     0.031 C 
ATOM     57  C   UNL A   1      42.823  29.866  35.301  1.00  0.00     0.029 A 
ATOM     58  C   UNL A   1      42.633  29.464  33.990  1.00  0.00     0.049 A 
ATOM     59  H   UNL A   1      41.078  29.980  32.658  1.00  0.00     0.167 HD
ATOM     60  C   UNL A   1      43.181  28.230  31.909  1.00  0.00     0.074 A 
ATOM     61  C   UNL A   1      44.007  27.343  31.118  1.00  0.00     0.031 C 
ATOM     62  C   UNL A   1      43.454  28.584  33.190  1.00  0.00     0.034 A 
BRANCH  49  63
ATOM     63  C   UNL A   1      39.302  32.486  35.646  1.00  0.00     0.023 A 
ATOM     64  C   UNL A   1      39.695  33.830  35.772  1.00  0.00     0.031 A 
ATOM     65  C   UNL A   1      38.520  31.930  36.675  1.00  0.00     0.131 A 
ATOM     66  C   UNL A   1      39.366  34.549  36.931  1.00  0.00     0.055 A 
ATOM     67  C   UNL A   1      38.130  32.676  37.787  1.00  0.00     0.041 A 
ATOM     68  F   UNL A   1      38.135  30.645  36.622  1.00  0.00    -0.206 F 
ATOM     69  C   UNL A   1      38.565  33.989  37.928  1.00  0.00     0.022 A 
BRANCH  66  70
ATOM     70  S   UNL A   1      40.124  36.178  37.184  1.00  0.00     0.124 S 
ATOM     71  O   UNL A   1      39.284  36.733  38.243  1.00  0.00    -0.237 OA
ATOM     72  O   UNL A   1      41.489  35.835  37.565  1.00  0.00    -0.237 OA
ATOM     73  O   UNL A   1      39.983  36.828  35.883  1.00  0.00    -0.744 OA
ENDBRANCH  66  70
ENDBRANCH  49  63
BRANCH  50  74
ATOM     74  C   UNL A   1      41.846  27.256  27.493  1.00  0.00     0.023 A 
ATOM     75  C   UNL A   1      41.707  25.862  27.398  1.00  0.00     0.031 A 
ATOM     76  C   UNL A   1      42.460  27.929  26.422  1.00  0.00     0.131 A 
ATOM     77  C   UNL A   1      42.219  25.181  26.282  1.00  0.00     0.055 A 
ATOM     78  C   UNL A   1      42.917  27.254  25.288  1.00  0.00     0.041 A 
ATOM     79  F   UNL A   1      42.625  29.261  26.462  1.00  0.00    -0.206 F 
ATOM     80  C   UNL A   1      42.809  25.870  25.220  1.00  0.00     0.022 A 
BRANCH  77  81
ATOM     81  S   UNL A   1      42.181  23.367  26.275  1.00  0.00     0.124 S 
ATOM     82  O   UNL A   1      40.747  23.100  26.309  1.00  0.00    -0.237 OA
ATOM     83  O   UNL A   1      42.863  23.054  25.025  1.00  0.00    -0.237 OA
ATOM     84  O   UNL A   1      42.911  23.006  27.488  1.00  0.00    -0.744 OA
ENDBRANCH  77  81
ENDBRANCH  50  74
BRANCH  62  85
ATOM     85  C   UNL A   1      44.668  27.962  33.840  1.00  0.00     0.023 A 
ATOM     86  C   UNL A   1      45.926  28.591  33.828  1.00  0.00     0.031 A 
ATOM     87  C   UNL A   1      44.557  26.720  34.491  1.00  0.00     0.131 A 
ATOM     88  C   UNL A   1      47.032  27.954  34.414  1.00  0.00     0.055 A 
ATOM     89  C   UNL A   1      45.647  26.118  35.123  1.00  0.00     0.041 A 
ATOM     90  F   UNL A   1      43.381  26.074  34.533  1.00  0.00    -0.206 F 
ATOM     91  C   UNL A   1      46.895  26.730  35.076  1.00  0.00     0.022 A 
BRANCH  88  92
ATOM     92  S   UNL A   1      48.673  28.706  34.233  1.00  0.00     0.124 S 
ATOM     93  O   UNL A   1      49.183  28.039  33.040  1.00  0.00    -0.237 OA
ATOM     94  O   UNL A   1      48.353  30.122  34.083  1.00  0.00    -0.237 OA
ATOM     95  O   UNL A   1      49.352  28.354  35.479  1.00  0.00    -0.744 OA
ENDBRANCH  88  92
ENDBRANCH  62  85
ENDBRANCH  36  37
ENDBRANCH  29  31
ENDBRANCH  28  29
ENDBRANCH  27  28
ENDBRANCH  26  27
ENDBRANCH  25  26
ENDBRANCH  24  25
ENDBRANCH   1  24
TORSDOF 23
ENDMDL
MODEL 3
REMARK VINA RESULT:     -10.0      2.096      7.705
REMARK SMILES Cn1cncc1COc1c(F)cc(C(=O)OCCOCCOCCOC(=O)c2ccc(-c3c4nc(c(-c5cc(S(=O)(=O)[O-])ccc5F)c5ccc([nH]5)c(-c5cc(S(=O)(=O)[O-])ccc5F)c5nc(c(-c6cc(S(=O)(=O)[O-])ccc6F)c6ccc3[nH]6)C=C5)C=C4)cc2)cc1F
REMARK SMILES IDX 20 1 19 2 18 3 17 4 16 5 14 6 15 7 13 8 9 9 10 10 92 11
REMARK SMILES IDX 11 12 12 13 91 14 93 15 8 16 7 17 6 18 1 19 2 20 3 21 4 22
REMARK SMILES IDX 5 23 21 24 22 25 23 26 24 27 25 28 26 29 27 30 28 31 29 32
REMARK SMILES IDX 90 33 30 34 89 35 31 36 32 37 33 38 83 39 34 40 88 41 82 42
REMARK SMILES IDX 84 43 35 44 87 45 81 46 80 47 36 49 68 50 48 51 67 52 49 53
REMARK SMILES IDX 52 54 66 55 85 56 50 57 51 58 65 60 86 61 53 62 37 63 38 64
REMARK SMILES IDX 46 65 39 66 45 67 47 68 44 69 40 70 41 71 42 72 43 73 69 74
REMARK SMILES IDX 70 75 78 76 71 77 77 78 79 79 76 80 72 81 73 82 74 83 75 84
REMARK SMILES IDX 54 85 55 86 63 87 56 88 62 89 64 90 61 91 57 92 58 93 59 94
REMARK SMILES IDX 60 95
REMARK H PARENT 84 48 52 59
REMARK Flexibility Score: inf
ROOT
ATOM      1  C   UNL A   1      33.578  28.433  26.019  1.00  0.00     0.188 C 
ENDROOT
BRANCH   1   2
ATOM      2  O   UNL A   1      33.838  28.462  24.619  1.00  0.00    -0.376 OA
BRANCH   2   3
ATOM      3  C   UNL A   1      32.874  29.010  23.730  1.00  0.00     0.202 C 
BRANCH   3   4
ATOM      4  C   UNL A   1      31.714  28.118  23.274  1.00  0.00     0.261 C 
BRANCH   4   5
ATOM      5  O   UNL A   1      30.726  27.906  24.292  1.00  0.00    -0.460 OA
BRANCH   5   6
ATOM      6  C   UNL A   1      29.730  27.036  23.992  1.00  0.00     0.338 C 
ATOM      7  O   UNL A   1      28.695  27.275  23.394  1.00  0.00    -0.246 OA
BRANCH   6   8
ATOM      8  C   UNL A   1      30.146  25.670  24.380  1.00  0.00     0.066 A 
ATOM      9  C   UNL A   1      31.070  23.121  25.062  1.00  0.00     0.191 A 
ATOM     10  C   UNL A   1      30.765  24.055  26.050  1.00  0.00     0.169 A 
ATOM     11  C   UNL A   1      30.954  23.493  23.726  1.00  0.00     0.169 A 
ATOM     12  F   UNL A   1      30.946  23.772  27.346  1.00  0.00    -0.203 F 
ATOM     13  C   UNL A   1      30.275  25.313  25.725  1.00  0.00     0.059 A 
ATOM     14  C   UNL A   1      30.493  24.759  23.375  1.00  0.00     0.059 A 
ATOM     15  F   UNL A   1      31.292  22.631  22.756  1.00  0.00    -0.203 F 
BRANCH   9  16
ATOM     16  O   UNL A   1      31.546  21.879  25.390  1.00  0.00    -0.481 OA
BRANCH  16  17
ATOM     17  C   UNL A   1      32.971  21.790  25.220  1.00  0.00     0.285 C 
BRANCH  17  18
ATOM     18  C   UNL A   1      33.315  20.367  24.954  1.00  0.00     0.075 A 
ATOM     19  C   UNL A   1      35.832  20.566  25.013  1.00  0.00     0.151 C 
ATOM     20  N   UNL A   1      34.588  19.861  24.834  1.00  0.00    -0.335 N 
ATOM     21  C   UNL A   1      34.480  18.548  24.471  1.00  0.00     0.199 A 
ATOM     22  N   UNL A   1      33.226  18.163  24.412  1.00  0.00    -0.245 NA
ATOM     23  C   UNL A   1      32.494  19.286  24.695  1.00  0.00     0.138 A 
ENDBRANCH  17  18
ENDBRANCH  16  17
ENDBRANCH   9  16
ENDBRANCH   6   8
ENDBRANCH   5   6
ENDBRANCH   4   5
ENDBRANCH   3   4
ENDBRANCH   2   3
ENDBRANCH   1   2
BRANCH   1  24
ATOM     24  C   UNL A   1      33.660  29.735  26.842  1.00  0.00     0.188 C 
BRANCH  24  25
ATOM     25  O   UNL A   1      32.399  30.236  27.245  1.00  0.00    -0.376 OA
BRANCH  25  26
ATOM     26  C   UNL A   1      31.894  31.342  26.515  1.00  0.00     0.202 C 
BRANCH  26  27
ATOM     27  C   UNL A   1      31.816  32.702  27.228  1.00  0.00     0.261 C 
BRANCH  27  28
ATOM     28  O   UNL A   1      33.006  33.507  27.218  1.00  0.00    -0.460 OA
BRANCH  28  29
ATOM     29  C   UNL A   1      33.299  34.201  28.343  1.00  0.00     0.338 C 
ATOM     30  O   UNL A   1      32.636  35.091  28.841  1.00  0.00    -0.246 OA
BRANCH  29  31
ATOM     31  C   UNL A   1      34.485  33.565  28.963  1.00  0.00     0.060 A 
ATOM     32  C   UNL A   1      34.312  32.460  29.807  1.00  0.00     0.016 A 
ATOM     33  C   UNL A   1      35.769  34.051  28.697  1.00  0.00     0.016 A 
ATOM     34  C   UNL A   1      35.423  31.850  30.398  1.00  0.00     0.010 A 
ATOM     35  C   UNL A   1      36.877  33.449  29.302  1.00  0.00     0.010 A 
ATOM     36  C   UNL A   1      36.711  32.357  30.175  1.00  0.00    -0.014 A 
BRANCH  36  37
ATOM     37  C   UNL A   1      37.867  31.863  30.968  1.00  0.00     0.031 A 
ATOM     38  C   UNL A   1      38.717  30.763  30.389  1.00  0.00     0.074 A 
ATOM     39  C   UNL A   1      38.157  32.367  32.182  1.00  0.00     0.049 A 
ATOM     40  N   UNL A   1      39.723  30.117  30.921  1.00  0.00    -0.248 NA
ATOM     41  C   UNL A   1      38.376  30.330  29.025  1.00  0.00     0.031 C 
ATOM     42  C   UNL A   1      37.437  33.458  32.836  1.00  0.00     0.029 A 
ATOM     43  N   UNL A   1      39.130  32.018  33.087  1.00  0.00    -0.354 N 
ATOM     44  C   UNL A   1      40.135  29.201  29.959  1.00  0.00     0.074 A 
ATOM     45  C   UNL A   1      39.243  29.350  28.829  1.00  0.00     0.031 C 
ATOM     46  C   UNL A   1      37.985  33.679  34.044  1.00  0.00     0.029 A 
ATOM     47  C   UNL A   1      39.067  32.721  34.268  1.00  0.00     0.049 A 
ATOM     48  H   UNL A   1      39.810  31.328  32.906  1.00  0.00     0.167 HD
ATOM     49  C   UNL A   1      41.166  28.321  30.011  1.00  0.00     0.034 A 
ATOM     50  C   UNL A   1      39.780  32.587  35.407  1.00  0.00     0.034 A 
ATOM     51  C   UNL A   1      42.036  28.167  31.152  1.00  0.00     0.049 A 
ATOM     52  C   UNL A   1      40.863  31.533  35.479  1.00  0.00     0.074 A 
ATOM     53  C   UNL A   1      43.117  27.316  31.304  1.00  0.00     0.029 A 
ATOM     54  N   UNL A   1      41.914  28.869  32.345  1.00  0.00    -0.354 N 
ATOM     55  N   UNL A   1      41.251  30.680  34.559  1.00  0.00    -0.248 NA
ATOM     56  C   UNL A   1      41.605  31.428  36.743  1.00  0.00     0.031 C 
ATOM     57  C   UNL A   1      43.600  27.449  32.610  1.00  0.00     0.029 A 
ATOM     58  C   UNL A   1      42.878  28.444  33.248  1.00  0.00     0.049 A 
ATOM     59  H   UNL A   1      41.243  29.566  32.523  1.00  0.00     0.167 HD
ATOM     60  C   UNL A   1      42.307  29.965  35.123  1.00  0.00     0.074 A 
ATOM     61  C   UNL A   1      42.497  30.490  36.457  1.00  0.00     0.031 C 
ATOM     62  C   UNL A   1      43.057  28.972  34.581  1.00  0.00     0.034 A 
BRANCH  49  63
ATOM     63  C   UNL A   1      41.368  27.421  28.816  1.00  0.00     0.023 A 
ATOM     64  C   UNL A   1      42.354  27.685  27.848  1.00  0.00     0.031 A 
ATOM     65  C   UNL A   1      40.540  26.300  28.623  1.00  0.00     0.131 A 
ATOM     66  C   UNL A   1      42.439  26.883  26.700  1.00  0.00     0.055 A 
ATOM     67  C   UNL A   1      40.685  25.460  27.519  1.00  0.00     0.041 A 
ATOM     68  F   UNL A   1      39.566  26.011  29.501  1.00  0.00    -0.206 F 
ATOM     69  C   UNL A   1      41.629  25.757  26.541  1.00  0.00     0.022 A 
BRANCH  66  70
ATOM     70  S   UNL A   1      43.526  27.416  25.349  1.00  0.00     0.124 S 
ATOM     71  O   UNL A   1      44.163  26.158  24.967  1.00  0.00    -0.237 OA
ATOM     72  O   UNL A   1      42.582  27.973  24.387  1.00  0.00    -0.237 OA
ATOM     73  O   UNL A   1      44.414  28.387  25.986  1.00  0.00    -0.744 OA
ENDBRANCH  66  70
ENDBRANCH  49  63
BRANCH  50  74
ATOM     74  C   UNL A   1      39.476  33.435  36.597  1.00  0.00     0.023 A 
ATOM     75  C   UNL A   1      40.227  34.586  36.885  1.00  0.00     0.031 A 
ATOM     76  C   UNL A   1      38.466  33.066  37.504  1.00  0.00     0.131 A 
ATOM     77  C   UNL A   1      39.990  35.299  38.070  1.00  0.00     0.055 A 
ATOM     78  C   UNL A   1      38.196  33.811  38.654  1.00  0.00     0.041 A 
ATOM     79  F   UNL A   1      37.721  31.970  37.283  1.00  0.00    -0.206 F 
ATOM     80  C   UNL A   1      38.970  34.928  38.949  1.00  0.00     0.022 A 
BRANCH  77  81
ATOM     81  S   UNL A   1      41.095  36.675  38.495  1.00  0.00     0.124 S 
ATOM     82  O   UNL A   1      41.778  36.907  37.228  1.00  0.00    -0.237 OA
ATOM     83  O   UNL A   1      40.150  37.705  38.913  1.00  0.00    -0.237 OA
ATOM     84  O   UNL A   1      41.927  36.126  39.562  1.00  0.00    -0.744 OA
ENDBRANCH  77  81
ENDBRANCH  50  74
BRANCH  62  85
ATOM     85  C   UNL A   1      44.196  28.427  35.412  1.00  0.00     0.023 A 
ATOM     86  C   UNL A   1      44.008  27.404  36.358  1.00  0.00     0.031 A 
ATOM     87  C   UNL A   1      45.495  28.941  35.243  1.00  0.00     0.131 A 
ATOM     88  C   UNL A   1      45.092  26.960  37.132  1.00  0.00     0.055 A 
ATOM     89  C   UNL A   1      46.580  28.454  35.974  1.00  0.00     0.041 A 
ATOM     90  F   UNL A   1      45.732  29.919  34.355  1.00  0.00    -0.206 F 
ATOM     91  C   UNL A   1      46.380  27.466  36.932  1.00  0.00     0.022 A 
BRANCH  88  92
ATOM     92  S   UNL A   1      44.787  25.764  38.462  1.00  0.00     0.124 S 
ATOM     93  O   UNL A   1      43.857  26.492  39.318  1.00  0.00    -0.237 OA
ATOM     94  O   UNL A   1      44.227  24.627  37.736  1.00  0.00    -0.237 OA
ATOM     95  O   UNL A   1      46.113  25.540  39.034  1.00  0.00    -0.744 OA
ENDBRANCH  88  92
ENDBRANCH  62  85
ENDBRANCH  36  37
ENDBRANCH  29  31
ENDBRANCH  28  29
ENDBRANCH  27  28
ENDBRANCH  26  27
ENDBRANCH  25  26
ENDBRANCH  24  25
ENDBRANCH   1  24
TORSDOF 23
ENDMDL
