MODEL 1
REMARK VINA RESULT:     -11.0      0.000      0.000
REMARK SMILES Cc1nc2sc3c(c2c2nc(CCC(=O)OCCOCCOCCOC(=O)c4ccc(-c5c6nc(c(-c7cc(S(=O)(=O)[O-])ccc7F)c7ccc([nH]7)c(-c7cc(S(=O)(=O)[O-])ccc7F)c7nc(c(-c8cc(S(=O)(=O)[O-])ccc8F)c8ccc5[nH]8)C=C7)C=C6)cc4)nn12)[C@@H](C)CCC3
REMARK SMILES IDX 21 1 20 2 19 3 18 4 17 5 16 6 14 7 15 8 13 9 12 10 11 11
REMARK SMILES IDX 1 12 2 13 3 14 92 15 4 16 9 17 91 18 5 19 8 20 10 21 6 22
REMARK SMILES IDX 7 23 97 24 93 25 96 26 94 27 95 28 22 29 23 30 24 31 25 32
REMARK SMILES IDX 26 33 27 34 28 35 29 36 90 37 30 38 89 39 31 40 32 41 33 42
REMARK SMILES IDX 83 43 34 44 88 45 82 46 84 47 35 48 87 49 81 50 80 51 36 53
REMARK SMILES IDX 68 54 48 55 67 56 49 57 52 58 66 59 85 60 50 61 51 62 65 64
REMARK SMILES IDX 86 65 53 66 37 67 38 68 46 69 39 70 45 71 47 72 44 73 40 74
REMARK SMILES IDX 41 75 42 76 43 77 69 78 70 79 78 80 71 81 77 82 79 83 76 84
REMARK SMILES IDX 72 85 73 86 74 87 75 88 54 89 55 90 63 91 56 92 62 93 64 94
REMARK SMILES IDX 61 95 57 96 58 97 59 98 60 99
REMARK H PARENT 84 52 52 63
REMARK Flexibility Score: inf
ROOT
ATOM      1  C   UNL A   1      33.065  35.872  30.893  1.00  0.00     0.188 C 
ENDROOT
BRANCH   1   2
ATOM      2  C   UNL A   1      33.065  35.817  29.383  1.00  0.00     0.188 C 
BRANCH   2   3
ATOM      3  O   UNL A   1      32.532  34.617  28.837  1.00  0.00    -0.376 OA
BRANCH   3   4
ATOM      4  C   UNL A   1      33.430  33.888  28.004  1.00  0.00     0.202 C 
BRANCH   4   5
ATOM      5  C   UNL A   1      33.939  32.531  28.548  1.00  0.00     0.261 C 
BRANCH   5   6
ATOM      6  O   UNL A   1      34.058  31.494  27.530  1.00  0.00    -0.463 OA
BRANCH   6   7
ATOM      7  C   UNL A   1      35.155  30.700  27.601  1.00  0.00     0.306 C 
ATOM      8  O   UNL A   1      36.303  31.139  27.634  1.00  0.00    -0.252 OA
BRANCH   7   9
ATOM      9  C   UNL A   1      34.892  29.199  27.605  1.00  0.00     0.131 C 
BRANCH   9  10
ATOM     10  C   UNL A   1      33.531  28.608  27.236  1.00  0.00     0.091 C 
BRANCH  10  11
ATOM     11  C   UNL A   1      33.497  27.758  26.014  1.00  0.00     0.152 A 
ATOM     12  C   UNL A   1      33.813  28.338  21.921  1.00  0.00     0.090 C 
ATOM     13  C   UNL A   1      33.700  27.028  22.634  1.00  0.00     0.131 A 
ATOM     14  N   UNL A   1      33.653  25.881  22.001  1.00  0.00    -0.222 NA
ATOM     15  N   UNL A   1      33.629  27.126  24.030  1.00  0.00    -0.199 N 
ATOM     16  C   UNL A   1      33.518  24.762  22.792  1.00  0.00     0.129 A 
ATOM     17  C   UNL A   1      33.519  26.025  24.831  1.00  0.00     0.168 A 
ATOM     18  N   UNL A   1      33.581  28.261  24.768  1.00  0.00    -0.150 NA
ATOM     19  S   UNL A   1      33.376  23.192  22.123  1.00  0.00    -0.120 S 
ATOM     20  C   UNL A   1      33.441  24.701  24.176  1.00  0.00     0.060 A 
ATOM     21  N   UNL A   1      33.453  26.390  26.084  1.00  0.00    -0.211 NA
ATOM     22  C   UNL A   1      33.198  22.475  23.662  1.00  0.00     0.011 A 
ATOM     23  C   UNL A   1      33.241  23.391  24.698  1.00  0.00    -0.018 A 
ATOM     24  C   UNL A   1      32.957  21.003  23.830  1.00  0.00     0.047 C 
ATOM     25  C   UNL A   1      33.079  22.959  26.132  1.00  0.00     0.018 C 
ATOM     26  C   UNL A   1      33.272  20.568  25.268  1.00  0.00     0.006 C 
ATOM     27  C   UNL A   1      32.099  23.838  26.889  1.00  0.00     0.013 C 
ATOM     28  C   UNL A   1      32.602  21.500  26.275  1.00  0.00     0.008 C 
ENDBRANCH  10  11
ENDBRANCH   9  10
ENDBRANCH   7   9
ENDBRANCH   6   7
ENDBRANCH   5   6
ENDBRANCH   4   5
ENDBRANCH   3   4
ENDBRANCH   2   3
ENDBRANCH   1   2
BRANCH   1  29
ATOM     29  O   UNL A   1      33.257  34.572  31.479  1.00  0.00    -0.376 OA
BRANCH  29  30
ATOM     30  C   UNL A   1      34.598  34.113  31.620  1.00  0.00     0.202 C 
BRANCH  30  31
ATOM     31  C   UNL A   1      34.794  32.728  32.236  1.00  0.00     0.261 C 
BRANCH  31  32
ATOM     32  O   UNL A   1      35.712  31.968  31.485  1.00  0.00    -0.460 OA
BRANCH  32  33
ATOM     33  C   UNL A   1      36.981  32.449  31.560  1.00  0.00     0.338 C 
ATOM     34  O   UNL A   1      37.381  33.397  32.194  1.00  0.00    -0.246 OA
BRANCH  33  35
ATOM     35  C   UNL A   1      37.817  31.561  30.745  1.00  0.00     0.060 A 
ATOM     36  C   UNL A   1      37.470  30.212  30.708  1.00  0.00     0.016 A 
ATOM     37  C   UNL A   1      39.020  32.051  30.221  1.00  0.00     0.016 A 
ATOM     38  C   UNL A   1      38.475  29.313  30.461  1.00  0.00     0.010 A 
ATOM     39  C   UNL A   1      40.022  31.159  29.997  1.00  0.00     0.010 A 
ATOM     40  C   UNL A   1      39.760  29.821  30.260  1.00  0.00    -0.014 A 
BRANCH  40  41
ATOM     41  C   UNL A   1      40.884  28.924  30.284  1.00  0.00     0.031 A 
ATOM     42  C   UNL A   1      41.386  28.755  31.655  1.00  0.00     0.074 A 
ATOM     43  C   UNL A   1      41.275  28.274  29.171  1.00  0.00     0.049 A 
ATOM     44  N   UNL A   1      42.408  29.346  32.175  1.00  0.00    -0.248 NA
ATOM     45  C   UNL A   1      40.499  28.115  32.645  1.00  0.00     0.031 C 
ATOM     46  C   UNL A   1      40.658  28.266  27.842  1.00  0.00     0.029 A 
ATOM     47  N   UNL A   1      42.304  27.402  29.023  1.00  0.00    -0.354 N 
ATOM     48  C   UNL A   1      42.457  28.871  33.475  1.00  0.00     0.074 A 
ATOM     49  C   UNL A   1      41.129  28.422  33.779  1.00  0.00     0.031 C 
ATOM     50  C   UNL A   1      41.198  27.269  27.098  1.00  0.00     0.029 A 
ATOM     51  C   UNL A   1      42.281  26.653  27.846  1.00  0.00     0.049 A 
ATOM     52  H   UNL A   1      43.015  27.306  29.696  1.00  0.00     0.167 HD
ATOM     53  C   UNL A   1      43.651  28.525  34.022  1.00  0.00     0.034 A 
ATOM     54  C   UNL A   1      43.077  25.580  27.564  1.00  0.00     0.034 A 
ATOM     55  C   UNL A   1      44.743  29.139  33.289  1.00  0.00     0.049 A 
ATOM     56  C   UNL A   1      44.278  25.738  28.433  1.00  0.00     0.074 A 
ATOM     57  C   UNL A   1      45.069  30.445  32.970  1.00  0.00     0.029 A 
ATOM     58  N   UNL A   1      45.437  28.352  32.394  1.00  0.00    -0.354 N 
ATOM     59  N   UNL A   1      45.110  26.741  28.313  1.00  0.00    -0.248 NA
ATOM     60  C   UNL A   1      44.243  25.118  29.751  1.00  0.00     0.031 C 
ATOM     61  C   UNL A   1      45.539  30.391  31.625  1.00  0.00     0.029 A 
ATOM     62  C   UNL A   1      45.579  29.055  31.221  1.00  0.00     0.049 A 
ATOM     63  H   UNL A   1      45.772  27.443  32.565  1.00  0.00     0.167 HD
ATOM     64  C   UNL A   1      45.374  27.150  29.613  1.00  0.00     0.074 A 
ATOM     65  C   UNL A   1      44.866  26.067  30.460  1.00  0.00     0.031 C 
ATOM     66  C   UNL A   1      45.685  28.449  29.903  1.00  0.00     0.034 A 
BRANCH  53  67
ATOM     67  C   UNL A   1      43.841  27.318  34.914  1.00  0.00     0.023 A 
ATOM     68  C   UNL A   1      44.224  26.125  34.284  1.00  0.00     0.031 A 
ATOM     69  C   UNL A   1      43.425  27.192  36.264  1.00  0.00     0.131 A 
ATOM     70  C   UNL A   1      44.099  24.890  34.941  1.00  0.00     0.055 A 
ATOM     71  C   UNL A   1      43.354  25.968  36.930  1.00  0.00     0.041 A 
ATOM     72  F   UNL A   1      42.981  28.215  37.001  1.00  0.00    -0.206 F 
ATOM     73  C   UNL A   1      43.662  24.802  36.259  1.00  0.00     0.022 A 
BRANCH  70  74
ATOM     74  S   UNL A   1      44.391  23.384  33.987  1.00  0.00     0.124 S 
ATOM     75  O   UNL A   1      45.153  22.580  34.936  1.00  0.00    -0.237 OA
ATOM     76  O   UNL A   1      43.028  22.938  33.710  1.00  0.00    -0.237 OA
ATOM     77  O   UNL A   1      45.137  23.861  32.825  1.00  0.00    -0.744 OA
ENDBRANCH  70  74
ENDBRANCH  53  67
BRANCH  54  78
ATOM     78  C   UNL A   1      42.686  24.285  26.915  1.00  0.00     0.023 A 
ATOM     79  C   UNL A   1      43.566  23.526  26.104  1.00  0.00     0.031 A 
ATOM     80  C   UNL A   1      41.489  23.636  27.299  1.00  0.00     0.131 A 
ATOM     81  C   UNL A   1      43.236  22.199  25.721  1.00  0.00     0.055 A 
ATOM     82  C   UNL A   1      41.171  22.327  26.921  1.00  0.00     0.041 A 
ATOM     83  F   UNL A   1      40.614  24.219  28.133  1.00  0.00    -0.206 F 
ATOM     84  C   UNL A   1      42.049  21.598  26.139  1.00  0.00     0.022 A 
BRANCH  81  85
ATOM     85  S   UNL A   1      44.398  21.175  24.748  1.00  0.00     0.124 S 
ATOM     86  O   UNL A   1      45.601  21.208  25.571  1.00  0.00    -0.237 OA
ATOM     87  O   UNL A   1      43.702  19.895  24.667  1.00  0.00    -0.237 OA
ATOM     88  O   UNL A   1      44.505  21.892  23.477  1.00  0.00    -0.744 OA
ENDBRANCH  81  85
ENDBRANCH  54  78
BRANCH  66  89
ATOM     89  C   UNL A   1      46.005  29.398  28.760  1.00  0.00     0.023 A 
ATOM     90  C   UNL A   1      45.154  30.427  28.286  1.00  0.00     0.031 A 
ATOM     91  C   UNL A   1      47.324  29.368  28.275  1.00  0.00     0.131 A 
ATOM     92  C   UNL A   1      45.649  31.381  27.366  1.00  0.00     0.055 A 
ATOM     93  C   UNL A   1      47.813  30.325  27.389  1.00  0.00     0.041 A 
ATOM     94  F   UNL A   1      48.184  28.436  28.717  1.00  0.00    -0.206 F 
ATOM     95  C   UNL A   1      46.979  31.337  26.932  1.00  0.00     0.022 A 
BRANCH  92  96
ATOM     96  S   UNL A   1      44.588  32.735  26.754  1.00  0.00     0.124 S 
ATOM     97  O   UNL A   1      44.332  32.354  25.370  1.00  0.00    -0.237 OA
ATOM     98  O   UNL A   1      43.443  32.683  27.657  1.00  0.00    -0.237 OA
ATOM     99  O   UNL A   1      45.426  33.927  26.911  1.00  0.00    -0.744 OA
ENDBRANCH  92  96
ENDBRANCH  66  89
ENDBRANCH  40  41
ENDBRANCH  33  35
ENDBRANCH  32  33
ENDBRANCH  31  32
ENDBRANCH  30  31
ENDBRANCH  29  30
ENDBRANCH   1  29
TORSDOF 22
ENDMDL
MODEL 2
REMARK VINA RESULT:     -11.0      1.866      2.164
REMARK SMILES Cc1nc2sc3c(c2c2nc(CCC(=O)OCCOCCOCCOC(=O)c4ccc(-c5c6nc(c(-c7cc(S(=O)(=O)[O-])ccc7F)c7ccc([nH]7)c(-c7cc(S(=O)(=O)[O-])ccc7F)c7nc(c(-c8cc(S(=O)(=O)[O-])ccc8F)c8ccc5[nH]8)C=C7)C=C6)cc4)nn12)[C@@H](C)CCC3
REMARK SMILES IDX 21 1 20 2 19 3 18 4 17 5 16 6 14 7 15 8 13 9 12 10 11 11
REMARK SMILES IDX 1 12 2 13 3 14 92 15 4 16 9 17 91 18 5 19 8 20 10 21 6 22
REMARK SMILES IDX 7 23 97 24 93 25 96 26 94 27 95 28 22 29 23 30 24 31 25 32
REMARK SMILES IDX 26 33 27 34 28 35 29 36 90 37 30 38 89 39 31 40 32 41 33 42
REMARK SMILES IDX 83 43 34 44 88 45 82 46 84 47 35 48 87 49 81 50 80 51 36 53
REMARK SMILES IDX 68 54 48 55 67 56 49 57 52 58 66 59 85 60 50 61 51 62 65 64
REMARK SMILES IDX 86 65 53 66 37 67 38 68 46 69 39 70 45 71 47 72 44 73 40 74
REMARK SMILES IDX 41 75 42 76 43 77 69 78 70 79 78 80 71 81 77 82 79 83 76 84
REMARK SMILES IDX 72 85 73 86 74 87 75 88 54 89 55 90 63 91 56 92 62 93 64 94
REMARK SMILES IDX 61 95 57 96 58 97 59 98 60 99
REMARK H PARENT 84 52 52 63
REMARK Flexibility Score: inf
ROOT
ATOM      1  C   UNL A   1      32.883  36.178  30.849  1.00  0.00     0.188 C 
ENDROOT
BRANCH   1   2
ATOM      2  C   UNL A   1      32.945  35.894  29.365  1.00  0.00     0.188 C 
BRANCH   2   3
ATOM      3  O   UNL A   1      32.592  34.564  29.006  1.00  0.00    -0.376 OA
BRANCH   3   4
ATOM      4  C   UNL A   1      33.312  34.034  27.895  1.00  0.00     0.202 C 
BRANCH   4   5
ATOM      5  C   UNL A   1      34.465  33.052  28.216  1.00  0.00     0.261 C 
BRANCH   5   6
ATOM      6  O   UNL A   1      34.296  31.731  27.623  1.00  0.00    -0.463 OA
BRANCH   6   7
ATOM      7  C   UNL A   1      35.345  30.878  27.741  1.00  0.00     0.306 C 
ATOM      8  O   UNL A   1      36.501  31.252  27.920  1.00  0.00    -0.252 OA
BRANCH   7   9
ATOM      9  C   UNL A   1      35.016  29.396  27.605  1.00  0.00     0.131 C 
BRANCH   9  10
ATOM     10  C   UNL A   1      33.629  28.902  27.192  1.00  0.00     0.091 C 
BRANCH  10  11
ATOM     11  C   UNL A   1      33.579  28.021  25.992  1.00  0.00     0.152 A 
ATOM     12  C   UNL A   1      34.000  28.474  21.892  1.00  0.00     0.090 C 
ATOM     13  C   UNL A   1      33.814  27.190  22.637  1.00  0.00     0.131 A 
ATOM     14  N   UNL A   1      33.726  26.029  22.034  1.00  0.00    -0.222 NA
ATOM     15  N   UNL A   1      33.721  27.330  24.028  1.00  0.00    -0.199 N 
ATOM     16  C   UNL A   1      33.524  24.940  22.851  1.00  0.00     0.129 A 
ATOM     17  C   UNL A   1      33.545  26.257  24.856  1.00  0.00     0.168 A 
ATOM     18  N   UNL A   1      33.710  28.485  24.735  1.00  0.00    -0.150 NA
ATOM     19  S   UNL A   1      33.323  23.361  22.222  1.00  0.00    -0.120 S 
ATOM     20  C   UNL A   1      33.418  24.920  24.235  1.00  0.00     0.060 A 
ATOM     21  N   UNL A   1      33.471  26.659  26.097  1.00  0.00    -0.211 NA
ATOM     22  C   UNL A   1      33.082  22.694  23.775  1.00  0.00     0.011 A 
ATOM     23  C   UNL A   1      33.147  23.636  24.788  1.00  0.00    -0.018 A 
ATOM     24  C   UNL A   1      32.771  21.240  23.977  1.00  0.00     0.047 C 
ATOM     25  C   UNL A   1      32.938  23.251  26.229  1.00  0.00     0.018 C 
ATOM     26  C   UNL A   1      33.038  20.831  25.432  1.00  0.00     0.006 C 
ATOM     27  C   UNL A   1      31.986  24.194  26.942  1.00  0.00     0.013 C 
ATOM     28  C   UNL A   1      32.392  21.820  26.400  1.00  0.00     0.008 C 
ENDBRANCH  10  11
ENDBRANCH   9  10
ENDBRANCH   7   9
ENDBRANCH   6   7
ENDBRANCH   5   6
ENDBRANCH   4   5
ENDBRANCH   3   4
ENDBRANCH   2   3
ENDBRANCH   1   2
BRANCH   1  29
ATOM     29  O   UNL A   1      33.175  35.008  31.633  1.00  0.00    -0.376 OA
BRANCH  29  30
ATOM     30  C   UNL A   1      34.539  34.606  31.721  1.00  0.00     0.202 C 
BRANCH  30  31
ATOM     31  C   UNL A   1      34.811  33.111  31.879  1.00  0.00     0.261 C 
BRANCH  31  32
ATOM     32  O   UNL A   1      36.129  32.795  31.496  1.00  0.00    -0.460 OA
BRANCH  32  33
ATOM     33  C   UNL A   1      36.680  31.815  32.261  1.00  0.00     0.338 C 
ATOM     34  O   UNL A   1      36.419  31.530  33.405  1.00  0.00    -0.246 OA
BRANCH  33  35
ATOM     35  C   UNL A   1      37.648  31.113  31.412  1.00  0.00     0.060 A 
ATOM     36  C   UNL A   1      37.403  29.769  31.138  1.00  0.00     0.016 A 
ATOM     37  C   UNL A   1      38.857  31.745  31.093  1.00  0.00     0.016 A 
ATOM     38  C   UNL A   1      38.488  28.977  30.863  1.00  0.00     0.010 A 
ATOM     39  C   UNL A   1      39.937  30.956  30.842  1.00  0.00     0.010 A 
ATOM     40  C   UNL A   1      39.746  29.581  30.873  1.00  0.00    -0.014 A 
BRANCH  40  41
ATOM     41  C   UNL A   1      40.924  28.756  30.878  1.00  0.00     0.031 A 
ATOM     42  C   UNL A   1      41.378  28.503  32.254  1.00  0.00     0.074 A 
ATOM     43  C   UNL A   1      41.404  28.226  29.737  1.00  0.00     0.049 A 
ATOM     44  N   UNL A   1      42.336  29.110  32.868  1.00  0.00    -0.248 NA
ATOM     45  C   UNL A   1      40.493  27.730  33.145  1.00  0.00     0.031 C 
ATOM     46  C   UNL A   1      40.846  28.293  28.383  1.00  0.00     0.029 A 
ATOM     47  N   UNL A   1      42.492  27.435  29.567  1.00  0.00    -0.354 N 
ATOM     48  C   UNL A   1      42.361  28.531  34.126  1.00  0.00     0.074 A 
ATOM     49  C   UNL A   1      41.053  27.978  34.329  1.00  0.00     0.031 C 
ATOM     50  C   UNL A   1      41.480  27.396  27.588  1.00  0.00     0.029 A 
ATOM     51  C   UNL A   1      42.568  26.787  28.333  1.00  0.00     0.049 A 
ATOM     52  H   UNL A   1      43.179  27.326  30.264  1.00  0.00     0.167 HD
ATOM     53  C   UNL A   1      43.551  28.215  34.699  1.00  0.00     0.034 A 
ATOM     54  C   UNL A   1      43.444  25.792  28.004  1.00  0.00     0.034 A 
ATOM     55  C   UNL A   1      44.630  28.953  34.072  1.00  0.00     0.049 A 
ATOM     56  C   UNL A   1      44.594  25.951  28.939  1.00  0.00     0.074 A 
ATOM     57  C   UNL A   1      44.884  30.299  33.875  1.00  0.00     0.029 A 
ATOM     58  N   UNL A   1      45.411  28.289  33.149  1.00  0.00    -0.354 N 
ATOM     59  N   UNL A   1      45.364  27.009  28.941  1.00  0.00    -0.248 NA
ATOM     60  C   UNL A   1      44.544  25.221  30.200  1.00  0.00     0.031 C 
ATOM     61  C   UNL A   1      45.413  30.388  32.555  1.00  0.00     0.029 A 
ATOM     62  C   UNL A   1      45.557  29.095  32.046  1.00  0.00     0.049 A 
ATOM     63  H   UNL A   1      45.798  27.390  33.262  1.00  0.00     0.167 HD
ATOM     64  C   UNL A   1      45.545  27.322  30.281  1.00  0.00     0.074 A 
ATOM     65  C   UNL A   1      45.073  26.144  31.011  1.00  0.00     0.031 C 
ATOM     66  C   UNL A   1      45.758  28.609  30.689  1.00  0.00     0.034 A 
BRANCH  53  67
ATOM     67  C   UNL A   1      43.781  26.951  35.499  1.00  0.00     0.023 A 
ATOM     68  C   UNL A   1      44.144  27.117  36.844  1.00  0.00     0.031 A 
ATOM     69  C   UNL A   1      43.925  25.639  34.982  1.00  0.00     0.131 A 
ATOM     70  C   UNL A   1      44.704  26.056  37.575  1.00  0.00     0.055 A 
ATOM     71  C   UNL A   1      44.432  24.575  35.729  1.00  0.00     0.041 A 
ATOM     72  F   UNL A   1      43.673  25.311  33.711  1.00  0.00    -0.206 F 
ATOM     73  C   UNL A   1      44.855  24.786  37.026  1.00  0.00     0.022 A 
BRANCH  70  74
ATOM     74  S   UNL A   1      45.359  26.408  39.221  1.00  0.00     0.124 S 
ATOM     75  O   UNL A   1      46.049  27.673  38.997  1.00  0.00    -0.237 OA
ATOM     76  O   UNL A   1      44.138  26.470  40.019  1.00  0.00    -0.237 OA
ATOM     77  O   UNL A   1      46.222  25.261  39.492  1.00  0.00    -0.744 OA
ENDBRANCH  70  74
ENDBRANCH  53  67
BRANCH  54  78
ATOM     78  C   UNL A   1      43.165  24.535  27.234  1.00  0.00     0.023 A 
ATOM     79  C   UNL A   1      44.054  24.005  26.266  1.00  0.00     0.031 A 
ATOM     80  C   UNL A   1      42.108  23.683  27.632  1.00  0.00     0.131 A 
ATOM     81  C   UNL A   1      43.866  22.695  25.750  1.00  0.00     0.055 A 
ATOM     82  C   UNL A   1      41.930  22.392  27.123  1.00  0.00     0.041 A 
ATOM     83  F   UNL A   1      41.251  24.039  28.601  1.00  0.00    -0.206 F 
ATOM     84  C   UNL A   1      42.816  21.888  26.187  1.00  0.00     0.022 A 
BRANCH  81  85
ATOM     85  S   UNL A   1      45.052  21.962  24.566  1.00  0.00     0.124 S 
ATOM     86  O   UNL A   1      44.397  20.709  24.211  1.00  0.00    -0.237 OA
ATOM     87  O   UNL A   1      45.125  22.976  23.520  1.00  0.00    -0.237 OA
ATOM     88  O   UNL A   1      46.275  21.812  25.355  1.00  0.00    -0.744 OA
ENDBRANCH  81  85
ENDBRANCH  54  78
BRANCH  66  89
ATOM     89  C   UNL A   1      46.064  29.669  29.644  1.00  0.00     0.023 A 
ATOM     90  C   UNL A   1      47.343  29.938  29.098  1.00  0.00     0.031 A 
ATOM     91  C   UNL A   1      44.954  30.287  29.041  1.00  0.00     0.131 A 
ATOM     92  C   UNL A   1      47.463  30.794  27.978  1.00  0.00     0.055 A 
ATOM     93  C   UNL A   1      45.077  31.110  27.924  1.00  0.00     0.041 A 
ATOM     94  F   UNL A   1      43.714  30.041  29.496  1.00  0.00    -0.206 F 
ATOM     95  C   UNL A   1      46.331  31.365  27.386  1.00  0.00     0.022 A 
BRANCH  92  96
ATOM     96  S   UNL A   1      49.094  31.143  27.233  1.00  0.00     0.124 S 
ATOM     97  O   UNL A   1      48.819  32.272  26.351  1.00  0.00    -0.237 OA
ATOM     98  O   UNL A   1      49.928  31.424  28.396  1.00  0.00    -0.237 OA
ATOM     99  O   UNL A   1      49.428  29.897  26.537  1.00  0.00    -0.744 OA
ENDBRANCH  92  96
ENDBRANCH  66  89
ENDBRANCH  40  41
ENDBRANCH  33  35
ENDBRANCH  32  33
ENDBRANCH  31  32
ENDBRANCH  30  31
ENDBRANCH  29  30
ENDBRANCH   1  29
TORSDOF 22
ENDMDL
MODEL 3
REMARK VINA RESULT:     -10.7      2.150      2.720
REMARK SMILES Cc1nc2sc3c(c2c2nc(CCC(=O)OCCOCCOCCOC(=O)c4ccc(-c5c6nc(c(-c7cc(S(=O)(=O)[O-])ccc7F)c7ccc([nH]7)c(-c7cc(S(=O)(=O)[O-])ccc7F)c7nc(c(-c8cc(S(=O)(=O)[O-])ccc8F)c8ccc5[nH]8)C=C7)C=C6)cc4)nn12)[C@@H](C)CCC3
REMARK SMILES IDX 21 1 20 2 19 3 18 4 17 5 16 6 14 7 15 8 13 9 12 10 11 11
REMARK SMILES IDX 1 12 2 13 3 14 92 15 4 16 9 17 91 18 5 19 8 20 10 21 6 22
REMARK SMILES IDX 7 23 97 24 93 25 96 26 94 27 95 28 22 29 23 30 24 31 25 32
REMARK SMILES IDX 26 33 27 34 28 35 29 36 90 37 30 38 89 39 31 40 32 41 33 42
REMARK SMILES IDX 83 43 34 44 88 45 82 46 84 47 35 48 87 49 81 50 80 51 36 53
REMARK SMILES IDX 68 54 48 55 67 56 49 57 52 58 66 59 85 60 50 61 51 62 65 64
REMARK SMILES IDX 86 65 53 66 37 67 38 68 46 69 39 70 45 71 47 72 44 73 40 74
REMARK SMILES IDX 41 75 42 76 43 77 69 78 70 79 78 80 71 81 77 82 79 83 76 84
REMARK SMILES IDX 72 85 73 86 74 87 75 88 54 89 55 90 63 91 56 92 62 93 64 94
REMARK SMILES IDX 61 95 57 96 58 97 59 98 60 99
REMARK H PARENT 84 52 52 63
REMARK Flexibility Score: inf
ROOT
ATOM      1  C   UNL A   1      33.262  35.329  31.600  1.00  0.00     0.188 C 
ENDROOT
BRANCH   1   2
ATOM      2  C   UNL A   1      32.913  35.714  30.180  1.00  0.00     0.188 C 
BRANCH   2   3
ATOM      3  O   UNL A   1      32.967  34.641  29.249  1.00  0.00    -0.376 OA
BRANCH   3   4
ATOM      4  C   UNL A   1      33.867  34.839  28.160  1.00  0.00     0.202 C 
BRANCH   4   5
ATOM      5  C   UNL A   1      35.278  34.218  28.301  1.00  0.00     0.261 C 
BRANCH   5   6
ATOM      6  O   UNL A   1      35.331  32.796  27.982  1.00  0.00    -0.463 OA
BRANCH   6   7
ATOM      7  C   UNL A   1      36.424  32.121  28.416  1.00  0.00     0.306 C 
ATOM      8  O   UNL A   1      37.303  32.633  29.104  1.00  0.00    -0.252 OA
BRANCH   7   9
ATOM      9  C   UNL A   1      36.529  30.668  27.969  1.00  0.00     0.131 C 
BRANCH   9  10
ATOM     10  C   UNL A   1      35.460  29.629  28.310  1.00  0.00     0.091 C 
BRANCH  10  11
ATOM     11  C   UNL A   1      34.348  29.490  27.330  1.00  0.00     0.152 A 
ATOM     12  C   UNL A   1      31.029  31.699  26.191  1.00  0.00     0.090 C 
ATOM     13  C   UNL A   1      31.512  30.425  25.573  1.00  0.00     0.131 A 
ATOM     14  N   UNL A   1      30.883  29.835  24.585  1.00  0.00    -0.222 NA
ATOM     15  N   UNL A   1      32.679  29.903  26.147  1.00  0.00    -0.199 N 
ATOM     16  C   UNL A   1      31.432  28.654  24.142  1.00  0.00     0.129 A 
ATOM     17  C   UNL A   1      33.250  28.744  25.703  1.00  0.00     0.168 A 
ATOM     18  N   UNL A   1      33.349  30.386  27.220  1.00  0.00    -0.150 NA
ATOM     19  S   UNL A   1      30.701  27.724  22.904  1.00  0.00    -0.120 S 
ATOM     20  C   UNL A   1      32.577  28.019  24.604  1.00  0.00     0.060 A 
ATOM     21  N   UNL A   1      34.311  28.469  26.416  1.00  0.00    -0.211 NA
ATOM     22  C   UNL A   1      31.891  26.505  23.017  1.00  0.00     0.011 A 
ATOM     23  C   UNL A   1      32.852  26.770  23.978  1.00  0.00    -0.018 A 
ATOM     24  C   UNL A   1      31.833  25.257  22.186  1.00  0.00     0.047 C 
ATOM     25  C   UNL A   1      33.976  25.804  24.248  1.00  0.00     0.018 C 
ATOM     26  C   UNL A   1      33.204  24.567  22.156  1.00  0.00     0.006 C 
ATOM     27  C   UNL A   1      34.173  25.552  25.732  1.00  0.00     0.013 C 
ATOM     28  C   UNL A   1      33.776  24.436  23.565  1.00  0.00     0.008 C 
ENDBRANCH  10  11
ENDBRANCH   9  10
ENDBRANCH   7   9
ENDBRANCH   6   7
ENDBRANCH   5   6
ENDBRANCH   4   5
ENDBRANCH   3   4
ENDBRANCH   2   3
ENDBRANCH   1   2
BRANCH   1  29
ATOM     29  O   UNL A   1      33.936  34.060  31.662  1.00  0.00    -0.376 OA
BRANCH  29  30
ATOM     30  C   UNL A   1      35.354  34.082  31.796  1.00  0.00     0.202 C 
BRANCH  30  31
ATOM     31  C   UNL A   1      35.969  33.106  32.798  1.00  0.00     0.261 C 
BRANCH  31  32
ATOM     32  O   UNL A   1      37.288  32.773  32.433  1.00  0.00    -0.460 OA
BRANCH  32  33
ATOM     33  C   UNL A   1      37.760  31.682  33.095  1.00  0.00     0.338 C 
ATOM     34  O   UNL A   1      37.498  31.324  34.218  1.00  0.00    -0.246 OA
BRANCH  33  35
ATOM     35  C   UNL A   1      38.637  30.970  32.161  1.00  0.00     0.060 A 
ATOM     36  C   UNL A   1      38.242  29.696  31.756  1.00  0.00     0.016 A 
ATOM     37  C   UNL A   1      39.906  31.495  31.884  1.00  0.00     0.016 A 
ATOM     38  C   UNL A   1      39.231  28.823  31.381  1.00  0.00     0.010 A 
ATOM     39  C   UNL A   1      40.890  30.623  31.534  1.00  0.00     0.010 A 
ATOM     40  C   UNL A   1      40.549  29.281  31.429  1.00  0.00    -0.014 A 
BRANCH  40  41
ATOM     41  C   UNL A   1      41.628  28.336  31.326  1.00  0.00     0.031 A 
ATOM     42  C   UNL A   1      42.132  27.976  32.660  1.00  0.00     0.074 A 
ATOM     43  C   UNL A   1      41.978  27.810  30.138  1.00  0.00     0.049 A 
ATOM     44  N   UNL A   1      43.186  28.449  33.234  1.00  0.00    -0.248 NA
ATOM     45  C   UNL A   1      41.223  27.262  33.576  1.00  0.00     0.031 C 
ATOM     46  C   UNL A   1      41.351  27.995  28.826  1.00  0.00     0.029 A 
ATOM     47  N   UNL A   1      42.961  26.915  29.869  1.00  0.00    -0.354 N 
ATOM     48  C   UNL A   1      43.223  27.816  34.465  1.00  0.00     0.074 A 
ATOM     49  C   UNL A   1      41.877  27.397  34.730  1.00  0.00     0.031 C 
ATOM     50  C   UNL A   1      41.835  27.072  27.958  1.00  0.00     0.029 A 
ATOM     51  C   UNL A   1      42.892  26.318  28.609  1.00  0.00     0.049 A 
ATOM     52  H   UNL A   1      43.672  26.703  30.515  1.00  0.00     0.167 HD
ATOM     53  C   UNL A   1      44.403  27.350  34.948  1.00  0.00     0.034 A 
ATOM     54  C   UNL A   1      43.633  25.252  28.187  1.00  0.00     0.034 A 
ATOM     55  C   UNL A   1      45.517  27.996  34.281  1.00  0.00     0.049 A 
ATOM     56  C   UNL A   1      44.848  25.245  29.052  1.00  0.00     0.074 A 
ATOM     57  C   UNL A   1      45.904  29.314  34.120  1.00  0.00     0.029 A 
ATOM     58  N   UNL A   1      46.165  27.294  33.286  1.00  0.00    -0.354 N 
ATOM     59  N   UNL A   1      45.727  26.215  29.044  1.00  0.00    -0.248 NA
ATOM     60  C   UNL A   1      44.793  24.470  30.284  1.00  0.00     0.031 C 
ATOM     61  C   UNL A   1      46.360  29.405  32.772  1.00  0.00     0.029 A 
ATOM     62  C   UNL A   1      46.331  28.128  32.207  1.00  0.00     0.049 A 
ATOM     63  H   UNL A   1      46.457  26.355  33.340  1.00  0.00     0.167 HD
ATOM     64  C   UNL A   1      46.021  26.447  30.381  1.00  0.00     0.074 A 
ATOM     65  C   UNL A   1      45.468  25.294  31.095  1.00  0.00     0.031 C 
ATOM     66  C   UNL A   1      46.397  27.685  30.822  1.00  0.00     0.034 A 
BRANCH  53  67
ATOM     67  C   UNL A   1      44.541  26.034  35.683  1.00  0.00     0.023 A 
ATOM     68  C   UNL A   1      45.103  26.089  36.967  1.00  0.00     0.031 A 
ATOM     69  C   UNL A   1      44.411  24.738  35.125  1.00  0.00     0.131 A 
ATOM     70  C   UNL A   1      45.587  24.928  37.592  1.00  0.00     0.055 A 
ATOM     71  C   UNL A   1      44.844  23.580  35.774  1.00  0.00     0.041 A 
ATOM     72  F   UNL A   1      43.943  24.503  33.896  1.00  0.00    -0.206 F 
ATOM     73  C   UNL A   1      45.465  23.673  37.003  1.00  0.00     0.022 A 
BRANCH  70  74
ATOM     74  S   UNL A   1      46.504  25.111  39.138  1.00  0.00     0.124 S 
ATOM     75  O   UNL A   1      46.450  23.755  39.672  1.00  0.00    -0.237 OA
ATOM     76  O   UNL A   1      47.806  25.566  38.659  1.00  0.00    -0.237 OA
ATOM     77  O   UNL A   1      45.728  26.107  39.873  1.00  0.00    -0.744 OA
ENDBRANCH  70  74
ENDBRANCH  53  67
BRANCH  54  78
ATOM     78  C   UNL A   1      43.174  24.067  27.390  1.00  0.00     0.023 A 
ATOM     79  C   UNL A   1      44.007  23.377  26.474  1.00  0.00     0.031 A 
ATOM     80  C   UNL A   1      41.953  23.429  27.713  1.00  0.00     0.131 A 
ATOM     81  C   UNL A   1      43.611  22.124  25.936  1.00  0.00     0.055 A 
ATOM     82  C   UNL A   1      41.570  22.193  27.182  1.00  0.00     0.041 A 
ATOM     83  F   UNL A   1      41.118  23.941  28.629  1.00  0.00    -0.206 F 
ATOM     84  C   UNL A   1      42.403  21.529  26.298  1.00  0.00     0.022 A 
BRANCH  81  85
ATOM     85  S   UNL A   1      44.712  21.179  24.822  1.00  0.00     0.124 S 
ATOM     86  O   UNL A   1      44.638  21.951  23.588  1.00  0.00    -0.237 OA
ATOM     87  O   UNL A   1      45.985  21.209  25.533  1.00  0.00    -0.237 OA
ATOM     88  O   UNL A   1      44.082  19.859  24.758  1.00  0.00    -0.744 OA
ENDBRANCH  81  85
ENDBRANCH  54  78
BRANCH  66  89
ATOM     89  C   UNL A   1      46.753  28.751  29.800  1.00  0.00     0.023 A 
ATOM     90  C   UNL A   1      45.826  29.585  29.128  1.00  0.00     0.031 A 
ATOM     91  C   UNL A   1      48.119  29.053  29.665  1.00  0.00     0.131 A 
ATOM     92  C   UNL A   1      46.292  30.683  28.367  1.00  0.00     0.055 A 
ATOM     93  C   UNL A   1      48.570  30.150  28.934  1.00  0.00     0.041 A 
ATOM     94  F   UNL A   1      49.040  28.317  30.308  1.00  0.00    -0.206 F 
ATOM     95  C   UNL A   1      47.658  30.971  28.284  1.00  0.00     0.022 A 
BRANCH  92  96
ATOM     96  S   UNL A   1      45.123  31.794  27.509  1.00  0.00     0.124 S 
ATOM     97  O   UNL A   1      43.860  31.069  27.587  1.00  0.00    -0.237 OA
ATOM     98  O   UNL A   1      45.209  33.022  28.294  1.00  0.00    -0.237 OA
ATOM     99  O   UNL A   1      45.680  31.902  26.158  1.00  0.00    -0.744 OA
ENDBRANCH  92  96
ENDBRANCH  66  89
ENDBRANCH  40  41
ENDBRANCH  33  35
ENDBRANCH  32  33
ENDBRANCH  31  32
ENDBRANCH  30  31
ENDBRANCH  29  30
ENDBRANCH   1  29
TORSDOF 22
ENDMDL
