MODEL 1
REMARK VINA RESULT:     -10.5      0.000      0.000
REMARK SMILES O=C(CNC(=O)N1CC(OCCOCCOCCOC(=O)c2ccc(-c3c4nc(c(-c5cc(S(=O)(=O)[O-])ccc5F)c5ccc([nH]5)c(-c5cc(S(=O)(=O)[O-])ccc5F)c5nc(c(-c6cc(S(=O)(=O)[O-])ccc6F)c6ccc3[nH]6)C=C5)C=C4)cc2)=Nc2ccccc21)N[C@H](C(=O)[O-])c1ccccc1
REMARK SMILES IDX 14 1 13 2 12 3 11 4 10 5 9 6 7 7 8 8 91 9 86 10 90 11 85 12
REMARK SMILES IDX 87 13 89 14 88 15 5 16 4 17 6 19 3 20 2 21 1 22 92 23 93 25
REMARK SMILES IDX 97 26 98 27 102 28 99 29 101 30 100 31 94 32 95 33 96 34
REMARK SMILES IDX 15 35 16 36 17 37 18 38 19 39 20 40 21 41 22 42 23 43 84 44
REMARK SMILES IDX 24 45 83 46 25 47 26 48 27 49 77 50 28 51 82 52 76 53 78 54
REMARK SMILES IDX 29 55 81 56 75 57 74 58 30 60 62 61 42 62 61 63 43 64 46 65
REMARK SMILES IDX 60 66 79 67 44 68 45 69 59 71 80 72 47 73 31 74 32 75 40 76
REMARK SMILES IDX 33 77 39 78 41 79 38 80 34 81 35 82 36 83 37 84 63 85 64 86
REMARK SMILES IDX 72 87 65 88 71 89 73 90 70 91 66 92 67 93 68 94 69 95 48 96
REMARK SMILES IDX 49 97 57 98 50 99 56 100 58 101 55 102 51 103 52 104 53 105
REMARK SMILES IDX 54 106
REMARK H PARENT 4 18 92 24 78 59 46 70
REMARK Flexibility Score: inf
ROOT
ATOM      1  C   UNL A   1      33.055  22.249  27.553  1.00  0.00     0.188 C 
ENDROOT
BRANCH   1   2
ATOM      2  O   UNL A   1      32.046  23.146  27.089  1.00  0.00    -0.376 OA
BRANCH   2   3
ATOM      3  C   UNL A   1      31.149  22.701  26.091  1.00  0.00     0.201 C 
BRANCH   3   4
ATOM      4  C   UNL A   1      30.842  23.720  24.988  1.00  0.00     0.259 C 
BRANCH   4   5
ATOM      5  O   UNL A   1      30.730  25.090  25.431  1.00  0.00    -0.477 OA
BRANCH   5   6
ATOM      6  C   UNL A   1      30.512  26.033  24.478  1.00  0.00     0.209 C 
ATOM      7  N   UNL A   1      31.728  27.942  23.505  1.00  0.00    -0.283 N 
ATOM      8  C   UNL A   1      31.774  26.509  23.804  1.00  0.00     0.224 C 
ATOM      9  C   UNL A   1      30.435  28.422  23.093  1.00  0.00     0.072 A 
ATOM     10  C   UNL A   1      29.282  27.648  23.420  1.00  0.00     0.091 A 
ATOM     11  C   UNL A   1      30.251  29.595  22.358  1.00  0.00     0.029 A 
ATOM     12  N   UNL A   1      29.334  26.480  24.202  1.00  0.00    -0.214 NA
ATOM     13  C   UNL A   1      28.001  28.111  23.101  1.00  0.00     0.030 A 
ATOM     14  C   UNL A   1      28.960  30.027  22.017  1.00  0.00     0.002 A 
ATOM     15  C   UNL A   1      27.837  29.301  22.406  1.00  0.00     0.002 A 
BRANCH   7  16
ATOM     16  C   UNL A   1      32.956  28.534  23.297  1.00  0.00     0.322 C 
ATOM     17  N   UNL A   1      33.460  29.454  24.158  1.00  0.00    -0.329 N 
ATOM     18  H   UNL A   1      34.303  29.872  23.865  1.00  0.00     0.165 HD
ATOM     19  O   UNL A   1      33.710  28.138  22.401  1.00  0.00    -0.248 OA
BRANCH  17  20
ATOM     20  C   UNL A   1      32.966  29.928  25.441  1.00  0.00     0.218 C 
BRANCH  20  21
ATOM     21  C   UNL A   1      33.817  29.726  26.726  1.00  0.00     0.240 C 
ATOM     22  O   UNL A   1      34.219  28.599  27.003  1.00  0.00    -0.273 OA
ATOM     23  N   UNL A   1      34.258  30.892  27.323  1.00  0.00    -0.342 N 
ATOM     24  H   UNL A   1      33.621  31.633  27.446  1.00  0.00     0.164 HD
BRANCH  23  25
ATOM     25  C   UNL A   1      35.668  31.068  27.787  1.00  0.00     0.158 C 
BRANCH  25  26
ATOM     26  C   UNL A   1      35.795  32.188  28.825  1.00  0.00    -0.020 A 
ATOM     27  C   UNL A   1      36.748  33.211  28.715  1.00  0.00     0.006 A 
ATOM     28  C   UNL A   1      34.859  32.264  29.872  1.00  0.00     0.006 A 
ATOM     29  C   UNL A   1      36.773  34.269  29.625  1.00  0.00     0.000 A 
ATOM     30  C   UNL A   1      34.895  33.310  30.793  1.00  0.00     0.000 A 
ATOM     31  C   UNL A   1      35.854  34.313  30.668  1.00  0.00     0.000 A 
ENDBRANCH  25  26
BRANCH  25  32
ATOM     32  C   UNL A   1      36.620  29.852  28.091  1.00  0.00     0.068 C 
ATOM     33  O   UNL A   1      37.545  29.669  27.226  1.00  0.00    -0.548 OA
ATOM     34  O   UNL A   1      36.494  29.294  29.219  1.00  0.00    -0.548 OA
ENDBRANCH  25  32
ENDBRANCH  23  25
ENDBRANCH  20  21
ENDBRANCH  17  20
ENDBRANCH   7  16
ENDBRANCH   5   6
ENDBRANCH   4   5
ENDBRANCH   3   4
ENDBRANCH   2   3
ENDBRANCH   1   2
BRANCH   1  35
ATOM     35  C   UNL A   1      33.692  21.273  26.573  1.00  0.00     0.188 C 
BRANCH  35  36
ATOM     36  O   UNL A   1      35.054  21.643  26.366  1.00  0.00    -0.376 OA
BRANCH  36  37
ATOM     37  C   UNL A   1      35.591  21.222  25.117  1.00  0.00     0.202 C 
BRANCH  37  38
ATOM     38  C   UNL A   1      37.084  21.530  24.825  1.00  0.00     0.261 C 
BRANCH  38  39
ATOM     39  O   UNL A   1      37.837  22.603  25.448  1.00  0.00    -0.460 OA
BRANCH  39  40
ATOM     40  C   UNL A   1      38.906  22.235  26.171  1.00  0.00     0.338 C 
ATOM     41  O   UNL A   1      39.504  21.174  26.020  1.00  0.00    -0.246 OA
BRANCH  40  42
ATOM     42  C   UNL A   1      39.553  23.278  26.980  1.00  0.00     0.060 A 
ATOM     43  C   UNL A   1      39.316  24.586  26.560  1.00  0.00     0.016 A 
ATOM     44  C   UNL A   1      40.612  23.019  27.851  1.00  0.00     0.016 A 
ATOM     45  C   UNL A   1      40.202  25.601  26.882  1.00  0.00     0.010 A 
ATOM     46  C   UNL A   1      41.434  24.083  28.278  1.00  0.00     0.010 A 
ATOM     47  C   UNL A   1      41.252  25.386  27.776  1.00  0.00    -0.014 A 
BRANCH  47  48
ATOM     48  C   UNL A   1      42.122  26.546  28.133  1.00  0.00     0.031 A 
ATOM     49  C   UNL A   1      41.693  27.544  29.175  1.00  0.00     0.074 A 
ATOM     50  C   UNL A   1      43.354  26.648  27.586  1.00  0.00     0.049 A 
ATOM     51  N   UNL A   1      42.221  28.709  29.459  1.00  0.00    -0.248 NA
ATOM     52  C   UNL A   1      40.527  27.195  30.000  1.00  0.00     0.031 C 
ATOM     53  C   UNL A   1      43.937  25.683  26.649  1.00  0.00     0.029 A 
ATOM     54  N   UNL A   1      44.358  27.573  27.754  1.00  0.00    -0.354 N 
ATOM     55  C   UNL A   1      41.403  29.272  30.434  1.00  0.00     0.074 A 
ATOM     56  C   UNL A   1      40.369  28.297  30.723  1.00  0.00     0.031 C 
ATOM     57  C   UNL A   1      45.211  26.014  26.402  1.00  0.00     0.029 A 
ATOM     58  C   UNL A   1      45.492  27.301  27.019  1.00  0.00     0.049 A 
ATOM     59  H   UNL A   1      44.273  28.357  28.343  1.00  0.00     0.167 HD
ATOM     60  C   UNL A   1      41.498  30.504  30.995  1.00  0.00     0.034 A 
ATOM     61  C   UNL A   1      46.602  28.032  26.794  1.00  0.00     0.034 A 
ATOM     62  C   UNL A   1      42.568  31.435  30.700  1.00  0.00     0.049 A 
ATOM     63  C   UNL A   1      46.655  29.418  27.378  1.00  0.00     0.074 A 
ATOM     64  C   UNL A   1      42.740  32.733  31.151  1.00  0.00     0.029 A 
ATOM     65  N   UNL A   1      43.662  31.157  29.884  1.00  0.00    -0.354 N 
ATOM     66  N   UNL A   1      45.790  30.015  28.165  1.00  0.00    -0.248 NA
ATOM     67  C   UNL A   1      47.806  30.249  27.008  1.00  0.00     0.031 C 
ATOM     68  C   UNL A   1      43.896  33.259  30.561  1.00  0.00     0.029 A 
ATOM     69  C   UNL A   1      44.496  32.266  29.804  1.00  0.00     0.049 A 
ATOM     70  H   UNL A   1      43.822  30.299  29.430  1.00  0.00     0.167 HD
ATOM     71  C   UNL A   1      46.289  31.295  28.377  1.00  0.00     0.074 A 
ATOM     72  C   UNL A   1      47.554  31.367  27.672  1.00  0.00     0.031 C 
ATOM     73  C   UNL A   1      45.744  32.325  29.075  1.00  0.00     0.034 A 
BRANCH  60  74
ATOM     74  C   UNL A   1      40.354  30.966  31.872  1.00  0.00     0.023 A 
ATOM     75  C   UNL A   1      40.429  31.019  33.274  1.00  0.00     0.031 A 
ATOM     76  C   UNL A   1      39.141  31.353  31.266  1.00  0.00     0.131 A 
ATOM     77  C   UNL A   1      39.301  31.406  34.022  1.00  0.00     0.055 A 
ATOM     78  C   UNL A   1      38.043  31.786  32.011  1.00  0.00     0.041 A 
ATOM     79  F   UNL A   1      39.003  31.318  29.931  1.00  0.00    -0.206 F 
ATOM     80  C   UNL A   1      38.115  31.802  33.398  1.00  0.00     0.022 A 
BRANCH  77  81
ATOM     81  S   UNL A   1      39.365  31.318  35.836  1.00  0.00     0.124 S 
ATOM     82  O   UNL A   1      39.022  29.922  36.082  1.00  0.00    -0.237 OA
ATOM     83  O   UNL A   1      40.744  31.701  36.120  1.00  0.00    -0.237 OA
ATOM     84  O   UNL A   1      38.357  32.289  36.262  1.00  0.00    -0.744 OA
ENDBRANCH  77  81
ENDBRANCH  60  74
BRANCH  61  85
ATOM     85  C   UNL A   1      47.685  27.533  25.887  1.00  0.00     0.023 A 
ATOM     86  C   UNL A   1      47.717  27.877  24.524  1.00  0.00     0.031 A 
ATOM     87  C   UNL A   1      48.687  26.661  26.359  1.00  0.00     0.131 A 
ATOM     88  C   UNL A   1      48.705  27.334  23.685  1.00  0.00     0.055 A 
ATOM     89  C   UNL A   1      49.713  26.191  25.540  1.00  0.00     0.041 A 
ATOM     90  F   UNL A   1      48.696  26.263  27.642  1.00  0.00    -0.206 F 
ATOM     91  C   UNL A   1      49.719  26.517  24.190  1.00  0.00     0.022 A 
BRANCH  88  92
ATOM     92  S   UNL A   1      48.587  27.613  21.895  1.00  0.00     0.124 S 
ATOM     93  O   UNL A   1      47.210  28.073  21.756  1.00  0.00    -0.237 OA
ATOM     94  O   UNL A   1      49.624  28.614  21.671  1.00  0.00    -0.237 OA
ATOM     95  O   UNL A   1      48.863  26.295  21.326  1.00  0.00    -0.744 OA
ENDBRANCH  88  92
ENDBRANCH  61  85
BRANCH  73  96
ATOM     96  C   UNL A   1      46.550  33.599  29.127  1.00  0.00     0.023 A 
ATOM     97  C   UNL A   1      46.422  34.597  28.142  1.00  0.00     0.031 A 
ATOM     98  C   UNL A   1      47.487  33.799  30.154  1.00  0.00     0.131 A 
ATOM     99  C   UNL A   1      47.262  35.720  28.173  1.00  0.00     0.055 A 
ATOM    100  C   UNL A   1      48.277  34.948  30.215  1.00  0.00     0.041 A 
ATOM    101  F   UNL A   1      47.658  32.874  31.113  1.00  0.00    -0.206 F 
ATOM    102  C   UNL A   1      48.177  35.910  29.213  1.00  0.00     0.022 A 
BRANCH  99 103
ATOM    103  S   UNL A   1      47.224  36.885  26.782  1.00  0.00     0.124 S 
ATOM    104  O   UNL A   1      46.175  36.320  25.939  1.00  0.00    -0.237 OA
ATOM    105  O   UNL A   1      46.905  38.149  27.438  1.00  0.00    -0.237 OA
ATOM    106  O   UNL A   1      48.574  36.803  26.226  1.00  0.00    -0.744 OA
ENDBRANCH  99 103
ENDBRANCH  73  96
ENDBRANCH  47  48
ENDBRANCH  40  42
ENDBRANCH  39  40
ENDBRANCH  38  39
ENDBRANCH  37  38
ENDBRANCH  36  37
ENDBRANCH  35  36
ENDBRANCH   1  35
TORSDOF 25
ENDMDL
MODEL 2
REMARK VINA RESULT:      -9.7      5.080     11.266
REMARK SMILES O=C(CNC(=O)N1CC(OCCOCCOCCOC(=O)c2ccc(-c3c4nc(c(-c5cc(S(=O)(=O)[O-])ccc5F)c5ccc([nH]5)c(-c5cc(S(=O)(=O)[O-])ccc5F)c5nc(c(-c6cc(S(=O)(=O)[O-])ccc6F)c6ccc3[nH]6)C=C5)C=C4)cc2)=Nc2ccccc21)N[C@H](C(=O)[O-])c1ccccc1
REMARK SMILES IDX 14 1 13 2 12 3 11 4 10 5 9 6 7 7 8 8 91 9 86 10 90 11 85 12
REMARK SMILES IDX 87 13 89 14 88 15 5 16 4 17 6 19 3 20 2 21 1 22 92 23 93 25
REMARK SMILES IDX 97 26 98 27 102 28 99 29 101 30 100 31 94 32 95 33 96 34
REMARK SMILES IDX 15 35 16 36 17 37 18 38 19 39 20 40 21 41 22 42 23 43 84 44
REMARK SMILES IDX 24 45 83 46 25 47 26 48 27 49 77 50 28 51 82 52 76 53 78 54
REMARK SMILES IDX 29 55 81 56 75 57 74 58 30 60 62 61 42 62 61 63 43 64 46 65
REMARK SMILES IDX 60 66 79 67 44 68 45 69 59 71 80 72 47 73 31 74 32 75 40 76
REMARK SMILES IDX 33 77 39 78 41 79 38 80 34 81 35 82 36 83 37 84 63 85 64 86
REMARK SMILES IDX 72 87 65 88 71 89 73 90 70 91 66 92 67 93 68 94 69 95 48 96
REMARK SMILES IDX 49 97 57 98 50 99 56 100 58 101 55 102 51 103 52 104 53 105
REMARK SMILES IDX 54 106
REMARK H PARENT 4 18 92 24 78 59 46 70
REMARK Flexibility Score: inf
ROOT
ATOM      1  C   UNL A   1      38.187  33.891  40.855  1.00  0.00     0.188 C 
ENDROOT
BRANCH   1   2
ATOM      2  O   UNL A   1      37.536  32.663  41.177  1.00  0.00    -0.376 OA
BRANCH   2   3
ATOM      3  C   UNL A   1      37.448  31.661  40.183  1.00  0.00     0.201 C 
BRANCH   3   4
ATOM      4  C   UNL A   1      37.577  32.160  38.740  1.00  0.00     0.259 C 
BRANCH   4   5
ATOM      5  O   UNL A   1      37.456  31.141  37.724  1.00  0.00    -0.477 OA
BRANCH   5   6
ATOM      6  C   UNL A   1      38.111  31.354  36.553  1.00  0.00     0.209 C 
ATOM      7  N   UNL A   1      37.874  32.816  34.584  1.00  0.00    -0.283 N 
ATOM      8  C   UNL A   1      37.986  32.768  36.043  1.00  0.00     0.224 C 
ATOM      9  C   UNL A   1      38.679  31.842  33.893  1.00  0.00     0.072 A 
ATOM     10  C   UNL A   1      39.130  30.695  34.611  1.00  0.00     0.091 A 
ATOM     11  C   UNL A   1      39.070  31.978  32.559  1.00  0.00     0.029 A 
ATOM     12  N   UNL A   1      38.757  30.422  35.940  1.00  0.00    -0.214 NA
ATOM     13  C   UNL A   1      39.856  29.690  33.963  1.00  0.00     0.030 A 
ATOM     14  C   UNL A   1      39.827  30.974  31.934  1.00  0.00     0.002 A 
ATOM     15  C   UNL A   1      40.200  29.824  32.625  1.00  0.00     0.002 A 
BRANCH   7  16
ATOM     16  C   UNL A   1      37.336  33.981  34.078  1.00  0.00     0.322 C 
ATOM     17  N   UNL A   1      36.168  33.987  33.387  1.00  0.00    -0.329 N 
ATOM     18  H   UNL A   1      35.924  34.860  33.000  1.00  0.00     0.165 HD
ATOM     19  O   UNL A   1      37.819  35.082  34.365  1.00  0.00    -0.248 OA
BRANCH  17  20
ATOM     20  C   UNL A   1      35.215  32.922  33.121  1.00  0.00     0.218 C 
BRANCH  20  21
ATOM     21  C   UNL A   1      34.801  32.595  31.658  1.00  0.00     0.240 C 
ATOM     22  O   UNL A   1      34.115  33.404  31.038  1.00  0.00    -0.273 OA
ATOM     23  N   UNL A   1      35.456  31.517  31.094  1.00  0.00    -0.342 N 
ATOM     24  H   UNL A   1      35.546  30.689  31.617  1.00  0.00     0.164 HD
BRANCH  23  25
ATOM     25  C   UNL A   1      36.033  31.565  29.715  1.00  0.00     0.158 C 
BRANCH  25  26
ATOM     26  C   UNL A   1      37.070  30.460  29.487  1.00  0.00    -0.020 A 
ATOM     27  C   UNL A   1      38.138  30.604  28.590  1.00  0.00     0.006 A 
ATOM     28  C   UNL A   1      37.020  29.299  30.279  1.00  0.00     0.006 A 
ATOM     29  C   UNL A   1      39.119  29.617  28.479  1.00  0.00     0.000 A 
ATOM     30  C   UNL A   1      37.988  28.303  30.155  1.00  0.00     0.000 A 
ATOM     31  C   UNL A   1      39.038  28.464  29.253  1.00  0.00     0.000 A 
ENDBRANCH  25  26
BRANCH  25  32
ATOM     32  C   UNL A   1      35.158  31.845  28.437  1.00  0.00     0.068 C 
ATOM     33  O   UNL A   1      35.606  32.769  27.673  1.00  0.00    -0.548 OA
ATOM     34  O   UNL A   1      34.215  31.035  28.200  1.00  0.00    -0.548 OA
ENDBRANCH  25  32
ENDBRANCH  23  25
ENDBRANCH  20  21
ENDBRANCH  17  20
ENDBRANCH   7  16
ENDBRANCH   5   6
ENDBRANCH   4   5
ENDBRANCH   3   4
ENDBRANCH   2   3
ENDBRANCH   1   2
BRANCH   1  35
ATOM     35  C   UNL A   1      39.011  34.601  41.921  1.00  0.00     0.188 C 
BRANCH  35  36
ATOM     36  O   UNL A   1      40.297  33.986  42.002  1.00  0.00    -0.376 OA
BRANCH  36  37
ATOM     37  C   UNL A   1      41.163  34.300  40.917  1.00  0.00     0.202 C 
BRANCH  37  38
ATOM     38  C   UNL A   1      41.672  35.761  40.791  1.00  0.00     0.261 C 
BRANCH  38  39
ATOM     39  O   UNL A   1      42.197  36.344  39.569  1.00  0.00    -0.460 OA
BRANCH  39  40
ATOM     40  C   UNL A   1      43.433  35.965  39.214  1.00  0.00     0.338 C 
ATOM     41  O   UNL A   1      44.344  35.764  40.011  1.00  0.00    -0.246 OA
BRANCH  40  42
ATOM     42  C   UNL A   1      43.615  35.495  37.833  1.00  0.00     0.060 A 
ATOM     43  C   UNL A   1      42.436  35.259  37.127  1.00  0.00     0.016 A 
ATOM     44  C   UNL A   1      44.814  34.960  37.362  1.00  0.00     0.016 A 
ATOM     45  C   UNL A   1      42.421  34.386  36.053  1.00  0.00     0.010 A 
ATOM     46  C   UNL A   1      44.810  34.175  36.189  1.00  0.00     0.010 A 
ATOM     47  C   UNL A   1      43.604  33.858  35.534  1.00  0.00    -0.014 A 
BRANCH  47  48
ATOM     48  C   UNL A   1      43.516  32.982  34.327  1.00  0.00     0.031 A 
ATOM     49  C   UNL A   1      43.389  31.489  34.462  1.00  0.00     0.074 A 
ATOM     50  C   UNL A   1      43.451  33.546  33.100  1.00  0.00     0.049 A 
ATOM     51  N   UNL A   1      43.506  30.571  33.535  1.00  0.00    -0.248 NA
ATOM     52  C   UNL A   1      43.095  30.958  35.801  1.00  0.00     0.031 C 
ATOM     53  C   UNL A   1      43.447  34.988  32.839  1.00  0.00     0.029 A 
ATOM     54  N   UNL A   1      43.335  32.995  31.845  1.00  0.00    -0.354 N 
ATOM     55  C   UNL A   1      43.388  29.349  34.190  1.00  0.00     0.074 A 
ATOM     56  C   UNL A   1      43.144  29.648  35.588  1.00  0.00     0.031 C 
ATOM     57  C   UNL A   1      43.245  35.205  31.532  1.00  0.00     0.029 A 
ATOM     58  C   UNL A   1      43.275  33.930  30.833  1.00  0.00     0.049 A 
ATOM     59  H   UNL A   1      43.301  32.025  31.685  1.00  0.00     0.167 HD
ATOM     60  C   UNL A   1      43.514  28.103  33.665  1.00  0.00     0.034 A 
ATOM     61  C   UNL A   1      43.319  33.793  29.492  1.00  0.00     0.034 A 
ATOM     62  C   UNL A   1      43.726  27.850  32.254  1.00  0.00     0.049 A 
ATOM     63  C   UNL A   1      43.520  32.407  28.939  1.00  0.00     0.074 A 
ATOM     64  C   UNL A   1      43.934  26.642  31.611  1.00  0.00     0.029 A 
ATOM     65  N   UNL A   1      43.741  28.828  31.263  1.00  0.00    -0.354 N 
ATOM     66  N   UNL A   1      43.581  31.263  29.581  1.00  0.00    -0.248 NA
ATOM     67  C   UNL A   1      43.706  32.295  27.488  1.00  0.00     0.031 C 
ATOM     68  C   UNL A   1      44.139  26.894  30.249  1.00  0.00     0.029 A 
ATOM     69  C   UNL A   1      43.977  28.251  30.022  1.00  0.00     0.049 A 
ATOM     70  H   UNL A   1      43.604  29.790  31.420  1.00  0.00     0.167 HD
ATOM     71  C   UNL A   1      43.821  30.296  28.613  1.00  0.00     0.074 A 
ATOM     72  C   UNL A   1      43.848  30.986  27.338  1.00  0.00     0.031 C 
ATOM     73  C   UNL A   1      44.022  28.961  28.762  1.00  0.00     0.034 A 
BRANCH  60  74
ATOM     74  C   UNL A   1      43.562  26.938  34.629  1.00  0.00     0.023 A 
ATOM     75  C   UNL A   1      44.756  26.441  35.180  1.00  0.00     0.031 A 
ATOM     76  C   UNL A   1      42.359  26.300  34.992  1.00  0.00     0.131 A 
ATOM     77  C   UNL A   1      44.723  25.315  36.025  1.00  0.00     0.055 A 
ATOM     78  C   UNL A   1      42.327  25.217  35.872  1.00  0.00     0.041 A 
ATOM     79  F   UNL A   1      41.185  26.722  34.494  1.00  0.00    -0.206 F 
ATOM     80  C   UNL A   1      43.515  24.711  36.384  1.00  0.00     0.022 A 
BRANCH  77  81
ATOM     81  S   UNL A   1      46.286  24.590  36.601  1.00  0.00     0.124 S 
ATOM     82  O   UNL A   1      45.831  23.365  37.246  1.00  0.00    -0.237 OA
ATOM     83  O   UNL A   1      47.032  24.423  35.357  1.00  0.00    -0.237 OA
ATOM     84  O   UNL A   1      46.823  25.606  37.506  1.00  0.00    -0.744 OA
ENDBRANCH  77  81
ENDBRANCH  60  74
BRANCH  61  85
ATOM     85  C   UNL A   1      43.302  34.990  28.592  1.00  0.00     0.023 A 
ATOM     86  C   UNL A   1      44.492  35.568  28.118  1.00  0.00     0.031 A 
ATOM     87  C   UNL A   1      42.090  35.608  28.225  1.00  0.00     0.131 A 
ATOM     88  C   UNL A   1      44.445  36.734  27.334  1.00  0.00     0.055 A 
ATOM     89  C   UNL A   1      42.044  36.716  27.380  1.00  0.00     0.041 A 
ATOM     90  F   UNL A   1      40.917  35.130  28.671  1.00  0.00    -0.206 F 
ATOM     91  C   UNL A   1      43.228  37.294  26.939  1.00  0.00     0.022 A 
BRANCH  88  92
ATOM     92  S   UNL A   1      45.996  37.584  26.929  1.00  0.00     0.124 S 
ATOM     93  O   UNL A   1      46.526  36.745  25.861  1.00  0.00    -0.237 OA
ATOM     94  O   UNL A   1      45.528  38.908  26.533  1.00  0.00    -0.237 OA
ATOM     95  O   UNL A   1      46.746  37.541  28.183  1.00  0.00    -0.744 OA
ENDBRANCH  88  92
ENDBRANCH  61  85
BRANCH  73  96
ATOM     96  C   UNL A   1      44.250  28.172  27.497  1.00  0.00     0.023 A 
ATOM     97  C   UNL A   1      45.487  28.189  26.826  1.00  0.00     0.031 A 
ATOM     98  C   UNL A   1      43.201  27.425  26.935  1.00  0.00     0.131 A 
ATOM     99  C   UNL A   1      45.624  27.521  25.599  1.00  0.00     0.055 A 
ATOM    100  C   UNL A   1      43.362  26.712  25.746  1.00  0.00     0.041 A 
ATOM    101  F   UNL A   1      41.997  27.382  27.528  1.00  0.00    -0.206 F 
ATOM    102  C   UNL A   1      44.574  26.769  25.064  1.00  0.00     0.022 A 
BRANCH  99 103
ATOM    103  S   UNL A   1      47.158  27.731  24.652  1.00  0.00     0.124 S 
ATOM    104  O   UNL A   1      48.058  28.300  25.650  1.00  0.00    -0.237 OA
ATOM    105  O   UNL A   1      47.456  26.366  24.228  1.00  0.00    -0.237 OA
ATOM    106  O   UNL A   1      46.776  28.642  23.573  1.00  0.00    -0.744 OA
ENDBRANCH  99 103
ENDBRANCH  73  96
ENDBRANCH  47  48
ENDBRANCH  40  42
ENDBRANCH  39  40
ENDBRANCH  38  39
ENDBRANCH  37  38
ENDBRANCH  36  37
ENDBRANCH  35  36
ENDBRANCH   1  35
TORSDOF 25
ENDMDL
MODEL 3
REMARK VINA RESULT:      -9.3      4.001      5.146
REMARK SMILES O=C(CNC(=O)N1CC(OCCOCCOCCOC(=O)c2ccc(-c3c4nc(c(-c5cc(S(=O)(=O)[O-])ccc5F)c5ccc([nH]5)c(-c5cc(S(=O)(=O)[O-])ccc5F)c5nc(c(-c6cc(S(=O)(=O)[O-])ccc6F)c6ccc3[nH]6)C=C5)C=C4)cc2)=Nc2ccccc21)N[C@H](C(=O)[O-])c1ccccc1
REMARK SMILES IDX 14 1 13 2 12 3 11 4 10 5 9 6 7 7 8 8 91 9 86 10 90 11 85 12
REMARK SMILES IDX 87 13 89 14 88 15 5 16 4 17 6 19 3 20 2 21 1 22 92 23 93 25
REMARK SMILES IDX 97 26 98 27 102 28 99 29 101 30 100 31 94 32 95 33 96 34
REMARK SMILES IDX 15 35 16 36 17 37 18 38 19 39 20 40 21 41 22 42 23 43 84 44
REMARK SMILES IDX 24 45 83 46 25 47 26 48 27 49 77 50 28 51 82 52 76 53 78 54
REMARK SMILES IDX 29 55 81 56 75 57 74 58 30 60 62 61 42 62 61 63 43 64 46 65
REMARK SMILES IDX 60 66 79 67 44 68 45 69 59 71 80 72 47 73 31 74 32 75 40 76
REMARK SMILES IDX 33 77 39 78 41 79 38 80 34 81 35 82 36 83 37 84 63 85 64 86
REMARK SMILES IDX 72 87 65 88 71 89 73 90 70 91 66 92 67 93 68 94 69 95 48 96
REMARK SMILES IDX 49 97 57 98 50 99 56 100 58 101 55 102 51 103 52 104 53 105
REMARK SMILES IDX 54 106
REMARK H PARENT 4 18 92 24 78 59 46 70
REMARK Flexibility Score: inf
ROOT
ATOM      1  C   UNL A   1      33.343  21.744  26.949  1.00  0.00     0.188 C 
ENDROOT
BRANCH   1   2
ATOM      2  O   UNL A   1      32.615  22.942  27.218  1.00  0.00    -0.376 OA
BRANCH   2   3
ATOM      3  C   UNL A   1      31.208  22.927  27.074  1.00  0.00     0.201 C 
BRANCH   3   4
ATOM      4  C   UNL A   1      30.620  24.109  26.297  1.00  0.00     0.259 C 
BRANCH   4   5
ATOM      5  O   UNL A   1      30.989  25.414  26.790  1.00  0.00    -0.477 OA
BRANCH   5   6
ATOM      6  C   UNL A   1      31.795  26.170  25.999  1.00  0.00     0.209 C 
ATOM      7  N   UNL A   1      32.057  28.553  25.429  1.00  0.00    -0.283 N 
ATOM      8  C   UNL A   1      32.000  27.572  26.515  1.00  0.00     0.224 C 
ATOM      9  C   UNL A   1      32.729  28.088  24.243  1.00  0.00     0.072 A 
ATOM     10  C   UNL A   1      32.871  26.682  24.044  1.00  0.00     0.091 A 
ATOM     11  C   UNL A   1      33.280  28.945  23.288  1.00  0.00     0.029 A 
ATOM     12  N   UNL A   1      32.311  25.721  24.906  1.00  0.00    -0.214 NA
ATOM     13  C   UNL A   1      33.454  26.185  22.874  1.00  0.00     0.030 A 
ATOM     14  C   UNL A   1      33.892  28.428  22.136  1.00  0.00     0.002 A 
ATOM     15  C   UNL A   1      33.959  27.054  21.917  1.00  0.00     0.002 A 
BRANCH   7  16
ATOM     16  C   UNL A   1      31.811  29.856  25.806  1.00  0.00     0.322 C 
ATOM     17  N   UNL A   1      32.650  30.530  26.633  1.00  0.00    -0.329 N 
ATOM     18  H   UNL A   1      32.332  31.423  26.902  1.00  0.00     0.165 HD
ATOM     19  O   UNL A   1      30.900  30.508  25.285  1.00  0.00    -0.248 OA
BRANCH  17  20
ATOM     20  C   UNL A   1      33.941  30.157  27.189  1.00  0.00     0.218 C 
BRANCH  20  21
ATOM     21  C   UNL A   1      34.770  31.196  27.996  1.00  0.00     0.240 C 
ATOM     22  O   UNL A   1      34.245  32.260  28.315  1.00  0.00    -0.273 OA
ATOM     23  N   UNL A   1      35.965  30.721  28.502  1.00  0.00    -0.342 N 
ATOM     24  H   UNL A   1      36.554  30.195  27.915  1.00  0.00     0.164 HD
BRANCH  23  25
ATOM     25  C   UNL A   1      36.395  30.979  29.911  1.00  0.00     0.158 C 
BRANCH  25  26
ATOM     26  C   UNL A   1      37.123  29.776  30.519  1.00  0.00    -0.020 A 
ATOM     27  C   UNL A   1      37.885  28.889  29.745  1.00  0.00     0.006 A 
ATOM     28  C   UNL A   1      37.122  29.606  31.915  1.00  0.00     0.006 A 
ATOM     29  C   UNL A   1      38.615  27.860  30.343  1.00  0.00     0.000 A 
ATOM     30  C   UNL A   1      37.835  28.566  32.513  1.00  0.00     0.000 A 
ATOM     31  C   UNL A   1      38.582  27.693  31.725  1.00  0.00     0.000 A 
ENDBRANCH  25  26
BRANCH  25  32
ATOM     32  C   UNL A   1      37.008  32.353  30.374  1.00  0.00     0.068 C 
ATOM     33  O   UNL A   1      38.206  32.564  29.978  1.00  0.00    -0.548 OA
ATOM     34  O   UNL A   1      36.221  33.173  30.930  1.00  0.00    -0.548 OA
ENDBRANCH  25  32
ENDBRANCH  23  25
ENDBRANCH  20  21
ENDBRANCH  17  20
ENDBRANCH   7  16
ENDBRANCH   5   6
ENDBRANCH   4   5
ENDBRANCH   3   4
ENDBRANCH   2   3
ENDBRANCH   1   2
BRANCH   1  35
ATOM     35  C   UNL A   1      34.070  21.596  25.619  1.00  0.00     0.188 C 
BRANCH  35  36
ATOM     36  O   UNL A   1      35.478  21.611  25.854  1.00  0.00    -0.376 OA
BRANCH  36  37
ATOM     37  C   UNL A   1      36.209  20.665  25.081  1.00  0.00     0.202 C 
BRANCH  37  38
ATOM     38  C   UNL A   1      37.751  20.821  25.007  1.00  0.00     0.261 C 
BRANCH  38  39
ATOM     39  O   UNL A   1      38.598  21.142  26.141  1.00  0.00    -0.460 OA
BRANCH  39  40
ATOM     40  C   UNL A   1      39.872  20.729  26.066  1.00  0.00     0.338 C 
ATOM     41  O   UNL A   1      40.210  19.614  25.679  1.00  0.00    -0.246 OA
BRANCH  40  42
ATOM     42  C   UNL A   1      40.914  21.760  26.180  1.00  0.00     0.060 A 
ATOM     43  C   UNL A   1      42.217  21.276  26.295  1.00  0.00     0.016 A 
ATOM     44  C   UNL A   1      40.642  23.082  26.529  1.00  0.00     0.016 A 
ATOM     45  C   UNL A   1      43.205  22.046  26.884  1.00  0.00     0.010 A 
ATOM     46  C   UNL A   1      41.686  23.903  27.007  1.00  0.00     0.010 A 
ATOM     47  C   UNL A   1      42.978  23.383  27.214  1.00  0.00    -0.014 A 
BRANCH  47  48
ATOM     48  C   UNL A   1      44.114  24.173  27.776  1.00  0.00     0.031 A 
ATOM     49  C   UNL A   1      44.364  24.223  29.259  1.00  0.00     0.074 A 
ATOM     50  C   UNL A   1      44.989  24.772  26.936  1.00  0.00     0.049 A 
ATOM     51  N   UNL A   1      45.167  25.013  29.928  1.00  0.00    -0.248 NA
ATOM     52  C   UNL A   1      43.621  23.270  30.098  1.00  0.00     0.031 C 
ATOM     53  C   UNL A   1      44.926  24.703  25.473  1.00  0.00     0.029 A 
ATOM     54  N   UNL A   1      46.119  25.519  27.172  1.00  0.00    -0.354 N 
ATOM     55  C   UNL A   1      44.964  24.714  31.272  1.00  0.00     0.074 A 
ATOM     56  C   UNL A   1      43.993  23.638  31.318  1.00  0.00     0.031 C 
ATOM     57  C   UNL A   1      46.009  25.295  24.952  1.00  0.00     0.029 A 
ATOM     58  C   UNL A   1      46.758  25.935  26.023  1.00  0.00     0.049 A 
ATOM     59  H   UNL A   1      46.441  25.737  28.076  1.00  0.00     0.167 HD
ATOM     60  C   UNL A   1      45.514  25.320  32.355  1.00  0.00     0.034 A 
ATOM     61  C   UNL A   1      47.779  26.795  25.835  1.00  0.00     0.034 A 
ATOM     62  C   UNL A   1      46.507  26.372  32.262  1.00  0.00     0.049 A 
ATOM     63  C   UNL A   1      48.331  27.498  27.046  1.00  0.00     0.074 A 
ATOM     64  C   UNL A   1      47.090  27.108  33.280  1.00  0.00     0.029 A 
ATOM     65  N   UNL A   1      47.075  26.829  31.076  1.00  0.00    -0.354 N 
ATOM     66  N   UNL A   1      48.012  27.337  28.310  1.00  0.00    -0.248 NA
ATOM     67  C   UNL A   1      49.344  28.532  26.807  1.00  0.00     0.031 C 
ATOM     68  C   UNL A   1      47.957  28.047  32.708  1.00  0.00     0.029 A 
ATOM     69  C   UNL A   1      47.982  27.847  31.337  1.00  0.00     0.049 A 
ATOM     70  H   UNL A   1      46.863  26.479  30.180  1.00  0.00     0.167 HD
ATOM     71  C   UNL A   1      48.780  28.256  29.015  1.00  0.00     0.074 A 
ATOM     72  C   UNL A   1      49.610  28.935  28.040  1.00  0.00     0.031 C 
ATOM     73  C   UNL A   1      48.786  28.529  30.346  1.00  0.00     0.034 A 
BRANCH  60  74
ATOM     74  C   UNL A   1      44.962  24.960  33.717  1.00  0.00     0.023 A 
ATOM     75  C   UNL A   1      43.777  25.506  34.239  1.00  0.00     0.031 A 
ATOM     76  C   UNL A   1      45.668  24.041  34.520  1.00  0.00     0.131 A 
ATOM     77  C   UNL A   1      43.359  25.163  35.539  1.00  0.00     0.055 A 
ATOM     78  C   UNL A   1      45.221  23.664  35.787  1.00  0.00     0.041 A 
ATOM     79  F   UNL A   1      46.811  23.489  34.082  1.00  0.00    -0.206 F 
ATOM     80  C   UNL A   1      44.067  24.235  36.309  1.00  0.00     0.022 A 
BRANCH  77  81
ATOM     81  S   UNL A   1      41.914  25.997  36.257  1.00  0.00     0.124 S 
ATOM     82  O   UNL A   1      42.538  26.991  37.121  1.00  0.00    -0.237 OA
ATOM     83  O   UNL A   1      41.229  26.510  35.075  1.00  0.00    -0.237 OA
ATOM     84  O   UNL A   1      41.210  24.921  36.956  1.00  0.00    -0.744 OA
ENDBRANCH  77  81
ENDBRANCH  60  74
BRANCH  61  85
ATOM     85  C   UNL A   1      48.257  27.138  24.457  1.00  0.00     0.023 A 
ATOM     86  C   UNL A   1      49.572  26.857  24.045  1.00  0.00     0.031 A 
ATOM     87  C   UNL A   1      47.417  27.798  23.538  1.00  0.00     0.131 A 
ATOM     88  C   UNL A   1      50.010  27.257  22.771  1.00  0.00     0.055 A 
ATOM     89  C   UNL A   1      47.832  28.119  22.246  1.00  0.00     0.041 A 
ATOM     90  F   UNL A   1      46.161  28.129  23.877  1.00  0.00    -0.206 F 
ATOM     91  C   UNL A   1      49.141  27.859  21.859  1.00  0.00     0.022 A 
BRANCH  88  92
ATOM     92  S   UNL A   1      51.768  27.086  22.354  1.00  0.00     0.124 S 
ATOM     93  O   UNL A   1      51.708  26.307  21.122  1.00  0.00    -0.237 OA
ATOM     94  O   UNL A   1      52.188  28.476  22.215  1.00  0.00    -0.237 OA
ATOM     95  O   UNL A   1      52.326  26.383  23.508  1.00  0.00    -0.744 OA
ENDBRANCH  88  92
ENDBRANCH  61  85
BRANCH  73  96
ATOM     96  C   UNL A   1      49.755  29.589  30.808  1.00  0.00     0.023 A 
ATOM     97  C   UNL A   1      51.094  29.284  31.118  1.00  0.00     0.031 A 
ATOM     98  C   UNL A   1      49.320  30.914  30.980  1.00  0.00     0.131 A 
ATOM     99  C   UNL A   1      51.933  30.280  31.640  1.00  0.00     0.055 A 
ATOM    100  C   UNL A   1      50.177  31.914  31.441  1.00  0.00     0.041 A 
ATOM    101  F   UNL A   1      48.050  31.257  30.710  1.00  0.00    -0.206 F 
ATOM    102  C   UNL A   1      51.487  31.597  31.787  1.00  0.00     0.022 A 
BRANCH  99 103
ATOM    103  S   UNL A   1      53.586  29.816  32.227  1.00  0.00     0.124 S 
ATOM    104  O   UNL A   1      54.115  29.067  31.091  1.00  0.00    -0.237 OA
ATOM    105  O   UNL A   1      54.207  31.112  32.480  1.00  0.00    -0.237 OA
ATOM    106  O   UNL A   1      53.317  29.017  33.422  1.00  0.00    -0.744 OA
ENDBRANCH  99 103
ENDBRANCH  73  96
ENDBRANCH  47  48
ENDBRANCH  40  42
ENDBRANCH  39  40
ENDBRANCH  38  39
ENDBRANCH  37  38
ENDBRANCH  36  37
ENDBRANCH  35  36
ENDBRANCH   1  35
TORSDOF 25
ENDMDL
