MODEL 1
REMARK VINA RESULT:      -9.7      0.000      0.000
REMARK SMILES O=C(N[C@@H](CS)C(=O)N[C@@H](CO)C(=O)OCCOCCOCCOC(=O)c1ccc(-c2c3nc(c(-c4cc(S(=O)(=O)[O-])ccc4F)c4ccc([nH]4)c(-c4cc(S(=O)(=O)[O-])ccc4F)c4nc(c(-c5cc(S(=O)(=O)[O-])ccc5F)c5ccc2[nH]5)C=C4)C=C3)cc1)c1ccc(F)cc1
REMARK SMILES IDX 19 1 18 2 17 3 16 4 15 5 13 6 14 7 10 8 9 9 7 10 8 11 4 13
REMARK SMILES IDX 3 14 1 15 2 16 90 18 91 19 96 20 92 21 95 22 93 23 94 24
REMARK SMILES IDX 5 25 6 26 11 28 12 29 20 31 21 32 22 33 23 34 24 35 25 36
REMARK SMILES IDX 26 37 27 38 28 39 89 40 29 41 88 42 30 43 31 44 32 45 82 46
REMARK SMILES IDX 33 47 87 48 81 49 83 50 34 51 86 52 80 53 79 54 35 56 67 57
REMARK SMILES IDX 47 58 66 59 48 60 51 61 65 62 84 63 49 64 50 65 64 67 85 68
REMARK SMILES IDX 52 69 36 70 37 71 45 72 38 73 44 74 46 75 43 76 39 77 40 78
REMARK SMILES IDX 41 79 42 80 68 81 69 82 77 83 70 84 76 85 78 86 75 87 71 88
REMARK SMILES IDX 72 89 73 90 74 91 53 92 54 93 62 94 55 95 61 96 63 97 60 98
REMARK SMILES IDX 56 99 57 100 58 101 59 102
REMARK H PARENT 9 12 3 17 6 27 12 30 83 55 51 66
REMARK Flexibility Score: inf
ROOT
ATOM      1  C   UNL A   1      33.427  28.585  25.564  1.00  0.00     0.188 C 
ENDROOT
BRANCH   1   2
ATOM      2  O   UNL A   1      32.239  28.018  25.017  1.00  0.00    -0.376 OA
BRANCH   2   3
ATOM      3  C   UNL A   1      31.334  27.369  25.910  1.00  0.00     0.202 C 
BRANCH   3   4
ATOM      4  C   UNL A   1      30.702  26.056  25.435  1.00  0.00     0.261 C 
BRANCH   4   5
ATOM      5  O   UNL A   1      31.431  24.876  25.842  1.00  0.00    -0.462 OA
BRANCH   5   6
ATOM      6  C   UNL A   1      30.994  23.713  25.273  1.00  0.00     0.331 C 
ATOM      7  O   UNL A   1      30.693  23.604  24.088  1.00  0.00    -0.250 OA
BRANCH   6   8
ATOM      8  C   UNL A   1      30.890  22.534  26.269  1.00  0.00     0.218 C 
BRANCH   8   9
ATOM      9  N   UNL A   1      32.076  22.285  27.098  1.00  0.00    -0.339 N 
ATOM     10  C   UNL A   1      33.190  21.530  26.947  1.00  0.00     0.244 C 
ATOM     11  O   UNL A   1      33.969  21.537  27.909  1.00  0.00    -0.273 OA
ATOM     12  H   UNL A   1      32.058  22.775  27.952  1.00  0.00     0.164 HD
BRANCH  10  13
ATOM     13  C   UNL A   1      33.579  20.735  25.679  1.00  0.00     0.181 C 
BRANCH  13  14
ATOM     14  N   UNL A   1      34.998  20.762  25.337  1.00  0.00    -0.339 N 
ATOM     15  O   UNL A   1      36.857  21.482  24.297  1.00  0.00    -0.269 OA
ATOM     16  C   UNL A   1      35.681  21.692  24.584  1.00  0.00     0.251 C 
ATOM     17  H   UNL A   1      35.537  20.017  25.690  1.00  0.00     0.164 HD
BRANCH  16  18
ATOM     18  C   UNL A   1      35.018  22.925  24.091  1.00  0.00     0.040 A 
ATOM     19  C   UNL A   1      34.290  22.938  22.891  1.00  0.00     0.017 A 
ATOM     20  C   UNL A   1      35.070  24.079  24.885  1.00  0.00     0.017 A 
ATOM     21  C   UNL A   1      33.684  24.119  22.456  1.00  0.00     0.040 A 
ATOM     22  C   UNL A   1      34.447  25.254  24.452  1.00  0.00     0.040 A 
ATOM     23  C   UNL A   1      33.770  25.265  23.238  1.00  0.00     0.123 A 
ATOM     24  F   UNL A   1      33.174  26.389  22.823  1.00  0.00    -0.207 F 
ENDBRANCH  16  18
ENDBRANCH  13  14
BRANCH  13  25
ATOM     25  C   UNL A   1      32.906  19.359  25.547  1.00  0.00     0.101 C 
BRANCH  25  26
ATOM     26  S   UNL A   1      33.584  18.184  24.343  1.00  0.00    -0.177 SA
ATOM     27  H   UNL A   1      34.763  18.659  23.859  1.00  0.00     0.102 HD
ENDBRANCH  25  26
ENDBRANCH  13  25
ENDBRANCH  10  13
ENDBRANCH   8   9
BRANCH   8  28
ATOM     28  C   UNL A   1      29.677  22.791  27.171  1.00  0.00     0.193 C 
BRANCH  28  29
ATOM     29  O   UNL A   1      28.689  21.770  27.011  1.00  0.00    -0.394 OA
ATOM     30  H   UNL A   1      29.116  20.952  26.712  1.00  0.00     0.210 HD
ENDBRANCH  28  29
ENDBRANCH   8  28
ENDBRANCH   6   8
ENDBRANCH   5   6
ENDBRANCH   4   5
ENDBRANCH   3   4
ENDBRANCH   2   3
ENDBRANCH   1   2
BRANCH   1  31
ATOM     31  C   UNL A   1      33.326  29.996  26.170  1.00  0.00     0.188 C 
BRANCH  31  32
ATOM     32  O   UNL A   1      32.137  30.680  25.831  1.00  0.00    -0.376 OA
BRANCH  32  33
ATOM     33  C   UNL A   1      31.526  31.458  26.846  1.00  0.00     0.202 C 
BRANCH  33  34
ATOM     34  C   UNL A   1      31.729  32.982  26.816  1.00  0.00     0.261 C 
BRANCH  34  35
ATOM     35  O   UNL A   1      33.083  33.432  27.004  1.00  0.00    -0.460 OA
BRANCH  35  36
ATOM     36  C   UNL A   1      33.391  33.973  28.206  1.00  0.00     0.338 C 
ATOM     37  O   UNL A   1      32.722  34.757  28.849  1.00  0.00    -0.246 OA
BRANCH  36  38
ATOM     38  C   UNL A   1      34.626  33.315  28.690  1.00  0.00     0.060 A 
ATOM     39  C   UNL A   1      34.510  32.130  29.424  1.00  0.00     0.016 A 
ATOM     40  C   UNL A   1      35.883  33.872  28.446  1.00  0.00     0.016 A 
ATOM     41  C   UNL A   1      35.653  31.494  29.912  1.00  0.00     0.010 A 
ATOM     42  C   UNL A   1      37.029  33.243  28.958  1.00  0.00     0.010 A 
ATOM     43  C   UNL A   1      36.919  32.056  29.705  1.00  0.00    -0.014 A 
BRANCH  43  44
ATOM     44  C   UNL A   1      38.087  31.510  30.445  1.00  0.00     0.031 A 
ATOM     45  C   UNL A   1      38.928  30.461  29.769  1.00  0.00     0.074 A 
ATOM     46  C   UNL A   1      38.446  31.976  31.655  1.00  0.00     0.049 A 
ATOM     47  N   UNL A   1      39.939  29.774  30.233  1.00  0.00    -0.248 NA
ATOM     48  C   UNL A   1      38.580  30.157  28.373  1.00  0.00     0.031 C 
ATOM     49  C   UNL A   1      37.785  33.064  32.374  1.00  0.00     0.029 A 
ATOM     50  N   UNL A   1      39.464  31.590  32.495  1.00  0.00    -0.354 N 
ATOM     51  C   UNL A   1      40.343  28.946  29.191  1.00  0.00     0.074 A 
ATOM     52  C   UNL A   1      39.457  29.211  28.076  1.00  0.00     0.031 C 
ATOM     53  C   UNL A   1      38.409  33.251  33.551  1.00  0.00     0.029 A 
ATOM     54  C   UNL A   1      39.477  32.261  33.697  1.00  0.00     0.049 A 
ATOM     55  H   UNL A   1      40.122  30.897  32.259  1.00  0.00     0.167 HD
ATOM     56  C   UNL A   1      41.356  28.045  29.164  1.00  0.00     0.034 A 
ATOM     57  C   UNL A   1      40.235  32.070  34.798  1.00  0.00     0.034 A 
ATOM     58  C   UNL A   1      42.219  27.772  30.287  1.00  0.00     0.049 A 
ATOM     59  C   UNL A   1      41.274  30.970  34.794  1.00  0.00     0.074 A 
ATOM     60  C   UNL A   1      43.246  26.850  30.383  1.00  0.00     0.029 A 
ATOM     61  N   UNL A   1      42.150  28.417  31.515  1.00  0.00    -0.354 N 
ATOM     62  N   UNL A   1      41.609  30.150  33.824  1.00  0.00    -0.248 NA
ATOM     63  C   UNL A   1      42.031  30.766  36.037  1.00  0.00     0.031 C 
ATOM     64  C   UNL A   1      43.753  26.891  31.687  1.00  0.00     0.029 A 
ATOM     65  C   UNL A   1      43.096  27.893  32.384  1.00  0.00     0.049 A 
ATOM     66  H   UNL A   1      41.521  29.141  31.738  1.00  0.00     0.167 HD
ATOM     67  C   UNL A   1      42.633  29.353  34.335  1.00  0.00     0.074 A 
ATOM     68  C   UNL A   1      42.871  29.802  35.690  1.00  0.00     0.031 C 
ATOM     69  C   UNL A   1      43.317  28.343  33.738  1.00  0.00     0.034 A 
BRANCH  56  70
ATOM     70  C   UNL A   1      41.514  27.233  27.902  1.00  0.00     0.023 A 
ATOM     71  C   UNL A   1      41.095  25.893  27.824  1.00  0.00     0.031 A 
ATOM     72  C   UNL A   1      42.153  27.793  26.783  1.00  0.00     0.131 A 
ATOM     73  C   UNL A   1      41.390  25.137  26.679  1.00  0.00     0.055 A 
ATOM     74  C   UNL A   1      42.372  27.057  25.617  1.00  0.00     0.041 A 
ATOM     75  F   UNL A   1      42.599  29.058  26.812  1.00  0.00    -0.206 F 
ATOM     76  C   UNL A   1      42.004  25.716  25.566  1.00  0.00     0.022 A 
BRANCH  73  77
ATOM     77  S   UNL A   1      41.103  23.346  26.725  1.00  0.00     0.124 S 
ATOM     78  O   UNL A   1      39.674  23.267  26.433  1.00  0.00    -0.237 OA
ATOM     79  O   UNL A   1      41.998  22.856  25.684  1.00  0.00    -0.237 OA
ATOM     80  O   UNL A   1      41.473  22.975  28.091  1.00  0.00    -0.744 OA
ENDBRANCH  73  77
ENDBRANCH  56  70
BRANCH  57  81
ATOM     81  C   UNL A   1      39.999  32.871  36.038  1.00  0.00     0.023 A 
ATOM     82  C   UNL A   1      39.101  32.441  37.028  1.00  0.00     0.031 A 
ATOM     83  C   UNL A   1      40.609  34.128  36.204  1.00  0.00     0.131 A 
ATOM     84  C   UNL A   1      38.802  33.281  38.115  1.00  0.00     0.055 A 
ATOM     85  C   UNL A   1      40.351  34.935  37.314  1.00  0.00     0.041 A 
ATOM     86  F   UNL A   1      41.466  34.596  35.283  1.00  0.00    -0.206 F 
ATOM     87  C   UNL A   1      39.430  34.517  38.271  1.00  0.00     0.022 A 
BRANCH  84  88
ATOM     88  S   UNL A   1      37.501  32.774  39.274  1.00  0.00     0.124 S 
ATOM     89  O   UNL A   1      36.310  32.854  38.437  1.00  0.00    -0.237 OA
ATOM     90  O   UNL A   1      37.936  31.431  39.647  1.00  0.00    -0.237 OA
ATOM     91  O   UNL A   1      37.586  33.772  40.338  1.00  0.00    -0.744 OA
ENDBRANCH  84  88
ENDBRANCH  57  81
BRANCH  69  92
ATOM     92  C   UNL A   1      44.423  27.691  34.535  1.00  0.00     0.023 A 
ATOM     93  C   UNL A   1      44.193  26.560  35.337  1.00  0.00     0.031 A 
ATOM     94  C   UNL A   1      45.726  28.217  34.492  1.00  0.00     0.131 A 
ATOM     95  C   UNL A   1      45.239  26.022  36.104  1.00  0.00     0.055 A 
ATOM     96  C   UNL A   1      46.775  27.643  35.213  1.00  0.00     0.041 A 
ATOM     97  F   UNL A   1      46.003  29.297  33.743  1.00  0.00    -0.206 F 
ATOM     98  C   UNL A   1      46.531  26.547  36.034  1.00  0.00     0.022 A 
BRANCH  95  99
ATOM     99  S   UNL A   1      44.870  24.676  37.264  1.00  0.00     0.124 S 
ATOM    100  O   UNL A   1      43.569  25.077  37.790  1.00  0.00    -0.237 OA
ATOM    101  O   UNL A   1      44.873  23.504  36.394  1.00  0.00    -0.237 OA
ATOM    102  O   UNL A   1      45.972  24.738  38.223  1.00  0.00    -0.744 OA
ENDBRANCH  95  99
ENDBRANCH  69  92
ENDBRANCH  43  44
ENDBRANCH  36  38
ENDBRANCH  35  36
ENDBRANCH  34  35
ENDBRANCH  33  34
ENDBRANCH  32  33
ENDBRANCH  31  32
ENDBRANCH   1  31
TORSDOF 28
ENDMDL
MODEL 2
REMARK VINA RESULT:      -8.6      2.605      8.193
REMARK SMILES O=C(N[C@@H](CS)C(=O)N[C@@H](CO)C(=O)OCCOCCOCCOC(=O)c1ccc(-c2c3nc(c(-c4cc(S(=O)(=O)[O-])ccc4F)c4ccc([nH]4)c(-c4cc(S(=O)(=O)[O-])ccc4F)c4nc(c(-c5cc(S(=O)(=O)[O-])ccc5F)c5ccc2[nH]5)C=C4)C=C3)cc1)c1ccc(F)cc1
REMARK SMILES IDX 19 1 18 2 17 3 16 4 15 5 13 6 14 7 10 8 9 9 7 10 8 11 4 13
REMARK SMILES IDX 3 14 1 15 2 16 90 18 91 19 96 20 92 21 95 22 93 23 94 24
REMARK SMILES IDX 5 25 6 26 11 28 12 29 20 31 21 32 22 33 23 34 24 35 25 36
REMARK SMILES IDX 26 37 27 38 28 39 89 40 29 41 88 42 30 43 31 44 32 45 82 46
REMARK SMILES IDX 33 47 87 48 81 49 83 50 34 51 86 52 80 53 79 54 35 56 67 57
REMARK SMILES IDX 47 58 66 59 48 60 51 61 65 62 84 63 49 64 50 65 64 67 85 68
REMARK SMILES IDX 52 69 36 70 37 71 45 72 38 73 44 74 46 75 43 76 39 77 40 78
REMARK SMILES IDX 41 79 42 80 68 81 69 82 77 83 70 84 76 85 78 86 75 87 71 88
REMARK SMILES IDX 72 89 73 90 74 91 53 92 54 93 62 94 55 95 61 96 63 97 60 98
REMARK SMILES IDX 56 99 57 100 58 101 59 102
REMARK H PARENT 9 12 3 17 6 27 12 30 83 55 51 66
REMARK Flexibility Score: inf
ROOT
ATOM      1  C   UNL A   1      34.389  31.957  28.150  1.00  0.00     0.188 C 
ENDROOT
BRANCH   1   2
ATOM      2  O   UNL A   1      34.679  30.881  27.260  1.00  0.00    -0.376 OA
BRANCH   2   3
ATOM      3  C   UNL A   1      33.807  29.752  27.268  1.00  0.00     0.202 C 
BRANCH   3   4
ATOM      4  C   UNL A   1      32.373  29.971  26.768  1.00  0.00     0.261 C 
BRANCH   4   5
ATOM      5  O   UNL A   1      32.278  30.177  25.341  1.00  0.00    -0.462 OA
BRANCH   5   6
ATOM      6  C   UNL A   1      32.673  29.110  24.585  1.00  0.00     0.331 C 
ATOM      7  O   UNL A   1      33.827  28.931  24.206  1.00  0.00    -0.250 OA
BRANCH   6   8
ATOM      8  C   UNL A   1      31.520  28.143  24.226  1.00  0.00     0.218 C 
BRANCH   8   9
ATOM      9  N   UNL A   1      30.883  27.451  25.354  1.00  0.00    -0.339 N 
ATOM     10  C   UNL A   1      30.779  26.154  25.726  1.00  0.00     0.244 C 
ATOM     11  O   UNL A   1      30.105  25.947  26.744  1.00  0.00    -0.273 OA
ATOM     12  H   UNL A   1      30.433  28.067  25.976  1.00  0.00     0.164 HD
BRANCH  10  13
ATOM     13  C   UNL A   1      31.468  24.955  25.034  1.00  0.00     0.181 C 
BRANCH  13  14
ATOM     14  N   UNL A   1      32.923  24.917  25.152  1.00  0.00    -0.339 N 
ATOM     15  O   UNL A   1      35.045  24.702  24.443  1.00  0.00    -0.269 OA
ATOM     16  C   UNL A   1      33.863  24.850  24.146  1.00  0.00     0.251 C 
ATOM     17  H   UNL A   1      33.278  24.942  26.070  1.00  0.00     0.164 HD
BRANCH  16  18
ATOM     18  C   UNL A   1      33.472  24.926  22.717  1.00  0.00     0.040 A 
ATOM     19  C   UNL A   1      33.274  23.769  21.947  1.00  0.00     0.017 A 
ATOM     20  C   UNL A   1      33.233  26.187  22.151  1.00  0.00     0.017 A 
ATOM     21  C   UNL A   1      32.913  23.880  20.602  1.00  0.00     0.040 A 
ATOM     22  C   UNL A   1      32.856  26.290  20.809  1.00  0.00     0.040 A 
ATOM     23  C   UNL A   1      32.709  25.138  20.046  1.00  0.00     0.123 A 
ATOM     24  F   UNL A   1      32.348  25.236  18.761  1.00  0.00    -0.207 F 
ENDBRANCH  16  18
ENDBRANCH  13  14
BRANCH  13  25
ATOM     25  C   UNL A   1      30.766  23.602  25.235  1.00  0.00     0.101 C 
BRANCH  25  26
ATOM     26  S   UNL A   1      31.626  22.322  26.189  1.00  0.00    -0.177 SA
ATOM     27  H   UNL A   1      32.883  22.746  26.488  1.00  0.00     0.102 HD
ENDBRANCH  25  26
ENDBRANCH  13  25
ENDBRANCH  10  13
ENDBRANCH   8   9
BRANCH   8  28
ATOM     28  C   UNL A   1      30.465  28.942  23.450  1.00  0.00     0.193 C 
BRANCH  28  29
ATOM     29  O   UNL A   1      30.589  28.728  22.042  1.00  0.00    -0.394 OA
ATOM     30  H   UNL A   1      30.115  27.919  21.795  1.00  0.00     0.210 HD
ENDBRANCH  28  29
ENDBRANCH   8  28
ENDBRANCH   6   8
ENDBRANCH   5   6
ENDBRANCH   4   5
ENDBRANCH   3   4
ENDBRANCH   2   3
ENDBRANCH   1   2
BRANCH   1  31
ATOM     31  C   UNL A   1      35.147  33.279  27.936  1.00  0.00     0.188 C 
BRANCH  31  32
ATOM     32  O   UNL A   1      34.823  34.283  28.875  1.00  0.00    -0.376 OA
BRANCH  32  33
ATOM     33  C   UNL A   1      34.040  35.372  28.416  1.00  0.00     0.202 C 
BRANCH  33  34
ATOM     34  C   UNL A   1      33.057  36.027  29.400  1.00  0.00     0.261 C 
BRANCH  34  35
ATOM     35  O   UNL A   1      32.572  35.174  30.452  1.00  0.00    -0.460 OA
BRANCH  35  36
ATOM     36  C   UNL A   1      32.703  35.625  31.722  1.00  0.00     0.338 C 
ATOM     37  O   UNL A   1      31.949  36.369  32.316  1.00  0.00    -0.246 OA
BRANCH  36  38
ATOM     38  C   UNL A   1      33.854  34.920  32.331  1.00  0.00     0.060 A 
ATOM     39  C   UNL A   1      35.141  35.419  32.105  1.00  0.00     0.016 A 
ATOM     40  C   UNL A   1      33.671  33.766  33.095  1.00  0.00     0.016 A 
ATOM     41  C   UNL A   1      36.250  34.768  32.649  1.00  0.00     0.010 A 
ATOM     42  C   UNL A   1      34.789  33.099  33.620  1.00  0.00     0.010 A 
ATOM     43  C   UNL A   1      36.087  33.590  33.389  1.00  0.00    -0.014 A 
BRANCH  43  44
ATOM     44  C   UNL A   1      37.283  32.777  33.735  1.00  0.00     0.031 A 
ATOM     45  C   UNL A   1      38.015  33.099  35.010  1.00  0.00     0.074 A 
ATOM     46  C   UNL A   1      37.676  31.732  32.985  1.00  0.00     0.049 A 
ATOM     47  N   UNL A   1      39.124  32.596  35.487  1.00  0.00    -0.248 NA
ATOM     48  C   UNL A   1      37.398  34.124  35.866  1.00  0.00     0.031 C 
ATOM     49  C   UNL A   1      36.994  31.245  31.787  1.00  0.00     0.029 A 
ATOM     50  N   UNL A   1      38.751  30.887  33.125  1.00  0.00    -0.354 N 
ATOM     51  C   UNL A   1      39.347  33.251  36.693  1.00  0.00     0.074 A 
ATOM     52  C   UNL A   1      38.263  34.196  36.866  1.00  0.00     0.031 C 
ATOM     53  C   UNL A   1      37.674  30.193  31.295  1.00  0.00     0.029 A 
ATOM     54  C   UNL A   1      38.869  29.965  32.109  1.00  0.00     0.049 A 
ATOM     55  H   UNL A   1      39.380  30.936  33.881  1.00  0.00     0.167 HD
ATOM     56  C   UNL A   1      40.363  33.085  37.575  1.00  0.00     0.034 A 
ATOM     57  C   UNL A   1      39.848  29.072  31.846  1.00  0.00     0.034 A 
ATOM     58  C   UNL A   1      41.451  32.157  37.383  1.00  0.00     0.049 A 
ATOM     59  C   UNL A   1      41.040  28.993  32.774  1.00  0.00     0.074 A 
ATOM     60  C   UNL A   1      42.553  31.940  38.190  1.00  0.00     0.029 A 
ATOM     61  N   UNL A   1      41.577  31.296  36.301  1.00  0.00    -0.354 N 
ATOM     62  N   UNL A   1      41.274  29.659  33.882  1.00  0.00    -0.248 NA
ATOM     63  C   UNL A   1      42.104  28.046  32.411  1.00  0.00     0.031 C 
ATOM     64  C   UNL A   1      43.377  30.998  37.564  1.00  0.00     0.029 A 
ATOM     65  C   UNL A   1      42.753  30.568  36.405  1.00  0.00     0.049 A 
ATOM     66  H   UNL A   1      40.927  31.214  35.566  1.00  0.00     0.167 HD
ATOM     67  C   UNL A   1      42.498  29.191  34.357  1.00  0.00     0.074 A 
ATOM     68  C   UNL A   1      42.943  28.175  33.427  1.00  0.00     0.031 C 
ATOM     69  C   UNL A   1      43.191  29.564  35.464  1.00  0.00     0.034 A 
BRANCH  56  70
ATOM     70  C   UNL A   1      40.378  33.996  38.777  1.00  0.00     0.023 A 
ATOM     71  C   UNL A   1      39.729  33.655  39.977  1.00  0.00     0.031 A 
ATOM     72  C   UNL A   1      40.998  35.255  38.696  1.00  0.00     0.131 A 
ATOM     73  C   UNL A   1      39.649  34.594  41.017  1.00  0.00     0.055 A 
ATOM     74  C   UNL A   1      40.984  36.152  39.765  1.00  0.00     0.041 A 
ATOM     75  F   UNL A   1      41.608  35.645  37.566  1.00  0.00    -0.206 F 
ATOM     76  C   UNL A   1      40.293  35.830  40.929  1.00  0.00     0.022 A 
BRANCH  73  77
ATOM     77  S   UNL A   1      38.561  34.238  42.425  1.00  0.00     0.124 S 
ATOM     78  O   UNL A   1      39.527  33.943  43.479  1.00  0.00    -0.237 OA
ATOM     79  O   UNL A   1      37.815  35.483  42.569  1.00  0.00    -0.237 OA
ATOM     80  O   UNL A   1      37.777  33.091  41.970  1.00  0.00    -0.744 OA
ENDBRANCH  73  77
ENDBRANCH  56  70
BRANCH  57  81
ATOM     81  C   UNL A   1      39.804  28.230  30.612  1.00  0.00     0.023 A 
ATOM     82  C   UNL A   1      40.481  28.611  29.442  1.00  0.00     0.031 A 
ATOM     83  C   UNL A   1      39.006  27.073  30.563  1.00  0.00     0.131 A 
ATOM     84  C   UNL A   1      40.309  27.868  28.260  1.00  0.00     0.055 A 
ATOM     85  C   UNL A   1      38.883  26.306  29.402  1.00  0.00     0.041 A 
ATOM     86  F   UNL A   1      38.326  26.669  31.648  1.00  0.00    -0.206 F 
ATOM     87  C   UNL A   1      39.527  26.712  28.237  1.00  0.00     0.022 A 
BRANCH  84  88
ATOM     88  S   UNL A   1      41.048  28.491  26.725  1.00  0.00     0.124 S 
ATOM     89  O   UNL A   1      42.234  29.178  27.224  1.00  0.00    -0.237 OA
ATOM     90  O   UNL A   1      41.285  27.258  25.981  1.00  0.00    -0.237 OA
ATOM     91  O   UNL A   1      40.009  29.359  26.175  1.00  0.00    -0.744 OA
ENDBRANCH  84  88
ENDBRANCH  57  81
BRANCH  69  92
ATOM     92  C   UNL A   1      44.480  28.830  35.753  1.00  0.00     0.023 A 
ATOM     93  C   UNL A   1      44.492  27.554  36.342  1.00  0.00     0.031 A 
ATOM     94  C   UNL A   1      45.714  29.424  35.437  1.00  0.00     0.131 A 
ATOM     95  C   UNL A   1      45.716  26.934  36.643  1.00  0.00     0.055 A 
ATOM     96  C   UNL A   1      46.927  28.780  35.687  1.00  0.00     0.041 A 
ATOM     97  F   UNL A   1      45.763  30.643  34.875  1.00  0.00    -0.206 F 
ATOM     98  C   UNL A   1      46.933  27.533  36.305  1.00  0.00     0.022 A 
BRANCH  95  99
ATOM     99  S   UNL A   1      45.702  25.371  37.564  1.00  0.00     0.124 S 
ATOM    100  O   UNL A   1      46.724  25.607  38.579  1.00  0.00    -0.237 OA
ATOM    101  O   UNL A   1      44.326  25.305  38.047  1.00  0.00    -0.237 OA
ATOM    102  O   UNL A   1      46.051  24.374  36.553  1.00  0.00    -0.744 OA
ENDBRANCH  95  99
ENDBRANCH  69  92
ENDBRANCH  43  44
ENDBRANCH  36  38
ENDBRANCH  35  36
ENDBRANCH  34  35
ENDBRANCH  33  34
ENDBRANCH  32  33
ENDBRANCH  31  32
ENDBRANCH   1  31
TORSDOF 28
ENDMDL
MODEL 3
REMARK VINA RESULT:      -8.4      2.953      4.261
REMARK SMILES O=C(N[C@@H](CS)C(=O)N[C@@H](CO)C(=O)OCCOCCOCCOC(=O)c1ccc(-c2c3nc(c(-c4cc(S(=O)(=O)[O-])ccc4F)c4ccc([nH]4)c(-c4cc(S(=O)(=O)[O-])ccc4F)c4nc(c(-c5cc(S(=O)(=O)[O-])ccc5F)c5ccc2[nH]5)C=C4)C=C3)cc1)c1ccc(F)cc1
REMARK SMILES IDX 19 1 18 2 17 3 16 4 15 5 13 6 14 7 10 8 9 9 7 10 8 11 4 13
REMARK SMILES IDX 3 14 1 15 2 16 90 18 91 19 96 20 92 21 95 22 93 23 94 24
REMARK SMILES IDX 5 25 6 26 11 28 12 29 20 31 21 32 22 33 23 34 24 35 25 36
REMARK SMILES IDX 26 37 27 38 28 39 89 40 29 41 88 42 30 43 31 44 32 45 82 46
REMARK SMILES IDX 33 47 87 48 81 49 83 50 34 51 86 52 80 53 79 54 35 56 67 57
REMARK SMILES IDX 47 58 66 59 48 60 51 61 65 62 84 63 49 64 50 65 64 67 85 68
REMARK SMILES IDX 52 69 36 70 37 71 45 72 38 73 44 74 46 75 43 76 39 77 40 78
REMARK SMILES IDX 41 79 42 80 68 81 69 82 77 83 70 84 76 85 78 86 75 87 71 88
REMARK SMILES IDX 72 89 73 90 74 91 53 92 54 93 62 94 55 95 61 96 63 97 60 98
REMARK SMILES IDX 56 99 57 100 58 101 59 102
REMARK H PARENT 9 12 3 17 6 27 12 30 83 55 51 66
REMARK Flexibility Score: inf
ROOT
ATOM      1  C   UNL A   1      34.617  32.103  28.236  1.00  0.00     0.188 C 
ENDROOT
BRANCH   1   2
ATOM      2  O   UNL A   1      35.045  30.979  27.470  1.00  0.00    -0.376 OA
BRANCH   2   3
ATOM      3  C   UNL A   1      34.255  29.792  27.524  1.00  0.00     0.202 C 
BRANCH   3   4
ATOM      4  C   UNL A   1      32.843  29.863  26.929  1.00  0.00     0.261 C 
BRANCH   4   5
ATOM      5  O   UNL A   1      32.823  30.047  25.495  1.00  0.00    -0.462 OA
BRANCH   5   6
ATOM      6  C   UNL A   1      33.261  28.970  24.778  1.00  0.00     0.331 C 
ATOM      7  O   UNL A   1      34.427  28.810  24.428  1.00  0.00    -0.250 OA
BRANCH   6   8
ATOM      8  C   UNL A   1      32.141  27.964  24.421  1.00  0.00     0.218 C 
BRANCH   8   9
ATOM      9  N   UNL A   1      31.526  27.256  25.550  1.00  0.00    -0.339 N 
ATOM     10  C   UNL A   1      30.893  26.067  25.684  1.00  0.00     0.244 C 
ATOM     11  O   UNL A   1      30.457  25.824  26.818  1.00  0.00    -0.273 OA
ATOM     12  H   UNL A   1      31.587  27.756  26.396  1.00  0.00     0.164 HD
BRANCH  10  13
ATOM     13  C   UNL A   1      30.734  24.996  24.581  1.00  0.00     0.181 C 
BRANCH  13  14
ATOM     14  N   UNL A   1      30.596  23.623  25.058  1.00  0.00    -0.339 N 
ATOM     15  O   UNL A   1      31.245  21.515  25.492  1.00  0.00    -0.269 OA
ATOM     16  C   UNL A   1      31.572  22.658  25.188  1.00  0.00     0.251 C 
ATOM     17  H   UNL A   1      29.687  23.351  25.321  1.00  0.00     0.164 HD
BRANCH  16  18
ATOM     18  C   UNL A   1      33.003  22.968  24.942  1.00  0.00     0.040 A 
ATOM     19  C   UNL A   1      33.614  22.685  23.711  1.00  0.00     0.017 A 
ATOM     20  C   UNL A   1      33.731  23.620  25.947  1.00  0.00     0.017 A 
ATOM     21  C   UNL A   1      34.965  22.985  23.518  1.00  0.00     0.040 A 
ATOM     22  C   UNL A   1      35.079  23.933  25.742  1.00  0.00     0.040 A 
ATOM     23  C   UNL A   1      35.684  23.603  24.535  1.00  0.00     0.123 A 
ATOM     24  F   UNL A   1      36.974  23.903  24.338  1.00  0.00    -0.207 F 
ENDBRANCH  16  18
ENDBRANCH  13  14
BRANCH  13  25
ATOM     25  C   UNL A   1      29.783  25.383  23.437  1.00  0.00     0.101 C 
BRANCH  25  26
ATOM     26  S   UNL A   1      28.354  26.430  23.826  1.00  0.00    -0.177 SA
ATOM     27  H   UNL A   1      28.043  26.302  25.143  1.00  0.00     0.102 HD
ENDBRANCH  25  26
ENDBRANCH  13  25
ENDBRANCH  10  13
ENDBRANCH   8   9
BRANCH   8  28
ATOM     28  C   UNL A   1      31.061  28.726  23.642  1.00  0.00     0.193 C 
BRANCH  28  29
ATOM     29  O   UNL A   1      31.645  29.659  22.729  1.00  0.00    -0.394 OA
ATOM     30  H   UNL A   1      30.993  29.900  22.052  1.00  0.00     0.210 HD
ENDBRANCH  28  29
ENDBRANCH   8  28
ENDBRANCH   6   8
ENDBRANCH   5   6
ENDBRANCH   4   5
ENDBRANCH   3   4
ENDBRANCH   2   3
ENDBRANCH   1   2
BRANCH   1  31
ATOM     31  C   UNL A   1      35.244  33.468  27.903  1.00  0.00     0.188 C 
BRANCH  31  32
ATOM     32  O   UNL A   1      34.952  34.477  28.847  1.00  0.00    -0.376 OA
BRANCH  32  33
ATOM     33  C   UNL A   1      33.994  35.454  28.477  1.00  0.00     0.202 C 
BRANCH  33  34
ATOM     34  C   UNL A   1      32.919  35.845  29.505  1.00  0.00     0.261 C 
BRANCH  34  35
ATOM     35  O   UNL A   1      32.732  34.919  30.589  1.00  0.00    -0.460 OA
BRANCH  35  36
ATOM     36  C   UNL A   1      33.150  35.312  31.816  1.00  0.00     0.338 C 
ATOM     37  O   UNL A   1      32.538  35.992  32.614  1.00  0.00    -0.246 OA
BRANCH  36  38
ATOM     38  C   UNL A   1      34.434  34.630  32.092  1.00  0.00     0.060 A 
ATOM     39  C   UNL A   1      34.405  33.327  32.601  1.00  0.00     0.016 A 
ATOM     40  C   UNL A   1      35.655  35.273  31.875  1.00  0.00     0.016 A 
ATOM     41  C   UNL A   1      35.597  32.661  32.890  1.00  0.00     0.010 A 
ATOM     42  C   UNL A   1      36.851  34.610  32.190  1.00  0.00     0.010 A 
ATOM     43  C   UNL A   1      36.829  33.304  32.711  1.00  0.00    -0.014 A 
BRANCH  43  44
ATOM     44  C   UNL A   1      38.061  32.681  33.263  1.00  0.00     0.031 A 
ATOM     45  C   UNL A   1      38.696  31.557  32.490  1.00  0.00     0.074 A 
ATOM     46  C   UNL A   1      38.652  33.140  34.381  1.00  0.00     0.049 A 
ATOM     47  N   UNL A   1      39.717  30.802  32.801  1.00  0.00    -0.248 NA
ATOM     48  C   UNL A   1      38.096  31.256  31.182  1.00  0.00     0.031 C 
ATOM     49  C   UNL A   1      38.205  34.290  35.166  1.00  0.00     0.029 A 
ATOM     50  N   UNL A   1      39.765  32.691  35.052  1.00  0.00    -0.354 N 
ATOM     51  C   UNL A   1      39.877  29.926  31.732  1.00  0.00     0.074 A 
ATOM     52  C   UNL A   1      38.838  30.238  30.773  1.00  0.00     0.031 C 
ATOM     53  C   UNL A   1      39.030  34.449  36.216  1.00  0.00     0.029 A 
ATOM     54  C   UNL A   1      40.031  33.382  36.213  1.00  0.00     0.049 A 
ATOM     55  H   UNL A   1      40.322  31.945  34.732  1.00  0.00     0.167 HD
ATOM     56  C   UNL A   1      40.801  28.948  31.565  1.00  0.00     0.034 A 
ATOM     57  C   UNL A   1      40.947  33.152  37.178  1.00  0.00     0.034 A 
ATOM     58  C   UNL A   1      41.818  28.629  32.537  1.00  0.00     0.049 A 
ATOM     59  C   UNL A   1      41.886  31.974  37.035  1.00  0.00     0.074 A 
ATOM     60  C   UNL A   1      42.775  27.631  32.490  1.00  0.00     0.029 A 
ATOM     61  N   UNL A   1      42.005  29.300  33.738  1.00  0.00    -0.354 N 
ATOM     62  N   UNL A   1      41.992  31.112  36.049  1.00  0.00    -0.248 NA
ATOM     63  C   UNL A   1      42.825  31.735  38.140  1.00  0.00     0.031 C 
ATOM     64  C   UNL A   1      43.496  27.656  33.689  1.00  0.00     0.029 A 
ATOM     65  C   UNL A   1      43.043  28.719  34.453  1.00  0.00     0.049 A 
ATOM     66  H   UNL A   1      41.478  30.075  34.040  1.00  0.00     0.167 HD
ATOM     67  C   UNL A   1      43.025  30.248  36.407  1.00  0.00     0.074 A 
ATOM     68  C   UNL A   1      43.521  30.702  37.689  1.00  0.00     0.031 C 
ATOM     69  C   UNL A   1      43.521  29.176  35.737  1.00  0.00     0.034 A 
BRANCH  56  70
ATOM     70  C   UNL A   1      40.683  28.103  30.321  1.00  0.00     0.023 A 
ATOM     71  C   UNL A   1      41.562  28.255  29.234  1.00  0.00     0.031 A 
ATOM     72  C   UNL A   1      39.633  27.178  30.198  1.00  0.00     0.131 A 
ATOM     73  C   UNL A   1      41.326  27.548  28.044  1.00  0.00     0.055 A 
ATOM     74  C   UNL A   1      39.453  26.419  29.041  1.00  0.00     0.041 A 
ATOM     75  F   UNL A   1      38.748  27.012  31.194  1.00  0.00    -0.206 F 
ATOM     76  C   UNL A   1      40.293  26.614  27.949  1.00  0.00     0.022 A 
BRANCH  73  77
ATOM     77  S   UNL A   1      42.293  27.983  26.571  1.00  0.00     0.124 S 
ATOM     78  O   UNL A   1      41.484  27.399  25.504  1.00  0.00    -0.237 OA
ATOM     79  O   UNL A   1      42.321  29.439  26.631  1.00  0.00    -0.237 OA
ATOM     80  O   UNL A   1      43.578  27.324  26.799  1.00  0.00    -0.744 OA
ENDBRANCH  73  77
ENDBRANCH  56  70
BRANCH  57  81
ATOM     81  C   UNL A   1      40.984  33.992  38.414  1.00  0.00     0.023 A 
ATOM     82  C   UNL A   1      41.840  35.100  38.520  1.00  0.00     0.031 A 
ATOM     83  C   UNL A   1      40.222  33.640  39.542  1.00  0.00     0.131 A 
ATOM     84  C   UNL A   1      41.948  35.787  39.742  1.00  0.00     0.055 A 
ATOM     85  C   UNL A   1      40.291  34.359  40.737  1.00  0.00     0.041 A 
ATOM     86  F   UNL A   1      39.396  32.581  39.502  1.00  0.00    -0.206 F 
ATOM     87  C   UNL A   1      41.170  35.432  40.845  1.00  0.00     0.022 A 
BRANCH  84  88
ATOM     88  S   UNL A   1      43.197  37.094  39.898  1.00  0.00     0.124 S 
ATOM     89  O   UNL A   1      44.224  36.635  38.970  1.00  0.00    -0.237 OA
ATOM     90  O   UNL A   1      42.446  38.278  39.493  1.00  0.00    -0.237 OA
ATOM     91  O   UNL A   1      43.565  37.045  41.312  1.00  0.00    -0.744 OA
ENDBRANCH  84  88
ENDBRANCH  57  81
BRANCH  69  92
ATOM     92  C   UNL A   1      44.694  28.454  36.358  1.00  0.00     0.023 A 
ATOM     93  C   UNL A   1      44.528  27.531  37.406  1.00  0.00     0.031 A 
ATOM     94  C   UNL A   1      45.998  28.700  35.895  1.00  0.00     0.131 A 
ATOM     95  C   UNL A   1      45.653  26.927  37.991  1.00  0.00     0.055 A 
ATOM     96  C   UNL A   1      47.109  28.054  36.442  1.00  0.00     0.041 A 
ATOM     97  F   UNL A   1      46.216  29.573  34.898  1.00  0.00    -0.206 F 
ATOM     98  C   UNL A   1      46.940  27.171  37.505  1.00  0.00     0.022 A 
BRANCH  95  99
ATOM     99  S   UNL A   1      45.422  25.881  39.455  1.00  0.00     0.124 S 
ATOM    100  O   UNL A   1      44.229  26.465  40.060  1.00  0.00    -0.237 OA
ATOM    101  O   UNL A   1      45.256  24.555  38.868  1.00  0.00    -0.237 OA
ATOM    102  O   UNL A   1      46.657  26.072  40.212  1.00  0.00    -0.744 OA
ENDBRANCH  95  99
ENDBRANCH  69  92
ENDBRANCH  43  44
ENDBRANCH  36  38
ENDBRANCH  35  36
ENDBRANCH  34  35
ENDBRANCH  33  34
ENDBRANCH  32  33
ENDBRANCH  31  32
ENDBRANCH   1  31
TORSDOF 28
ENDMDL
