MODEL 1
REMARK VINA RESULT:     -10.4      0.000      0.000
REMARK SMILES O=C(OCCOCCOCCOC(=O)[C@H]1CCCN(c2cc(-c3ccccn3)nc(-c3ccccc3F)n2)C1)c1ccc(-c2c3nc(c(-c4cc(S(=O)(=O)[O-])ccc4F)c4ccc([nH]4)c(-c4cc(S(=O)(=O)[O-])ccc4F)c4nc(c(-c5cc(S(=O)(=O)[O-])ccc5F)c5ccc2[nH]5)C=C4)C=C3)cc1
REMARK SMILES IDX 7 1 6 2 5 3 4 4 3 5 2 6 1 7 40 8 41 9 102 10 42 11 101 12
REMARK SMILES IDX 43 13 44 14 45 15 95 16 46 17 100 18 94 19 96 20 47 21 99 22
REMARK SMILES IDX 93 23 92 24 48 26 80 27 60 28 79 29 61 30 64 31 78 32 97 33
REMARK SMILES IDX 62 34 63 35 77 37 98 38 65 39 49 40 50 41 58 42 51 43 57 44
REMARK SMILES IDX 59 45 56 46 52 47 53 48 54 49 55 50 81 51 82 52 90 53 83 54
REMARK SMILES IDX 89 55 91 56 88 57 84 58 85 59 86 60 87 61 66 62 67 63 75 64
REMARK SMILES IDX 68 65 74 66 76 67 73 68 69 69 70 70 71 71 72 72 8 73 9 74
REMARK SMILES IDX 10 75 11 76 12 77 13 78 14 79 15 80 16 81 39 82 17 83 19 84
REMARK SMILES IDX 18 85 20 86 21 87 38 88 22 89 30 90 29 91 23 92 24 93 28 94
REMARK SMILES IDX 25 95 27 96 26 97 31 98 32 99 36 100 33 101 35 102 37 103
REMARK SMILES IDX 34 104
REMARK H PARENT 96 25 64 36
REMARK Flexibility Score: inf
ROOT
ATOM      1  C   UNL A   1      40.886  22.484  27.168  1.00  0.00     0.188 C 
ENDROOT
BRANCH   1   2
ATOM      2  O   UNL A   1      40.997  21.613  26.038  1.00  0.00    -0.376 OA
BRANCH   2   3
ATOM      3  C   UNL A   1      40.798  20.229  26.368  1.00  0.00     0.202 C 
BRANCH   3   4
ATOM      4  C   UNL A   1      42.017  19.293  26.204  1.00  0.00     0.261 C 
BRANCH   4   5
ATOM      5  O   UNL A   1      42.767  19.499  24.992  1.00  0.00    -0.460 OA
BRANCH   5   6
ATOM      6  C   UNL A   1      44.058  19.891  24.832  1.00  0.00     0.338 C 
ATOM      7  O   UNL A   1      44.856  19.081  24.360  1.00  0.00    -0.246 OA
BRANCH   6   8
ATOM      8  C   UNL A   1      44.571  21.247  25.210  1.00  0.00     0.060 A 
ATOM      9  C   UNL A   1      44.842  21.657  26.512  1.00  0.00     0.016 A 
ATOM     10  C   UNL A   1      44.820  22.166  24.177  1.00  0.00     0.016 A 
ATOM     11  C   UNL A   1      45.209  22.959  26.808  1.00  0.00     0.010 A 
ATOM     12  C   UNL A   1      45.282  23.460  24.460  1.00  0.00     0.010 A 
ATOM     13  C   UNL A   1      45.447  23.871  25.790  1.00  0.00    -0.014 A 
BRANCH  13  14
ATOM     14  C   UNL A   1      45.738  25.272  26.155  1.00  0.00     0.031 A 
ATOM     15  C   UNL A   1      44.596  26.173  26.479  1.00  0.00     0.074 A 
ATOM     16  C   UNL A   1      46.988  25.694  26.423  1.00  0.00     0.049 A 
ATOM     17  N   UNL A   1      44.630  27.426  26.835  1.00  0.00    -0.248 NA
ATOM     18  C   UNL A   1      43.258  25.562  26.514  1.00  0.00     0.031 C 
ATOM     19  C   UNL A   1      48.148  24.822  26.565  1.00  0.00     0.029 A 
ATOM     20  N   UNL A   1      47.501  26.945  26.658  1.00  0.00    -0.354 N 
ATOM     21  C   UNL A   1      43.335  27.736  27.207  1.00  0.00     0.074 A 
ATOM     22  C   UNL A   1      42.520  26.568  26.957  1.00  0.00     0.031 C 
ATOM     23  C   UNL A   1      49.239  25.570  26.775  1.00  0.00     0.029 A 
ATOM     24  C   UNL A   1      48.875  26.958  26.685  1.00  0.00     0.049 A 
ATOM     25  H   UNL A   1      46.944  27.746  26.793  1.00  0.00     0.167 HD
ATOM     26  C   UNL A   1      42.892  28.889  27.753  1.00  0.00     0.034 A 
ATOM     27  C   UNL A   1      49.771  27.955  26.604  1.00  0.00     0.034 A 
ATOM     28  C   UNL A   1      43.737  30.037  27.960  1.00  0.00     0.049 A 
ATOM     29  C   UNL A   1      49.233  29.320  26.823  1.00  0.00     0.074 A 
ATOM     30  C   UNL A   1      43.383  31.295  28.405  1.00  0.00     0.029 A 
ATOM     31  N   UNL A   1      45.109  30.069  27.716  1.00  0.00    -0.354 N 
ATOM     32  N   UNL A   1      47.986  29.648  27.054  1.00  0.00    -0.248 NA
ATOM     33  C   UNL A   1      50.191  30.422  26.887  1.00  0.00     0.031 C 
ATOM     34  C   UNL A   1      44.520  32.109  28.353  1.00  0.00     0.029 A 
ATOM     35  C   UNL A   1      45.603  31.342  27.947  1.00  0.00     0.049 A 
ATOM     36  H   UNL A   1      45.647  29.299  27.423  1.00  0.00     0.167 HD
ATOM     37  C   UNL A   1      48.010  30.987  27.382  1.00  0.00     0.074 A 
ATOM     38  C   UNL A   1      49.395  31.416  27.266  1.00  0.00     0.031 C 
ATOM     39  C   UNL A   1      46.978  31.760  27.794  1.00  0.00     0.034 A 
BRANCH  26  40
ATOM     40  C   UNL A   1      41.425  28.960  28.062  1.00  0.00     0.023 A 
ATOM     41  C   UNL A   1      40.929  28.752  29.362  1.00  0.00     0.031 A 
ATOM     42  C   UNL A   1      40.506  29.149  27.019  1.00  0.00     0.131 A 
ATOM     43  C   UNL A   1      39.543  28.685  29.572  1.00  0.00     0.055 A 
ATOM     44  C   UNL A   1      39.130  29.145  27.245  1.00  0.00     0.041 A 
ATOM     45  F   UNL A   1      40.932  29.310  25.755  1.00  0.00    -0.206 F 
ATOM     46  C   UNL A   1      38.641  28.902  28.526  1.00  0.00     0.022 A 
BRANCH  43  47
ATOM     47  S   UNL A   1      38.927  28.198  31.207  1.00  0.00     0.124 S 
ATOM     48  O   UNL A   1      37.754  29.056  31.349  1.00  0.00    -0.237 OA
ATOM     49  O   UNL A   1      38.659  26.774  31.037  1.00  0.00    -0.237 OA
ATOM     50  O   UNL A   1      40.038  28.517  32.101  1.00  0.00    -0.744 OA
ENDBRANCH  43  47
ENDBRANCH  26  40
BRANCH  27  51
ATOM     51  C   UNL A   1      51.201  27.665  26.303  1.00  0.00     0.023 A 
ATOM     52  C   UNL A   1      52.159  27.483  27.308  1.00  0.00     0.031 A 
ATOM     53  C   UNL A   1      51.611  27.498  24.964  1.00  0.00     0.131 A 
ATOM     54  C   UNL A   1      53.482  27.152  26.959  1.00  0.00     0.055 A 
ATOM     55  C   UNL A   1      52.925  27.167  24.623  1.00  0.00     0.041 A 
ATOM     56  F   UNL A   1      50.726  27.626  23.963  1.00  0.00    -0.206 F 
ATOM     57  C   UNL A   1      53.871  26.992  25.625  1.00  0.00     0.022 A 
BRANCH  54  58
ATOM     58  S   UNL A   1      54.700  26.917  28.283  1.00  0.00     0.124 S 
ATOM     59  O   UNL A   1      55.733  26.140  27.607  1.00  0.00    -0.237 OA
ATOM     60  O   UNL A   1      55.044  28.295  28.618  1.00  0.00    -0.237 OA
ATOM     61  O   UNL A   1      53.950  26.200  29.312  1.00  0.00    -0.744 OA
ENDBRANCH  54  58
ENDBRANCH  27  51
BRANCH  39  62
ATOM     62  C   UNL A   1      47.321  33.167  28.163  1.00  0.00     0.023 A 
ATOM     63  C   UNL A   1      47.714  33.489  29.468  1.00  0.00     0.031 A 
ATOM     64  C   UNL A   1      47.278  34.183  27.194  1.00  0.00     0.131 A 
ATOM     65  C   UNL A   1      48.024  34.814  29.784  1.00  0.00     0.055 A 
ATOM     66  C   UNL A   1      47.645  35.490  27.501  1.00  0.00     0.041 A 
ATOM     67  F   UNL A   1      46.897  33.913  25.936  1.00  0.00    -0.206 F 
ATOM     68  C   UNL A   1      48.017  35.812  28.804  1.00  0.00     0.022 A 
BRANCH  65  69
ATOM     69  S   UNL A   1      48.398  35.219  31.507  1.00  0.00     0.124 S 
ATOM     70  O   UNL A   1      47.349  36.185  31.820  1.00  0.00    -0.237 OA
ATOM     71  O   UNL A   1      48.287  33.923  32.170  1.00  0.00    -0.237 OA
ATOM     72  O   UNL A   1      49.751  35.767  31.442  1.00  0.00    -0.744 OA
ENDBRANCH  65  69
ENDBRANCH  39  62
ENDBRANCH  13  14
ENDBRANCH   6   8
ENDBRANCH   5   6
ENDBRANCH   4   5
ENDBRANCH   3   4
ENDBRANCH   2   3
ENDBRANCH   1   2
BRANCH   1  73
ATOM     73  C   UNL A   1      40.057  23.747  26.939  1.00  0.00     0.188 C 
BRANCH  73  74
ATOM     74  O   UNL A   1      38.646  23.632  27.104  1.00  0.00    -0.376 OA
BRANCH  74  75
ATOM     75  C   UNL A   1      37.847  23.678  25.925  1.00  0.00     0.202 C 
BRANCH  75  76
ATOM     76  C   UNL A   1      37.185  22.370  25.482  1.00  0.00     0.261 C 
BRANCH  76  77
ATOM     77  O   UNL A   1      35.934  22.572  24.814  1.00  0.00    -0.463 OA
BRANCH  77  78
ATOM     78  C   UNL A   1      35.959  22.970  23.504  1.00  0.00     0.310 C 
ATOM     79  O   UNL A   1      36.795  22.616  22.680  1.00  0.00    -0.252 OA
BRANCH  78  80
ATOM     80  C   UNL A   1      34.782  23.898  23.231  1.00  0.00     0.118 C 
ATOM     81  C   UNL A   1      33.651  22.981  22.767  1.00  0.00     0.019 C 
ATOM     82  C   UNL A   1      34.440  24.761  24.465  1.00  0.00     0.133 C 
ATOM     83  C   UNL A   1      32.293  23.608  22.899  1.00  0.00     0.022 C 
ATOM     84  N   UNL A   1      33.039  25.185  24.510  1.00  0.00    -0.356 N 
ATOM     85  C   UNL A   1      32.037  24.162  24.271  1.00  0.00     0.118 C 
BRANCH  84  86
ATOM     86  C   UNL A   1      32.595  26.498  24.536  1.00  0.00     0.133 A 
ATOM     87  C   UNL A   1      33.229  27.372  25.405  1.00  0.00     0.077 A 
ATOM     88  N   UNL A   1      31.560  26.912  23.787  1.00  0.00    -0.211 NA
ATOM     89  C   UNL A   1      32.770  28.667  25.517  1.00  0.00     0.095 A 
ATOM     90  C   UNL A   1      31.155  28.192  23.976  1.00  0.00     0.165 A 
ATOM     91  N   UNL A   1      31.719  29.093  24.803  1.00  0.00    -0.226 NA
BRANCH  89  92
ATOM     92  C   UNL A   1      33.461  29.626  26.396  1.00  0.00     0.089 A 
ATOM     93  C   UNL A   1      34.721  29.330  26.925  1.00  0.00     0.030 A 
ATOM     94  N   UNL A   1      32.794  30.757  26.735  1.00  0.00    -0.255 NA
ATOM     95  C   UNL A   1      35.304  30.204  27.837  1.00  0.00     0.004 A 
ATOM     96  C   UNL A   1      33.380  31.585  27.630  1.00  0.00     0.112 A 
ATOM     97  C   UNL A   1      34.619  31.353  28.203  1.00  0.00     0.020 A 
ENDBRANCH  89  92
BRANCH  90  98
ATOM     98  C   UNL A   1      29.982  28.675  23.252  1.00  0.00     0.055 A 
ATOM     99  C   UNL A   1      28.677  28.306  23.625  1.00  0.00     0.015 A 
ATOM    100  C   UNL A   1      30.124  29.609  22.220  1.00  0.00     0.134 A 
ATOM    101  C   UNL A   1      27.562  28.866  22.986  1.00  0.00     0.001 A 
ATOM    102  C   UNL A   1      29.018  30.167  21.576  1.00  0.00     0.040 A 
ATOM    103  F   UNL A   1      31.345  30.002  21.821  1.00  0.00    -0.206 F 
ATOM    104  C   UNL A   1      27.733  29.797  21.962  1.00  0.00     0.003 A 
ENDBRANCH  90  98
ENDBRANCH  84  86
ENDBRANCH  78  80
ENDBRANCH  77  78
ENDBRANCH  76  77
ENDBRANCH  75  76
ENDBRANCH  74  75
ENDBRANCH  73  74
ENDBRANCH   1  73
TORSDOF 23
ENDMDL
MODEL 2
REMARK VINA RESULT:     -10.2      1.772      2.080
REMARK SMILES O=C(OCCOCCOCCOC(=O)[C@H]1CCCN(c2cc(-c3ccccn3)nc(-c3ccccc3F)n2)C1)c1ccc(-c2c3nc(c(-c4cc(S(=O)(=O)[O-])ccc4F)c4ccc([nH]4)c(-c4cc(S(=O)(=O)[O-])ccc4F)c4nc(c(-c5cc(S(=O)(=O)[O-])ccc5F)c5ccc2[nH]5)C=C4)C=C3)cc1
REMARK SMILES IDX 7 1 6 2 5 3 4 4 3 5 2 6 1 7 40 8 41 9 102 10 42 11 101 12
REMARK SMILES IDX 43 13 44 14 45 15 95 16 46 17 100 18 94 19 96 20 47 21 99 22
REMARK SMILES IDX 93 23 92 24 48 26 80 27 60 28 79 29 61 30 64 31 78 32 97 33
REMARK SMILES IDX 62 34 63 35 77 37 98 38 65 39 49 40 50 41 58 42 51 43 57 44
REMARK SMILES IDX 59 45 56 46 52 47 53 48 54 49 55 50 81 51 82 52 90 53 83 54
REMARK SMILES IDX 89 55 91 56 88 57 84 58 85 59 86 60 87 61 66 62 67 63 75 64
REMARK SMILES IDX 68 65 74 66 76 67 73 68 69 69 70 70 71 71 72 72 8 73 9 74
REMARK SMILES IDX 10 75 11 76 12 77 13 78 14 79 15 80 16 81 39 82 17 83 19 84
REMARK SMILES IDX 18 85 20 86 21 87 38 88 22 89 30 90 29 91 23 92 24 93 28 94
REMARK SMILES IDX 25 95 27 96 26 97 31 98 32 99 36 100 33 101 35 102 37 103
REMARK SMILES IDX 34 104
REMARK H PARENT 96 25 64 36
REMARK Flexibility Score: inf
ROOT
ATOM      1  C   UNL A   1      40.829  22.893  27.064  1.00  0.00     0.188 C 
ENDROOT
BRANCH   1   2
ATOM      2  O   UNL A   1      40.813  21.747  26.207  1.00  0.00    -0.376 OA
BRANCH   2   3
ATOM      3  C   UNL A   1      40.850  20.504  26.924  1.00  0.00     0.202 C 
BRANCH   3   4
ATOM      4  C   UNL A   1      42.112  19.630  26.736  1.00  0.00     0.261 C 
BRANCH   4   5
ATOM      5  O   UNL A   1      42.621  19.602  25.388  1.00  0.00    -0.460 OA
BRANCH   5   6
ATOM      6  C   UNL A   1      43.785  20.099  24.896  1.00  0.00     0.338 C 
ATOM      7  O   UNL A   1      44.462  19.375  24.166  1.00  0.00    -0.246 OA
BRANCH   6   8
ATOM      8  C   UNL A   1      44.301  21.472  25.201  1.00  0.00     0.060 A 
ATOM      9  C   UNL A   1      45.250  21.763  26.177  1.00  0.00     0.016 A 
ATOM     10  C   UNL A   1      43.813  22.542  24.432  1.00  0.00     0.016 A 
ATOM     11  C   UNL A   1      45.606  23.065  26.486  1.00  0.00     0.010 A 
ATOM     12  C   UNL A   1      44.237  23.857  24.677  1.00  0.00     0.010 A 
ATOM     13  C   UNL A   1      45.118  24.125  25.735  1.00  0.00    -0.014 A 
BRANCH  13  14
ATOM     14  C   UNL A   1      45.444  25.500  26.163  1.00  0.00     0.031 A 
ATOM     15  C   UNL A   1      44.330  26.393  26.591  1.00  0.00     0.074 A 
ATOM     16  C   UNL A   1      46.711  25.893  26.394  1.00  0.00     0.049 A 
ATOM     17  N   UNL A   1      44.397  27.623  27.015  1.00  0.00    -0.248 NA
ATOM     18  C   UNL A   1      42.987  25.794  26.655  1.00  0.00     0.031 C 
ATOM     19  C   UNL A   1      47.864  25.002  26.432  1.00  0.00     0.029 A 
ATOM     20  N   UNL A   1      47.250  27.123  26.674  1.00  0.00    -0.354 N 
ATOM     21  C   UNL A   1      43.125  27.926  27.465  1.00  0.00     0.074 A 
ATOM     22  C   UNL A   1      42.283  26.782  27.189  1.00  0.00     0.031 C 
ATOM     23  C   UNL A   1      48.973  25.727  26.631  1.00  0.00     0.029 A 
ATOM     24  C   UNL A   1      48.624  27.121  26.637  1.00  0.00     0.049 A 
ATOM     25  H   UNL A   1      46.710  27.921  26.880  1.00  0.00     0.167 HD
ATOM     26  C   UNL A   1      42.723  29.050  28.096  1.00  0.00     0.034 A 
ATOM     27  C   UNL A   1      49.527  28.111  26.569  1.00  0.00     0.034 A 
ATOM     28  C   UNL A   1      43.592  30.175  28.326  1.00  0.00     0.049 A 
ATOM     29  C   UNL A   1      49.019  29.467  26.890  1.00  0.00     0.074 A 
ATOM     30  C   UNL A   1      43.276  31.410  28.856  1.00  0.00     0.029 A 
ATOM     31  N   UNL A   1      44.951  30.207  28.019  1.00  0.00    -0.354 N 
ATOM     32  N   UNL A   1      47.788  29.795  27.198  1.00  0.00    -0.248 NA
ATOM     33  C   UNL A   1      49.993  30.554  26.969  1.00  0.00     0.031 C 
ATOM     34  C   UNL A   1      44.420  32.214  28.796  1.00  0.00     0.029 A 
ATOM     35  C   UNL A   1      45.471  31.460  28.297  1.00  0.00     0.049 A 
ATOM     36  H   UNL A   1      45.465  29.450  27.658  1.00  0.00     0.167 HD
ATOM     37  C   UNL A   1      47.845  31.112  27.599  1.00  0.00     0.074 A 
ATOM     38  C   UNL A   1      49.228  31.533  27.441  1.00  0.00     0.031 C 
ATOM     39  C   UNL A   1      46.843  31.872  28.102  1.00  0.00     0.034 A 
BRANCH  26  40
ATOM     40  C   UNL A   1      41.273  29.118  28.477  1.00  0.00     0.023 A 
ATOM     41  C   UNL A   1      40.853  29.023  29.816  1.00  0.00     0.031 A 
ATOM     42  C   UNL A   1      40.295  29.190  27.473  1.00  0.00     0.131 A 
ATOM     43  C   UNL A   1      39.482  28.947  30.108  1.00  0.00     0.055 A 
ATOM     44  C   UNL A   1      38.934  29.179  27.775  1.00  0.00     0.041 A 
ATOM     45  F   UNL A   1      40.649  29.241  26.179  1.00  0.00    -0.206 F 
ATOM     46  C   UNL A   1      38.520  29.046  29.098  1.00  0.00     0.022 A 
BRANCH  43  47
ATOM     47  S   UNL A   1      38.967  28.601  31.813  1.00  0.00     0.124 S 
ATOM     48  O   UNL A   1      40.142  29.030  32.569  1.00  0.00    -0.237 OA
ATOM     49  O   UNL A   1      37.776  29.430  31.961  1.00  0.00    -0.237 OA
ATOM     50  O   UNL A   1      38.724  27.160  31.812  1.00  0.00    -0.744 OA
ENDBRANCH  43  47
ENDBRANCH  26  40
BRANCH  27  51
ATOM     51  C   UNL A   1      50.938  27.824  26.184  1.00  0.00     0.023 A 
ATOM     52  C   UNL A   1      51.358  27.769  24.850  1.00  0.00     0.031 A 
ATOM     53  C   UNL A   1      51.914  27.662  27.189  1.00  0.00     0.131 A 
ATOM     54  C   UNL A   1      52.717  27.552  24.554  1.00  0.00     0.055 A 
ATOM     55  C   UNL A   1      53.263  27.448  26.890  1.00  0.00     0.041 A 
ATOM     56  F   UNL A   1      51.573  27.740  28.485  1.00  0.00    -0.206 F 
ATOM     57  C   UNL A   1      53.671  27.392  25.564  1.00  0.00     0.022 A 
BRANCH  54  58
ATOM     58  S   UNL A   1      53.231  27.492  22.816  1.00  0.00     0.124 S 
ATOM     59  O   UNL A   1      52.020  27.925  22.128  1.00  0.00    -0.237 OA
ATOM     60  O   UNL A   1      54.350  28.429  22.804  1.00  0.00    -0.237 OA
ATOM     61  O   UNL A   1      53.597  26.091  22.617  1.00  0.00    -0.744 OA
ENDBRANCH  54  58
ENDBRANCH  27  51
BRANCH  39  62
ATOM     62  C   UNL A   1      47.222  33.252  28.533  1.00  0.00     0.023 A 
ATOM     63  C   UNL A   1      47.112  34.333  27.649  1.00  0.00     0.031 A 
ATOM     64  C   UNL A   1      47.671  33.485  29.842  1.00  0.00     0.131 A 
ATOM     65  C   UNL A   1      47.479  35.611  28.079  1.00  0.00     0.055 A 
ATOM     66  C   UNL A   1      47.980  34.769  30.282  1.00  0.00     0.041 A 
ATOM     67  F   UNL A   1      47.799  32.471  30.713  1.00  0.00    -0.206 F 
ATOM     68  C   UNL A   1      47.888  35.841  29.397  1.00  0.00     0.022 A 
BRANCH  65  69
ATOM     69  S   UNL A   1      47.453  36.961  26.876  1.00  0.00     0.124 S 
ATOM     70  O   UNL A   1      47.933  38.083  27.676  1.00  0.00    -0.237 OA
ATOM     71  O   UNL A   1      48.364  36.482  25.841  1.00  0.00    -0.237 OA
ATOM     72  O   UNL A   1      46.048  37.034  26.478  1.00  0.00    -0.744 OA
ENDBRANCH  65  69
ENDBRANCH  39  62
ENDBRANCH  13  14
ENDBRANCH   6   8
ENDBRANCH   5   6
ENDBRANCH   4   5
ENDBRANCH   3   4
ENDBRANCH   2   3
ENDBRANCH   1   2
BRANCH   1  73
ATOM     73  C   UNL A   1      39.845  24.001  26.689  1.00  0.00     0.188 C 
BRANCH  73  74
ATOM     74  O   UNL A   1      38.510  23.869  27.172  1.00  0.00    -0.376 OA
BRANCH  74  75
ATOM     75  C   UNL A   1      37.466  23.848  26.203  1.00  0.00     0.202 C 
BRANCH  75  76
ATOM     76  C   UNL A   1      37.038  22.478  25.670  1.00  0.00     0.261 C 
BRANCH  76  77
ATOM     77  O   UNL A   1      35.849  22.530  24.873  1.00  0.00    -0.463 OA
BRANCH  77  78
ATOM     78  C   UNL A   1      35.956  22.984  23.584  1.00  0.00     0.310 C 
ATOM     79  O   UNL A   1      36.840  22.662  22.800  1.00  0.00    -0.252 OA
BRANCH  78  80
ATOM     80  C   UNL A   1      34.798  23.926  23.279  1.00  0.00     0.118 C 
ATOM     81  C   UNL A   1      33.691  23.030  22.724  1.00  0.00     0.019 C 
ATOM     82  C   UNL A   1      34.391  24.749  24.521  1.00  0.00     0.133 C 
ATOM     83  C   UNL A   1      32.330  23.659  22.802  1.00  0.00     0.022 C 
ATOM     84  N   UNL A   1      32.991  25.178  24.503  1.00  0.00    -0.356 N 
ATOM     85  C   UNL A   1      32.000  24.168  24.176  1.00  0.00     0.118 C 
BRANCH  84  86
ATOM     86  C   UNL A   1      32.550  26.491  24.548  1.00  0.00     0.133 A 
ATOM     87  C   UNL A   1      33.158  27.341  25.460  1.00  0.00     0.077 A 
ATOM     88  N   UNL A   1      31.541  26.928  23.778  1.00  0.00    -0.211 NA
ATOM     89  C   UNL A   1      32.700  28.634  25.590  1.00  0.00     0.095 A 
ATOM     90  C   UNL A   1      31.133  28.204  23.986  1.00  0.00     0.165 A 
ATOM     91  N   UNL A   1      31.673  29.082  24.854  1.00  0.00    -0.226 NA
BRANCH  89  92
ATOM     92  C   UNL A   1      33.365  29.567  26.515  1.00  0.00     0.089 A 
ATOM     93  C   UNL A   1      32.770  30.788  26.847  1.00  0.00     0.030 A 
ATOM     94  N   UNL A   1      34.602  29.235  26.959  1.00  0.00    -0.255 NA
ATOM     95  C   UNL A   1      33.465  31.698  27.637  1.00  0.00     0.004 A 
ATOM     96  C   UNL A   1      35.260  30.141  27.718  1.00  0.00     0.112 A 
ATOM     97  C   UNL A   1      34.739  31.372  28.077  1.00  0.00     0.020 A 
ENDBRANCH  89  92
BRANCH  90  98
ATOM     98  C   UNL A   1      29.985  28.710  23.238  1.00  0.00     0.055 A 
ATOM     99  C   UNL A   1      28.664  28.424  23.626  1.00  0.00     0.015 A 
ATOM    100  C   UNL A   1      30.173  29.586  22.163  1.00  0.00     0.134 A 
ATOM    101  C   UNL A   1      27.578  29.007  22.959  1.00  0.00     0.001 A 
ATOM    102  C   UNL A   1      29.096  30.166  21.491  1.00  0.00     0.040 A 
ATOM    103  F   UNL A   1      31.412  29.898  21.749  1.00  0.00    -0.206 F 
ATOM    104  C   UNL A   1      27.795  29.879  21.893  1.00  0.00     0.003 A 
ENDBRANCH  90  98
ENDBRANCH  84  86
ENDBRANCH  78  80
ENDBRANCH  77  78
ENDBRANCH  76  77
ENDBRANCH  75  76
ENDBRANCH  74  75
ENDBRANCH  73  74
ENDBRANCH   1  73
TORSDOF 23
ENDMDL
MODEL 3
REMARK VINA RESULT:      -9.5      9.195     13.425
REMARK SMILES O=C(OCCOCCOCCOC(=O)[C@H]1CCCN(c2cc(-c3ccccn3)nc(-c3ccccc3F)n2)C1)c1ccc(-c2c3nc(c(-c4cc(S(=O)(=O)[O-])ccc4F)c4ccc([nH]4)c(-c4cc(S(=O)(=O)[O-])ccc4F)c4nc(c(-c5cc(S(=O)(=O)[O-])ccc5F)c5ccc2[nH]5)C=C4)C=C3)cc1
REMARK SMILES IDX 7 1 6 2 5 3 4 4 3 5 2 6 1 7 40 8 41 9 102 10 42 11 101 12
REMARK SMILES IDX 43 13 44 14 45 15 95 16 46 17 100 18 94 19 96 20 47 21 99 22
REMARK SMILES IDX 93 23 92 24 48 26 80 27 60 28 79 29 61 30 64 31 78 32 97 33
REMARK SMILES IDX 62 34 63 35 77 37 98 38 65 39 49 40 50 41 58 42 51 43 57 44
REMARK SMILES IDX 59 45 56 46 52 47 53 48 54 49 55 50 81 51 82 52 90 53 83 54
REMARK SMILES IDX 89 55 91 56 88 57 84 58 85 59 86 60 87 61 66 62 67 63 75 64
REMARK SMILES IDX 68 65 74 66 76 67 73 68 69 69 70 70 71 71 72 72 8 73 9 74
REMARK SMILES IDX 10 75 11 76 12 77 13 78 14 79 15 80 16 81 39 82 17 83 19 84
REMARK SMILES IDX 18 85 20 86 21 87 38 88 22 89 30 90 29 91 23 92 24 93 28 94
REMARK SMILES IDX 25 95 27 96 26 97 31 98 32 99 36 100 33 101 35 102 37 103
REMARK SMILES IDX 34 104
REMARK H PARENT 96 25 64 36
REMARK Flexibility Score: inf
ROOT
ATOM      1  C   UNL A   1      35.004  31.111  28.158  1.00  0.00     0.188 C 
ENDROOT
BRANCH   1   2
ATOM      2  O   UNL A   1      34.697  32.399  27.616  1.00  0.00    -0.376 OA
BRANCH   2   3
ATOM      3  C   UNL A   1      33.941  33.226  28.514  1.00  0.00     0.202 C 
BRANCH   3   4
ATOM      4  C   UNL A   1      34.649  33.665  29.816  1.00  0.00     0.261 C 
BRANCH   4   5
ATOM      5  O   UNL A   1      34.528  32.730  30.905  1.00  0.00    -0.460 OA
BRANCH   5   6
ATOM      6  C   UNL A   1      35.494  32.021  31.544  1.00  0.00     0.338 C 
ATOM      7  O   UNL A   1      35.568  30.812  31.324  1.00  0.00    -0.246 OA
BRANCH   6   8
ATOM      8  C   UNL A   1      36.467  32.621  32.512  1.00  0.00     0.060 A 
ATOM      9  C   UNL A   1      37.470  31.914  33.169  1.00  0.00     0.016 A 
ATOM     10  C   UNL A   1      36.381  34.002  32.759  1.00  0.00     0.016 A 
ATOM     11  C   UNL A   1      38.268  32.504  34.135  1.00  0.00     0.010 A 
ATOM     12  C   UNL A   1      37.247  34.627  33.668  1.00  0.00     0.010 A 
ATOM     13  C   UNL A   1      38.178  33.865  34.387  1.00  0.00    -0.014 A 
BRANCH  13  14
ATOM     14  C   UNL A   1      38.976  34.430  35.494  1.00  0.00     0.031 A 
ATOM     15  C   UNL A   1      38.531  34.173  36.894  1.00  0.00     0.074 A 
ATOM     16  C   UNL A   1      40.195  34.964  35.294  1.00  0.00     0.049 A 
ATOM     17  N   UNL A   1      39.090  34.561  38.004  1.00  0.00    -0.248 NA
ATOM     18  C   UNL A   1      37.376  33.277  37.068  1.00  0.00     0.031 C 
ATOM     19  C   UNL A   1      40.939  34.893  34.042  1.00  0.00     0.029 A 
ATOM     20  N   UNL A   1      41.046  35.642  36.131  1.00  0.00    -0.354 N 
ATOM     21  C   UNL A   1      38.405  33.902  39.009  1.00  0.00     0.074 A 
ATOM     22  C   UNL A   1      37.336  33.152  38.386  1.00  0.00     0.031 C 
ATOM     23  C   UNL A   1      42.086  35.573  34.172  1.00  0.00     0.029 A 
ATOM     24  C   UNL A   1      42.111  36.200  35.465  1.00  0.00     0.049 A 
ATOM     25  H   UNL A   1      40.907  35.719  37.103  1.00  0.00     0.167 HD
ATOM     26  C   UNL A   1      38.689  33.897  40.329  1.00  0.00     0.034 A 
ATOM     27  C   UNL A   1      43.000  37.144  35.814  1.00  0.00     0.034 A 
ATOM     28  C   UNL A   1      39.750  34.681  40.908  1.00  0.00     0.049 A 
ATOM     29  C   UNL A   1      43.071  37.455  37.262  1.00  0.00     0.074 A 
ATOM     30  C   UNL A   1      40.068  34.845  42.241  1.00  0.00     0.029 A 
ATOM     31  N   UNL A   1      40.656  35.451  40.182  1.00  0.00    -0.354 N 
ATOM     32  N   UNL A   1      42.344  36.930  38.218  1.00  0.00    -0.248 NA
ATOM     33  C   UNL A   1      44.120  38.370  37.707  1.00  0.00     0.031 C 
ATOM     34  C   UNL A   1      41.111  35.774  42.327  1.00  0.00     0.029 A 
ATOM     35  C   UNL A   1      41.496  36.135  41.045  1.00  0.00     0.049 A 
ATOM     36  H   UNL A   1      40.694  35.502  39.200  1.00  0.00     0.167 HD
ATOM     37  C   UNL A   1      42.900  37.380  39.396  1.00  0.00     0.074 A 
ATOM     38  C   UNL A   1      43.995  38.263  39.025  1.00  0.00     0.031 C 
ATOM     39  C   UNL A   1      42.558  37.037  40.660  1.00  0.00     0.034 A 
BRANCH  26  40
ATOM     40  C   UNL A   1      37.774  33.092  41.205  1.00  0.00     0.023 A 
ATOM     41  C   UNL A   1      36.500  33.558  41.574  1.00  0.00     0.031 A 
ATOM     42  C   UNL A   1      38.225  31.879  41.748  1.00  0.00     0.131 A 
ATOM     43  C   UNL A   1      35.742  32.836  42.509  1.00  0.00     0.055 A 
ATOM     44  C   UNL A   1      37.441  31.134  42.626  1.00  0.00     0.041 A 
ATOM     45  F   UNL A   1      39.452  31.416  41.456  1.00  0.00    -0.206 F 
ATOM     46  C   UNL A   1      36.195  31.616  43.020  1.00  0.00     0.022 A 
BRANCH  43  47
ATOM     47  S   UNL A   1      34.204  33.563  43.139  1.00  0.00     0.124 S 
ATOM     48  O   UNL A   1      33.672  34.211  41.943  1.00  0.00    -0.237 OA
ATOM     49  O   UNL A   1      33.469  32.395  43.612  1.00  0.00    -0.237 OA
ATOM     50  O   UNL A   1      34.660  34.475  44.186  1.00  0.00    -0.744 OA
ENDBRANCH  43  47
ENDBRANCH  26  40
BRANCH  27  51
ATOM     51  C   UNL A   1      43.834  37.816  34.778  1.00  0.00     0.023 A 
ATOM     52  C   UNL A   1      43.354  38.870  33.993  1.00  0.00     0.031 A 
ATOM     53  C   UNL A   1      45.182  37.433  34.614  1.00  0.00     0.131 A 
ATOM     54  C   UNL A   1      44.212  39.503  33.073  1.00  0.00     0.055 A 
ATOM     55  C   UNL A   1      46.030  38.066  33.701  1.00  0.00     0.041 A 
ATOM     56  F   UNL A   1      45.705  36.452  35.367  1.00  0.00    -0.206 F 
ATOM     57  C   UNL A   1      45.545  39.109  32.923  1.00  0.00     0.022 A 
BRANCH  54  58
ATOM     58  S   UNL A   1      43.562  40.870  32.073  1.00  0.00     0.124 S 
ATOM     59  O   UNL A   1      44.615  41.870  32.210  1.00  0.00    -0.237 OA
ATOM     60  O   UNL A   1      43.433  40.244  30.761  1.00  0.00    -0.237 OA
ATOM     61  O   UNL A   1      42.297  41.200  32.728  1.00  0.00    -0.744 OA
ENDBRANCH  54  58
ENDBRANCH  27  51
BRANCH  39  62
ATOM     62  C   UNL A   1      43.400  37.623  41.747  1.00  0.00     0.023 A 
ATOM     63  C   UNL A   1      43.044  38.835  42.354  1.00  0.00     0.031 A 
ATOM     64  C   UNL A   1      44.549  36.950  42.192  1.00  0.00     0.131 A 
ATOM     65  C   UNL A   1      43.855  39.360  43.363  1.00  0.00     0.055 A 
ATOM     66  C   UNL A   1      45.320  37.449  43.238  1.00  0.00     0.041 A 
ATOM     67  F   UNL A   1      44.926  35.792  41.626  1.00  0.00    -0.206 F 
ATOM     68  C   UNL A   1      44.976  38.664  43.827  1.00  0.00     0.022 A 
BRANCH  65  69
ATOM     69  S   UNL A   1      43.443  40.989  44.032  1.00  0.00     0.124 S 
ATOM     70  O   UNL A   1      42.471  40.650  45.067  1.00  0.00    -0.237 OA
ATOM     71  O   UNL A   1      44.735  41.475  44.507  1.00  0.00    -0.237 OA
ATOM     72  O   UNL A   1      42.899  41.703  42.878  1.00  0.00    -0.744 OA
ENDBRANCH  65  69
ENDBRANCH  39  62
ENDBRANCH  13  14
ENDBRANCH   6   8
ENDBRANCH   5   6
ENDBRANCH   4   5
ENDBRANCH   3   4
ENDBRANCH   2   3
ENDBRANCH   1   2
BRANCH   1  73
ATOM     73  C   UNL A   1      35.867  30.217  27.268  1.00  0.00     0.188 C 
BRANCH  73  74
ATOM     74  O   UNL A   1      35.401  28.889  27.042  1.00  0.00    -0.376 OA
BRANCH  74  75
ATOM     75  C   UNL A   1      34.161  28.743  26.355  1.00  0.00     0.202 C 
BRANCH  75  76
ATOM     76  C   UNL A   1      33.029  28.035  27.106  1.00  0.00     0.261 C 
BRANCH  76  77
ATOM     77  O   UNL A   1      31.824  27.929  26.338  1.00  0.00    -0.463 OA
BRANCH  77  78
ATOM     78  C   UNL A   1      31.834  27.121  25.232  1.00  0.00     0.310 C 
ATOM     79  O   UNL A   1      31.732  27.515  24.076  1.00  0.00    -0.252 OA
BRANCH  78  80
ATOM     80  C   UNL A   1      32.011  25.671  25.663  1.00  0.00     0.118 C 
ATOM     81  C   UNL A   1      30.600  25.172  25.975  1.00  0.00     0.019 C 
ATOM     82  C   UNL A   1      32.758  24.846  24.593  1.00  0.00     0.133 C 
ATOM     83  C   UNL A   1      30.488  23.675  25.959  1.00  0.00     0.022 C 
ATOM     84  N   UNL A   1      32.438  23.417  24.629  1.00  0.00    -0.356 N 
ATOM     85  C   UNL A   1      31.032  23.063  24.701  1.00  0.00     0.118 C 
BRANCH  84  86
ATOM     86  C   UNL A   1      33.350  22.392  24.825  1.00  0.00     0.133 A 
ATOM     87  C   UNL A   1      34.664  22.744  25.093  1.00  0.00     0.077 A 
ATOM     88  N   UNL A   1      32.999  21.101  24.717  1.00  0.00    -0.211 NA
ATOM     89  C   UNL A   1      35.617  21.757  25.221  1.00  0.00     0.095 A 
ATOM     90  C   UNL A   1      34.000  20.193  24.830  1.00  0.00     0.165 A 
ATOM     91  N   UNL A   1      35.295  20.463  25.085  1.00  0.00    -0.226 NA
BRANCH  89  92
ATOM     92  C   UNL A   1      37.008  22.107  25.555  1.00  0.00     0.089 A 
ATOM     93  C   UNL A   1      38.016  21.139  25.516  1.00  0.00     0.030 A 
ATOM     94  N   UNL A   1      37.251  23.372  25.981  1.00  0.00    -0.255 NA
ATOM     95  C   UNL A   1      39.300  21.469  25.940  1.00  0.00     0.004 A 
ATOM     96  C   UNL A   1      38.504  23.663  26.395  1.00  0.00     0.112 A 
ATOM     97  C   UNL A   1      39.550  22.755  26.394  1.00  0.00     0.020 A 
ENDBRANCH  89  92
BRANCH  90  98
ATOM     98  C   UNL A   1      33.696  18.777  24.638  1.00  0.00     0.055 A 
ATOM     99  C   UNL A   1      34.115  18.078  23.492  1.00  0.00     0.015 A 
ATOM    100  C   UNL A   1      33.060  18.049  25.649  1.00  0.00     0.134 A 
ATOM    101  C   UNL A   1      33.906  16.697  23.377  1.00  0.00     0.001 A 
ATOM    102  C   UNL A   1      32.845  16.674  25.539  1.00  0.00     0.040 A 
ATOM    103  F   UNL A   1      32.640  18.661  26.768  1.00  0.00    -0.206 F 
ATOM    104  C   UNL A   1      33.272  15.996  24.402  1.00  0.00     0.003 A 
ENDBRANCH  90  98
ENDBRANCH  84  86
ENDBRANCH  78  80
ENDBRANCH  77  78
ENDBRANCH  76  77
ENDBRANCH  75  76
ENDBRANCH  74  75
ENDBRANCH  73  74
ENDBRANCH   1  73
TORSDOF 23
ENDMDL
