MODEL 1
REMARK VINA RESULT:      -9.3      0.000      0.000
REMARK SMILES CC[C@@](C)(Nc1nccs1)C(=O)OCCOCCOCCOC(=O)c1ccc(-c2c3nc(c(-c4cc(S(=O)(=O)[O-])ccc4F)c4ccc([nH]4)c(-c4cc(S(=O)(=O)[O-])ccc4F)c4nc(c(-c5cc(S(=O)(=O)[O-])ccc5F)c5ccc2[nH]5)C=C4)C=C3)cc1
REMARK SMILES IDX 18 1 17 2 16 3 15 4 14 5 13 6 11 7 12 8 3 9 4 10 2 11 1 12
REMARK SMILES IDX 5 13 6 15 7 16 10 17 8 18 9 19 19 20 20 21 21 22 22 23 23 24
REMARK SMILES IDX 24 25 25 26 26 27 87 28 27 29 86 30 28 31 29 32 30 33 80 34
REMARK SMILES IDX 31 35 85 36 79 37 81 38 32 39 84 40 78 41 77 42 33 44 65 45
REMARK SMILES IDX 45 46 64 47 46 48 49 49 63 50 82 51 47 52 48 53 62 55 83 56
REMARK SMILES IDX 50 57 34 58 35 59 43 60 36 61 42 62 44 63 41 64 37 65 38 66
REMARK SMILES IDX 39 67 40 68 66 69 67 70 75 71 68 72 74 73 76 74 73 75 69 76
REMARK SMILES IDX 70 77 71 78 72 79 51 80 52 81 60 82 53 83 59 84 61 85 58 86
REMARK SMILES IDX 54 87 55 88 56 89 57 90
REMARK H PARENT 5 14 81 43 49 54
REMARK Flexibility Score: inf
ROOT
ATOM      1  C   UNL A   1      34.626  21.902  25.106  1.00  0.00     0.188 C 
ENDROOT
BRANCH   1   2
ATOM      2  C   UNL A   1      33.377  21.246  24.502  1.00  0.00     0.188 C 
BRANCH   2   3
ATOM      3  O   UNL A   1      32.116  21.823  24.816  1.00  0.00    -0.376 OA
BRANCH   3   4
ATOM      4  C   UNL A   1      31.813  23.067  24.181  1.00  0.00     0.202 C 
BRANCH   4   5
ATOM      5  C   UNL A   1      32.314  23.208  22.746  1.00  0.00     0.261 C 
BRANCH   5   6
ATOM      6  O   UNL A   1      33.465  24.072  22.703  1.00  0.00    -0.462 OA
BRANCH   6   7
ATOM      7  C   UNL A   1      33.283  25.221  22.012  1.00  0.00     0.331 C 
ATOM      8  O   UNL A   1      33.219  25.242  20.782  1.00  0.00    -0.249 OA
BRANCH   7   9
ATOM      9  C   UNL A   1      33.030  26.483  22.876  1.00  0.00     0.134 C 
ATOM     10  C   UNL A   1      33.788  26.252  24.199  1.00  0.00     0.047 C 
BRANCH   9  11
ATOM     11  C   UNL A   1      33.572  27.754  22.150  1.00  0.00     0.037 C 
ATOM     12  C   UNL A   1      34.476  28.689  22.936  1.00  0.00     0.007 C 
ENDBRANCH   9  11
BRANCH   9  13
ATOM     13  N   UNL A   1      31.658  26.857  23.262  1.00  0.00    -0.346 N 
ATOM     14  H   UNL A   1      31.022  26.106  23.311  1.00  0.00     0.164 HD
BRANCH  13  15
ATOM     15  C   UNL A   1      31.137  28.059  23.558  1.00  0.00     0.183 A 
ATOM     16  N   UNL A   1      31.400  28.835  24.580  1.00  0.00    -0.229 NA
ATOM     17  S   UNL A   1      29.997  28.712  22.426  1.00  0.00    -0.106 S 
ATOM     18  C   UNL A   1      30.570  29.944  24.549  1.00  0.00     0.125 A 
ATOM     19  C   UNL A   1      29.731  30.040  23.462  1.00  0.00     0.088 A 
ENDBRANCH  13  15
ENDBRANCH   9  13
ENDBRANCH   7   9
ENDBRANCH   6   7
ENDBRANCH   5   6
ENDBRANCH   4   5
ENDBRANCH   3   4
ENDBRANCH   2   3
ENDBRANCH   1   2
BRANCH   1  20
ATOM     20  O   UNL A   1      35.568  21.052  25.750  1.00  0.00    -0.376 OA
BRANCH  20  21
ATOM     21  C   UNL A   1      36.094  20.015  24.924  1.00  0.00     0.202 C 
BRANCH  21  22
ATOM     22  C   UNL A   1      37.624  19.965  24.987  1.00  0.00     0.261 C 
BRANCH  22  23
ATOM     23  O   UNL A   1      38.116  21.068  25.768  1.00  0.00    -0.460 OA
BRANCH  23  24
ATOM     24  C   UNL A   1      39.407  20.982  26.179  1.00  0.00     0.338 C 
ATOM     25  O   UNL A   1      40.126  19.996  26.144  1.00  0.00    -0.246 OA
BRANCH  24  26
ATOM     26  C   UNL A   1      39.891  22.353  26.473  1.00  0.00     0.060 A 
ATOM     27  C   UNL A   1      39.063  23.436  26.139  1.00  0.00     0.016 A 
ATOM     28  C   UNL A   1      41.091  22.574  27.155  1.00  0.00     0.016 A 
ATOM     29  C   UNL A   1      39.440  24.740  26.475  1.00  0.00     0.010 A 
ATOM     30  C   UNL A   1      41.469  23.877  27.483  1.00  0.00     0.010 A 
ATOM     31  C   UNL A   1      40.655  24.969  27.133  1.00  0.00    -0.014 A 
BRANCH  31  32
ATOM     32  C   UNL A   1      41.176  26.342  27.341  1.00  0.00     0.031 A 
ATOM     33  C   UNL A   1      42.548  26.665  26.820  1.00  0.00     0.074 A 
ATOM     34  C   UNL A   1      40.480  27.255  28.046  1.00  0.00     0.049 A 
ATOM     35  N   UNL A   1      43.298  27.709  27.047  1.00  0.00    -0.248 NA
ATOM     36  C   UNL A   1      43.160  25.660  25.933  1.00  0.00     0.031 C 
ATOM     37  C   UNL A   1      39.125  27.071  28.564  1.00  0.00     0.029 A 
ATOM     38  N   UNL A   1      40.837  28.510  28.478  1.00  0.00    -0.354 N 
ATOM     39  C   UNL A   1      44.483  27.479  26.356  1.00  0.00     0.074 A 
ATOM     40  C   UNL A   1      44.352  26.191  25.707  1.00  0.00     0.031 C 
ATOM     41  C   UNL A   1      38.781  28.158  29.279  1.00  0.00     0.029 A 
ATOM     42  C   UNL A   1      39.908  29.089  29.314  1.00  0.00     0.049 A 
ATOM     43  H   UNL A   1      41.676  28.953  28.216  1.00  0.00     0.167 HD
ATOM     44  C   UNL A   1      45.581  28.267  26.280  1.00  0.00     0.034 A 
ATOM     45  C   UNL A   1      39.985  30.209  30.063  1.00  0.00     0.034 A 
ATOM     46  C   UNL A   1      45.693  29.547  26.931  1.00  0.00     0.049 A 
ATOM     47  C   UNL A   1      41.257  31.029  30.029  1.00  0.00     0.074 A 
ATOM     48  C   UNL A   1      46.736  30.454  26.867  1.00  0.00     0.029 A 
ATOM     49  N   UNL A   1      44.743  30.091  27.783  1.00  0.00    -0.354 N 
ATOM     50  N   UNL A   1      42.356  30.822  29.339  1.00  0.00    -0.248 NA
ATOM     51  C   UNL A   1      41.303  32.229  30.878  1.00  0.00     0.031 C 
ATOM     52  C   UNL A   1      46.452  31.508  27.742  1.00  0.00     0.029 A 
ATOM     53  C   UNL A   1      45.198  31.297  28.292  1.00  0.00     0.049 A 
ATOM     54  H   UNL A   1      43.873  29.680  27.995  1.00  0.00     0.167 HD
ATOM     55  C   UNL A   1      43.209  31.879  29.655  1.00  0.00     0.074 A 
ATOM     56  C   UNL A   1      42.493  32.729  30.580  1.00  0.00     0.031 C 
ATOM     57  C   UNL A   1      44.470  32.127  29.221  1.00  0.00     0.034 A 
BRANCH  44  58
ATOM     58  C   UNL A   1      46.770  27.743  25.521  1.00  0.00     0.023 A 
ATOM     59  C   UNL A   1      46.993  28.062  24.171  1.00  0.00     0.031 A 
ATOM     60  C   UNL A   1      47.703  26.913  26.170  1.00  0.00     0.131 A 
ATOM     61  C   UNL A   1      48.101  27.521  23.501  1.00  0.00     0.055 A 
ATOM     62  C   UNL A   1      48.836  26.429  25.516  1.00  0.00     0.041 A 
ATOM     63  F   UNL A   1      47.523  26.557  27.451  1.00  0.00    -0.206 F 
ATOM     64  C   UNL A   1      49.036  26.726  24.171  1.00  0.00     0.022 A 
BRANCH  61  65
ATOM     65  S   UNL A   1      48.254  27.789  21.715  1.00  0.00     0.124 S 
ATOM     66  O   UNL A   1      48.554  26.441  21.238  1.00  0.00    -0.237 OA
ATOM     67  O   UNL A   1      46.940  28.313  21.360  1.00  0.00    -0.237 OA
ATOM     68  O   UNL A   1      49.356  28.742  21.604  1.00  0.00    -0.744 OA
ENDBRANCH  61  65
ENDBRANCH  44  58
BRANCH  45  69
ATOM     69  C   UNL A   1      38.875  30.593  30.988  1.00  0.00     0.023 A 
ATOM     70  C   UNL A   1      37.836  31.438  30.567  1.00  0.00     0.031 A 
ATOM     71  C   UNL A   1      38.894  30.204  32.340  1.00  0.00     0.131 A 
ATOM     72  C   UNL A   1      36.899  31.916  31.498  1.00  0.00     0.055 A 
ATOM     73  C   UNL A   1      37.924  30.630  33.249  1.00  0.00     0.041 A 
ATOM     74  F   UNL A   1      39.870  29.405  32.804  1.00  0.00    -0.206 F 
ATOM     75  C   UNL A   1      36.927  31.508  32.832  1.00  0.00     0.022 A 
BRANCH  72  76
ATOM     76  S   UNL A   1      35.715  33.185  30.964  1.00  0.00     0.124 S 
ATOM     77  O   UNL A   1      34.443  32.575  31.333  1.00  0.00    -0.237 OA
ATOM     78  O   UNL A   1      36.129  34.336  31.758  1.00  0.00    -0.237 OA
ATOM     79  O   UNL A   1      35.961  33.296  29.528  1.00  0.00    -0.744 OA
ENDBRANCH  72  76
ENDBRANCH  45  69
BRANCH  57  80
ATOM     80  C   UNL A   1      45.137  33.388  29.713  1.00  0.00     0.023 A 
ATOM     81  C   UNL A   1      45.930  33.400  30.873  1.00  0.00     0.031 A 
ATOM     82  C   UNL A   1      44.987  34.592  29.000  1.00  0.00     0.131 A 
ATOM     83  C   UNL A   1      46.510  34.601  31.310  1.00  0.00     0.055 A 
ATOM     84  C   UNL A   1      45.611  35.770  29.409  1.00  0.00     0.041 A 
ATOM     85  F   UNL A   1      44.240  34.636  27.885  1.00  0.00    -0.206 F 
ATOM     86  C   UNL A   1      46.371  35.781  30.575  1.00  0.00     0.022 A 
BRANCH  83  87
ATOM     87  S   UNL A   1      47.401  34.616  32.890  1.00  0.00     0.124 S 
ATOM     88  O   UNL A   1      46.391  35.140  33.803  1.00  0.00    -0.237 OA
ATOM     89  O   UNL A   1      47.751  33.211  33.066  1.00  0.00    -0.237 OA
ATOM     90  O   UNL A   1      48.531  35.508  32.637  1.00  0.00    -0.744 OA
ENDBRANCH  83  87
ENDBRANCH  57  80
ENDBRANCH  31  32
ENDBRANCH  24  26
ENDBRANCH  23  24
ENDBRANCH  22  23
ENDBRANCH  21  22
ENDBRANCH  20  21
ENDBRANCH   1  20
TORSDOF 23
ENDMDL
MODEL 2
REMARK VINA RESULT:      -9.2      1.225      2.060
REMARK SMILES CC[C@@](C)(Nc1nccs1)C(=O)OCCOCCOCCOC(=O)c1ccc(-c2c3nc(c(-c4cc(S(=O)(=O)[O-])ccc4F)c4ccc([nH]4)c(-c4cc(S(=O)(=O)[O-])ccc4F)c4nc(c(-c5cc(S(=O)(=O)[O-])ccc5F)c5ccc2[nH]5)C=C4)C=C3)cc1
REMARK SMILES IDX 18 1 17 2 16 3 15 4 14 5 13 6 11 7 12 8 3 9 4 10 2 11 1 12
REMARK SMILES IDX 5 13 6 15 7 16 10 17 8 18 9 19 19 20 20 21 21 22 22 23 23 24
REMARK SMILES IDX 24 25 25 26 26 27 87 28 27 29 86 30 28 31 29 32 30 33 80 34
REMARK SMILES IDX 31 35 85 36 79 37 81 38 32 39 84 40 78 41 77 42 33 44 65 45
REMARK SMILES IDX 45 46 64 47 46 48 49 49 63 50 82 51 47 52 48 53 62 55 83 56
REMARK SMILES IDX 50 57 34 58 35 59 43 60 36 61 42 62 44 63 41 64 37 65 38 66
REMARK SMILES IDX 39 67 40 68 66 69 67 70 75 71 68 72 74 73 76 74 73 75 69 76
REMARK SMILES IDX 70 77 71 78 72 79 51 80 52 81 60 82 53 83 59 84 61 85 58 86
REMARK SMILES IDX 54 87 55 88 56 89 57 90
REMARK H PARENT 5 14 81 43 49 54
REMARK Flexibility Score: inf
ROOT
ATOM      1  C   UNL A   1      34.550  22.026  25.556  1.00  0.00     0.188 C 
ENDROOT
BRANCH   1   2
ATOM      2  C   UNL A   1      33.080  21.597  25.439  1.00  0.00     0.188 C 
BRANCH   2   3
ATOM      3  O   UNL A   1      32.179  22.067  26.433  1.00  0.00    -0.376 OA
BRANCH   3   4
ATOM      4  C   UNL A   1      32.017  23.484  26.522  1.00  0.00     0.202 C 
BRANCH   4   5
ATOM      5  C   UNL A   1      30.574  23.972  26.620  1.00  0.00     0.261 C 
BRANCH   5   6
ATOM      6  O   UNL A   1      30.219  24.717  25.440  1.00  0.00    -0.462 OA
BRANCH   6   7
ATOM      7  C   UNL A   1      30.372  26.057  25.551  1.00  0.00     0.331 C 
ATOM      8  O   UNL A   1      30.698  26.594  26.611  1.00  0.00    -0.249 OA
BRANCH   7   9
ATOM      9  C   UNL A   1      30.238  26.854  24.227  1.00  0.00     0.134 C 
ATOM     10  C   UNL A   1      28.756  26.750  23.817  1.00  0.00     0.047 C 
BRANCH   9  11
ATOM     11  C   UNL A   1      30.641  28.345  24.449  1.00  0.00     0.037 C 
ATOM     12  C   UNL A   1      30.409  29.320  23.307  1.00  0.00     0.007 C 
ENDBRANCH   9  11
BRANCH   9  13
ATOM     13  N   UNL A   1      31.010  26.452  23.038  1.00  0.00    -0.346 N 
ATOM     14  H   UNL A   1      30.718  26.868  22.194  1.00  0.00     0.164 HD
BRANCH  13  15
ATOM     15  C   UNL A   1      32.049  25.608  22.922  1.00  0.00     0.183 A 
ATOM     16  N   UNL A   1      32.103  24.459  22.296  1.00  0.00    -0.229 NA
ATOM     17  S   UNL A   1      33.541  26.109  23.651  1.00  0.00    -0.106 S 
ATOM     18  C   UNL A   1      33.340  23.872  22.506  1.00  0.00     0.125 A 
ATOM     19  C   UNL A   1      34.246  24.613  23.231  1.00  0.00     0.088 A 
ENDBRANCH  13  15
ENDBRANCH   9  13
ENDBRANCH   7   9
ENDBRANCH   6   7
ENDBRANCH   5   6
ENDBRANCH   4   5
ENDBRANCH   3   4
ENDBRANCH   2   3
ENDBRANCH   1   2
BRANCH   1  20
ATOM     20  O   UNL A   1      35.483  21.053  26.010  1.00  0.00    -0.376 OA
BRANCH  20  21
ATOM     21  C   UNL A   1      36.009  20.212  24.985  1.00  0.00     0.202 C 
BRANCH  21  22
ATOM     22  C   UNL A   1      37.541  20.250  24.956  1.00  0.00     0.261 C 
BRANCH  22  23
ATOM     23  O   UNL A   1      38.016  21.366  25.728  1.00  0.00    -0.460 OA
BRANCH  23  24
ATOM     24  C   UNL A   1      39.257  21.240  26.264  1.00  0.00     0.338 C 
ATOM     25  O   UNL A   1      39.931  20.224  26.327  1.00  0.00    -0.246 OA
BRANCH  24  26
ATOM     26  C   UNL A   1      39.772  22.599  26.564  1.00  0.00     0.060 A 
ATOM     27  C   UNL A   1      39.121  23.699  25.984  1.00  0.00     0.016 A 
ATOM     28  C   UNL A   1      40.812  22.801  27.476  1.00  0.00     0.016 A 
ATOM     29  C   UNL A   1      39.517  25.001  26.306  1.00  0.00     0.010 A 
ATOM     30  C   UNL A   1      41.210  24.101  27.790  1.00  0.00     0.010 A 
ATOM     31  C   UNL A   1      40.577  25.208  27.197  1.00  0.00    -0.014 A 
BRANCH  31  32
ATOM     32  C   UNL A   1      41.147  26.560  27.422  1.00  0.00     0.031 A 
ATOM     33  C   UNL A   1      42.535  26.836  26.915  1.00  0.00     0.074 A 
ATOM     34  C   UNL A   1      40.479  27.492  28.128  1.00  0.00     0.049 A 
ATOM     35  N   UNL A   1      43.321  27.850  27.158  1.00  0.00    -0.248 NA
ATOM     36  C   UNL A   1      43.117  25.817  26.026  1.00  0.00     0.031 C 
ATOM     37  C   UNL A   1      39.113  27.354  28.633  1.00  0.00     0.029 A 
ATOM     38  N   UNL A   1      40.878  28.729  28.574  1.00  0.00    -0.354 N 
ATOM     39  C   UNL A   1      44.502  27.582  26.475  1.00  0.00     0.074 A 
ATOM     40  C   UNL A   1      44.330  26.305  25.814  1.00  0.00     0.031 C 
ATOM     41  C   UNL A   1      38.802  28.447  29.353  1.00  0.00     0.029 A 
ATOM     42  C   UNL A   1      39.963  29.336  29.407  1.00  0.00     0.049 A 
ATOM     43  H   UNL A   1      41.735  29.143  28.323  1.00  0.00     0.167 HD
ATOM     44  C   UNL A   1      45.629  28.330  26.416  1.00  0.00     0.034 A 
ATOM     45  C   UNL A   1      40.074  30.446  30.166  1.00  0.00     0.034 A 
ATOM     46  C   UNL A   1      45.783  29.599  27.078  1.00  0.00     0.049 A 
ATOM     47  C   UNL A   1      41.376  31.219  30.150  1.00  0.00     0.074 A 
ATOM     48  C   UNL A   1      46.859  30.468  27.031  1.00  0.00     0.029 A 
ATOM     49  N   UNL A   1      44.845  30.171  27.926  1.00  0.00    -0.354 N 
ATOM     50  N   UNL A   1      42.473  30.977  29.467  1.00  0.00    -0.248 NA
ATOM     51  C   UNL A   1      41.458  32.409  31.009  1.00  0.00     0.031 C 
ATOM     52  C   UNL A   1      46.605  31.524  27.912  1.00  0.00     0.029 A 
ATOM     53  C   UNL A   1      45.339  31.355  28.449  1.00  0.00     0.049 A 
ATOM     54  H   UNL A   1      43.959  29.791  28.128  1.00  0.00     0.167 HD
ATOM     55  C   UNL A   1      43.361  31.999  29.800  1.00  0.00     0.074 A 
ATOM     56  C   UNL A   1      42.668  32.868  30.726  1.00  0.00     0.031 C 
ATOM     57  C   UNL A   1      44.634  32.204  29.379  1.00  0.00     0.034 A 
BRANCH  44  58
ATOM     58  C   UNL A   1      46.805  27.768  25.662  1.00  0.00     0.023 A 
ATOM     59  C   UNL A   1      47.035  28.066  24.309  1.00  0.00     0.031 A 
ATOM     60  C   UNL A   1      47.717  26.923  26.321  1.00  0.00     0.131 A 
ATOM     61  C   UNL A   1      48.130  27.490  23.645  1.00  0.00     0.055 A 
ATOM     62  C   UNL A   1      48.838  26.405  25.672  1.00  0.00     0.041 A 
ATOM     63  F   UNL A   1      47.529  26.587  27.607  1.00  0.00    -0.206 F 
ATOM     64  C   UNL A   1      49.045  26.681  24.324  1.00  0.00     0.022 A 
BRANCH  61  65
ATOM     65  S   UNL A   1      48.289  27.734  21.856  1.00  0.00     0.124 S 
ATOM     66  O   UNL A   1      47.017  28.375  21.531  1.00  0.00    -0.237 OA
ATOM     67  O   UNL A   1      49.473  28.581  21.757  1.00  0.00    -0.237 OA
ATOM     68  O   UNL A   1      48.448  26.378  21.337  1.00  0.00    -0.744 OA
ENDBRANCH  61  65
ENDBRANCH  44  58
BRANCH  45  69
ATOM     69  C   UNL A   1      38.970  30.864  31.084  1.00  0.00     0.023 A 
ATOM     70  C   UNL A   1      37.881  31.615  30.618  1.00  0.00     0.031 A 
ATOM     71  C   UNL A   1      39.044  30.604  32.465  1.00  0.00     0.131 A 
ATOM     72  C   UNL A   1      36.946  32.135  31.528  1.00  0.00     0.055 A 
ATOM     73  C   UNL A   1      38.077  31.068  33.359  1.00  0.00     0.041 A 
ATOM     74  F   UNL A   1      40.069  29.899  32.971  1.00  0.00    -0.206 F 
ATOM     75  C   UNL A   1      37.028  31.855  32.893  1.00  0.00     0.022 A 
BRANCH  72  76
ATOM     76  S   UNL A   1      35.688  33.291  30.915  1.00  0.00     0.124 S 
ATOM     77  O   UNL A   1      34.470  32.501  31.050  1.00  0.00    -0.237 OA
ATOM     78  O   UNL A   1      35.833  34.411  31.838  1.00  0.00    -0.237 OA
ATOM     79  O   UNL A   1      36.110  33.556  29.541  1.00  0.00    -0.744 OA
ENDBRANCH  72  76
ENDBRANCH  45  69
BRANCH  57  80
ATOM     80  C   UNL A   1      45.342  33.436  29.887  1.00  0.00     0.023 A 
ATOM     81  C   UNL A   1      46.134  33.406  31.049  1.00  0.00     0.031 A 
ATOM     82  C   UNL A   1      45.235  34.652  29.189  1.00  0.00     0.131 A 
ATOM     83  C   UNL A   1      46.753  34.581  31.501  1.00  0.00     0.055 A 
ATOM     84  C   UNL A   1      45.898  35.803  29.613  1.00  0.00     0.041 A 
ATOM     85  F   UNL A   1      44.491  34.736  28.073  1.00  0.00    -0.206 F 
ATOM     86  C   UNL A   1      46.655  35.775  30.780  1.00  0.00     0.022 A 
BRANCH  83  87
ATOM     87  S   UNL A   1      47.642  34.546  33.082  1.00  0.00     0.124 S 
ATOM     88  O   UNL A   1      48.506  35.717  32.970  1.00  0.00    -0.237 OA
ATOM     89  O   UNL A   1      46.558  34.645  34.053  1.00  0.00    -0.237 OA
ATOM     90  O   UNL A   1      48.336  33.259  33.057  1.00  0.00    -0.744 OA
ENDBRANCH  83  87
ENDBRANCH  57  80
ENDBRANCH  31  32
ENDBRANCH  24  26
ENDBRANCH  23  24
ENDBRANCH  22  23
ENDBRANCH  21  22
ENDBRANCH  20  21
ENDBRANCH   1  20
TORSDOF 23
ENDMDL
MODEL 3
REMARK VINA RESULT:      -8.7      2.459      8.090
REMARK SMILES CC[C@@](C)(Nc1nccs1)C(=O)OCCOCCOCCOC(=O)c1ccc(-c2c3nc(c(-c4cc(S(=O)(=O)[O-])ccc4F)c4ccc([nH]4)c(-c4cc(S(=O)(=O)[O-])ccc4F)c4nc(c(-c5cc(S(=O)(=O)[O-])ccc5F)c5ccc2[nH]5)C=C4)C=C3)cc1
REMARK SMILES IDX 18 1 17 2 16 3 15 4 14 5 13 6 11 7 12 8 3 9 4 10 2 11 1 12
REMARK SMILES IDX 5 13 6 15 7 16 10 17 8 18 9 19 19 20 20 21 21 22 22 23 23 24
REMARK SMILES IDX 24 25 25 26 26 27 87 28 27 29 86 30 28 31 29 32 30 33 80 34
REMARK SMILES IDX 31 35 85 36 79 37 81 38 32 39 84 40 78 41 77 42 33 44 65 45
REMARK SMILES IDX 45 46 64 47 46 48 49 49 63 50 82 51 47 52 48 53 62 55 83 56
REMARK SMILES IDX 50 57 34 58 35 59 43 60 36 61 42 62 44 63 41 64 37 65 38 66
REMARK SMILES IDX 39 67 40 68 66 69 67 70 75 71 68 72 74 73 76 74 73 75 69 76
REMARK SMILES IDX 70 77 71 78 72 79 51 80 52 81 60 82 53 83 59 84 61 85 58 86
REMARK SMILES IDX 54 87 55 88 56 89 57 90
REMARK H PARENT 5 14 81 43 49 54
REMARK Flexibility Score: inf
ROOT
ATOM      1  C   UNL A   1      33.687  23.659  26.197  1.00  0.00     0.188 C 
ENDROOT
BRANCH   1   2
ATOM      2  C   UNL A   1      32.687  22.888  25.325  1.00  0.00     0.188 C 
BRANCH   2   3
ATOM      3  O   UNL A   1      31.395  23.456  25.150  1.00  0.00    -0.376 OA
BRANCH   3   4
ATOM      4  C   UNL A   1      30.989  23.703  23.803  1.00  0.00     0.202 C 
BRANCH   4   5
ATOM      5  C   UNL A   1      32.097  24.163  22.859  1.00  0.00     0.261 C 
BRANCH   5   6
ATOM      6  O   UNL A   1      31.931  25.557  22.538  1.00  0.00    -0.462 OA
BRANCH   6   7
ATOM      7  C   UNL A   1      32.577  26.408  23.370  1.00  0.00     0.331 C 
ATOM      8  O   UNL A   1      33.736  26.212  23.737  1.00  0.00    -0.249 OA
BRANCH   7   9
ATOM      9  C   UNL A   1      31.805  27.706  23.722  1.00  0.00     0.134 C 
ATOM     10  C   UNL A   1      30.996  27.387  24.995  1.00  0.00     0.047 C 
BRANCH   9  11
ATOM     11  C   UNL A   1      32.804  28.875  23.988  1.00  0.00     0.037 C 
ATOM     12  C   UNL A   1      32.624  29.687  25.260  1.00  0.00     0.007 C 
ENDBRANCH   9  11
BRANCH   9  13
ATOM     13  N   UNL A   1      30.839  28.278  22.768  1.00  0.00    -0.346 N 
ATOM     14  H   UNL A   1      31.191  28.430  21.861  1.00  0.00     0.164 HD
BRANCH  13  15
ATOM     15  C   UNL A   1      29.553  28.625  22.941  1.00  0.00     0.183 A 
ATOM     16  N   UNL A   1      28.509  27.849  23.096  1.00  0.00    -0.229 NA
ATOM     17  S   UNL A   1      29.211  30.324  23.017  1.00  0.00    -0.106 S 
ATOM     18  C   UNL A   1      27.359  28.619  23.148  1.00  0.00     0.125 A 
ATOM     19  C   UNL A   1      27.542  29.982  23.103  1.00  0.00     0.088 A 
ENDBRANCH  13  15
ENDBRANCH   9  13
ENDBRANCH   7   9
ENDBRANCH   6   7
ENDBRANCH   5   6
ENDBRANCH   4   5
ENDBRANCH   3   4
ENDBRANCH   2   3
ENDBRANCH   1   2
BRANCH   1  20
ATOM     20  O   UNL A   1      34.649  22.900  26.920  1.00  0.00    -0.376 OA
BRANCH  20  21
ATOM     21  C   UNL A   1      35.270  21.858  26.168  1.00  0.00     0.202 C 
BRANCH  21  22
ATOM     22  C   UNL A   1      36.455  22.383  25.352  1.00  0.00     0.261 C 
BRANCH  22  23
ATOM     23  O   UNL A   1      37.196  23.340  26.127  1.00  0.00    -0.460 OA
BRANCH  23  24
ATOM     24  C   UNL A   1      38.473  22.999  26.441  1.00  0.00     0.338 C 
ATOM     25  O   UNL A   1      39.048  21.961  26.154  1.00  0.00    -0.246 OA
BRANCH  24  26
ATOM     26  C   UNL A   1      39.148  24.196  27.002  1.00  0.00     0.060 A 
ATOM     27  C   UNL A   1      39.828  25.049  26.119  1.00  0.00     0.016 A 
ATOM     28  C   UNL A   1      39.034  24.532  28.353  1.00  0.00     0.016 A 
ATOM     29  C   UNL A   1      40.405  26.233  26.590  1.00  0.00     0.010 A 
ATOM     30  C   UNL A   1      39.617  25.710  28.822  1.00  0.00     0.010 A 
ATOM     31  C   UNL A   1      40.319  26.560  27.949  1.00  0.00    -0.014 A 
BRANCH  31  32
ATOM     32  C   UNL A   1      41.070  27.705  28.519  1.00  0.00     0.031 A 
ATOM     33  C   UNL A   1      40.286  28.881  29.030  1.00  0.00     0.074 A 
ATOM     34  C   UNL A   1      42.416  27.733  28.509  1.00  0.00     0.049 A 
ATOM     35  N   UNL A   1      40.703  30.067  29.382  1.00  0.00    -0.248 NA
ATOM     36  C   UNL A   1      38.830  28.692  29.144  1.00  0.00     0.031 C 
ATOM     37  C   UNL A   1      43.283  26.637  28.077  1.00  0.00     0.029 A 
ATOM     38  N   UNL A   1      43.290  28.741  28.840  1.00  0.00    -0.354 N 
ATOM     39  C   UNL A   1      39.561  30.779  29.733  1.00  0.00     0.074 A 
ATOM     40  C   UNL A   1      38.434  29.891  29.545  1.00  0.00     0.031 C 
ATOM     41  C   UNL A   1      44.563  27.046  28.132  1.00  0.00     0.029 A 
ATOM     42  C   UNL A   1      44.605  28.447  28.549  1.00  0.00     0.049 A 
ATOM     43  H   UNL A   1      43.006  29.591  29.245  1.00  0.00     0.167 HD
ATOM     44  C   UNL A   1      39.465  32.059  30.164  1.00  0.00     0.034 A 
ATOM     45  C   UNL A   1      45.700  29.236  28.564  1.00  0.00     0.034 A 
ATOM     46  C   UNL A   1      40.599  32.928  30.347  1.00  0.00     0.049 A 
ATOM     47  C   UNL A   1      45.554  30.688  28.966  1.00  0.00     0.074 A 
ATOM     48  C   UNL A   1      40.618  34.222  30.839  1.00  0.00     0.029 A 
ATOM     49  N   UNL A   1      41.909  32.604  30.025  1.00  0.00    -0.354 N 
ATOM     50  N   UNL A   1      44.473  31.339  29.335  1.00  0.00    -0.248 NA
ATOM     51  C   UNL A   1      46.770  31.514  28.946  1.00  0.00     0.031 C 
ATOM     52  C   UNL A   1      41.927  34.706  30.739  1.00  0.00     0.029 A 
ATOM     53  C   UNL A   1      42.737  33.690  30.259  1.00  0.00     0.049 A 
ATOM     54  H   UNL A   1      42.206  31.731  29.681  1.00  0.00     0.167 HD
ATOM     55  C   UNL A   1      44.889  32.640  29.613  1.00  0.00     0.074 A 
ATOM     56  C   UNL A   1      46.318  32.678  29.389  1.00  0.00     0.031 C 
ATOM     57  C   UNL A   1      44.160  33.710  30.020  1.00  0.00     0.034 A 
BRANCH  44  58
ATOM     58  C   UNL A   1      38.088  32.617  30.403  1.00  0.00     0.023 A 
ATOM     59  C   UNL A   1      37.589  32.842  31.697  1.00  0.00     0.031 A 
ATOM     60  C   UNL A   1      37.264  32.938  29.309  1.00  0.00     0.131 A 
ATOM     61  C   UNL A   1      36.286  33.335  31.866  1.00  0.00     0.055 A 
ATOM     62  C   UNL A   1      35.994  33.487  29.482  1.00  0.00     0.041 A 
ATOM     63  F   UNL A   1      37.683  32.719  28.053  1.00  0.00    -0.206 F 
ATOM     64  C   UNL A   1      35.494  33.681  30.767  1.00  0.00     0.022 A 
BRANCH  61  65
ATOM     65  S   UNL A   1      35.601  33.428  33.541  1.00  0.00     0.124 S 
ATOM     66  O   UNL A   1      34.238  32.947  33.330  1.00  0.00    -0.237 OA
ATOM     67  O   UNL A   1      36.481  32.541  34.292  1.00  0.00    -0.237 OA
ATOM     68  O   UNL A   1      35.709  34.846  33.878  1.00  0.00    -0.744 OA
ENDBRANCH  61  65
ENDBRANCH  44  58
BRANCH  45  69
ATOM     69  C   UNL A   1      47.026  28.720  28.103  1.00  0.00     0.023 A 
ATOM     70  C   UNL A   1      47.306  28.552  26.738  1.00  0.00     0.031 A 
ATOM     71  C   UNL A   1      47.994  28.289  29.029  1.00  0.00     0.131 A 
ATOM     72  C   UNL A   1      48.491  27.912  26.340  1.00  0.00     0.055 A 
ATOM     73  C   UNL A   1      49.200  27.712  28.626  1.00  0.00     0.041 A 
ATOM     74  F   UNL A   1      47.777  28.414  30.348  1.00  0.00    -0.206 F 
ATOM     75  C   UNL A   1      49.446  27.504  27.273  1.00  0.00     0.022 A 
BRANCH  72  76
ATOM     76  S   UNL A   1      48.709  27.506  24.584  1.00  0.00     0.124 S 
ATOM     77  O   UNL A   1      48.686  26.048  24.613  1.00  0.00    -0.237 OA
ATOM     78  O   UNL A   1      47.552  28.154  23.979  1.00  0.00    -0.237 OA
ATOM     79  O   UNL A   1      50.002  28.102  24.254  1.00  0.00    -0.744 OA
ENDBRANCH  72  76
ENDBRANCH  45  69
BRANCH  57  80
ATOM     80  C   UNL A   1      44.903  34.996  30.284  1.00  0.00     0.023 A 
ATOM     81  C   UNL A   1      45.030  35.990  29.298  1.00  0.00     0.031 A 
ATOM     82  C   UNL A   1      45.478  35.235  31.545  1.00  0.00     0.131 A 
ATOM     83  C   UNL A   1      45.753  37.161  29.577  1.00  0.00     0.055 A 
ATOM     84  C   UNL A   1      46.147  36.424  31.833  1.00  0.00     0.041 A 
ATOM     85  F   UNL A   1      45.385  34.318  32.522  1.00  0.00    -0.206 F 
ATOM     86  C   UNL A   1      46.296  37.391  30.844  1.00  0.00     0.022 A 
BRANCH  83  87
ATOM     87  S   UNL A   1      46.029  38.355  28.241  1.00  0.00     0.124 S 
ATOM     88  O   UNL A   1      45.227  37.791  27.159  1.00  0.00    -0.237 OA
ATOM     89  O   UNL A   1      45.530  39.597  28.822  1.00  0.00    -0.237 OA
ATOM     90  O   UNL A   1      47.475  38.307  28.031  1.00  0.00    -0.744 OA
ENDBRANCH  83  87
ENDBRANCH  57  80
ENDBRANCH  31  32
ENDBRANCH  24  26
ENDBRANCH  23  24
ENDBRANCH  22  23
ENDBRANCH  21  22
ENDBRANCH  20  21
ENDBRANCH   1  20
TORSDOF 23
ENDMDL
