MODEL 1
REMARK VINA RESULT:      -9.9      0.000      0.000
REMARK SMILES CCc1cc(C)c2c(c1)C=C(C(=O)OCCOCCOCCOC(=O)c1ccc(-c3c4nc(c(-c5cc(S(=O)(=O)[O-])ccc5F)c5ccc([nH]5)c(-c5cc(S(=O)(=O)[O-])ccc5F)c5nc(c(-c6cc(S(=O)(=O)[O-])ccc6F)c6ccc3[nH]6)C=C5)C=C4)cc1)[C@@H](C(F)(F)F)O2
REMARK SMILES IDX 19 1 18 2 17 3 16 4 15 5 14 6 12 7 13 8 11 9 3 10 4 11 9 12
REMARK SMILES IDX 5 13 8 14 6 15 7 16 10 17 94 18 89 19 2 20 1 21 90 22 91 23
REMARK SMILES IDX 92 24 93 25 20 26 21 27 22 28 23 29 24 30 25 31 26 32 27 33
REMARK SMILES IDX 88 34 28 35 87 36 29 37 30 38 31 39 81 40 32 41 86 42 80 43
REMARK SMILES IDX 82 44 33 45 85 46 79 47 78 48 34 50 66 51 46 52 65 53 47 54
REMARK SMILES IDX 50 55 64 56 83 57 48 58 49 59 63 61 84 62 51 63 35 64 36 65
REMARK SMILES IDX 44 66 37 67 43 68 45 69 42 70 38 71 39 72 40 73 41 74 67 75
REMARK SMILES IDX 68 76 76 77 69 78 75 79 77 80 74 81 70 82 71 83 72 84 73 85
REMARK SMILES IDX 52 86 53 87 61 88 54 89 60 90 62 91 59 92 55 93 56 94 57 95
REMARK SMILES IDX 58 96
REMARK H PARENT 82 49 50 60
REMARK Flexibility Score: inf
ROOT
ATOM      1  C   UNL A   1      39.896  22.120  26.585  1.00  0.00     0.188 C 
ENDROOT
BRANCH   1   2
ATOM      2  C   UNL A   1      38.717  21.650  25.704  1.00  0.00     0.188 C 
BRANCH   2   3
ATOM      3  O   UNL A   1      37.765  22.672  25.497  1.00  0.00    -0.376 OA
BRANCH   3   4
ATOM      4  C   UNL A   1      36.399  22.376  25.706  1.00  0.00     0.202 C 
BRANCH   4   5
ATOM      5  C   UNL A   1      35.370  23.503  25.907  1.00  0.00     0.261 C 
BRANCH   5   6
ATOM      6  O   UNL A   1      34.103  23.131  26.468  1.00  0.00    -0.460 OA
BRANCH   6   7
ATOM      7  C   UNL A   1      33.008  23.325  25.701  1.00  0.00     0.338 C 
ATOM      8  O   UNL A   1      32.365  24.354  25.602  1.00  0.00    -0.246 OA
BRANCH   7   9
ATOM      9  C   UNL A   1      32.757  22.103  24.906  1.00  0.00     0.087 C 
ATOM     10  C   UNL A   1      32.936  17.292  24.541  1.00  0.00    -0.047 A 
ATOM     11  C   UNL A   1      32.624  17.398  23.178  1.00  0.00     0.011 A 
ATOM     12  C   UNL A   1      32.985  18.460  25.314  1.00  0.00     0.015 A 
ATOM     13  C   UNL A   1      32.355  18.645  22.590  1.00  0.00    -0.008 A 
ATOM     14  C   UNL A   1      32.739  19.714  24.738  1.00  0.00     0.018 A 
ATOM     15  C   UNL A   1      32.068  18.731  21.118  1.00  0.00     0.048 C 
ATOM     16  C   UNL A   1      32.400  19.802  23.385  1.00  0.00     0.130 A 
ATOM     17  C   UNL A   1      32.916  20.926  25.525  1.00  0.00     0.027 C 
ATOM     18  O   UNL A   1      32.112  20.985  22.763  1.00  0.00    -0.475 OA
ATOM     19  C   UNL A   1      32.324  22.235  23.470  1.00  0.00     0.316 C 
BRANCH  10  20
ATOM     20  C   UNL A   1      33.305  15.954  25.136  1.00  0.00     0.032 C 
ATOM     21  C   UNL A   1      34.804  15.715  25.242  1.00  0.00     0.009 C 
ENDBRANCH  10  20
BRANCH  19  22
ATOM     22  C   UNL A   1      33.296  23.089  22.644  1.00  0.00     0.430 C 
ATOM     23  F   UNL A   1      34.586  22.809  22.956  1.00  0.00    -0.167 F 
ATOM     24  F   UNL A   1      33.167  22.859  21.316  1.00  0.00    -0.167 F 
ATOM     25  F   UNL A   1      33.111  24.413  22.844  1.00  0.00    -0.167 F 
ENDBRANCH  19  22
ENDBRANCH   7   9
ENDBRANCH   6   7
ENDBRANCH   5   6
ENDBRANCH   4   5
ENDBRANCH   3   4
ENDBRANCH   2   3
ENDBRANCH   1   2
BRANCH   1  26
ATOM     26  O   UNL A   1      40.445  21.234  27.554  1.00  0.00    -0.376 OA
BRANCH  26  27
ATOM     27  C   UNL A   1      41.845  20.972  27.516  1.00  0.00     0.202 C 
BRANCH  27  28
ATOM     28  C   UNL A   1      42.616  21.120  26.193  1.00  0.00     0.261 C 
BRANCH  28  29
ATOM     29  O   UNL A   1      43.698  22.067  26.207  1.00  0.00    -0.460 OA
BRANCH  29  30
ATOM     30  C   UNL A   1      43.684  23.001  25.222  1.00  0.00     0.338 C 
ATOM     31  O   UNL A   1      43.370  22.840  24.053  1.00  0.00    -0.246 OA
BRANCH  30  32
ATOM     32  C   UNL A   1      43.945  24.328  25.813  1.00  0.00     0.060 A 
ATOM     33  C   UNL A   1      44.241  24.420  27.181  1.00  0.00     0.016 A 
ATOM     34  C   UNL A   1      43.866  25.478  25.027  1.00  0.00     0.016 A 
ATOM     35  C   UNL A   1      44.479  25.662  27.764  1.00  0.00     0.010 A 
ATOM     36  C   UNL A   1      44.064  26.728  25.622  1.00  0.00     0.010 A 
ATOM     37  C   UNL A   1      44.357  26.825  26.994  1.00  0.00    -0.014 A 
BRANCH  37  38
ATOM     38  C   UNL A   1      44.369  28.145  27.665  1.00  0.00     0.031 A 
ATOM     39  C   UNL A   1      43.081  28.677  28.225  1.00  0.00     0.074 A 
ATOM     40  C   UNL A   1      45.504  28.855  27.781  1.00  0.00     0.049 A 
ATOM     41  N   UNL A   1      42.856  29.799  28.853  1.00  0.00    -0.248 NA
ATOM     42  C   UNL A   1      41.889  27.828  28.056  1.00  0.00     0.031 C 
ATOM     43  C   UNL A   1      46.815  28.431  27.297  1.00  0.00     0.029 A 
ATOM     44  N   UNL A   1      45.729  30.092  28.333  1.00  0.00    -0.354 N 
ATOM     45  C   UNL A   1      41.502  29.793  29.159  1.00  0.00     0.074 A 
ATOM     46  C   UNL A   1      40.948  28.569  28.622  1.00  0.00     0.031 C 
ATOM     47  C   UNL A   1      47.707  29.402  27.556  1.00  0.00     0.029 A 
ATOM     48  C   UNL A   1      47.027  30.525  28.204  1.00  0.00     0.049 A 
ATOM     49  H   UNL A   1      45.027  30.618  28.779  1.00  0.00     0.167 HD
ATOM     50  C   UNL A   1      40.786  30.720  29.836  1.00  0.00     0.034 A 
ATOM     51  C   UNL A   1      47.596  31.697  28.555  1.00  0.00     0.034 A 
ATOM     52  C   UNL A   1      41.339  31.945  30.351  1.00  0.00     0.049 A 
ATOM     53  C   UNL A   1      46.766  32.742  29.259  1.00  0.00     0.074 A 
ATOM     54  C   UNL A   1      40.694  32.933  31.072  1.00  0.00     0.029 A 
ATOM     55  N   UNL A   1      42.652  32.357  30.191  1.00  0.00    -0.354 N 
ATOM     56  N   UNL A   1      45.503  32.693  29.613  1.00  0.00    -0.248 NA
ATOM     57  C   UNL A   1      47.437  33.998  29.626  1.00  0.00     0.031 C 
ATOM     58  C   UNL A   1      41.600  33.970  31.297  1.00  0.00     0.029 A 
ATOM     59  C   UNL A   1      42.831  33.600  30.776  1.00  0.00     0.049 A 
ATOM     60  H   UNL A   1      43.355  31.844  29.731  1.00  0.00     0.167 HD
ATOM     61  C   UNL A   1      45.236  33.896  30.263  1.00  0.00     0.074 A 
ATOM     62  C   UNL A   1      46.476  34.644  30.273  1.00  0.00     0.031 C 
ATOM     63  C   UNL A   1      44.070  34.338  30.799  1.00  0.00     0.034 A 
BRANCH  50  64
ATOM     64  C   UNL A   1      39.324  30.460  30.070  1.00  0.00     0.023 A 
ATOM     65  C   UNL A   1      38.369  30.980  29.177  1.00  0.00     0.031 A 
ATOM     66  C   UNL A   1      38.873  29.810  31.231  1.00  0.00     0.131 A 
ATOM     67  C   UNL A   1      37.008  30.873  29.482  1.00  0.00     0.055 A 
ATOM     68  C   UNL A   1      37.514  29.674  31.512  1.00  0.00     0.041 A 
ATOM     69  F   UNL A   1      39.751  29.292  32.107  1.00  0.00    -0.206 F 
ATOM     70  C   UNL A   1      36.574  30.218  30.640  1.00  0.00     0.022 A 
BRANCH  67  71
ATOM     71  S   UNL A   1      35.751  31.621  28.411  1.00  0.00     0.124 S 
ATOM     72  O   UNL A   1      36.363  32.906  28.079  1.00  0.00    -0.237 OA
ATOM     73  O   UNL A   1      35.681  30.661  27.313  1.00  0.00    -0.237 OA
ATOM     74  O   UNL A   1      34.568  31.700  29.260  1.00  0.00    -0.744 OA
ENDBRANCH  67  71
ENDBRANCH  50  64
BRANCH  51  75
ATOM     75  C   UNL A   1      49.044  31.913  28.273  1.00  0.00     0.023 A 
ATOM     76  C   UNL A   1      49.462  32.557  27.095  1.00  0.00     0.031 A 
ATOM     77  C   UNL A   1      50.028  31.406  29.137  1.00  0.00     0.131 A 
ATOM     78  C   UNL A   1      50.826  32.627  26.787  1.00  0.00     0.055 A 
ATOM     79  C   UNL A   1      51.390  31.531  28.855  1.00  0.00     0.041 A 
ATOM     80  F   UNL A   1      49.674  30.780  30.270  1.00  0.00    -0.206 F 
ATOM     81  C   UNL A   1      51.794  32.133  27.667  1.00  0.00     0.022 A 
BRANCH  78  82
ATOM     82  S   UNL A   1      51.385  33.284  25.191  1.00  0.00     0.124 S 
ATOM     83  O   UNL A   1      52.660  33.902  25.542  1.00  0.00    -0.237 OA
ATOM     84  O   UNL A   1      51.473  32.067  24.388  1.00  0.00    -0.237 OA
ATOM     85  O   UNL A   1      50.323  34.208  24.808  1.00  0.00    -0.744 OA
ENDBRANCH  78  82
ENDBRANCH  51  75
BRANCH  63  86
ATOM     86  C   UNL A   1      44.044  35.694  31.464  1.00  0.00     0.023 A 
ATOM     87  C   UNL A   1      43.813  36.851  30.694  1.00  0.00     0.031 A 
ATOM     88  C   UNL A   1      44.388  35.854  32.817  1.00  0.00     0.131 A 
ATOM     89  C   UNL A   1      43.967  38.117  31.272  1.00  0.00     0.055 A 
ATOM     90  C   UNL A   1      44.496  37.119  33.401  1.00  0.00     0.041 A 
ATOM     91  F   UNL A   1      44.629  34.784  33.591  1.00  0.00    -0.206 F 
ATOM     92  C   UNL A   1      44.298  38.257  32.624  1.00  0.00     0.022 A 
BRANCH  89  93
ATOM     93  S   UNL A   1      43.816  39.626  30.277  1.00  0.00     0.124 S 
ATOM     94  O   UNL A   1      43.218  40.559  31.231  1.00  0.00    -0.237 OA
ATOM     95  O   UNL A   1      45.205  39.902  29.924  1.00  0.00    -0.237 OA
ATOM     96  O   UNL A   1      42.951  39.234  29.170  1.00  0.00    -0.744 OA
ENDBRANCH  89  93
ENDBRANCH  63  86
ENDBRANCH  37  38
ENDBRANCH  30  32
ENDBRANCH  29  30
ENDBRANCH  28  29
ENDBRANCH  27  28
ENDBRANCH  26  27
ENDBRANCH   1  26
TORSDOF 22
ENDMDL
MODEL 2
REMARK VINA RESULT:      -9.4      4.855     10.763
REMARK SMILES CCc1cc(C)c2c(c1)C=C(C(=O)OCCOCCOCCOC(=O)c1ccc(-c3c4nc(c(-c5cc(S(=O)(=O)[O-])ccc5F)c5ccc([nH]5)c(-c5cc(S(=O)(=O)[O-])ccc5F)c5nc(c(-c6cc(S(=O)(=O)[O-])ccc6F)c6ccc3[nH]6)C=C5)C=C4)cc1)[C@@H](C(F)(F)F)O2
REMARK SMILES IDX 19 1 18 2 17 3 16 4 15 5 14 6 12 7 13 8 11 9 3 10 4 11 9 12
REMARK SMILES IDX 5 13 8 14 6 15 7 16 10 17 94 18 89 19 2 20 1 21 90 22 91 23
REMARK SMILES IDX 92 24 93 25 20 26 21 27 22 28 23 29 24 30 25 31 26 32 27 33
REMARK SMILES IDX 88 34 28 35 87 36 29 37 30 38 31 39 81 40 32 41 86 42 80 43
REMARK SMILES IDX 82 44 33 45 85 46 79 47 78 48 34 50 66 51 46 52 65 53 47 54
REMARK SMILES IDX 50 55 64 56 83 57 48 58 49 59 63 61 84 62 51 63 35 64 36 65
REMARK SMILES IDX 44 66 37 67 43 68 45 69 42 70 38 71 39 72 40 73 41 74 67 75
REMARK SMILES IDX 68 76 76 77 69 78 75 79 77 80 74 81 70 82 71 83 72 84 73 85
REMARK SMILES IDX 52 86 53 87 61 88 54 89 60 90 62 91 59 92 55 93 56 94 57 95
REMARK SMILES IDX 58 96
REMARK H PARENT 82 49 50 60
REMARK Flexibility Score: inf
ROOT
ATOM      1  C   UNL A   1      43.682  20.356  25.960  1.00  0.00     0.188 C 
ENDROOT
BRANCH   1   2
ATOM      2  C   UNL A   1      43.909  21.381  24.826  1.00  0.00     0.188 C 
BRANCH   2   3
ATOM      3  O   UNL A   1      42.912  22.380  24.804  1.00  0.00    -0.376 OA
BRANCH   3   4
ATOM      4  C   UNL A   1      43.304  23.724  24.609  1.00  0.00     0.202 C 
BRANCH   4   5
ATOM      5  C   UNL A   1      44.786  24.132  24.696  1.00  0.00     0.261 C 
BRANCH   5   6
ATOM      6  O   UNL A   1      45.253  24.610  25.966  1.00  0.00    -0.460 OA
BRANCH   6   7
ATOM      7  C   UNL A   1      46.083  23.801  26.662  1.00  0.00     0.338 C 
ATOM      8  O   UNL A   1      46.584  22.765  26.268  1.00  0.00    -0.246 OA
BRANCH   7   9
ATOM      9  C   UNL A   1      46.375  24.427  27.970  1.00  0.00     0.087 C 
ATOM     10  C   UNL A   1      44.776  26.142  32.190  1.00  0.00    -0.047 A 
ATOM     11  C   UNL A   1      46.046  26.680  32.437  1.00  0.00     0.011 A 
ATOM     12  C   UNL A   1      44.577  25.391  31.024  1.00  0.00     0.015 A 
ATOM     13  C   UNL A   1      47.109  26.470  31.544  1.00  0.00    -0.008 A 
ATOM     14  C   UNL A   1      45.621  25.189  30.111  1.00  0.00     0.018 A 
ATOM     15  C   UNL A   1      48.448  27.098  31.813  1.00  0.00     0.048 C 
ATOM     16  C   UNL A   1      46.890  25.707  30.385  1.00  0.00     0.130 A 
ATOM     17  C   UNL A   1      45.366  24.516  28.847  1.00  0.00     0.027 C 
ATOM     18  O   UNL A   1      47.965  25.521  29.561  1.00  0.00    -0.475 OA
ATOM     19  C   UNL A   1      47.772  24.910  28.258  1.00  0.00     0.316 C 
BRANCH  10  20
ATOM     20  C   UNL A   1      43.624  26.449  33.119  1.00  0.00     0.032 C 
ATOM     21  C   UNL A   1      43.970  26.326  34.596  1.00  0.00     0.009 C 
ENDBRANCH  10  20
BRANCH  19  22
ATOM     22  C   UNL A   1      48.282  25.890  27.193  1.00  0.00     0.430 C 
ATOM     23  F   UNL A   1      48.819  25.232  26.135  1.00  0.00    -0.167 F 
ATOM     24  F   UNL A   1      47.285  26.660  26.696  1.00  0.00    -0.167 F 
ATOM     25  F   UNL A   1      49.233  26.722  27.675  1.00  0.00    -0.167 F 
ENDBRANCH  19  22
ENDBRANCH   7   9
ENDBRANCH   6   7
ENDBRANCH   5   6
ENDBRANCH   4   5
ENDBRANCH   3   4
ENDBRANCH   2   3
ENDBRANCH   1   2
BRANCH   1  26
ATOM     26  O   UNL A   1      42.771  19.280  25.762  1.00  0.00    -0.376 OA
BRANCH  26  27
ATOM     27  C   UNL A   1      41.375  19.549  25.854  1.00  0.00     0.202 C 
BRANCH  27  28
ATOM     28  C   UNL A   1      40.820  20.309  27.072  1.00  0.00     0.261 C 
BRANCH  28  29
ATOM     29  O   UNL A   1      41.170  21.702  27.148  1.00  0.00    -0.460 OA
BRANCH  29  30
ATOM     30  C   UNL A   1      40.171  22.581  26.881  1.00  0.00     0.338 C 
ATOM     31  O   UNL A   1      39.019  22.322  26.570  1.00  0.00    -0.246 OA
BRANCH  30  32
ATOM     32  C   UNL A   1      40.635  23.947  27.192  1.00  0.00     0.060 A 
ATOM     33  C   UNL A   1      41.316  24.178  28.397  1.00  0.00     0.016 A 
ATOM     34  C   UNL A   1      40.370  25.000  26.315  1.00  0.00     0.016 A 
ATOM     35  C   UNL A   1      41.753  25.461  28.719  1.00  0.00     0.010 A 
ATOM     36  C   UNL A   1      40.773  26.293  26.660  1.00  0.00     0.010 A 
ATOM     37  C   UNL A   1      41.452  26.531  27.868  1.00  0.00    -0.014 A 
BRANCH  37  38
ATOM     38  C   UNL A   1      41.700  27.916  28.327  1.00  0.00     0.031 A 
ATOM     39  C   UNL A   1      43.113  28.423  28.352  1.00  0.00     0.074 A 
ATOM     40  C   UNL A   1      40.686  28.713  28.708  1.00  0.00     0.049 A 
ATOM     41  N   UNL A   1      43.563  29.595  28.709  1.00  0.00    -0.248 NA
ATOM     42  C   UNL A   1      44.157  27.481  27.913  1.00  0.00     0.031 C 
ATOM     43  C   UNL A   1      39.275  28.339  28.704  1.00  0.00     0.029 A 
ATOM     44  N   UNL A   1      40.695  30.001  29.184  1.00  0.00    -0.354 N 
ATOM     45  C   UNL A   1      44.939  29.538  28.536  1.00  0.00     0.074 A 
ATOM     46  C   UNL A   1      45.255  28.206  28.069  1.00  0.00     0.031 C 
ATOM     47  C   UNL A   1      38.552  29.369  29.177  1.00  0.00     0.029 A 
ATOM     48  C   UNL A   1      39.452  30.467  29.536  1.00  0.00     0.049 A 
ATOM     49  H   UNL A   1      41.515  30.539  29.265  1.00  0.00     0.167 HD
ATOM     50  C   UNL A   1      45.855  30.513  28.738  1.00  0.00     0.034 A 
ATOM     51  C   UNL A   1      39.084  31.638  30.097  1.00  0.00     0.034 A 
ATOM     52  C   UNL A   1      45.536  31.830  29.221  1.00  0.00     0.049 A 
ATOM     53  C   UNL A   1      40.130  32.691  30.368  1.00  0.00     0.074 A 
ATOM     54  C   UNL A   1      46.398  32.891  29.433  1.00  0.00     0.029 A 
ATOM     55  N   UNL A   1      44.270  32.263  29.579  1.00  0.00    -0.354 N 
ATOM     56  N   UNL A   1      41.420  32.654  30.127  1.00  0.00    -0.248 NA
ATOM     57  C   UNL A   1      39.674  33.951  30.973  1.00  0.00     0.031 C 
ATOM     58  C   UNL A   1      45.663  33.946  29.976  1.00  0.00     0.029 A 
ATOM     59  C   UNL A   1      44.331  33.569  30.039  1.00  0.00     0.049 A 
ATOM     60  H   UNL A   1      43.448  31.725  29.518  1.00  0.00     0.167 HD
ATOM     61  C   UNL A   1      41.923  33.890  30.528  1.00  0.00     0.074 A 
ATOM     62  C   UNL A   1      40.795  34.661  31.006  1.00  0.00     0.031 C 
ATOM     63  C   UNL A   1      43.204  34.341  30.501  1.00  0.00     0.034 A 
BRANCH  50  64
ATOM     64  C   UNL A   1      47.297  30.208  28.440  1.00  0.00     0.023 A 
ATOM     65  C   UNL A   1      48.216  30.067  29.496  1.00  0.00     0.031 A 
ATOM     66  C   UNL A   1      47.781  30.178  27.121  1.00  0.00     0.131 A 
ATOM     67  C   UNL A   1      49.580  29.942  29.213  1.00  0.00     0.055 A 
ATOM     68  C   UNL A   1      49.138  30.017  26.844  1.00  0.00     0.041 A 
ATOM     69  F   UNL A   1      46.938  30.301  26.082  1.00  0.00    -0.206 F 
ATOM     70  C   UNL A   1      50.046  29.909  27.894  1.00  0.00     0.022 A 
BRANCH  67  71
ATOM     71  S   UNL A   1      50.805  29.863  30.547  1.00  0.00     0.124 S 
ATOM     72  O   UNL A   1      51.783  30.862  30.119  1.00  0.00    -0.237 OA
ATOM     73  O   UNL A   1      50.007  30.231  31.712  1.00  0.00    -0.237 OA
ATOM     74  O   UNL A   1      51.275  28.483  30.510  1.00  0.00    -0.744 OA
ENDBRANCH  67  71
ENDBRANCH  50  64
BRANCH  51  75
ATOM     75  C   UNL A   1      37.644  31.877  30.399  1.00  0.00     0.023 A 
ATOM     76  C   UNL A   1      36.763  32.334  29.403  1.00  0.00     0.031 A 
ATOM     77  C   UNL A   1      37.148  31.730  31.706  1.00  0.00     0.131 A 
ATOM     78  C   UNL A   1      35.449  32.681  29.741  1.00  0.00     0.055 A 
ATOM     79  C   UNL A   1      35.821  32.020  32.026  1.00  0.00     0.041 A 
ATOM     80  F   UNL A   1      37.955  31.301  32.689  1.00  0.00    -0.206 F 
ATOM     81  C   UNL A   1      34.968  32.512  31.043  1.00  0.00     0.022 A 
BRANCH  78  82
ATOM     82  S   UNL A   1      34.348  33.447  28.521  1.00  0.00     0.124 S 
ATOM     83  O   UNL A   1      35.292  33.950  27.526  1.00  0.00    -0.237 OA
ATOM     84  O   UNL A   1      33.537  32.308  28.101  1.00  0.00    -0.237 OA
ATOM     85  O   UNL A   1      33.641  34.468  29.287  1.00  0.00    -0.744 OA
ENDBRANCH  78  82
ENDBRANCH  51  75
BRANCH  63  86
ATOM     86  C   UNL A   1      43.491  35.741  30.991  1.00  0.00     0.023 A 
ATOM     87  C   UNL A   1      43.501  36.015  32.373  1.00  0.00     0.031 A 
ATOM     88  C   UNL A   1      43.608  36.820  30.100  1.00  0.00     0.131 A 
ATOM     89  C   UNL A   1      43.586  37.338  32.823  1.00  0.00     0.055 A 
ATOM     90  C   UNL A   1      43.740  38.135  30.553  1.00  0.00     0.041 A 
ATOM     91  F   UNL A   1      43.593  36.614  28.773  1.00  0.00    -0.206 F 
ATOM     92  C   UNL A   1      43.716  38.399  31.920  1.00  0.00     0.022 A 
BRANCH  89  93
ATOM     93  S   UNL A   1      43.462  37.738  34.587  1.00  0.00     0.124 S 
ATOM     94  O   UNL A   1      43.535  39.198  34.573  1.00  0.00    -0.237 OA
ATOM     95  O   UNL A   1      42.157  37.183  34.936  1.00  0.00    -0.237 OA
ATOM     96  O   UNL A   1      44.611  37.067  35.184  1.00  0.00    -0.744 OA
ENDBRANCH  89  93
ENDBRANCH  63  86
ENDBRANCH  37  38
ENDBRANCH  30  32
ENDBRANCH  29  30
ENDBRANCH  28  29
ENDBRANCH  27  28
ENDBRANCH  26  27
ENDBRANCH   1  26
TORSDOF 22
ENDMDL
MODEL 3
REMARK VINA RESULT:      -9.2      5.755     11.268
REMARK SMILES CCc1cc(C)c2c(c1)C=C(C(=O)OCCOCCOCCOC(=O)c1ccc(-c3c4nc(c(-c5cc(S(=O)(=O)[O-])ccc5F)c5ccc([nH]5)c(-c5cc(S(=O)(=O)[O-])ccc5F)c5nc(c(-c6cc(S(=O)(=O)[O-])ccc6F)c6ccc3[nH]6)C=C5)C=C4)cc1)[C@@H](C(F)(F)F)O2
REMARK SMILES IDX 19 1 18 2 17 3 16 4 15 5 14 6 12 7 13 8 11 9 3 10 4 11 9 12
REMARK SMILES IDX 5 13 8 14 6 15 7 16 10 17 94 18 89 19 2 20 1 21 90 22 91 23
REMARK SMILES IDX 92 24 93 25 20 26 21 27 22 28 23 29 24 30 25 31 26 32 27 33
REMARK SMILES IDX 88 34 28 35 87 36 29 37 30 38 31 39 81 40 32 41 86 42 80 43
REMARK SMILES IDX 82 44 33 45 85 46 79 47 78 48 34 50 66 51 46 52 65 53 47 54
REMARK SMILES IDX 50 55 64 56 83 57 48 58 49 59 63 61 84 62 51 63 35 64 36 65
REMARK SMILES IDX 44 66 37 67 43 68 45 69 42 70 38 71 39 72 40 73 41 74 67 75
REMARK SMILES IDX 68 76 76 77 69 78 75 79 77 80 74 81 70 82 71 83 72 84 73 85
REMARK SMILES IDX 52 86 53 87 61 88 54 89 60 90 62 91 59 92 55 93 56 94 57 95
REMARK SMILES IDX 58 96
REMARK H PARENT 82 49 50 60
REMARK Flexibility Score: inf
ROOT
ATOM      1  C   UNL A   1      35.179  31.933  29.920  1.00  0.00     0.188 C 
ENDROOT
BRANCH   1   2
ATOM      2  C   UNL A   1      36.692  32.202  29.758  1.00  0.00     0.188 C 
BRANCH   2   3
ATOM      3  O   UNL A   1      37.472  31.066  30.067  1.00  0.00    -0.376 OA
BRANCH   3   4
ATOM      4  C   UNL A   1      38.721  30.908  29.424  1.00  0.00     0.202 C 
BRANCH   4   5
ATOM      5  C   UNL A   1      39.100  29.574  28.757  1.00  0.00     0.261 C 
BRANCH   5   6
ATOM      6  O   UNL A   1      40.499  29.265  28.676  1.00  0.00    -0.460 OA
BRANCH   6   7
ATOM      7  C   UNL A   1      40.948  28.239  29.433  1.00  0.00     0.338 C 
ATOM      8  O   UNL A   1      40.646  28.004  30.589  1.00  0.00    -0.246 OA
BRANCH   7   9
ATOM      9  C   UNL A   1      41.807  27.369  28.599  1.00  0.00     0.087 C 
ATOM     10  C   UNL A   1      45.425  26.931  25.434  1.00  0.00    -0.047 A 
ATOM     11  C   UNL A   1      45.085  25.584  25.253  1.00  0.00     0.011 A 
ATOM     12  C   UNL A   1      44.709  27.687  26.372  1.00  0.00     0.015 A 
ATOM     13  C   UNL A   1      44.054  24.989  25.998  1.00  0.00    -0.008 A 
ATOM     14  C   UNL A   1      43.664  27.115  27.109  1.00  0.00     0.018 A 
ATOM     15  C   UNL A   1      43.682  23.555  25.749  1.00  0.00     0.048 C 
ATOM     16  C   UNL A   1      43.355  25.762  26.940  1.00  0.00     0.130 A 
ATOM     17  C   UNL A   1      42.850  27.943  27.986  1.00  0.00     0.027 C 
ATOM     18  O   UNL A   1      42.373  25.127  27.648  1.00  0.00    -0.475 OA
ATOM     19  C   UNL A   1      41.486  25.902  28.496  1.00  0.00     0.316 C 
BRANCH  10  20
ATOM     20  C   UNL A   1      46.480  27.574  24.564  1.00  0.00     0.032 C 
ATOM     21  C   UNL A   1      47.804  27.818  25.272  1.00  0.00     0.009 C 
ENDBRANCH  10  20
BRANCH  19  22
ATOM     22  C   UNL A   1      40.045  25.651  28.031  1.00  0.00     0.430 C 
ATOM     23  F   UNL A   1      39.175  25.703  29.071  1.00  0.00    -0.167 F 
ATOM     24  F   UNL A   1      39.631  26.585  27.142  1.00  0.00    -0.167 F 
ATOM     25  F   UNL A   1      39.899  24.442  27.444  1.00  0.00    -0.167 F 
ENDBRANCH  19  22
ENDBRANCH   7   9
ENDBRANCH   6   7
ENDBRANCH   5   6
ENDBRANCH   4   5
ENDBRANCH   3   4
ENDBRANCH   2   3
ENDBRANCH   1   2
BRANCH   1  26
ATOM     26  O   UNL A   1      34.455  32.594  30.952  1.00  0.00    -0.376 OA
BRANCH  26  27
ATOM     27  C   UNL A   1      35.045  33.734  31.570  1.00  0.00     0.202 C 
BRANCH  27  28
ATOM     28  C   UNL A   1      35.466  33.671  33.049  1.00  0.00     0.261 C 
BRANCH  28  29
ATOM     29  O   UNL A   1      36.132  32.464  33.455  1.00  0.00    -0.460 OA
BRANCH  29  30
ATOM     30  C   UNL A   1      37.019  32.589  34.475  1.00  0.00     0.338 C 
ATOM     31  O   UNL A   1      36.820  33.087  35.572  1.00  0.00    -0.246 OA
BRANCH  30  32
ATOM     32  C   UNL A   1      38.255  31.861  34.132  1.00  0.00     0.060 A 
ATOM     33  C   UNL A   1      39.494  32.413  34.489  1.00  0.00     0.016 A 
ATOM     34  C   UNL A   1      38.194  30.656  33.430  1.00  0.00     0.016 A 
ATOM     35  C   UNL A   1      40.677  31.751  34.165  1.00  0.00     0.010 A 
ATOM     36  C   UNL A   1      39.382  30.014  33.069  1.00  0.00     0.010 A 
ATOM     37  C   UNL A   1      40.627  30.566  33.422  1.00  0.00    -0.014 A 
BRANCH  37  38
ATOM     38  C   UNL A   1      41.879  30.000  32.872  1.00  0.00     0.031 A 
ATOM     39  C   UNL A   1      42.478  30.635  31.650  1.00  0.00     0.074 A 
ATOM     40  C   UNL A   1      42.478  28.946  33.452  1.00  0.00     0.049 A 
ATOM     41  N   UNL A   1      43.564  30.313  31.002  1.00  0.00    -0.248 NA
ATOM     42  C   UNL A   1      41.755  31.788  31.086  1.00  0.00     0.031 C 
ATOM     43  C   UNL A   1      42.002  28.263  34.652  1.00  0.00     0.029 A 
ATOM     44  N   UNL A   1      43.612  28.259  33.097  1.00  0.00    -0.354 N 
ATOM     45  C   UNL A   1      43.661  31.222  29.958  1.00  0.00     0.074 A 
ATOM     46  C   UNL A   1      42.508  32.092  30.039  1.00  0.00     0.031 C 
ATOM     47  C   UNL A   1      42.830  27.239  34.925  1.00  0.00     0.029 A 
ATOM     48  C   UNL A   1      43.880  27.181  33.906  1.00  0.00     0.049 A 
ATOM     49  H   UNL A   1      44.181  28.515  32.335  1.00  0.00     0.167 HD
ATOM     50  C   UNL A   1      44.631  31.329  29.020  1.00  0.00     0.034 A 
ATOM     51  C   UNL A   1      44.851  26.247  33.825  1.00  0.00     0.034 A 
ATOM     52  C   UNL A   1      45.766  30.449  28.932  1.00  0.00     0.049 A 
ATOM     53  C   UNL A   1      45.891  26.351  32.737  1.00  0.00     0.074 A 
ATOM     54  C   UNL A   1      46.813  30.497  28.029  1.00  0.00     0.029 A 
ATOM     55  N   UNL A   1      45.998  29.361  29.759  1.00  0.00    -0.354 N 
ATOM     56  N   UNL A   1      46.017  27.262  31.800  1.00  0.00    -0.248 NA
ATOM     57  C   UNL A   1      46.930  25.312  32.699  1.00  0.00     0.031 C 
ATOM     58  C   UNL A   1      47.646  29.404  28.271  1.00  0.00     0.029 A 
ATOM     59  C   UNL A   1      47.158  28.712  29.368  1.00  0.00     0.049 A 
ATOM     60  H   UNL A   1      45.425  29.089  30.511  1.00  0.00     0.167 HD
ATOM     61  C   UNL A   1      47.159  26.920  31.079  1.00  0.00     0.074 A 
ATOM     62  C   UNL A   1      47.700  25.731  31.702  1.00  0.00     0.031 C 
ATOM     63  C   UNL A   1      47.705  27.535  29.999  1.00  0.00     0.034 A 
BRANCH  50  64
ATOM     64  C   UNL A   1      44.523  32.434  28.006  1.00  0.00     0.023 A 
ATOM     65  C   UNL A   1      44.801  33.760  28.382  1.00  0.00     0.031 A 
ATOM     66  C   UNL A   1      44.031  32.192  26.712  1.00  0.00     0.131 A 
ATOM     67  C   UNL A   1      44.546  34.802  27.484  1.00  0.00     0.055 A 
ATOM     68  C   UNL A   1      43.814  33.231  25.807  1.00  0.00     0.041 A 
ATOM     69  F   UNL A   1      43.760  30.940  26.307  1.00  0.00    -0.206 F 
ATOM     70  C   UNL A   1      44.061  34.545  26.197  1.00  0.00     0.022 A 
BRANCH  67  71
ATOM     71  S   UNL A   1      44.791  36.531  27.969  1.00  0.00     0.124 S 
ATOM     72  O   UNL A   1      45.935  36.917  27.145  1.00  0.00    -0.237 OA
ATOM     73  O   UNL A   1      43.517  37.135  27.590  1.00  0.00    -0.237 OA
ATOM     74  O   UNL A   1      45.058  36.460  29.401  1.00  0.00    -0.744 OA
ENDBRANCH  67  71
ENDBRANCH  50  64
BRANCH  51  75
ATOM     75  C   UNL A   1      44.894  25.156  34.840  1.00  0.00     0.023 A 
ATOM     76  C   UNL A   1      45.544  25.342  36.073  1.00  0.00     0.031 A 
ATOM     77  C   UNL A   1      44.358  23.888  34.557  1.00  0.00     0.131 A 
ATOM     78  C   UNL A   1      45.690  24.262  36.953  1.00  0.00     0.055 A 
ATOM     79  C   UNL A   1      44.453  22.831  35.463  1.00  0.00     0.041 A 
ATOM     80  F   UNL A   1      43.734  23.665  33.390  1.00  0.00    -0.206 F 
ATOM     81  C   UNL A   1      45.134  23.012  36.663  1.00  0.00     0.022 A 
BRANCH  78  82
ATOM     82  S   UNL A   1      46.682  24.422  38.462  1.00  0.00     0.124 S 
ATOM     83  O   UNL A   1      45.799  23.848  39.474  1.00  0.00    -0.237 OA
ATOM     84  O   UNL A   1      47.859  23.625  38.126  1.00  0.00    -0.237 OA
ATOM     85  O   UNL A   1      46.913  25.858  38.573  1.00  0.00    -0.744 OA
ENDBRANCH  78  82
ENDBRANCH  51  75
BRANCH  63  86
ATOM     86  C   UNL A   1      48.967  26.963  29.398  1.00  0.00     0.023 A 
ATOM     87  C   UNL A   1      50.225  27.443  29.814  1.00  0.00     0.031 A 
ATOM     88  C   UNL A   1      48.923  26.061  28.323  1.00  0.00     0.131 A 
ATOM     89  C   UNL A   1      51.383  27.048  29.134  1.00  0.00     0.055 A 
ATOM     90  C   UNL A   1      50.085  25.633  27.676  1.00  0.00     0.041 A 
ATOM     91  F   UNL A   1      47.749  25.583  27.881  1.00  0.00    -0.206 F 
ATOM     92  C   UNL A   1      51.321  26.137  28.074  1.00  0.00     0.022 A 
BRANCH  89  93
ATOM     93  S   UNL A   1      53.001  27.752  29.551  1.00  0.00     0.124 S 
ATOM     94  O   UNL A   1      53.264  28.613  28.399  1.00  0.00    -0.237 OA
ATOM     95  O   UNL A   1      52.718  28.453  30.801  1.00  0.00    -0.237 OA
ATOM     96  O   UNL A   1      53.874  26.589  29.666  1.00  0.00    -0.744 OA
ENDBRANCH  89  93
ENDBRANCH  63  86
ENDBRANCH  37  38
ENDBRANCH  30  32
ENDBRANCH  29  30
ENDBRANCH  28  29
ENDBRANCH  27  28
ENDBRANCH  26  27
ENDBRANCH   1  26
TORSDOF 22
ENDMDL
