MODEL 1
REMARK VINA RESULT:      -8.9      0.000      0.000
REMARK SMILES CCC1C[NH+]([C@@H](Cc2c[nH]c3ccccc23)C(=O)OCCOCCOCCOC(=O)c2ccc(-c3c4nc(c(-c5cc(S(=O)(=O)[O-])ccc5F)c5ccc([nH]5)c(-c5cc(S(=O)(=O)[O-])ccc5F)c5nc(c(-c6cc(S(=O)(=O)[O-])ccc6F)c6ccc3[nH]6)C=C5)C=C4)cc2)C1
REMARK SMILES IDX 24 1 23 2 22 3 21 4 20 5 19 6 17 7 18 8 6 9 5 10 3 11 4 12
REMARK SMILES IDX 94 13 2 15 1 16 7 17 8 18 9 19 16 20 10 21 11 22 15 23 12 25
REMARK SMILES IDX 14 26 13 27 25 28 26 29 27 30 28 31 29 32 30 33 31 34 32 35
REMARK SMILES IDX 93 36 33 37 92 38 34 39 35 40 36 41 86 42 37 43 91 44 85 45
REMARK SMILES IDX 87 46 38 47 90 48 84 49 83 50 39 52 71 53 51 54 70 55 52 56
REMARK SMILES IDX 55 57 69 58 88 59 53 60 54 61 68 63 89 64 56 65 40 66 41 67
REMARK SMILES IDX 49 68 42 69 48 70 50 71 47 72 43 73 44 74 45 75 46 76 72 77
REMARK SMILES IDX 73 78 81 79 74 80 80 81 82 82 79 83 75 84 76 85 77 86 78 87
REMARK SMILES IDX 57 88 58 89 66 90 59 91 65 92 67 93 64 94 60 95 61 96 62 97
REMARK SMILES IDX 63 98
REMARK H PARENT 5 14 10 24 87 51 55 62
REMARK Flexibility Score: inf
ROOT
ATOM      1  C   UNL A   1      40.239  25.345  26.912  1.00  0.00     0.188 C 
ENDROOT
BRANCH   1   2
ATOM      2  C   UNL A   1      39.144  24.289  27.126  1.00  0.00     0.188 C 
BRANCH   2   3
ATOM      3  O   UNL A   1      38.126  24.118  26.145  1.00  0.00    -0.376 OA
BRANCH   3   4
ATOM      4  C   UNL A   1      37.791  22.818  25.690  1.00  0.00     0.202 C 
BRANCH   4   5
ATOM      5  C   UNL A   1      36.510  22.670  24.873  1.00  0.00     0.261 C 
BRANCH   5   6
ATOM      6  O   UNL A   1      35.685  23.846  24.821  1.00  0.00    -0.459 OA
BRANCH   6   7
ATOM      7  C   UNL A   1      34.669  23.842  23.918  1.00  0.00     0.365 C 
ATOM      8  O   UNL A   1      34.792  23.487  22.750  1.00  0.00    -0.245 OA
BRANCH   7   9
ATOM      9  C   UNL A   1      33.393  24.486  24.465  1.00  0.00     0.299 C 
BRANCH   9  10
ATOM     10  N   UNL A   1      32.989  25.784  23.820  1.00  0.00    -0.322 N 
ATOM     11  C   UNL A   1      32.400  27.056  25.421  1.00  0.00     0.099 C 
ATOM     12  C   UNL A   1      31.700  26.390  24.213  1.00  0.00     0.272 C 
ATOM     13  C   UNL A   1      33.640  26.976  24.484  1.00  0.00     0.272 C 
ATOM     14  H   UNL A   1      33.139  25.496  22.854  1.00  0.00     0.348 HD
BRANCH  11  15
ATOM     15  C   UNL A   1      31.848  28.293  26.116  1.00  0.00     0.012 C 
ATOM     16  C   UNL A   1      31.744  28.183  27.622  1.00  0.00     0.004 C 
ENDBRANCH  11  15
ENDBRANCH   9  10
BRANCH   9  17
ATOM     17  C   UNL A   1      32.512  23.373  25.066  1.00  0.00     0.115 C 
BRANCH  17  18
ATOM     18  C   UNL A   1      32.897  21.938  25.376  1.00  0.00    -0.016 A 
ATOM     19  C   UNL A   1      33.355  21.644  26.654  1.00  0.00     0.087 A 
ATOM     20  C   UNL A   1      32.833  20.664  24.695  1.00  0.00     0.003 A 
ATOM     21  N   UNL A   1      33.398  20.295  26.818  1.00  0.00    -0.361 N 
ATOM     22  C   UNL A   1      32.975  19.673  25.675  1.00  0.00     0.046 A 
ATOM     23  C   UNL A   1      32.617  20.194  23.383  1.00  0.00     0.010 A 
ATOM     24  H   UNL A   1      33.691  19.834  27.637  1.00  0.00     0.166 HD
ATOM     25  C   UNL A   1      32.728  18.311  25.446  1.00  0.00     0.026 A 
ATOM     26  C   UNL A   1      32.326  18.844  23.133  1.00  0.00     0.001 A 
ATOM     27  C   UNL A   1      32.346  17.920  24.165  1.00  0.00     0.002 A 
ENDBRANCH  17  18
ENDBRANCH   9  17
ENDBRANCH   7   9
ENDBRANCH   6   7
ENDBRANCH   5   6
ENDBRANCH   4   5
ENDBRANCH   3   4
ENDBRANCH   2   3
ENDBRANCH   1   2
BRANCH   1  28
ATOM     28  O   UNL A   1      41.563  24.834  26.957  1.00  0.00    -0.376 OA
BRANCH  28  29
ATOM     29  C   UNL A   1      42.334  25.024  25.781  1.00  0.00     0.202 C 
BRANCH  29  30
ATOM     30  C   UNL A   1      43.497  24.034  25.670  1.00  0.00     0.261 C 
BRANCH  30  31
ATOM     31  O   UNL A   1      43.632  23.137  26.784  1.00  0.00    -0.460 OA
BRANCH  31  32
ATOM     32  C   UNL A   1      44.860  23.014  27.342  1.00  0.00     0.338 C 
ATOM     33  O   UNL A   1      45.883  22.652  26.785  1.00  0.00    -0.246 OA
BRANCH  32  34
ATOM     34  C   UNL A   1      44.785  23.614  28.691  1.00  0.00     0.060 A 
ATOM     35  C   UNL A   1      45.609  24.701  29.013  1.00  0.00     0.016 A 
ATOM     36  C   UNL A   1      43.861  23.125  29.619  1.00  0.00     0.016 A 
ATOM     37  C   UNL A   1      45.528  25.288  30.280  1.00  0.00     0.010 A 
ATOM     38  C   UNL A   1      43.794  23.699  30.886  1.00  0.00     0.010 A 
ATOM     39  C   UNL A   1      44.648  24.761  31.234  1.00  0.00    -0.014 A 
BRANCH  39  40
ATOM     40  C   UNL A   1      44.765  25.124  32.668  1.00  0.00     0.031 A 
ATOM     41  C   UNL A   1      44.389  26.527  33.057  1.00  0.00     0.074 A 
ATOM     42  C   UNL A   1      45.247  24.270  33.586  1.00  0.00     0.049 A 
ATOM     43  N   UNL A   1      44.571  27.159  34.186  1.00  0.00    -0.248 NA
ATOM     44  C   UNL A   1      43.736  27.328  32.010  1.00  0.00     0.031 C 
ATOM     45  C   UNL A   1      45.594  22.872  33.344  1.00  0.00     0.029 A 
ATOM     46  N   UNL A   1      45.553  24.472  34.909  1.00  0.00    -0.354 N 
ATOM     47  C   UNL A   1      44.071  28.441  33.981  1.00  0.00     0.074 A 
ATOM     48  C   UNL A   1      43.617  28.501  32.608  1.00  0.00     0.031 C 
ATOM     49  C   UNL A   1      46.084  22.345  34.482  1.00  0.00     0.029 A 
ATOM     50  C   UNL A   1      46.133  23.382  35.513  1.00  0.00     0.049 A 
ATOM     51  H   UNL A   1      45.373  25.317  35.381  1.00  0.00     0.167 HD
ATOM     52  C   UNL A   1      43.997  29.473  34.857  1.00  0.00     0.034 A 
ATOM     53  C   UNL A   1      46.674  23.253  36.742  1.00  0.00     0.034 A 
ATOM     54  C   UNL A   1      44.483  29.403  36.212  1.00  0.00     0.049 A 
ATOM     55  C   UNL A   1      46.685  24.445  37.672  1.00  0.00     0.074 A 
ATOM     56  C   UNL A   1      44.462  30.381  37.190  1.00  0.00     0.029 A 
ATOM     57  N   UNL A   1      45.100  28.292  36.778  1.00  0.00    -0.354 N 
ATOM     58  N   UNL A   1      46.221  25.658  37.471  1.00  0.00    -0.248 NA
ATOM     59  C   UNL A   1      47.296  24.249  38.993  1.00  0.00     0.031 C 
ATOM     60  C   UNL A   1      45.130  29.890  38.317  1.00  0.00     0.029 A 
ATOM     61  C   UNL A   1      45.492  28.573  38.077  1.00  0.00     0.049 A 
ATOM     62  H   UNL A   1      45.237  27.430  36.320  1.00  0.00     0.167 HD
ATOM     63  C   UNL A   1      46.449  26.355  38.657  1.00  0.00     0.074 A 
ATOM     64  C   UNL A   1      47.093  25.429  39.564  1.00  0.00     0.031 C 
ATOM     65  C   UNL A   1      46.140  27.640  38.971  1.00  0.00     0.034 A 
BRANCH  52  66
ATOM     66  C   UNL A   1      43.432  30.773  34.334  1.00  0.00     0.023 A 
ATOM     67  C   UNL A   1      42.054  31.054  34.384  1.00  0.00     0.031 A 
ATOM     68  C   UNL A   1      44.269  31.707  33.699  1.00  0.00     0.131 A 
ATOM     69  C   UNL A   1      41.544  32.181  33.725  1.00  0.00     0.055 A 
ATOM     70  C   UNL A   1      43.766  32.877  33.128  1.00  0.00     0.041 A 
ATOM     71  F   UNL A   1      45.588  31.483  33.594  1.00  0.00    -0.206 F 
ATOM     72  C   UNL A   1      42.394  33.110  33.119  1.00  0.00     0.022 A 
BRANCH  69  73
ATOM     73  S   UNL A   1      39.749  32.316  33.504  1.00  0.00     0.124 S 
ATOM     74  O   UNL A   1      39.505  31.331  32.452  1.00  0.00    -0.237 OA
ATOM     75  O   UNL A   1      39.241  31.976  34.828  1.00  0.00    -0.237 OA
ATOM     76  O   UNL A   1      39.556  33.707  33.098  1.00  0.00    -0.744 OA
ENDBRANCH  69  73
ENDBRANCH  52  66
BRANCH  53  77
ATOM     77  C   UNL A   1      47.289  21.961  37.164  1.00  0.00     0.023 A 
ATOM     78  C   UNL A   1      46.537  20.992  37.848  1.00  0.00     0.031 A 
ATOM     79  C   UNL A   1      48.649  21.694  36.926  1.00  0.00     0.131 A 
ATOM     80  C   UNL A   1      47.157  19.816  38.300  1.00  0.00     0.055 A 
ATOM     81  C   UNL A   1      49.249  20.502  37.335  1.00  0.00     0.041 A 
ATOM     82  F   UNL A   1      49.414  22.591  36.283  1.00  0.00    -0.206 F 
ATOM     83  C   UNL A   1      48.504  19.558  38.035  1.00  0.00     0.022 A 
BRANCH  80  84
ATOM     84  S   UNL A   1      46.191  18.650  39.299  1.00  0.00     0.124 S 
ATOM     85  O   UNL A   1      45.219  18.160  38.328  1.00  0.00    -0.237 OA
ATOM     86  O   UNL A   1      47.209  17.696  39.726  1.00  0.00    -0.237 OA
ATOM     87  O   UNL A   1      45.641  19.487  40.363  1.00  0.00    -0.744 OA
ENDBRANCH  80  84
ENDBRANCH  53  77
BRANCH  65  88
ATOM     88  C   UNL A   1      46.431  28.101  40.381  1.00  0.00     0.023 A 
ATOM     89  C   UNL A   1      45.418  28.254  41.344  1.00  0.00     0.031 A 
ATOM     90  C   UNL A   1      47.755  28.383  40.764  1.00  0.00     0.131 A 
ATOM     91  C   UNL A   1      45.742  28.718  42.631  1.00  0.00     0.055 A 
ATOM     92  C   UNL A   1      48.078  28.787  42.061  1.00  0.00     0.041 A 
ATOM     93  F   UNL A   1      48.762  28.257  39.885  1.00  0.00    -0.206 F 
ATOM     94  C   UNL A   1      47.066  28.967  42.999  1.00  0.00     0.022 A 
BRANCH  91  95
ATOM     95  S   UNL A   1      44.399  29.068  43.799  1.00  0.00     0.124 S 
ATOM     96  O   UNL A   1      44.710  30.431  44.220  1.00  0.00    -0.237 OA
ATOM     97  O   UNL A   1      43.211  28.912  42.967  1.00  0.00    -0.237 OA
ATOM     98  O   UNL A   1      44.568  28.048  44.833  1.00  0.00    -0.744 OA
ENDBRANCH  91  95
ENDBRANCH  65  88
ENDBRANCH  39  40
ENDBRANCH  32  34
ENDBRANCH  31  32
ENDBRANCH  30  31
ENDBRANCH  29  30
ENDBRANCH  28  29
ENDBRANCH   1  28
TORSDOF 24
ENDMDL
MODEL 2
REMARK VINA RESULT:      -8.9      1.628      2.117
REMARK SMILES CCC1C[NH+]([C@@H](Cc2c[nH]c3ccccc23)C(=O)OCCOCCOCCOC(=O)c2ccc(-c3c4nc(c(-c5cc(S(=O)(=O)[O-])ccc5F)c5ccc([nH]5)c(-c5cc(S(=O)(=O)[O-])ccc5F)c5nc(c(-c6cc(S(=O)(=O)[O-])ccc6F)c6ccc3[nH]6)C=C5)C=C4)cc2)C1
REMARK SMILES IDX 24 1 23 2 22 3 21 4 20 5 19 6 17 7 18 8 6 9 5 10 3 11 4 12
REMARK SMILES IDX 94 13 2 15 1 16 7 17 8 18 9 19 16 20 10 21 11 22 15 23 12 25
REMARK SMILES IDX 14 26 13 27 25 28 26 29 27 30 28 31 29 32 30 33 31 34 32 35
REMARK SMILES IDX 93 36 33 37 92 38 34 39 35 40 36 41 86 42 37 43 91 44 85 45
REMARK SMILES IDX 87 46 38 47 90 48 84 49 83 50 39 52 71 53 51 54 70 55 52 56
REMARK SMILES IDX 55 57 69 58 88 59 53 60 54 61 68 63 89 64 56 65 40 66 41 67
REMARK SMILES IDX 49 68 42 69 48 70 50 71 47 72 43 73 44 74 45 75 46 76 72 77
REMARK SMILES IDX 73 78 81 79 74 80 80 81 82 82 79 83 75 84 76 85 77 86 78 87
REMARK SMILES IDX 57 88 58 89 66 90 59 91 65 92 67 93 64 94 60 95 61 96 62 97
REMARK SMILES IDX 63 98
REMARK H PARENT 5 14 10 24 87 51 55 62
REMARK Flexibility Score: inf
ROOT
ATOM      1  C   UNL A   1      40.103  21.476  26.079  1.00  0.00     0.188 C 
ENDROOT
BRANCH   1   2
ATOM      2  C   UNL A   1      38.571  21.591  26.034  1.00  0.00     0.188 C 
BRANCH   2   3
ATOM      3  O   UNL A   1      37.870  21.229  24.849  1.00  0.00    -0.376 OA
BRANCH   3   4
ATOM      4  C   UNL A   1      36.472  21.002  24.894  1.00  0.00     0.202 C 
BRANCH   4   5
ATOM      5  C   UNL A   1      35.606  22.081  25.539  1.00  0.00     0.261 C 
BRANCH   5   6
ATOM      6  O   UNL A   1      35.676  23.371  24.908  1.00  0.00    -0.459 OA
BRANCH   6   7
ATOM      7  C   UNL A   1      34.800  23.606  23.896  1.00  0.00     0.365 C 
ATOM      8  O   UNL A   1      35.136  23.831  22.738  1.00  0.00    -0.245 OA
BRANCH   7   9
ATOM      9  C   UNL A   1      33.354  23.726  24.384  1.00  0.00     0.299 C 
BRANCH   9  10
ATOM     10  N   UNL A   1      33.073  24.875  25.313  1.00  0.00    -0.322 N 
ATOM     11  C   UNL A   1      33.348  26.633  24.145  1.00  0.00     0.099 C 
ATOM     12  C   UNL A   1      34.045  25.986  25.366  1.00  0.00     0.272 C 
ATOM     13  C   UNL A   1      32.112  25.874  24.711  1.00  0.00     0.272 C 
ATOM     14  H   UNL A   1      32.895  24.319  26.150  1.00  0.00     0.348 HD
BRANCH  11  15
ATOM     15  C   UNL A   1      33.451  28.117  23.825  1.00  0.00     0.012 C 
ATOM     16  C   UNL A   1      34.009  28.435  22.456  1.00  0.00     0.004 C 
ENDBRANCH  11  15
ENDBRANCH   9  10
BRANCH   9  17
ATOM     17  C   UNL A   1      32.437  23.061  23.339  1.00  0.00     0.115 C 
BRANCH  17  18
ATOM     18  C   UNL A   1      32.201  21.581  23.105  1.00  0.00    -0.016 A 
ATOM     19  C   UNL A   1      31.829  21.170  21.831  1.00  0.00     0.087 A 
ATOM     20  C   UNL A   1      32.351  20.360  23.867  1.00  0.00     0.003 A 
ATOM     21  N   UNL A   1      31.918  19.815  21.751  1.00  0.00    -0.361 N 
ATOM     22  C   UNL A   1      32.345  19.305  22.946  1.00  0.00     0.046 A 
ATOM     23  C   UNL A   1      32.551  19.991  25.214  1.00  0.00     0.010 A 
ATOM     24  H   UNL A   1      31.706  19.281  20.951  1.00  0.00     0.166 HD
ATOM     25  C   UNL A   1      32.707  17.988  23.270  1.00  0.00     0.026 A 
ATOM     26  C   UNL A   1      32.953  18.692  25.559  1.00  0.00     0.001 A 
ATOM     27  C   UNL A   1      33.065  17.711  24.588  1.00  0.00     0.002 A 
ENDBRANCH  17  18
ENDBRANCH   9  17
ENDBRANCH   7   9
ENDBRANCH   6   7
ENDBRANCH   5   6
ENDBRANCH   4   5
ENDBRANCH   3   4
ENDBRANCH   2   3
ENDBRANCH   1   2
BRANCH   1  28
ATOM     28  O   UNL A   1      40.733  22.388  26.966  1.00  0.00    -0.376 OA
BRANCH  28  29
ATOM     29  C   UNL A   1      41.592  23.341  26.358  1.00  0.00     0.202 C 
BRANCH  29  30
ATOM     30  C   UNL A   1      42.959  22.755  25.993  1.00  0.00     0.261 C 
BRANCH  30  31
ATOM     31  O   UNL A   1      43.983  22.955  26.980  1.00  0.00    -0.460 OA
BRANCH  31  32
ATOM     32  C   UNL A   1      44.342  24.230  27.260  1.00  0.00     0.338 C 
ATOM     33  O   UNL A   1      44.334  25.177  26.492  1.00  0.00    -0.246 OA
BRANCH  32  34
ATOM     34  C   UNL A   1      44.531  24.316  28.724  1.00  0.00     0.060 A 
ATOM     35  C   UNL A   1      43.640  23.650  29.578  1.00  0.00     0.016 A 
ATOM     36  C   UNL A   1      45.621  25.017  29.245  1.00  0.00     0.016 A 
ATOM     37  C   UNL A   1      43.824  23.708  30.963  1.00  0.00     0.010 A 
ATOM     38  C   UNL A   1      45.793  25.089  30.626  1.00  0.00     0.010 A 
ATOM     39  C   UNL A   1      44.879  24.462  31.492  1.00  0.00    -0.014 A 
BRANCH  39  40
ATOM     40  C   UNL A   1      44.918  24.825  32.930  1.00  0.00     0.031 A 
ATOM     41  C   UNL A   1      44.515  26.225  33.300  1.00  0.00     0.074 A 
ATOM     42  C   UNL A   1      45.356  23.972  33.871  1.00  0.00     0.049 A 
ATOM     43  N   UNL A   1      44.633  26.858  34.437  1.00  0.00    -0.248 NA
ATOM     44  C   UNL A   1      43.914  27.023  32.220  1.00  0.00     0.031 C 
ATOM     45  C   UNL A   1      45.723  22.577  33.648  1.00  0.00     0.029 A 
ATOM     46  N   UNL A   1      45.590  24.175  35.209  1.00  0.00    -0.354 N 
ATOM     47  C   UNL A   1      44.138  28.137  34.206  1.00  0.00     0.074 A 
ATOM     48  C   UNL A   1      43.756  28.195  32.811  1.00  0.00     0.031 C 
ATOM     49  C   UNL A   1      46.155  22.051  34.809  1.00  0.00     0.029 A 
ATOM     50  C   UNL A   1      46.144  23.088  35.842  1.00  0.00     0.049 A 
ATOM     51  H   UNL A   1      45.381  25.019  35.671  1.00  0.00     0.167 HD
ATOM     52  C   UNL A   1      44.012  29.168  35.078  1.00  0.00     0.034 A 
ATOM     53  C   UNL A   1      46.620  22.961  37.098  1.00  0.00     0.034 A 
ATOM     54  C   UNL A   1      44.427  29.099  36.456  1.00  0.00     0.049 A 
ATOM     55  C   UNL A   1      46.575  24.152  38.027  1.00  0.00     0.074 A 
ATOM     56  C   UNL A   1      44.350  30.077  37.432  1.00  0.00     0.029 A 
ATOM     57  N   UNL A   1      45.019  27.991  37.053  1.00  0.00    -0.354 N 
ATOM     58  N   UNL A   1      46.117  25.363  37.803  1.00  0.00    -0.248 NA
ATOM     59  C   UNL A   1      47.118  23.959  39.379  1.00  0.00     0.031 C 
ATOM     60  C   UNL A   1      44.960  29.588  38.592  1.00  0.00     0.029 A 
ATOM     61  C   UNL A   1      45.341  28.273  38.371  1.00  0.00     0.049 A 
ATOM     62  H   UNL A   1      45.185  27.131  36.603  1.00  0.00     0.167 HD
ATOM     63  C   UNL A   1      46.278  26.060  39.000  1.00  0.00     0.074 A 
ATOM     64  C   UNL A   1      46.879  25.137  39.939  1.00  0.00     0.031 C 
ATOM     65  C   UNL A   1      45.946  27.343  39.298  1.00  0.00     0.034 A 
BRANCH  52  66
ATOM     66  C   UNL A   1      43.469  30.465  34.526  1.00  0.00     0.023 A 
ATOM     67  C   UNL A   1      42.087  30.730  34.486  1.00  0.00     0.031 A 
ATOM     68  C   UNL A   1      44.335  31.413  33.954  1.00  0.00     0.131 A 
ATOM     69  C   UNL A   1      41.610  31.857  33.801  1.00  0.00     0.055 A 
ATOM     70  C   UNL A   1      43.859  32.581  33.358  1.00  0.00     0.041 A 
ATOM     71  F   UNL A   1      45.661  31.204  33.936  1.00  0.00    -0.206 F 
ATOM     72  C   UNL A   1      42.488  32.799  33.259  1.00  0.00     0.022 A 
BRANCH  69  73
ATOM     73  S   UNL A   1      39.832  31.973  33.462  1.00  0.00     0.124 S 
ATOM     74  O   UNL A   1      39.402  30.590  33.656  1.00  0.00    -0.237 OA
ATOM     75  O   UNL A   1      39.381  32.930  34.466  1.00  0.00    -0.237 OA
ATOM     76  O   UNL A   1      39.776  32.445  32.079  1.00  0.00    -0.744 OA
ENDBRANCH  69  73
ENDBRANCH  52  66
BRANCH  53  77
ATOM     77  C   UNL A   1      47.219  21.672  37.551  1.00  0.00     0.023 A 
ATOM     78  C   UNL A   1      46.424  20.671  38.133  1.00  0.00     0.031 A 
ATOM     79  C   UNL A   1      48.602  21.439  37.447  1.00  0.00     0.131 A 
ATOM     80  C   UNL A   1      47.023  19.497  38.619  1.00  0.00     0.055 A 
ATOM     81  C   UNL A   1      49.185  20.250  37.888  1.00  0.00     0.041 A 
ATOM     82  F   UNL A   1      49.407  22.367  36.905  1.00  0.00    -0.206 F 
ATOM     83  C   UNL A   1      48.395  19.273  38.487  1.00  0.00     0.022 A 
BRANCH  80  84
ATOM     84  S   UNL A   1      45.987  18.287  39.489  1.00  0.00     0.124 S 
ATOM     85  O   UNL A   1      45.063  17.877  38.438  1.00  0.00    -0.237 OA
ATOM     86  O   UNL A   1      46.967  17.290  39.906  1.00  0.00    -0.237 OA
ATOM     87  O   UNL A   1      45.393  19.065  40.574  1.00  0.00    -0.744 OA
ENDBRANCH  80  84
ENDBRANCH  53  77
BRANCH  65  88
ATOM     88  C   UNL A   1      46.159  27.805  40.721  1.00  0.00     0.023 A 
ATOM     89  C   UNL A   1      47.301  28.525  41.113  1.00  0.00     0.031 A 
ATOM     90  C   UNL A   1      45.187  27.523  41.700  1.00  0.00     0.131 A 
ATOM     91  C   UNL A   1      47.463  28.901  42.458  1.00  0.00     0.055 A 
ATOM     92  C   UNL A   1      45.326  27.951  43.021  1.00  0.00     0.041 A 
ATOM     93  F   UNL A   1      44.078  26.837  41.383  1.00  0.00    -0.206 F 
ATOM     94  C   UNL A   1      46.475  28.634  43.409  1.00  0.00     0.022 A 
BRANCH  91  95
ATOM     95  S   UNL A   1      49.021  29.677  42.969  1.00  0.00     0.124 S 
ATOM     96  O   UNL A   1      48.790  29.915  44.390  1.00  0.00    -0.237 OA
ATOM     97  O   UNL A   1      50.004  28.648  42.646  1.00  0.00    -0.237 OA
ATOM     98  O   UNL A   1      49.092  30.882  42.144  1.00  0.00    -0.744 OA
ENDBRANCH  91  95
ENDBRANCH  65  88
ENDBRANCH  39  40
ENDBRANCH  32  34
ENDBRANCH  31  32
ENDBRANCH  30  31
ENDBRANCH  29  30
ENDBRANCH  28  29
ENDBRANCH   1  28
TORSDOF 24
ENDMDL
MODEL 3
REMARK VINA RESULT:      -8.8      1.993      3.390
REMARK SMILES CCC1C[NH+]([C@@H](Cc2c[nH]c3ccccc23)C(=O)OCCOCCOCCOC(=O)c2ccc(-c3c4nc(c(-c5cc(S(=O)(=O)[O-])ccc5F)c5ccc([nH]5)c(-c5cc(S(=O)(=O)[O-])ccc5F)c5nc(c(-c6cc(S(=O)(=O)[O-])ccc6F)c6ccc3[nH]6)C=C5)C=C4)cc2)C1
REMARK SMILES IDX 24 1 23 2 22 3 21 4 20 5 19 6 17 7 18 8 6 9 5 10 3 11 4 12
REMARK SMILES IDX 94 13 2 15 1 16 7 17 8 18 9 19 16 20 10 21 11 22 15 23 12 25
REMARK SMILES IDX 14 26 13 27 25 28 26 29 27 30 28 31 29 32 30 33 31 34 32 35
REMARK SMILES IDX 93 36 33 37 92 38 34 39 35 40 36 41 86 42 37 43 91 44 85 45
REMARK SMILES IDX 87 46 38 47 90 48 84 49 83 50 39 52 71 53 51 54 70 55 52 56
REMARK SMILES IDX 55 57 69 58 88 59 53 60 54 61 68 63 89 64 56 65 40 66 41 67
REMARK SMILES IDX 49 68 42 69 48 70 50 71 47 72 43 73 44 74 45 75 46 76 72 77
REMARK SMILES IDX 73 78 81 79 74 80 80 81 82 82 79 83 75 84 76 85 77 86 78 87
REMARK SMILES IDX 57 88 58 89 66 90 59 91 65 92 67 93 64 94 60 95 61 96 62 97
REMARK SMILES IDX 63 98
REMARK H PARENT 5 14 10 24 87 51 55 62
REMARK Flexibility Score: inf
ROOT
ATOM      1  C   UNL A   1      40.513  25.320  26.884  1.00  0.00     0.188 C 
ENDROOT
BRANCH   1   2
ATOM      2  C   UNL A   1      39.776  24.013  27.218  1.00  0.00     0.188 C 
BRANCH   2   3
ATOM      3  O   UNL A   1      38.733  23.553  26.365  1.00  0.00    -0.376 OA
BRANCH   3   4
ATOM      4  C   UNL A   1      38.725  22.208  25.918  1.00  0.00     0.202 C 
BRANCH   4   5
ATOM      5  C   UNL A   1      37.524  21.749  25.096  1.00  0.00     0.261 C 
BRANCH   5   6
ATOM      6  O   UNL A   1      36.501  22.743  24.913  1.00  0.00    -0.459 OA
BRANCH   6   7
ATOM      7  C   UNL A   1      35.895  22.782  23.696  1.00  0.00     0.365 C 
ATOM      8  O   UNL A   1      36.477  23.050  22.650  1.00  0.00    -0.245 OA
BRANCH   7   9
ATOM      9  C   UNL A   1      34.376  22.619  23.789  1.00  0.00     0.299 C 
BRANCH   9  10
ATOM     10  N   UNL A   1      33.846  22.206  25.134  1.00  0.00    -0.322 N 
ATOM     11  C   UNL A   1      31.948  23.154  25.314  1.00  0.00     0.099 C 
ATOM     12  C   UNL A   1      33.316  23.255  26.030  1.00  0.00     0.272 C 
ATOM     13  C   UNL A   1      32.426  21.695  25.055  1.00  0.00     0.272 C 
ATOM     14  H   UNL A   1      34.653  21.654  25.424  1.00  0.00     0.348 HD
BRANCH  11  15
ATOM     15  C   UNL A   1      30.643  23.596  25.960  1.00  0.00     0.012 C 
ATOM     16  C   UNL A   1      30.397  25.088  25.941  1.00  0.00     0.004 C 
ENDBRANCH  11  15
ENDBRANCH   9  10
BRANCH   9  17
ATOM     17  C   UNL A   1      33.731  23.510  22.710  1.00  0.00     0.115 C 
BRANCH  17  18
ATOM     18  C   UNL A   1      33.487  25.007  22.753  1.00  0.00    -0.016 A 
ATOM     19  C   UNL A   1      32.977  25.621  21.616  1.00  0.00     0.087 A 
ATOM     20  C   UNL A   1      33.553  26.053  23.750  1.00  0.00     0.003 A 
ATOM     21  N   UNL A   1      32.587  26.887  21.924  1.00  0.00    -0.361 N 
ATOM     22  C   UNL A   1      32.822  27.138  23.248  1.00  0.00     0.046 A 
ATOM     23  C   UNL A   1      34.083  26.225  25.046  1.00  0.00     0.010 A 
ATOM     24  H   UNL A   1      32.194  27.528  21.288  1.00  0.00     0.166 HD
ATOM     25  C   UNL A   1      32.450  28.249  24.020  1.00  0.00     0.026 A 
ATOM     26  C   UNL A   1      33.696  27.306  25.852  1.00  0.00     0.001 A 
ATOM     27  C   UNL A   1      32.856  28.289  25.352  1.00  0.00     0.002 A 
ENDBRANCH  17  18
ENDBRANCH   9  17
ENDBRANCH   7   9
ENDBRANCH   6   7
ENDBRANCH   5   6
ENDBRANCH   4   5
ENDBRANCH   3   4
ENDBRANCH   2   3
ENDBRANCH   1   2
BRANCH   1  28
ATOM     28  O   UNL A   1      41.924  25.191  26.796  1.00  0.00    -0.376 OA
BRANCH  28  29
ATOM     29  C   UNL A   1      42.430  24.844  25.516  1.00  0.00     0.202 C 
BRANCH  29  30
ATOM     30  C   UNL A   1      43.600  23.858  25.590  1.00  0.00     0.261 C 
BRANCH  30  31
ATOM     31  O   UNL A   1      43.708  23.144  26.832  1.00  0.00    -0.460 OA
BRANCH  31  32
ATOM     32  C   UNL A   1      44.935  23.058  27.399  1.00  0.00     0.338 C 
ATOM     33  O   UNL A   1      45.976  22.751  26.845  1.00  0.00    -0.246 OA
BRANCH  32  34
ATOM     34  C   UNL A   1      44.823  23.622  28.761  1.00  0.00     0.060 A 
ATOM     35  C   UNL A   1      45.608  24.725  29.121  1.00  0.00     0.016 A 
ATOM     36  C   UNL A   1      43.901  23.083  29.663  1.00  0.00     0.016 A 
ATOM     37  C   UNL A   1      45.493  25.278  30.401  1.00  0.00     0.010 A 
ATOM     38  C   UNL A   1      43.800  23.623  30.943  1.00  0.00     0.010 A 
ATOM     39  C   UNL A   1      44.616  24.701  31.329  1.00  0.00    -0.014 A 
BRANCH  39  40
ATOM     40  C   UNL A   1      44.702  25.032  32.773  1.00  0.00     0.031 A 
ATOM     41  C   UNL A   1      44.301  26.421  33.188  1.00  0.00     0.074 A 
ATOM     42  C   UNL A   1      45.178  24.163  33.679  1.00  0.00     0.049 A 
ATOM     43  N   UNL A   1      44.454  27.029  34.334  1.00  0.00    -0.248 NA
ATOM     44  C   UNL A   1      43.658  27.238  32.147  1.00  0.00     0.031 C 
ATOM     45  C   UNL A   1      45.547  22.775  33.412  1.00  0.00     0.029 A 
ATOM     46  N   UNL A   1      45.457  24.338  35.012  1.00  0.00    -0.354 N 
ATOM     47  C   UNL A   1      43.942  28.309  34.149  1.00  0.00     0.074 A 
ATOM     48  C   UNL A   1      43.512  28.395  32.769  1.00  0.00     0.031 C 
ATOM     49  C   UNL A   1      46.023  22.228  34.546  1.00  0.00     0.029 A 
ATOM     50  C   UNL A   1      46.040  23.241  35.602  1.00  0.00     0.049 A 
ATOM     51  H   UNL A   1      45.258  25.169  35.500  1.00  0.00     0.167 HD
ATOM     52  C   UNL A   1      43.839  29.319  35.047  1.00  0.00     0.034 A 
ATOM     53  C   UNL A   1      46.560  23.090  36.838  1.00  0.00     0.034 A 
ATOM     54  C   UNL A   1      44.301  29.223  36.409  1.00  0.00     0.049 A 
ATOM     55  C   UNL A   1      46.538  24.260  37.794  1.00  0.00     0.074 A 
ATOM     56  C   UNL A   1      44.250  30.179  37.408  1.00  0.00     0.029 A 
ATOM     57  N   UNL A   1      44.922  28.107  36.960  1.00  0.00    -0.354 N 
ATOM     58  N   UNL A   1      46.064  25.472  37.613  1.00  0.00    -0.248 NA
ATOM     59  C   UNL A   1      47.128  24.042  39.122  1.00  0.00     0.031 C 
ATOM     60  C   UNL A   1      44.903  29.669  38.536  1.00  0.00     0.029 A 
ATOM     61  C   UNL A   1      45.286  28.363  38.272  1.00  0.00     0.049 A 
ATOM     62  H   UNL A   1      45.078  27.258  36.486  1.00  0.00     0.167 HD
ATOM     63  C   UNL A   1      46.261  26.144  38.819  1.00  0.00     0.074 A 
ATOM     64  C   UNL A   1      46.900  25.205  39.716  1.00  0.00     0.031 C 
ATOM     65  C   UNL A   1      45.930  27.417  39.157  1.00  0.00     0.034 A 
BRANCH  52  66
ATOM     66  C   UNL A   1      43.267  30.624  34.544  1.00  0.00     0.023 A 
ATOM     67  C   UNL A   1      44.096  31.686  34.136  1.00  0.00     0.031 A 
ATOM     68  C   UNL A   1      41.879  30.841  34.550  1.00  0.00     0.131 A 
ATOM     69  C   UNL A   1      43.538  32.941  33.853  1.00  0.00     0.055 A 
ATOM     70  C   UNL A   1      41.322  32.065  34.174  1.00  0.00     0.041 A 
ATOM     71  F   UNL A   1      41.037  29.876  34.955  1.00  0.00    -0.206 F 
ATOM     72  C   UNL A   1      42.154  33.131  33.843  1.00  0.00     0.022 A 
BRANCH  69  73
ATOM     73  S   UNL A   1      44.650  34.364  33.687  1.00  0.00     0.124 S 
ATOM     74  O   UNL A   1      45.479  34.233  34.883  1.00  0.00    -0.237 OA
ATOM     75  O   UNL A   1      45.315  34.099  32.416  1.00  0.00    -0.237 OA
ATOM     76  O   UNL A   1      43.743  35.511  33.690  1.00  0.00    -0.744 OA
ENDBRANCH  69  73
ENDBRANCH  52  66
BRANCH  53  77
ATOM     77  C   UNL A   1      47.184  21.796  37.240  1.00  0.00     0.023 A 
ATOM     78  C   UNL A   1      46.459  20.842  37.973  1.00  0.00     0.031 A 
ATOM     79  C   UNL A   1      48.527  21.513  36.936  1.00  0.00     0.131 A 
ATOM     80  C   UNL A   1      47.090  19.665  38.404  1.00  0.00     0.055 A 
ATOM     81  C   UNL A   1      49.136  20.320  37.326  1.00  0.00     0.041 A 
ATOM     82  F   UNL A   1      49.266  22.396  36.245  1.00  0.00    -0.206 F 
ATOM     83  C   UNL A   1      48.419  19.390  38.073  1.00  0.00     0.022 A 
BRANCH  80  84
ATOM     84  S   UNL A   1      46.166  18.519  39.465  1.00  0.00     0.124 S 
ATOM     85  O   UNL A   1      47.216  17.605  39.901  1.00  0.00    -0.237 OA
ATOM     86  O   UNL A   1      45.629  19.413  40.486  1.00  0.00    -0.237 OA
ATOM     87  O   UNL A   1      45.173  17.943  38.562  1.00  0.00    -0.744 OA
ENDBRANCH  80  84
ENDBRANCH  53  77
BRANCH  65  88
ATOM     88  C   UNL A   1      46.189  27.849  40.582  1.00  0.00     0.023 A 
ATOM     89  C   UNL A   1      47.344  28.558  40.953  1.00  0.00     0.031 A 
ATOM     90  C   UNL A   1      45.246  27.550  41.584  1.00  0.00     0.131 A 
ATOM     91  C   UNL A   1      47.549  28.905  42.299  1.00  0.00     0.055 A 
ATOM     92  C   UNL A   1      45.427  27.950  42.909  1.00  0.00     0.041 A 
ATOM     93  F   UNL A   1      44.125  26.874  41.288  1.00  0.00    -0.206 F 
ATOM     94  C   UNL A   1      46.590  28.622  43.275  1.00  0.00     0.022 A 
BRANCH  91  95
ATOM     95  S   UNL A   1      49.125  29.666  42.778  1.00  0.00     0.124 S 
ATOM     96  O   UNL A   1      48.694  30.966  43.282  1.00  0.00    -0.237 OA
ATOM     97  O   UNL A   1      49.633  28.732  43.777  1.00  0.00    -0.237 OA
ATOM     98  O   UNL A   1      49.881  29.707  41.527  1.00  0.00    -0.744 OA
ENDBRANCH  91  95
ENDBRANCH  65  88
ENDBRANCH  39  40
ENDBRANCH  32  34
ENDBRANCH  31  32
ENDBRANCH  30  31
ENDBRANCH  29  30
ENDBRANCH  28  29
ENDBRANCH   1  28
TORSDOF 24
ENDMDL
