MODEL 1
REMARK VINA RESULT:     -10.1      0.000      0.000
REMARK SMILES Cc1cc(C)n([C@@H](C(=O)OCCOCCOCCOC(=O)c2ccc(-c3c4nc(c(-c5cc(S(=O)(=O)[O-])ccc5F)c5ccc([nH]5)c(-c5cc(S(=O)(=O)[O-])ccc5F)c5nc(c(-c6cc(S(=O)(=O)[O-])ccc6F)c6ccc3[nH]6)C=C5)C=C4)cc2)C(C)C)n1
REMARK SMILES IDX 15 1 14 2 13 3 12 4 11 5 10 6 8 7 9 8 7 9 6 10 1 11 2 12
REMARK SMILES IDX 3 13 88 14 4 15 5 16 85 17 86 18 87 19 16 20 17 21 18 22
REMARK SMILES IDX 19 23 20 24 21 25 22 26 23 27 84 28 24 29 83 30 25 31 26 32
REMARK SMILES IDX 27 33 77 34 28 35 82 36 76 37 78 38 29 39 81 40 75 41 74 42
REMARK SMILES IDX 30 44 62 45 42 46 61 47 43 48 46 49 60 50 79 51 44 52 45 53
REMARK SMILES IDX 59 55 80 56 47 57 31 58 32 59 40 60 33 61 39 62 41 63 38 64
REMARK SMILES IDX 34 65 35 66 36 67 37 68 63 69 64 70 72 71 65 72 71 73 73 74
REMARK SMILES IDX 70 75 66 76 67 77 68 78 69 79 48 80 49 81 57 82 50 83 56 84
REMARK SMILES IDX 58 85 55 86 51 87 52 88 53 89 54 90
REMARK H PARENT 78 43 46 54
REMARK Flexibility Score: inf
ROOT
ATOM      1  C   UNL A   1      35.505  20.808  24.977  1.00  0.00     0.188 C 
ENDROOT
BRANCH   1   2
ATOM      2  C   UNL A   1      34.574  22.033  24.878  1.00  0.00     0.188 C 
BRANCH   2   3
ATOM      3  O   UNL A   1      33.155  21.882  24.806  1.00  0.00    -0.376 OA
BRANCH   3   4
ATOM      4  C   UNL A   1      32.554  21.951  23.525  1.00  0.00     0.202 C 
BRANCH   4   5
ATOM      5  C   UNL A   1      31.438  22.994  23.391  1.00  0.00     0.261 C 
BRANCH   5   6
ATOM      6  O   UNL A   1      31.867  24.151  22.643  1.00  0.00    -0.462 OA
BRANCH   6   7
ATOM      7  C   UNL A   1      32.502  25.136  23.310  1.00  0.00     0.331 C 
ATOM      8  O   UNL A   1      33.686  25.412  23.123  1.00  0.00    -0.250 OA
BRANCH   7   9
ATOM      9  C   UNL A   1      31.619  25.937  24.267  1.00  0.00     0.219 C 
BRANCH   9  10
ATOM     10  N   UNL A   1      30.987  27.138  23.677  1.00  0.00    -0.255 N 
ATOM     11  C   UNL A   1      27.818  28.623  22.983  1.00  0.00     0.069 C 
ATOM     12  C   UNL A   1      29.248  28.294  23.178  1.00  0.00     0.060 A 
ATOM     13  C   UNL A   1      30.330  29.182  23.146  1.00  0.00     0.048 A 
ATOM     14  N   UNL A   1      29.643  27.051  23.467  1.00  0.00    -0.177 NA
ATOM     15  C   UNL A   1      31.441  28.439  23.493  1.00  0.00     0.037 A 
ATOM     16  C   UNL A   1      32.808  28.995  23.678  1.00  0.00     0.066 C 
ENDBRANCH   9  10
BRANCH   9  17
ATOM     17  C   UNL A   1      32.217  26.114  25.689  1.00  0.00     0.019 C 
ATOM     18  C   UNL A   1      31.282  26.997  26.531  1.00  0.00     0.010 C 
ATOM     19  C   UNL A   1      32.464  24.808  26.453  1.00  0.00     0.010 C 
ENDBRANCH   9  17
ENDBRANCH   7   9
ENDBRANCH   6   7
ENDBRANCH   5   6
ENDBRANCH   4   5
ENDBRANCH   3   4
ENDBRANCH   2   3
ENDBRANCH   1   2
BRANCH   1  20
ATOM     20  O   UNL A   1      36.761  21.034  24.344  1.00  0.00    -0.376 OA
BRANCH  20  21
ATOM     21  C   UNL A   1      37.405  22.221  24.800  1.00  0.00     0.202 C 
BRANCH  21  22
ATOM     22  C   UNL A   1      38.306  21.854  25.964  1.00  0.00     0.261 C 
BRANCH  22  23
ATOM     23  O   UNL A   1      38.837  23.004  26.619  1.00  0.00    -0.460 OA
BRANCH  23  24
ATOM     24  C   UNL A   1      40.015  22.873  27.245  1.00  0.00     0.338 C 
ATOM     25  O   UNL A   1      40.454  21.863  27.798  1.00  0.00    -0.246 OA
BRANCH  24  26
ATOM     26  C   UNL A   1      40.651  24.192  27.279  1.00  0.00     0.060 A 
ATOM     27  C   UNL A   1      41.598  24.425  28.279  1.00  0.00     0.016 A 
ATOM     28  C   UNL A   1      40.096  25.242  26.527  1.00  0.00     0.016 A 
ATOM     29  C   UNL A   1      41.812  25.725  28.682  1.00  0.00     0.010 A 
ATOM     30  C   UNL A   1      40.290  26.535  26.947  1.00  0.00     0.010 A 
ATOM     31  C   UNL A   1      41.075  26.747  28.077  1.00  0.00    -0.014 A 
BRANCH  31  32
ATOM     32  C   UNL A   1      41.113  28.062  28.677  1.00  0.00     0.031 A 
ATOM     33  C   UNL A   1      42.166  28.952  28.167  1.00  0.00     0.074 A 
ATOM     34  C   UNL A   1      40.174  28.477  29.548  1.00  0.00     0.049 A 
ATOM     35  N   UNL A   1      43.141  29.475  28.830  1.00  0.00    -0.248 NA
ATOM     36  C   UNL A   1      42.206  29.209  26.721  1.00  0.00     0.031 C 
ATOM     37  C   UNL A   1      38.928  27.793  29.902  1.00  0.00     0.029 A 
ATOM     38  N   UNL A   1      40.078  29.670  30.200  1.00  0.00    -0.354 N 
ATOM     39  C   UNL A   1      43.781  30.321  27.938  1.00  0.00     0.074 A 
ATOM     40  C   UNL A   1      43.286  29.982  26.629  1.00  0.00     0.031 C 
ATOM     41  C   UNL A   1      38.107  28.670  30.519  1.00  0.00     0.029 A 
ATOM     42  C   UNL A   1      38.807  29.933  30.693  1.00  0.00     0.049 A 
ATOM     43  H   UNL A   1      40.837  30.286  30.310  1.00  0.00     0.167 HD
ATOM     44  C   UNL A   1      44.481  31.399  28.376  1.00  0.00     0.034 A 
ATOM     45  C   UNL A   1      38.334  31.130  31.124  1.00  0.00     0.034 A 
ATOM     46  C   UNL A   1      44.851  31.263  29.767  1.00  0.00     0.049 A 
ATOM     47  C   UNL A   1      39.502  31.960  31.506  1.00  0.00     0.074 A 
ATOM     48  C   UNL A   1      45.523  30.296  30.493  1.00  0.00     0.029 A 
ATOM     49  N   UNL A   1      44.221  32.051  30.705  1.00  0.00    -0.354 N 
ATOM     50  N   UNL A   1      40.287  31.691  32.514  1.00  0.00    -0.248 NA
ATOM     51  C   UNL A   1      40.061  32.879  30.525  1.00  0.00     0.031 C 
ATOM     52  C   UNL A   1      44.874  30.259  31.761  1.00  0.00     0.029 A 
ATOM     53  C   UNL A   1      43.878  31.237  31.758  1.00  0.00     0.049 A 
ATOM     54  H   UNL A   1      44.048  33.017  30.633  1.00  0.00     0.167 HD
ATOM     55  C   UNL A   1      41.557  32.039  32.086  1.00  0.00     0.074 A 
ATOM     56  C   UNL A   1      41.339  32.883  30.916  1.00  0.00     0.031 C 
ATOM     57  C   UNL A   1      42.664  31.380  32.542  1.00  0.00     0.034 A 
BRANCH  44  58
ATOM     58  C   UNL A   1      44.532  32.713  27.637  1.00  0.00     0.023 A 
ATOM     59  C   UNL A   1      43.778  33.777  28.160  1.00  0.00     0.031 A 
ATOM     60  C   UNL A   1      45.037  32.898  26.327  1.00  0.00     0.131 A 
ATOM     61  C   UNL A   1      43.481  34.902  27.373  1.00  0.00     0.055 A 
ATOM     62  C   UNL A   1      44.811  34.058  25.582  1.00  0.00     0.041 A 
ATOM     63  F   UNL A   1      45.686  31.938  25.658  1.00  0.00    -0.206 F 
ATOM     64  C   UNL A   1      44.002  35.057  26.092  1.00  0.00     0.022 A 
BRANCH  61  65
ATOM     65  S   UNL A   1      42.233  36.060  27.986  1.00  0.00     0.124 S 
ATOM     66  O   UNL A   1      42.666  36.251  29.367  1.00  0.00    -0.237 OA
ATOM     67  O   UNL A   1      42.417  37.197  27.090  1.00  0.00    -0.237 OA
ATOM     68  O   UNL A   1      40.980  35.329  27.819  1.00  0.00    -0.744 OA
ENDBRANCH  61  65
ENDBRANCH  44  58
BRANCH  45  69
ATOM     69  C   UNL A   1      36.953  31.657  30.972  1.00  0.00     0.023 A 
ATOM     70  C   UNL A   1      36.241  32.194  32.061  1.00  0.00     0.031 A 
ATOM     71  C   UNL A   1      36.388  31.847  29.689  1.00  0.00     0.131 A 
ATOM     72  C   UNL A   1      35.022  32.877  31.845  1.00  0.00     0.055 A 
ATOM     73  C   UNL A   1      35.170  32.497  29.485  1.00  0.00     0.041 A 
ATOM     74  F   UNL A   1      37.043  31.490  28.574  1.00  0.00    -0.206 F 
ATOM     75  C   UNL A   1      34.484  33.023  30.565  1.00  0.00     0.022 A 
BRANCH  72  76
ATOM     76  S   UNL A   1      34.188  33.714  33.228  1.00  0.00     0.124 S 
ATOM     77  O   UNL A   1      35.052  33.384  34.354  1.00  0.00    -0.237 OA
ATOM     78  O   UNL A   1      34.183  35.109  32.800  1.00  0.00    -0.237 OA
ATOM     79  O   UNL A   1      32.868  33.082  33.255  1.00  0.00    -0.744 OA
ENDBRANCH  72  76
ENDBRANCH  45  69
BRANCH  57  80
ATOM     80  C   UNL A   1      42.544  30.534  33.796  1.00  0.00     0.023 A 
ATOM     81  C   UNL A   1      42.428  29.126  33.809  1.00  0.00     0.031 A 
ATOM     82  C   UNL A   1      42.654  31.186  35.039  1.00  0.00     0.131 A 
ATOM     83  C   UNL A   1      42.398  28.428  35.032  1.00  0.00     0.055 A 
ATOM     84  C   UNL A   1      42.646  30.490  36.249  1.00  0.00     0.041 A 
ATOM     85  F   UNL A   1      42.799  32.521  35.099  1.00  0.00    -0.206 F 
ATOM     86  C   UNL A   1      42.508  29.107  36.249  1.00  0.00     0.022 A 
BRANCH  83  87
ATOM     87  S   UNL A   1      42.188  26.620  35.061  1.00  0.00     0.124 S 
ATOM     88  O   UNL A   1      42.566  26.249  36.419  1.00  0.00    -0.237 OA
ATOM     89  O   UNL A   1      40.775  26.465  34.724  1.00  0.00    -0.237 OA
ATOM     90  O   UNL A   1      43.113  26.157  34.024  1.00  0.00    -0.744 OA
ENDBRANCH  83  87
ENDBRANCH  57  80
ENDBRANCH  31  32
ENDBRANCH  24  26
ENDBRANCH  23  24
ENDBRANCH  22  23
ENDBRANCH  21  22
ENDBRANCH  20  21
ENDBRANCH   1  20
TORSDOF 22
ENDMDL
MODEL 2
REMARK VINA RESULT:      -9.9      3.959      8.753
REMARK SMILES Cc1cc(C)n([C@@H](C(=O)OCCOCCOCCOC(=O)c2ccc(-c3c4nc(c(-c5cc(S(=O)(=O)[O-])ccc5F)c5ccc([nH]5)c(-c5cc(S(=O)(=O)[O-])ccc5F)c5nc(c(-c6cc(S(=O)(=O)[O-])ccc6F)c6ccc3[nH]6)C=C5)C=C4)cc2)C(C)C)n1
REMARK SMILES IDX 15 1 14 2 13 3 12 4 11 5 10 6 8 7 9 8 7 9 6 10 1 11 2 12
REMARK SMILES IDX 3 13 88 14 4 15 5 16 85 17 86 18 87 19 16 20 17 21 18 22
REMARK SMILES IDX 19 23 20 24 21 25 22 26 23 27 84 28 24 29 83 30 25 31 26 32
REMARK SMILES IDX 27 33 77 34 28 35 82 36 76 37 78 38 29 39 81 40 75 41 74 42
REMARK SMILES IDX 30 44 62 45 42 46 61 47 43 48 46 49 60 50 79 51 44 52 45 53
REMARK SMILES IDX 59 55 80 56 47 57 31 58 32 59 40 60 33 61 39 62 41 63 38 64
REMARK SMILES IDX 34 65 35 66 36 67 37 68 63 69 64 70 72 71 65 72 71 73 73 74
REMARK SMILES IDX 70 75 66 76 67 77 68 78 69 79 48 80 49 81 57 82 50 83 56 84
REMARK SMILES IDX 58 85 55 86 51 87 52 88 53 89 54 90
REMARK H PARENT 78 43 46 54
REMARK Flexibility Score: inf
ROOT
ATOM      1  C   UNL A   1      31.784  30.115  25.908  1.00  0.00     0.188 C 
ENDROOT
BRANCH   1   2
ATOM      2  C   UNL A   1      31.486  29.332  24.614  1.00  0.00     0.188 C 
BRANCH   2   3
ATOM      3  O   UNL A   1      32.241  29.555  23.422  1.00  0.00    -0.376 OA
BRANCH   3   4
ATOM      4  C   UNL A   1      32.812  28.424  22.788  1.00  0.00     0.202 C 
BRANCH   4   5
ATOM      5  C   UNL A   1      32.158  27.085  23.146  1.00  0.00     0.261 C 
BRANCH   5   6
ATOM      6  O   UNL A   1      33.071  26.202  23.829  1.00  0.00    -0.462 OA
BRANCH   6   7
ATOM      7  C   UNL A   1      32.673  25.662  24.999  1.00  0.00     0.331 C 
ATOM      8  O   UNL A   1      32.298  26.341  25.954  1.00  0.00    -0.250 OA
BRANCH   7   9
ATOM      9  C   UNL A   1      32.653  24.133  25.028  1.00  0.00     0.219 C 
BRANCH   9  10
ATOM     10  N   UNL A   1      33.869  23.503  25.587  1.00  0.00    -0.255 N 
ATOM     11  C   UNL A   1      37.434  23.630  25.479  1.00  0.00     0.069 C 
ATOM     12  C   UNL A   1      36.004  23.372  25.768  1.00  0.00     0.060 A 
ATOM     13  C   UNL A   1      35.476  22.699  26.876  1.00  0.00     0.048 A 
ATOM     14  N   UNL A   1      35.039  23.833  24.968  1.00  0.00    -0.177 NA
ATOM     15  C   UNL A   1      34.104  22.808  26.769  1.00  0.00     0.037 A 
ATOM     16  C   UNL A   1      33.133  22.316  27.781  1.00  0.00     0.066 C 
ENDBRANCH   9  10
BRANCH   9  17
ATOM     17  C   UNL A   1      32.080  23.479  23.741  1.00  0.00     0.019 C 
ATOM     18  C   UNL A   1      32.223  21.952  23.837  1.00  0.00     0.010 C 
ATOM     19  C   UNL A   1      30.612  23.809  23.447  1.00  0.00     0.010 C 
ENDBRANCH   9  17
ENDBRANCH   7   9
ENDBRANCH   6   7
ENDBRANCH   5   6
ENDBRANCH   4   5
ENDBRANCH   3   4
ENDBRANCH   2   3
ENDBRANCH   1   2
BRANCH   1  20
ATOM     20  O   UNL A   1      32.826  29.514  26.672  1.00  0.00    -0.376 OA
BRANCH  20  21
ATOM     21  C   UNL A   1      33.709  30.471  27.251  1.00  0.00     0.202 C 
BRANCH  21  22
ATOM     22  C   UNL A   1      34.933  29.738  27.767  1.00  0.00     0.261 C 
BRANCH  22  23
ATOM     23  O   UNL A   1      35.969  30.632  28.166  1.00  0.00    -0.460 OA
BRANCH  23  24
ATOM     24  C   UNL A   1      36.724  30.279  29.215  1.00  0.00     0.338 C 
ATOM     25  O   UNL A   1      36.696  30.764  30.347  1.00  0.00    -0.246 OA
BRANCH  24  26
ATOM     26  C   UNL A   1      37.699  29.289  28.751  1.00  0.00     0.060 A 
ATOM     27  C   UNL A   1      38.133  28.330  29.669  1.00  0.00     0.016 A 
ATOM     28  C   UNL A   1      38.372  29.506  27.535  1.00  0.00     0.016 A 
ATOM     29  C   UNL A   1      39.370  27.756  29.476  1.00  0.00     0.010 A 
ATOM     30  C   UNL A   1      39.616  28.952  27.357  1.00  0.00     0.010 A 
ATOM     31  C   UNL A   1      40.133  28.158  28.376  1.00  0.00    -0.014 A 
BRANCH  31  32
ATOM     32  C   UNL A   1      41.519  27.751  28.323  1.00  0.00     0.031 A 
ATOM     33  C   UNL A   1      41.767  26.459  27.664  1.00  0.00     0.074 A 
ATOM     34  C   UNL A   1      42.517  28.555  28.737  1.00  0.00     0.049 A 
ATOM     35  N   UNL A   1      42.286  25.400  28.185  1.00  0.00    -0.248 NA
ATOM     36  C   UNL A   1      41.284  26.288  26.287  1.00  0.00     0.031 C 
ATOM     37  C   UNL A   1      42.415  29.961  29.134  1.00  0.00     0.029 A 
ATOM     38  N   UNL A   1      43.857  28.314  28.760  1.00  0.00    -0.354 N 
ATOM     39  C   UNL A   1      42.416  24.501  27.137  1.00  0.00     0.074 A 
ATOM     40  C   UNL A   1      41.626  25.023  26.052  1.00  0.00     0.031 C 
ATOM     41  C   UNL A   1      43.651  30.505  29.139  1.00  0.00     0.029 A 
ATOM     42  C   UNL A   1      44.627  29.466  28.853  1.00  0.00     0.049 A 
ATOM     43  H   UNL A   1      44.244  27.410  28.716  1.00  0.00     0.167 HD
ATOM     44  C   UNL A   1      43.363  23.528  27.164  1.00  0.00     0.034 A 
ATOM     45  C   UNL A   1      45.959  29.574  28.614  1.00  0.00     0.034 A 
ATOM     46  C   UNL A   1      43.821  23.270  28.511  1.00  0.00     0.049 A 
ATOM     47  C   UNL A   1      46.554  28.227  28.785  1.00  0.00     0.074 A 
ATOM     48  C   UNL A   1      43.187  22.947  29.697  1.00  0.00     0.029 A 
ATOM     49  N   UNL A   1      45.088  23.671  28.872  1.00  0.00    -0.354 N 
ATOM     50  N   UNL A   1      46.616  27.599  29.928  1.00  0.00    -0.248 NA
ATOM     51  C   UNL A   1      46.724  27.380  27.613  1.00  0.00     0.031 C 
ATOM     52  C   UNL A   1      43.921  23.627  30.713  1.00  0.00     0.029 A 
ATOM     53  C   UNL A   1      44.990  24.282  30.099  1.00  0.00     0.049 A 
ATOM     54  H   UNL A   1      45.911  23.543  28.348  1.00  0.00     0.167 HD
ATOM     55  C   UNL A   1      46.393  26.267  29.621  1.00  0.00     0.074 A 
ATOM     56  C   UNL A   1      46.600  26.176  28.179  1.00  0.00     0.031 C 
ATOM     57  C   UNL A   1      45.782  25.428  30.509  1.00  0.00     0.034 A 
BRANCH  44  58
ATOM     58  C   UNL A   1      44.105  23.056  25.939  1.00  0.00     0.023 A 
ATOM     59  C   UNL A   1      44.116  21.674  25.685  1.00  0.00     0.031 A 
ATOM     60  C   UNL A   1      45.018  23.831  25.184  1.00  0.00     0.131 A 
ATOM     61  C   UNL A   1      45.051  21.114  24.798  1.00  0.00     0.055 A 
ATOM     62  C   UNL A   1      45.885  23.278  24.239  1.00  0.00     0.041 A 
ATOM     63  F   UNL A   1      45.195  25.142  25.384  1.00  0.00    -0.206 F 
ATOM     64  C   UNL A   1      45.928  21.907  24.064  1.00  0.00     0.022 A 
BRANCH  61  65
ATOM     65  S   UNL A   1      45.231  19.314  24.781  1.00  0.00     0.124 S 
ATOM     66  O   UNL A   1      46.586  19.153  25.301  1.00  0.00    -0.237 OA
ATOM     67  O   UNL A   1      44.148  18.897  25.664  1.00  0.00    -0.237 OA
ATOM     68  O   UNL A   1      45.059  18.970  23.372  1.00  0.00    -0.744 OA
ENDBRANCH  61  65
ENDBRANCH  44  58
BRANCH  45  69
ATOM     69  C   UNL A   1      46.670  30.727  28.002  1.00  0.00     0.023 A 
ATOM     70  C   UNL A   1      46.028  31.604  27.108  1.00  0.00     0.031 A 
ATOM     71  C   UNL A   1      47.948  31.117  28.465  1.00  0.00     0.131 A 
ATOM     72  C   UNL A   1      46.662  32.803  26.711  1.00  0.00     0.055 A 
ATOM     73  C   UNL A   1      48.582  32.288  28.046  1.00  0.00     0.041 A 
ATOM     74  F   UNL A   1      48.594  30.422  29.413  1.00  0.00    -0.206 F 
ATOM     75  C   UNL A   1      47.935  33.143  27.171  1.00  0.00     0.022 A 
BRANCH  72  76
ATOM     76  S   UNL A   1      45.766  34.015  25.691  1.00  0.00     0.124 S 
ATOM     77  O   UNL A   1      46.848  34.651  24.948  1.00  0.00    -0.237 OA
ATOM     78  O   UNL A   1      44.857  33.173  24.922  1.00  0.00    -0.237 OA
ATOM     79  O   UNL A   1      45.112  34.869  26.683  1.00  0.00    -0.744 OA
ENDBRANCH  72  76
ENDBRANCH  45  69
BRANCH  57  80
ATOM     80  C   UNL A   1      45.698  25.845  31.966  1.00  0.00     0.023 A 
ATOM     81  C   UNL A   1      44.529  26.325  32.599  1.00  0.00     0.031 A 
ATOM     82  C   UNL A   1      46.836  25.649  32.771  1.00  0.00     0.131 A 
ATOM     83  C   UNL A   1      44.538  26.614  33.977  1.00  0.00     0.055 A 
ATOM     84  C   UNL A   1      46.835  25.915  34.141  1.00  0.00     0.041 A 
ATOM     85  F   UNL A   1      47.972  25.164  32.241  1.00  0.00    -0.206 F 
ATOM     86  C   UNL A   1      45.686  26.409  34.747  1.00  0.00     0.022 A 
BRANCH  83  87
ATOM     87  S   UNL A   1      43.055  27.290  34.790  1.00  0.00     0.124 S 
ATOM     88  O   UNL A   1      43.491  28.593  35.277  1.00  0.00    -0.237 OA
ATOM     89  O   UNL A   1      42.083  27.305  33.700  1.00  0.00    -0.237 OA
ATOM     90  O   UNL A   1      42.772  26.311  35.841  1.00  0.00    -0.744 OA
ENDBRANCH  83  87
ENDBRANCH  57  80
ENDBRANCH  31  32
ENDBRANCH  24  26
ENDBRANCH  23  24
ENDBRANCH  22  23
ENDBRANCH  21  22
ENDBRANCH  20  21
ENDBRANCH   1  20
TORSDOF 22
ENDMDL
MODEL 3
REMARK VINA RESULT:      -9.6      4.110      8.726
REMARK SMILES Cc1cc(C)n([C@@H](C(=O)OCCOCCOCCOC(=O)c2ccc(-c3c4nc(c(-c5cc(S(=O)(=O)[O-])ccc5F)c5ccc([nH]5)c(-c5cc(S(=O)(=O)[O-])ccc5F)c5nc(c(-c6cc(S(=O)(=O)[O-])ccc6F)c6ccc3[nH]6)C=C5)C=C4)cc2)C(C)C)n1
REMARK SMILES IDX 15 1 14 2 13 3 12 4 11 5 10 6 8 7 9 8 7 9 6 10 1 11 2 12
REMARK SMILES IDX 3 13 88 14 4 15 5 16 85 17 86 18 87 19 16 20 17 21 18 22
REMARK SMILES IDX 19 23 20 24 21 25 22 26 23 27 84 28 24 29 83 30 25 31 26 32
REMARK SMILES IDX 27 33 77 34 28 35 82 36 76 37 78 38 29 39 81 40 75 41 74 42
REMARK SMILES IDX 30 44 62 45 42 46 61 47 43 48 46 49 60 50 79 51 44 52 45 53
REMARK SMILES IDX 59 55 80 56 47 57 31 58 32 59 40 60 33 61 39 62 41 63 38 64
REMARK SMILES IDX 34 65 35 66 36 67 37 68 63 69 64 70 72 71 65 72 71 73 73 74
REMARK SMILES IDX 70 75 66 76 67 77 68 78 69 79 48 80 49 81 57 82 50 83 56 84
REMARK SMILES IDX 58 85 55 86 51 87 52 88 53 89 54 90
REMARK H PARENT 78 43 46 54
REMARK Flexibility Score: inf
ROOT
ATOM      1  C   UNL A   1      31.902  29.673  25.382  1.00  0.00     0.188 C 
ENDROOT
BRANCH   1   2
ATOM      2  C   UNL A   1      31.825  28.329  24.632  1.00  0.00     0.188 C 
BRANCH   2   3
ATOM      3  O   UNL A   1      32.483  28.140  23.378  1.00  0.00    -0.376 OA
BRANCH   3   4
ATOM      4  C   UNL A   1      32.846  26.818  23.022  1.00  0.00     0.202 C 
BRANCH   4   5
ATOM      5  C   UNL A   1      31.785  26.050  22.225  1.00  0.00     0.261 C 
BRANCH   5   6
ATOM      6  O   UNL A   1      31.658  24.684  22.669  1.00  0.00    -0.462 OA
BRANCH   6   7
ATOM      7  C   UNL A   1      32.774  24.044  23.074  1.00  0.00     0.331 C 
ATOM      8  O   UNL A   1      33.767  23.917  22.359  1.00  0.00    -0.250 OA
BRANCH   7   9
ATOM      9  C   UNL A   1      32.742  23.550  24.521  1.00  0.00     0.219 C 
BRANCH   9  10
ATOM     10  N   UNL A   1      33.000  22.103  24.692  1.00  0.00    -0.255 N 
ATOM     11  C   UNL A   1      32.356  18.916  23.221  1.00  0.00     0.069 C 
ATOM     12  C   UNL A   1      32.822  20.071  24.023  1.00  0.00     0.060 A 
ATOM     13  C   UNL A   1      33.880  20.089  24.940  1.00  0.00     0.048 A 
ATOM     14  N   UNL A   1      32.265  21.278  23.893  1.00  0.00    -0.177 NA
ATOM     15  C   UNL A   1      34.006  21.402  25.347  1.00  0.00     0.037 A 
ATOM     16  C   UNL A   1      35.069  21.909  26.256  1.00  0.00     0.066 C 
ENDBRANCH   9  10
BRANCH   9  17
ATOM     17  C   UNL A   1      31.583  24.139  25.371  1.00  0.00     0.019 C 
ATOM     18  C   UNL A   1      30.834  22.996  26.074  1.00  0.00     0.010 C 
ATOM     19  C   UNL A   1      32.013  25.159  26.431  1.00  0.00     0.010 C 
ENDBRANCH   9  17
ENDBRANCH   7   9
ENDBRANCH   6   7
ENDBRANCH   5   6
ENDBRANCH   4   5
ENDBRANCH   3   4
ENDBRANCH   2   3
ENDBRANCH   1   2
BRANCH   1  20
ATOM     20  O   UNL A   1      32.435  29.526  26.696  1.00  0.00    -0.376 OA
BRANCH  20  21
ATOM     21  C   UNL A   1      33.439  30.492  26.996  1.00  0.00     0.202 C 
BRANCH  21  22
ATOM     22  C   UNL A   1      34.606  29.776  27.651  1.00  0.00     0.261 C 
BRANCH  22  23
ATOM     23  O   UNL A   1      35.746  30.621  27.793  1.00  0.00    -0.460 OA
BRANCH  23  24
ATOM     24  C   UNL A   1      36.548  30.409  28.846  1.00  0.00     0.338 C 
ATOM     25  O   UNL A   1      36.526  31.002  29.926  1.00  0.00    -0.246 OA
BRANCH  24  26
ATOM     26  C   UNL A   1      37.559  29.428  28.448  1.00  0.00     0.060 A 
ATOM     27  C   UNL A   1      37.923  28.459  29.386  1.00  0.00     0.016 A 
ATOM     28  C   UNL A   1      38.324  29.661  27.290  1.00  0.00     0.016 A 
ATOM     29  C   UNL A   1      39.173  27.891  29.283  1.00  0.00     0.010 A 
ATOM     30  C   UNL A   1      39.580  29.113  27.204  1.00  0.00     0.010 A 
ATOM     31  C   UNL A   1      40.019  28.307  28.251  1.00  0.00    -0.014 A 
BRANCH  31  32
ATOM     32  C   UNL A   1      41.406  27.904  28.302  1.00  0.00     0.031 A 
ATOM     33  C   UNL A   1      41.719  26.647  27.605  1.00  0.00     0.074 A 
ATOM     34  C   UNL A   1      42.359  28.688  28.842  1.00  0.00     0.049 A 
ATOM     35  N   UNL A   1      42.194  25.564  28.117  1.00  0.00    -0.248 NA
ATOM     36  C   UNL A   1      41.360  26.544  26.184  1.00  0.00     0.031 C 
ATOM     37  C   UNL A   1      42.215  30.073  29.297  1.00  0.00     0.029 A 
ATOM     38  N   UNL A   1      43.693  28.447  28.973  1.00  0.00    -0.354 N 
ATOM     39  C   UNL A   1      42.422  24.718  27.042  1.00  0.00     0.074 A 
ATOM     40  C   UNL A   1      41.729  25.292  25.918  1.00  0.00     0.031 C 
ATOM     41  C   UNL A   1      43.442  30.617  29.439  1.00  0.00     0.029 A 
ATOM     42  C   UNL A   1      44.446  29.593  29.190  1.00  0.00     0.049 A 
ATOM     43  H   UNL A   1      44.086  27.547  28.919  1.00  0.00     0.167 HD
ATOM     44  C   UNL A   1      43.367  23.745  27.106  1.00  0.00     0.034 A 
ATOM     45  C   UNL A   1      45.793  29.714  29.077  1.00  0.00     0.034 A 
ATOM     46  C   UNL A   1      43.705  23.421  28.474  1.00  0.00     0.049 A 
ATOM     47  C   UNL A   1      46.378  28.361  29.233  1.00  0.00     0.074 A 
ATOM     48  C   UNL A   1      42.970  23.040  29.582  1.00  0.00     0.029 A 
ATOM     49  N   UNL A   1      44.933  23.805  28.965  1.00  0.00    -0.354 N 
ATOM     50  N   UNL A   1      46.341  27.678  30.345  1.00  0.00    -0.248 NA
ATOM     51  C   UNL A   1      46.655  27.573  28.041  1.00  0.00     0.031 C 
ATOM     52  C   UNL A   1      43.607  23.669  30.691  1.00  0.00     0.029 A 
ATOM     53  C   UNL A   1      44.723  24.355  30.207  1.00  0.00     0.049 A 
ATOM     54  H   UNL A   1      45.800  23.703  28.511  1.00  0.00     0.167 HD
ATOM     55  C   UNL A   1      46.153  26.362  29.954  1.00  0.00     0.074 A 
ATOM     56  C   UNL A   1      46.488  26.342  28.534  1.00  0.00     0.031 C 
ATOM     57  C   UNL A   1      45.470  25.479  30.742  1.00  0.00     0.034 A 
BRANCH  44  58
ATOM     58  C   UNL A   1      44.218  23.335  25.930  1.00  0.00     0.023 A 
ATOM     59  C   UNL A   1      44.121  22.001  25.498  1.00  0.00     0.031 A 
ATOM     60  C   UNL A   1      45.301  24.078  25.403  1.00  0.00     0.131 A 
ATOM     61  C   UNL A   1      45.105  21.441  24.668  1.00  0.00     0.055 A 
ATOM     62  C   UNL A   1      46.229  23.539  24.507  1.00  0.00     0.041 A 
ATOM     63  F   UNL A   1      45.585  25.326  25.796  1.00  0.00    -0.206 F 
ATOM     64  C   UNL A   1      46.152  22.203  24.158  1.00  0.00     0.022 A 
BRANCH  61  65
ATOM     65  S   UNL A   1      45.098  19.647  24.434  1.00  0.00     0.124 S 
ATOM     66  O   UNL A   1      44.618  19.534  23.060  1.00  0.00    -0.237 OA
ATOM     67  O   UNL A   1      46.501  19.313  24.656  1.00  0.00    -0.237 OA
ATOM     68  O   UNL A   1      44.173  19.175  25.460  1.00  0.00    -0.744 OA
ENDBRANCH  61  65
ENDBRANCH  44  58
BRANCH  45  69
ATOM     69  C   UNL A   1      46.550  30.896  28.587  1.00  0.00     0.023 A 
ATOM     70  C   UNL A   1      47.494  31.557  29.395  1.00  0.00     0.031 A 
ATOM     71  C   UNL A   1      46.517  31.263  27.222  1.00  0.00     0.131 A 
ATOM     72  C   UNL A   1      48.346  32.537  28.836  1.00  0.00     0.055 A 
ATOM     73  C   UNL A   1      47.340  32.252  26.681  1.00  0.00     0.041 A 
ATOM     74  F   UNL A   1      45.747  30.610  26.338  1.00  0.00    -0.206 F 
ATOM     75  C   UNL A   1      48.267  32.889  27.487  1.00  0.00     0.022 A 
BRANCH  72  76
ATOM     76  S   UNL A   1      49.676  33.270  29.838  1.00  0.00     0.124 S 
ATOM     77  O   UNL A   1      48.934  33.893  30.927  1.00  0.00    -0.237 OA
ATOM     78  O   UNL A   1      50.489  32.110  30.185  1.00  0.00    -0.237 OA
ATOM     79  O   UNL A   1      50.316  34.206  28.912  1.00  0.00    -0.744 OA
ENDBRANCH  72  76
ENDBRANCH  45  69
BRANCH  57  80
ATOM     80  C   UNL A   1      45.254  25.824  32.205  1.00  0.00     0.023 A 
ATOM     81  C   UNL A   1      44.066  26.377  32.734  1.00  0.00     0.031 A 
ATOM     82  C   UNL A   1      46.270  25.479  33.116  1.00  0.00     0.131 A 
ATOM     83  C   UNL A   1      43.940  26.590  34.120  1.00  0.00     0.055 A 
ATOM     84  C   UNL A   1      46.134  25.671  34.491  1.00  0.00     0.041 A 
ATOM     85  F   UNL A   1      47.413  24.919  32.685  1.00  0.00    -0.206 F 
ATOM     86  C   UNL A   1      44.970  26.237  34.998  1.00  0.00     0.022 A 
BRANCH  83  87
ATOM     87  S   UNL A   1      42.439  27.358  34.806  1.00  0.00     0.124 S 
ATOM     88  O   UNL A   1      42.941  28.526  35.519  1.00  0.00    -0.237 OA
ATOM     89  O   UNL A   1      41.652  27.629  33.605  1.00  0.00    -0.237 OA
ATOM     90  O   UNL A   1      41.888  26.310  35.667  1.00  0.00    -0.744 OA
ENDBRANCH  83  87
ENDBRANCH  57  80
ENDBRANCH  31  32
ENDBRANCH  24  26
ENDBRANCH  23  24
ENDBRANCH  22  23
ENDBRANCH  21  22
ENDBRANCH  20  21
ENDBRANCH   1  20
TORSDOF 22
ENDMDL
