MODEL 1
REMARK VINA RESULT:     -10.0      0.000      0.000
REMARK SMILES CC1=Nc2c(c(C)nn2-c2ccc(F)cc2)[C@H](c2ccc(C(=O)OCCOCCOCCOC(=O)c3ccc(-c4c5nc(c(-c6cc(S(=O)(=O)[O-])ccc6F)c6ccc([nH]6)c(-c6cc(S(=O)(=O)[O-])ccc6F)c6nc(c(-c7cc(S(=O)(=O)[O-])ccc7F)c7ccc4[nH]7)C=C6)C=C5)cc3)cc2)S1
REMARK SMILES IDX 29 1 28 2 27 3 26 4 25 5 24 6 22 7 23 8 21 9 18 10 19 11
REMARK SMILES IDX 100 12 20 13 99 14 17 15 1 16 2 17 3 18 101 19 4 20 5 21
REMARK SMILES IDX 9 22 6 23 8 24 7 25 10 26 11 27 16 28 12 29 15 30 13 31
REMARK SMILES IDX 14 32 30 33 31 34 32 35 33 36 34 37 35 38 36 39 37 40 98 41
REMARK SMILES IDX 38 42 97 43 39 44 40 45 41 46 91 47 42 48 96 49 90 50 92 51
REMARK SMILES IDX 43 52 95 53 89 54 88 55 44 57 76 58 56 59 75 60 57 61 60 62
REMARK SMILES IDX 74 63 93 64 58 65 59 66 73 68 94 69 61 70 45 71 46 72 54 73
REMARK SMILES IDX 47 74 53 75 55 76 52 77 48 78 49 79 50 80 51 81 77 82 78 83
REMARK SMILES IDX 86 84 79 85 85 86 87 87 84 88 80 89 81 90 82 91 83 92 62 93
REMARK SMILES IDX 63 94 71 95 64 96 70 97 72 98 69 99 65 100 66 101 67 102
REMARK SMILES IDX 68 103
REMARK H PARENT 92 56 60 67
REMARK Flexibility Score: inf
ROOT
ATOM      1  C   UNL A   1      49.796  37.093  27.170  1.00  0.00     0.188 C 
ENDROOT
BRANCH   1   2
ATOM      2  C   UNL A   1      50.221  35.842  26.365  1.00  0.00     0.188 C 
BRANCH   2   3
ATOM      3  O   UNL A   1      50.344  34.570  26.993  1.00  0.00    -0.376 OA
BRANCH   3   4
ATOM      4  C   UNL A   1      49.198  33.960  27.571  1.00  0.00     0.202 C 
BRANCH   4   5
ATOM      5  C   UNL A   1      48.233  33.159  26.675  1.00  0.00     0.261 C 
BRANCH   5   6
ATOM      6  O   UNL A   1      47.433  32.177  27.362  1.00  0.00    -0.460 OA
BRANCH   6   7
ATOM      7  C   UNL A   1      47.708  30.883  27.080  1.00  0.00     0.338 C 
ATOM      8  O   UNL A   1      48.769  30.439  26.670  1.00  0.00    -0.246 OA
BRANCH   7   9
ATOM      9  C   UNL A   1      46.587  29.995  27.488  1.00  0.00     0.060 A 
ATOM     10  C   UNL A   1      44.528  28.138  28.103  1.00  0.00    -0.030 A 
ATOM     11  C   UNL A   1      45.828  27.709  27.776  1.00  0.00     0.006 A 
ATOM     12  C   UNL A   1      44.309  29.528  28.198  1.00  0.00     0.006 A 
ATOM     13  C   UNL A   1      46.842  28.622  27.476  1.00  0.00     0.016 A 
ATOM     14  C   UNL A   1      45.324  30.451  27.876  1.00  0.00     0.016 A 
BRANCH  10  15
ATOM     15  C   UNL A   1      43.430  27.086  28.218  1.00  0.00     0.119 C 
ATOM     16  C   UNL A   1      44.551  24.090  30.868  1.00  0.00     0.075 C 
ATOM     17  C   UNL A   1      44.042  24.762  29.618  1.00  0.00     0.074 C 
ATOM     18  N   UNL A   1      44.196  24.135  28.497  1.00  0.00    -0.227 NA
ATOM     19  S   UNL A   1      43.308  26.334  29.873  1.00  0.00    -0.098 SA
ATOM     20  C   UNL A   1      43.834  24.759  27.352  1.00  0.00     0.161 A 
ATOM     21  C   UNL A   1      43.555  26.091  27.130  1.00  0.00     0.038 A 
ATOM     22  N   UNL A   1      43.735  24.121  26.122  1.00  0.00    -0.215 N 
ATOM     23  C   UNL A   1      43.313  26.177  25.733  1.00  0.00     0.067 A 
ATOM     24  N   UNL A   1      43.530  25.008  25.117  1.00  0.00    -0.171 NA
ATOM     25  C   UNL A   1      42.861  27.340  24.930  1.00  0.00     0.069 C 
BRANCH  22  26
ATOM     26  C   UNL A   1      43.748  22.726  25.862  1.00  0.00     0.067 A 
ATOM     27  C   UNL A   1      42.606  21.950  26.114  1.00  0.00     0.031 A 
ATOM     28  C   UNL A   1      44.905  22.129  25.342  1.00  0.00     0.031 A 
ATOM     29  C   UNL A   1      42.629  20.577  25.862  1.00  0.00     0.041 A 
ATOM     30  C   UNL A   1      44.936  20.747  25.141  1.00  0.00     0.041 A 
ATOM     31  C   UNL A   1      43.800  19.986  25.399  1.00  0.00     0.123 A 
ATOM     32  F   UNL A   1      43.827  18.662  25.197  1.00  0.00    -0.207 F 
ENDBRANCH  22  26
ENDBRANCH  10  15
ENDBRANCH   7   9
ENDBRANCH   6   7
ENDBRANCH   5   6
ENDBRANCH   4   5
ENDBRANCH   3   4
ENDBRANCH   2   3
ENDBRANCH   1   2
BRANCH   1  33
ATOM     33  O   UNL A   1      48.397  37.232  27.365  1.00  0.00    -0.376 OA
BRANCH  33  34
ATOM     34  C   UNL A   1      47.567  37.159  26.213  1.00  0.00     0.202 C 
BRANCH  34  35
ATOM     35  C   UNL A   1      46.069  36.946  26.437  1.00  0.00     0.261 C 
BRANCH  35  36
ATOM     36  O   UNL A   1      45.714  35.679  26.969  1.00  0.00    -0.460 OA
BRANCH  36  37
ATOM     37  C   UNL A   1      44.424  35.324  26.791  1.00  0.00     0.338 C 
ATOM     38  O   UNL A   1      43.886  35.057  25.733  1.00  0.00    -0.246 OA
BRANCH  37  39
ATOM     39  C   UNL A   1      43.748  35.384  28.095  1.00  0.00     0.060 A 
ATOM     40  C   UNL A   1      44.100  34.411  29.029  1.00  0.00     0.016 A 
ATOM     41  C   UNL A   1      42.614  36.198  28.259  1.00  0.00     0.016 A 
ATOM     42  C   UNL A   1      43.187  34.092  30.009  1.00  0.00     0.010 A 
ATOM     43  C   UNL A   1      41.696  35.870  29.232  1.00  0.00     0.010 A 
ATOM     44  C   UNL A   1      41.957  34.759  30.028  1.00  0.00    -0.014 A 
BRANCH  44  45
ATOM     45  C   UNL A   1      40.924  34.202  30.873  1.00  0.00     0.031 A 
ATOM     46  C   UNL A   1      41.294  34.017  32.285  1.00  0.00     0.074 A 
ATOM     47  C   UNL A   1      39.696  33.913  30.407  1.00  0.00     0.049 A 
ATOM     48  N   UNL A   1      41.394  32.908  32.935  1.00  0.00    -0.248 NA
ATOM     49  C   UNL A   1      41.698  35.210  33.042  1.00  0.00     0.031 C 
ATOM     50  C   UNL A   1      39.113  34.286  29.115  1.00  0.00     0.029 A 
ATOM     51  N   UNL A   1      38.667  33.305  31.056  1.00  0.00    -0.354 N 
ATOM     52  C   UNL A   1      41.672  33.270  34.244  1.00  0.00     0.074 A 
ATOM     53  C   UNL A   1      41.994  34.675  34.225  1.00  0.00     0.031 C 
ATOM     54  C   UNL A   1      37.778  34.086  29.165  1.00  0.00     0.029 A 
ATOM     55  C   UNL A   1      37.437  33.468  30.436  1.00  0.00     0.049 A 
ATOM     56  H   UNL A   1      38.784  32.796  31.890  1.00  0.00     0.167 HD
ATOM     57  C   UNL A   1      41.405  32.440  35.286  1.00  0.00     0.034 A 
ATOM     58  C   UNL A   1      36.225  33.194  30.978  1.00  0.00     0.034 A 
ATOM     59  C   UNL A   1      41.268  31.069  34.870  1.00  0.00     0.049 A 
ATOM     60  C   UNL A   1      36.445  32.185  32.045  1.00  0.00     0.074 A 
ATOM     61  C   UNL A   1      42.090  30.177  34.204  1.00  0.00     0.029 A 
ATOM     62  N   UNL A   1      40.008  30.522  34.812  1.00  0.00    -0.354 N 
ATOM     63  N   UNL A   1      36.869  30.969  31.825  1.00  0.00    -0.248 NA
ATOM     64  C   UNL A   1      36.580  32.643  33.421  1.00  0.00     0.031 C 
ATOM     65  C   UNL A   1      41.218  29.405  33.383  1.00  0.00     0.029 A 
ATOM     66  C   UNL A   1      39.914  29.846  33.620  1.00  0.00     0.049 A 
ATOM     67  H   UNL A   1      39.304  30.601  35.497  1.00  0.00     0.167 HD
ATOM     68  C   UNL A   1      37.681  30.666  32.907  1.00  0.00     0.074 A 
ATOM     69  C   UNL A   1      37.373  31.683  33.906  1.00  0.00     0.031 C 
ATOM     70  C   UNL A   1      38.721  29.790  32.795  1.00  0.00     0.034 A 
BRANCH  57  71
ATOM     71  C   UNL A   1      40.978  32.942  36.635  1.00  0.00     0.023 A 
ATOM     72  C   UNL A   1      41.778  32.647  37.749  1.00  0.00     0.031 A 
ATOM     73  C   UNL A   1      39.696  33.478  36.907  1.00  0.00     0.131 A 
ATOM     74  C   UNL A   1      41.294  32.864  39.051  1.00  0.00     0.055 A 
ATOM     75  C   UNL A   1      39.251  33.765  38.197  1.00  0.00     0.041 A 
ATOM     76  F   UNL A   1      38.779  33.660  35.946  1.00  0.00    -0.206 F 
ATOM     77  C   UNL A   1      40.045  33.440  39.282  1.00  0.00     0.022 A 
BRANCH  74  78
ATOM     78  S   UNL A   1      42.262  32.236  40.446  1.00  0.00     0.124 S 
ATOM     79  O   UNL A   1      43.263  31.418  39.770  1.00  0.00    -0.237 OA
ATOM     80  O   UNL A   1      42.743  33.468  41.060  1.00  0.00    -0.237 OA
ATOM     81  O   UNL A   1      41.279  31.492  41.233  1.00  0.00    -0.744 OA
ENDBRANCH  74  78
ENDBRANCH  57  71
BRANCH  58  82
ATOM     82  C   UNL A   1      34.973  33.982  30.823  1.00  0.00     0.023 A 
ATOM     83  C   UNL A   1      34.556  34.894  31.812  1.00  0.00     0.031 A 
ATOM     84  C   UNL A   1      34.283  34.035  29.588  1.00  0.00     0.131 A 
ATOM     85  C   UNL A   1      33.505  35.801  31.550  1.00  0.00     0.055 A 
ATOM     86  C   UNL A   1      33.227  34.915  29.344  1.00  0.00     0.041 A 
ATOM     87  F   UNL A   1      34.667  33.296  28.536  1.00  0.00    -0.206 F 
ATOM     88  C   UNL A   1      32.841  35.813  30.322  1.00  0.00     0.022 A 
BRANCH  85  89
ATOM     89  S   UNL A   1      33.087  37.092  32.761  1.00  0.00     0.124 S 
ATOM     90  O   UNL A   1      33.318  38.312  31.996  1.00  0.00    -0.237 OA
ATOM     91  O   UNL A   1      31.699  36.786  33.091  1.00  0.00    -0.237 OA
ATOM     92  O   UNL A   1      34.039  36.851  33.846  1.00  0.00    -0.744 OA
ENDBRANCH  85  89
ENDBRANCH  58  82
BRANCH  70  93
ATOM     93  C   UNL A   1      38.769  28.869  31.596  1.00  0.00     0.023 A 
ATOM     94  C   UNL A   1      39.197  29.257  30.308  1.00  0.00     0.031 A 
ATOM     95  C   UNL A   1      38.505  27.505  31.816  1.00  0.00     0.131 A 
ATOM     96  C   UNL A   1      39.338  28.288  29.294  1.00  0.00     0.055 A 
ATOM     97  C   UNL A   1      38.664  26.548  30.816  1.00  0.00     0.041 A 
ATOM     98  F   UNL A   1      38.130  27.074  33.033  1.00  0.00    -0.206 F 
ATOM     99  C   UNL A   1      39.079  26.937  29.548  1.00  0.00     0.022 A 
BRANCH  96 100
ATOM    100  S   UNL A   1      39.903  28.773  27.631  1.00  0.00     0.124 S 
ATOM    101  O   UNL A   1      40.148  27.492  26.977  1.00  0.00    -0.237 OA
ATOM    102  O   UNL A   1      38.777  29.551  27.122  1.00  0.00    -0.237 OA
ATOM    103  O   UNL A   1      41.110  29.560  27.895  1.00  0.00    -0.744 OA
ENDBRANCH  96 100
ENDBRANCH  70  93
ENDBRANCH  44  45
ENDBRANCH  37  39
ENDBRANCH  36  37
ENDBRANCH  35  36
ENDBRANCH  34  35
ENDBRANCH  33  34
ENDBRANCH   1  33
TORSDOF 22
ENDMDL
MODEL 2
REMARK VINA RESULT:      -9.6      5.298      9.920
REMARK SMILES CC1=Nc2c(c(C)nn2-c2ccc(F)cc2)[C@H](c2ccc(C(=O)OCCOCCOCCOC(=O)c3ccc(-c4c5nc(c(-c6cc(S(=O)(=O)[O-])ccc6F)c6ccc([nH]6)c(-c6cc(S(=O)(=O)[O-])ccc6F)c6nc(c(-c7cc(S(=O)(=O)[O-])ccc7F)c7ccc4[nH]7)C=C6)C=C5)cc3)cc2)S1
REMARK SMILES IDX 29 1 28 2 27 3 26 4 25 5 24 6 22 7 23 8 21 9 18 10 19 11
REMARK SMILES IDX 100 12 20 13 99 14 17 15 1 16 2 17 3 18 101 19 4 20 5 21
REMARK SMILES IDX 9 22 6 23 8 24 7 25 10 26 11 27 16 28 12 29 15 30 13 31
REMARK SMILES IDX 14 32 30 33 31 34 32 35 33 36 34 37 35 38 36 39 37 40 98 41
REMARK SMILES IDX 38 42 97 43 39 44 40 45 41 46 91 47 42 48 96 49 90 50 92 51
REMARK SMILES IDX 43 52 95 53 89 54 88 55 44 57 76 58 56 59 75 60 57 61 60 62
REMARK SMILES IDX 74 63 93 64 58 65 59 66 73 68 94 69 61 70 45 71 46 72 54 73
REMARK SMILES IDX 47 74 53 75 55 76 52 77 48 78 49 79 50 80 51 81 77 82 78 83
REMARK SMILES IDX 86 84 79 85 85 86 87 87 84 88 80 89 81 90 82 91 83 92 62 93
REMARK SMILES IDX 63 94 71 95 64 96 70 97 72 98 69 99 65 100 66 101 67 102
REMARK SMILES IDX 68 103
REMARK H PARENT 92 56 60 67
REMARK Flexibility Score: inf
ROOT
ATOM      1  C   UNL A   1      49.680  33.896  28.774  1.00  0.00     0.188 C 
ENDROOT
BRANCH   1   2
ATOM      2  C   UNL A   1      49.646  34.379  27.305  1.00  0.00     0.188 C 
BRANCH   2   3
ATOM      3  O   UNL A   1      48.675  33.879  26.389  1.00  0.00    -0.376 OA
BRANCH   3   4
ATOM      4  C   UNL A   1      47.411  34.522  26.289  1.00  0.00     0.202 C 
BRANCH   4   5
ATOM      5  C   UNL A   1      47.233  35.696  25.306  1.00  0.00     0.261 C 
BRANCH   5   6
ATOM      6  O   UNL A   1      46.858  36.948  25.911  1.00  0.00    -0.460 OA
BRANCH   6   7
ATOM      7  C   UNL A   1      47.845  37.863  26.047  1.00  0.00     0.338 C 
ATOM      8  O   UNL A   1      49.002  37.640  26.363  1.00  0.00    -0.246 OA
BRANCH   7   9
ATOM      9  C   UNL A   1      47.395  39.208  25.599  1.00  0.00     0.060 A 
ATOM     10  C   UNL A   1      46.385  41.778  24.935  1.00  0.00    -0.030 A 
ATOM     11  C   UNL A   1      46.573  41.388  26.274  1.00  0.00     0.006 A 
ATOM     12  C   UNL A   1      46.798  40.876  23.933  1.00  0.00     0.006 A 
ATOM     13  C   UNL A   1      47.072  40.125  26.601  1.00  0.00     0.016 A 
ATOM     14  C   UNL A   1      47.283  39.593  24.259  1.00  0.00     0.016 A 
BRANCH  10  15
ATOM     15  C   UNL A   1      45.650  43.086  24.662  1.00  0.00     0.119 C 
ATOM     16  C   UNL A   1      41.815  42.337  23.252  1.00  0.00     0.075 C 
ATOM     17  C   UNL A   1      43.203  42.915  23.349  1.00  0.00     0.074 C 
ATOM     18  N   UNL A   1      43.776  43.284  22.249  1.00  0.00    -0.227 NA
ATOM     19  S   UNL A   1      43.857  42.996  24.975  1.00  0.00    -0.098 SA
ATOM     20  C   UNL A   1      45.057  43.716  22.300  1.00  0.00     0.161 A 
ATOM     21  C   UNL A   1      45.984  43.593  23.313  1.00  0.00     0.038 A 
ATOM     22  N   UNL A   1      45.703  44.347  21.244  1.00  0.00    -0.215 N 
ATOM     23  C   UNL A   1      47.173  44.160  22.780  1.00  0.00     0.067 A 
ATOM     24  N   UNL A   1      47.025  44.513  21.497  1.00  0.00    -0.171 NA
ATOM     25  C   UNL A   1      48.476  44.405  23.448  1.00  0.00     0.069 C 
BRANCH  22  26
ATOM     26  C   UNL A   1      45.125  44.862  20.054  1.00  0.00     0.067 A 
ATOM     27  C   UNL A   1      44.674  43.988  19.053  1.00  0.00     0.031 A 
ATOM     28  C   UNL A   1      44.997  46.248  19.891  1.00  0.00     0.031 A 
ATOM     29  C   UNL A   1      44.112  44.503  17.883  1.00  0.00     0.041 A 
ATOM     30  C   UNL A   1      44.480  46.756  18.696  1.00  0.00     0.041 A 
ATOM     31  C   UNL A   1      44.040  45.881  17.708  1.00  0.00     0.123 A 
ATOM     32  F   UNL A   1      43.536  46.368  16.565  1.00  0.00    -0.207 F 
ENDBRANCH  22  26
ENDBRANCH  10  15
ENDBRANCH   7   9
ENDBRANCH   6   7
ENDBRANCH   5   6
ENDBRANCH   4   5
ENDBRANCH   3   4
ENDBRANCH   2   3
ENDBRANCH   1   2
BRANCH   1  33
ATOM     33  O   UNL A   1      48.544  34.252  29.548  1.00  0.00    -0.376 OA
BRANCH  33  34
ATOM     34  C   UNL A   1      48.547  35.535  30.161  1.00  0.00     0.202 C 
BRANCH  34  35
ATOM     35  C   UNL A   1      47.610  36.594  29.580  1.00  0.00     0.261 C 
BRANCH  35  36
ATOM     36  O   UNL A   1      46.452  36.087  28.936  1.00  0.00    -0.460 OA
BRANCH  36  37
ATOM     37  C   UNL A   1      45.368  36.890  28.989  1.00  0.00     0.338 C 
ATOM     38  O   UNL A   1      45.371  38.103  29.076  1.00  0.00    -0.246 OA
BRANCH  37  39
ATOM     39  C   UNL A   1      44.169  36.040  28.998  1.00  0.00     0.060 A 
ATOM     40  C   UNL A   1      42.940  36.691  29.096  1.00  0.00     0.016 A 
ATOM     41  C   UNL A   1      44.294  34.653  29.192  1.00  0.00     0.016 A 
ATOM     42  C   UNL A   1      41.876  35.992  29.620  1.00  0.00     0.010 A 
ATOM     43  C   UNL A   1      43.233  33.959  29.727  1.00  0.00     0.010 A 
ATOM     44  C   UNL A   1      42.071  34.666  30.021  1.00  0.00    -0.014 A 
BRANCH  44  45
ATOM     45  C   UNL A   1      41.030  34.066  30.826  1.00  0.00     0.031 A 
ATOM     46  C   UNL A   1      41.379  33.826  32.234  1.00  0.00     0.074 A 
ATOM     47  C   UNL A   1      39.812  33.788  30.328  1.00  0.00     0.049 A 
ATOM     48  N   UNL A   1      41.478  32.691  32.839  1.00  0.00    -0.248 NA
ATOM     49  C   UNL A   1      41.761  34.989  33.046  1.00  0.00     0.031 C 
ATOM     50  C   UNL A   1      39.245  34.209  29.044  1.00  0.00     0.029 A 
ATOM     51  N   UNL A   1      38.777  33.145  30.934  1.00  0.00    -0.354 N 
ATOM     52  C   UNL A   1      41.733  33.000  34.166  1.00  0.00     0.074 A 
ATOM     53  C   UNL A   1      42.043  34.407  34.211  1.00  0.00     0.031 C 
ATOM     54  C   UNL A   1      37.911  33.997  29.063  1.00  0.00     0.029 A 
ATOM     55  C   UNL A   1      37.556  33.324  30.303  1.00  0.00     0.049 A 
ATOM     56  H   UNL A   1      38.885  32.602  31.749  1.00  0.00     0.167 HD
ATOM     57  C   UNL A   1      41.456  32.126  35.168  1.00  0.00     0.034 A 
ATOM     58  C   UNL A   1      36.338  33.019  30.813  1.00  0.00     0.034 A 
ATOM     59  C   UNL A   1      41.336  30.772  34.694  1.00  0.00     0.049 A 
ATOM     60  C   UNL A   1      36.550  31.968  31.841  1.00  0.00     0.074 A 
ATOM     61  C   UNL A   1      42.176  29.915  34.005  1.00  0.00     0.029 A 
ATOM     62  N   UNL A   1      40.083  30.219  34.593  1.00  0.00    -0.354 N 
ATOM     63  N   UNL A   1      36.987  30.765  31.577  1.00  0.00    -0.248 NA
ATOM     64  C   UNL A   1      36.659  32.369  33.236  1.00  0.00     0.031 C 
ATOM     65  C   UNL A   1      41.324  29.171  33.139  1.00  0.00     0.029 A 
ATOM     66  C   UNL A   1      40.013  29.592  33.372  1.00  0.00     0.049 A 
ATOM     67  H   UNL A   1      39.367  30.264  35.269  1.00  0.00     0.167 HD
ATOM     68  C   UNL A   1      37.785  30.424  32.659  1.00  0.00     0.074 A 
ATOM     69  C   UNL A   1      37.452  31.396  33.694  1.00  0.00     0.031 C 
ATOM     70  C   UNL A   1      38.833  29.561  32.527  1.00  0.00     0.034 A 
BRANCH  57  71
ATOM     71  C   UNL A   1      41.003  32.568  36.530  1.00  0.00     0.023 A 
ATOM     72  C   UNL A   1      39.696  32.263  36.940  1.00  0.00     0.031 A 
ATOM     73  C   UNL A   1      41.715  33.490  37.336  1.00  0.00     0.131 A 
ATOM     74  C   UNL A   1      39.147  32.873  38.080  1.00  0.00     0.055 A 
ATOM     75  C   UNL A   1      41.193  34.032  38.510  1.00  0.00     0.041 A 
ATOM     76  F   UNL A   1      42.908  33.982  36.975  1.00  0.00    -0.206 F 
ATOM     77  C   UNL A   1      39.893  33.739  38.880  1.00  0.00     0.022 A 
BRANCH  74  78
ATOM     78  S   UNL A   1      37.384  32.637  38.419  1.00  0.00     0.124 S 
ATOM     79  O   UNL A   1      36.769  33.380  37.324  1.00  0.00    -0.237 OA
ATOM     80  O   UNL A   1      37.256  31.186  38.366  1.00  0.00    -0.237 OA
ATOM     81  O   UNL A   1      37.212  33.228  39.745  1.00  0.00    -0.744 OA
ENDBRANCH  74  78
ENDBRANCH  57  71
BRANCH  58  82
ATOM     82  C   UNL A   1      35.082  33.803  30.670  1.00  0.00     0.023 A 
ATOM     83  C   UNL A   1      34.680  34.725  31.656  1.00  0.00     0.031 A 
ATOM     84  C   UNL A   1      34.370  33.840  29.447  1.00  0.00     0.131 A 
ATOM     85  C   UNL A   1      33.623  35.627  31.403  1.00  0.00     0.055 A 
ATOM     86  C   UNL A   1      33.309  34.716  29.212  1.00  0.00     0.041 A 
ATOM     87  F   UNL A   1      34.737  33.091  28.398  1.00  0.00    -0.206 F 
ATOM     88  C   UNL A   1      32.938  35.625  30.186  1.00  0.00     0.022 A 
BRANCH  85  89
ATOM     89  S   UNL A   1      33.224  36.932  32.606  1.00  0.00     0.124 S 
ATOM     90  O   UNL A   1      31.869  36.570  33.008  1.00  0.00    -0.237 OA
ATOM     91  O   UNL A   1      34.265  36.767  33.615  1.00  0.00    -0.237 OA
ATOM     92  O   UNL A   1      33.330  38.158  31.815  1.00  0.00    -0.744 OA
ENDBRANCH  85  89
ENDBRANCH  58  82
BRANCH  70  93
ATOM     93  C   UNL A   1      38.908  28.691  31.291  1.00  0.00     0.023 A 
ATOM     94  C   UNL A   1      39.443  29.107  30.053  1.00  0.00     0.031 A 
ATOM     95  C   UNL A   1      38.551  27.338  31.430  1.00  0.00     0.131 A 
ATOM     96  C   UNL A   1      39.595  28.176  29.006  1.00  0.00     0.055 A 
ATOM     97  C   UNL A   1      38.720  26.416  30.398  1.00  0.00     0.041 A 
ATOM     98  F   UNL A   1      38.071  26.878  32.598  1.00  0.00    -0.206 F 
ATOM     99  C   UNL A   1      39.241  26.834  29.179  1.00  0.00     0.022 A 
BRANCH  96 100
ATOM    100  S   UNL A   1      40.297  28.696  27.407  1.00  0.00     0.124 S 
ATOM    101  O   UNL A   1      41.539  29.359  27.790  1.00  0.00    -0.237 OA
ATOM    102  O   UNL A   1      40.436  27.433  26.689  1.00  0.00    -0.237 OA
ATOM    103  O   UNL A   1      39.276  29.593  26.860  1.00  0.00    -0.744 OA
ENDBRANCH  96 100
ENDBRANCH  70  93
ENDBRANCH  44  45
ENDBRANCH  37  39
ENDBRANCH  36  37
ENDBRANCH  35  36
ENDBRANCH  34  35
ENDBRANCH  33  34
ENDBRANCH   1  33
TORSDOF 22
ENDMDL
MODEL 3
REMARK VINA RESULT:      -9.5      5.405     10.851
REMARK SMILES CC1=Nc2c(c(C)nn2-c2ccc(F)cc2)[C@H](c2ccc(C(=O)OCCOCCOCCOC(=O)c3ccc(-c4c5nc(c(-c6cc(S(=O)(=O)[O-])ccc6F)c6ccc([nH]6)c(-c6cc(S(=O)(=O)[O-])ccc6F)c6nc(c(-c7cc(S(=O)(=O)[O-])ccc7F)c7ccc4[nH]7)C=C6)C=C5)cc3)cc2)S1
REMARK SMILES IDX 29 1 28 2 27 3 26 4 25 5 24 6 22 7 23 8 21 9 18 10 19 11
REMARK SMILES IDX 100 12 20 13 99 14 17 15 1 16 2 17 3 18 101 19 4 20 5 21
REMARK SMILES IDX 9 22 6 23 8 24 7 25 10 26 11 27 16 28 12 29 15 30 13 31
REMARK SMILES IDX 14 32 30 33 31 34 32 35 33 36 34 37 35 38 36 39 37 40 98 41
REMARK SMILES IDX 38 42 97 43 39 44 40 45 41 46 91 47 42 48 96 49 90 50 92 51
REMARK SMILES IDX 43 52 95 53 89 54 88 55 44 57 76 58 56 59 75 60 57 61 60 62
REMARK SMILES IDX 74 63 93 64 58 65 59 66 73 68 94 69 61 70 45 71 46 72 54 73
REMARK SMILES IDX 47 74 53 75 55 76 52 77 48 78 49 79 50 80 51 81 77 82 78 83
REMARK SMILES IDX 86 84 79 85 85 86 87 87 84 88 80 89 81 90 82 91 83 92 62 93
REMARK SMILES IDX 63 94 71 95 64 96 70 97 72 98 69 99 65 100 66 101 67 102
REMARK SMILES IDX 68 103
REMARK H PARENT 92 56 60 67
REMARK Flexibility Score: inf
ROOT
ATOM      1  C   UNL A   1      43.051  21.259  26.235  1.00  0.00     0.188 C 
ENDROOT
BRANCH   1   2
ATOM      2  C   UNL A   1      41.519  21.069  26.128  1.00  0.00     0.188 C 
BRANCH   2   3
ATOM      3  O   UNL A   1      40.927  19.779  26.250  1.00  0.00    -0.376 OA
BRANCH   3   4
ATOM      4  C   UNL A   1      39.779  19.459  25.476  1.00  0.00     0.202 C 
BRANCH   4   5
ATOM      5  C   UNL A   1      38.447  20.181  25.761  1.00  0.00     0.261 C 
BRANCH   5   6
ATOM      6  O   UNL A   1      38.232  21.388  25.005  1.00  0.00    -0.460 OA
BRANCH   6   7
ATOM      7  C   UNL A   1      37.793  22.458  25.705  1.00  0.00     0.338 C 
ATOM      8  O   UNL A   1      38.452  23.147  26.467  1.00  0.00    -0.246 OA
BRANCH   7   9
ATOM      9  C   UNL A   1      36.406  22.824  25.312  1.00  0.00     0.060 A 
ATOM     10  C   UNL A   1      33.759  23.328  24.414  1.00  0.00    -0.030 A 
ATOM     11  C   UNL A   1      34.232  22.016  24.601  1.00  0.00     0.006 A 
ATOM     12  C   UNL A   1      34.621  24.385  24.772  1.00  0.00     0.006 A 
ATOM     13  C   UNL A   1      35.533  21.767  25.045  1.00  0.00     0.016 A 
ATOM     14  C   UNL A   1      35.941  24.138  25.201  1.00  0.00     0.016 A 
BRANCH  10  15
ATOM     15  C   UNL A   1      32.405  23.516  23.737  1.00  0.00     0.119 C 
ATOM     16  C   UNL A   1      32.846  25.532  20.132  1.00  0.00     0.075 C 
ATOM     17  C   UNL A   1      32.326  25.166  21.498  1.00  0.00     0.074 C 
ATOM     18  N   UNL A   1      31.828  26.114  22.223  1.00  0.00    -0.227 NA
ATOM     19  S   UNL A   1      32.485  23.470  21.918  1.00  0.00    -0.098 SA
ATOM     20  C   UNL A   1      31.444  25.828  23.488  1.00  0.00     0.161 A 
ATOM     21  C   UNL A   1      31.730  24.723  24.263  1.00  0.00     0.038 A 
ATOM     22  N   UNL A   1      30.695  26.687  24.282  1.00  0.00    -0.215 N 
ATOM     23  C   UNL A   1      31.130  25.003  25.519  1.00  0.00     0.067 A 
ATOM     24  N   UNL A   1      30.603  26.233  25.557  1.00  0.00    -0.171 NA
ATOM     25  C   UNL A   1      31.016  24.135  26.718  1.00  0.00     0.069 C 
BRANCH  22  26
ATOM     26  C   UNL A   1      30.006  27.862  23.882  1.00  0.00     0.067 A 
ATOM     27  C   UNL A   1      30.566  29.126  24.128  1.00  0.00     0.031 A 
ATOM     28  C   UNL A   1      28.772  27.753  23.229  1.00  0.00     0.031 A 
ATOM     29  C   UNL A   1      29.880  30.277  23.737  1.00  0.00     0.041 A 
ATOM     30  C   UNL A   1      28.068  28.911  22.887  1.00  0.00     0.041 A 
ATOM     31  C   UNL A   1      28.629  30.159  23.140  1.00  0.00     0.123 A 
ATOM     32  F   UNL A   1      27.959  31.269  22.803  1.00  0.00    -0.207 F 
ENDBRANCH  22  26
ENDBRANCH  10  15
ENDBRANCH   7   9
ENDBRANCH   6   7
ENDBRANCH   5   6
ENDBRANCH   4   5
ENDBRANCH   3   4
ENDBRANCH   2   3
ENDBRANCH   1   2
BRANCH   1  33
ATOM     33  O   UNL A   1      43.727  21.382  24.992  1.00  0.00    -0.376 OA
BRANCH  33  34
ATOM     34  C   UNL A   1      43.814  22.682  24.423  1.00  0.00     0.202 C 
BRANCH  34  35
ATOM     35  C   UNL A   1      43.176  23.835  25.200  1.00  0.00     0.261 C 
BRANCH  35  36
ATOM     36  O   UNL A   1      43.888  25.062  25.149  1.00  0.00    -0.460 OA
BRANCH  36  37
ATOM     37  C   UNL A   1      44.580  25.369  26.266  1.00  0.00     0.338 C 
ATOM     38  O   UNL A   1      45.714  25.020  26.533  1.00  0.00    -0.246 OA
BRANCH  37  39
ATOM     39  C   UNL A   1      43.700  26.146  27.151  1.00  0.00     0.060 A 
ATOM     40  C   UNL A   1      42.637  26.815  26.549  1.00  0.00     0.016 A 
ATOM     41  C   UNL A   1      44.099  26.418  28.472  1.00  0.00     0.016 A 
ATOM     42  C   UNL A   1      42.123  27.923  27.185  1.00  0.00     0.010 A 
ATOM     43  C   UNL A   1      43.593  27.533  29.102  1.00  0.00     0.010 A 
ATOM     44  C   UNL A   1      42.683  28.321  28.404  1.00  0.00    -0.014 A 
BRANCH  44  45
ATOM     45  C   UNL A   1      42.324  29.635  28.891  1.00  0.00     0.031 A 
ATOM     46  C   UNL A   1      43.213  30.728  28.469  1.00  0.00     0.074 A 
ATOM     47  C   UNL A   1      41.228  29.845  29.642  1.00  0.00     0.049 A 
ATOM     48  N   UNL A   1      43.962  31.467  29.215  1.00  0.00    -0.248 NA
ATOM     49  C   UNL A   1      43.359  30.966  27.027  1.00  0.00     0.031 C 
ATOM     50  C   UNL A   1      40.128  28.916  29.910  1.00  0.00     0.029 A 
ATOM     51  N   UNL A   1      40.823  30.998  30.240  1.00  0.00    -0.354 N 
ATOM     52  C   UNL A   1      44.523  32.405  28.362  1.00  0.00     0.074 A 
ATOM     53  C   UNL A   1      44.240  31.964  27.019  1.00  0.00     0.031 C 
ATOM     54  C   UNL A   1      39.090  29.606  30.432  1.00  0.00     0.029 A 
ATOM     55  C   UNL A   1      39.495  30.987  30.639  1.00  0.00     0.049 A 
ATOM     56  H   UNL A   1      41.418  31.770  30.378  1.00  0.00     0.167 HD
ATOM     57  C   UNL A   1      44.991  33.595  28.819  1.00  0.00     0.034 A 
ATOM     58  C   UNL A   1      38.766  32.063  31.023  1.00  0.00     0.034 A 
ATOM     59  C   UNL A   1      45.262  33.568  30.233  1.00  0.00     0.049 A 
ATOM     60  C   UNL A   1      39.727  33.089  31.502  1.00  0.00     0.074 A 
ATOM     61  C   UNL A   1      46.071  32.793  31.044  1.00  0.00     0.029 A 
ATOM     62  N   UNL A   1      44.386  34.200  31.083  1.00  0.00    -0.354 N 
ATOM     63  N   UNL A   1      40.483  32.946  32.558  1.00  0.00    -0.248 NA
ATOM     64  C   UNL A   1      40.151  34.131  30.579  1.00  0.00     0.031 C 
ATOM     65  C   UNL A   1      45.340  32.630  32.256  1.00  0.00     0.029 A 
ATOM     66  C   UNL A   1      44.146  33.341  32.129  1.00  0.00     0.049 A 
ATOM     67  H   UNL A   1      44.001  35.099  30.964  1.00  0.00     0.167 HD
ATOM     68  C   UNL A   1      41.676  33.576  32.237  1.00  0.00     0.074 A 
ATOM     69  C   UNL A   1      41.372  34.382  31.061  1.00  0.00     0.031 C 
ATOM     70  C   UNL A   1      42.861  33.179  32.785  1.00  0.00     0.034 A 
BRANCH  57  71
ATOM     71  C   UNL A   1      44.912  34.862  28.016  1.00  0.00     0.023 A 
ATOM     72  C   UNL A   1      46.105  35.490  27.629  1.00  0.00     0.031 A 
ATOM     73  C   UNL A   1      43.722  35.607  27.835  1.00  0.00     0.131 A 
ATOM     74  C   UNL A   1      46.087  36.797  27.111  1.00  0.00     0.055 A 
ATOM     75  C   UNL A   1      43.701  36.872  27.248  1.00  0.00     0.041 A 
ATOM     76  F   UNL A   1      42.538  35.187  28.302  1.00  0.00    -0.206 F 
ATOM     77  C   UNL A   1      44.891  37.484  26.899  1.00  0.00     0.022 A 
BRANCH  74  78
ATOM     78  S   UNL A   1      47.664  37.649  26.863  1.00  0.00     0.124 S 
ATOM     79  O   UNL A   1      47.236  38.888  26.223  1.00  0.00    -0.237 OA
ATOM     80  O   UNL A   1      48.163  37.768  28.228  1.00  0.00    -0.237 OA
ATOM     81  O   UNL A   1      48.414  36.732  26.005  1.00  0.00    -0.744 OA
ENDBRANCH  74  78
ENDBRANCH  57  71
BRANCH  58  82
ATOM     82  C   UNL A   1      37.339  32.342  30.705  1.00  0.00     0.023 A 
ATOM     83  C   UNL A   1      36.478  32.923  31.657  1.00  0.00     0.031 A 
ATOM     84  C   UNL A   1      36.851  32.266  29.379  1.00  0.00     0.131 A 
ATOM     85  C   UNL A   1      35.205  33.397  31.273  1.00  0.00     0.055 A 
ATOM     86  C   UNL A   1      35.581  32.713  29.010  1.00  0.00     0.041 A 
ATOM     87  F   UNL A   1      37.623  31.840  28.369  1.00  0.00    -0.206 F 
ATOM     88  C   UNL A   1      34.754  33.293  29.955  1.00  0.00     0.022 A 
BRANCH  85  89
ATOM     89  S   UNL A   1      34.168  34.304  32.461  1.00  0.00     0.124 S 
ATOM     90  O   UNL A   1      33.287  35.061  31.580  1.00  0.00    -0.237 OA
ATOM     91  O   UNL A   1      33.550  33.231  33.232  1.00  0.00    -0.237 OA
ATOM     92  O   UNL A   1      35.140  35.107  33.205  1.00  0.00    -0.744 OA
ENDBRANCH  85  89
ENDBRANCH  58  82
BRANCH  70  93
ATOM     93  C   UNL A   1      42.835  32.298  34.015  1.00  0.00     0.023 A 
ATOM     94  C   UNL A   1      42.478  30.933  34.011  1.00  0.00     0.031 A 
ATOM     95  C   UNL A   1      43.337  32.842  35.211  1.00  0.00     0.131 A 
ATOM     96  C   UNL A   1      42.622  30.166  35.185  1.00  0.00     0.055 A 
ATOM     97  C   UNL A   1      43.494  32.076  36.365  1.00  0.00     0.041 A 
ATOM     98  F   UNL A   1      43.726  34.127  35.262  1.00  0.00    -0.206 F 
ATOM     99  C   UNL A   1      43.135  30.734  36.357  1.00  0.00     0.022 A 
BRANCH  96 100
ATOM    100  S   UNL A   1      42.178  28.399  35.191  1.00  0.00     0.124 S 
ATOM    101  O   UNL A   1      43.204  27.802  36.038  1.00  0.00    -0.237 OA
ATOM    102  O   UNL A   1      40.821  28.410  35.731  1.00  0.00    -0.237 OA
ATOM    103  O   UNL A   1      42.262  28.020  33.779  1.00  0.00    -0.744 OA
ENDBRANCH  96 100
ENDBRANCH  70  93
ENDBRANCH  44  45
ENDBRANCH  37  39
ENDBRANCH  36  37
ENDBRANCH  35  36
ENDBRANCH  34  35
ENDBRANCH  33  34
ENDBRANCH   1  33
TORSDOF 22
ENDMDL
