MODEL 1
REMARK VINA RESULT:     -11.1      0.000      0.000
REMARK SMILES Cc1cc(OC(F)(F)F)cc2c1O[C@H](C(F)(F)F)C(C(=O)OCCOCCOCCOC(=O)c1ccc(-c3c4nc(c(-c5cc(S(=O)(=O)[O-])ccc5F)c5ccc([nH]5)c(-c5cc(S(=O)(=O)[O-])ccc5F)c5nc(c(-c6cc(S(=O)(=O)[O-])ccc6F)c6ccc3[nH]6)C=C5)C=C4)cc1)=C2
REMARK SMILES IDX 27 1 26 2 25 3 24 4 23 5 22 6 20 7 21 8 19 9 1 10 2 11 3 12
REMARK SMILES IDX 12 13 4 14 11 15 13 16 10 17 97 18 14 19 5 20 6 21 7 22 8 23
REMARK SMILES IDX 9 24 15 25 16 26 17 27 18 28 28 29 29 30 30 31 31 32 32 33
REMARK SMILES IDX 33 34 34 35 35 36 96 37 36 38 95 39 37 40 38 41 39 42 89 43
REMARK SMILES IDX 40 44 94 45 88 46 90 47 41 48 93 49 87 50 86 51 42 53 74 54
REMARK SMILES IDX 54 55 73 56 55 57 58 58 72 59 91 60 56 61 57 62 71 64 92 65
REMARK SMILES IDX 59 66 43 67 44 68 52 69 45 70 51 71 53 72 50 73 46 74 47 75
REMARK SMILES IDX 48 76 49 77 75 78 76 79 84 80 77 81 83 82 85 83 82 84 78 85
REMARK SMILES IDX 79 86 80 87 81 88 60 89 61 90 69 91 62 92 68 93 70 94 67 95
REMARK SMILES IDX 63 96 64 97 65 98 66 99
REMARK H PARENT 90 52 58 63
REMARK Flexibility Score: inf
ROOT
ATOM      1  C   UNL A   1      32.969  28.386  22.730  1.00  0.00     0.188 C 
ENDROOT
BRANCH   1   2
ATOM      2  C   UNL A   1      32.228  27.038  22.869  1.00  0.00     0.188 C 
BRANCH   2   3
ATOM      3  O   UNL A   1      30.826  27.203  22.861  1.00  0.00    -0.376 OA
BRANCH   3   4
ATOM      4  C   UNL A   1      30.022  26.369  23.668  1.00  0.00     0.202 C 
BRANCH   4   5
ATOM      5  C   UNL A   1      30.366  24.886  23.879  1.00  0.00     0.261 C 
BRANCH   5   6
ATOM      6  O   UNL A   1      31.369  24.587  24.858  1.00  0.00    -0.460 OA
BRANCH   6   7
ATOM      7  C   UNL A   1      31.170  23.500  25.634  1.00  0.00     0.338 C 
ATOM      8  O   UNL A   1      30.260  23.327  26.427  1.00  0.00    -0.246 OA
BRANCH   7   9
ATOM      9  C   UNL A   1      32.203  22.492  25.311  1.00  0.00     0.087 C 
ATOM     10  C   UNL A   1      36.605  19.902  24.752  1.00  0.00     0.048 C 
ATOM     11  C   UNL A   1      35.138  19.585  24.642  1.00  0.00    -0.005 A 
ATOM     12  C   UNL A   1      34.743  18.247  24.465  1.00  0.00     0.054 A 
ATOM     13  C   UNL A   1      34.157  20.576  24.809  1.00  0.00     0.131 A 
ATOM     14  C   UNL A   1      33.393  17.901  24.423  1.00  0.00     0.130 A 
ATOM     15  C   UNL A   1      32.802  20.233  24.794  1.00  0.00     0.021 A 
ATOM     16  O   UNL A   1      34.599  21.855  24.993  1.00  0.00    -0.475 OA
ATOM     17  C   UNL A   1      32.428  18.902  24.574  1.00  0.00     0.058 A 
ATOM     18  C   UNL A   1      31.790  21.241  25.073  1.00  0.00     0.027 C 
ATOM     19  C   UNL A   1      33.646  22.920  25.245  1.00  0.00     0.316 C 
BRANCH  14  20
ATOM     20  O   UNL A   1      32.885  16.644  24.257  1.00  0.00    -0.406 OA
BRANCH  20  21
ATOM     21  C   UNL A   1      33.292  15.640  25.173  1.00  0.00     0.573 C 
ATOM     22  F   UNL A   1      32.578  14.506  25.000  1.00  0.00    -0.132 F 
ATOM     23  F   UNL A   1      34.608  15.360  25.033  1.00  0.00    -0.132 F 
ATOM     24  F   UNL A   1      33.091  16.081  26.432  1.00  0.00    -0.132 F 
ENDBRANCH  20  21
ENDBRANCH  14  20
BRANCH  19  25
ATOM     25  C   UNL A   1      34.104  23.660  26.511  1.00  0.00     0.430 C 
ATOM     26  F   UNL A   1      33.665  24.944  26.514  1.00  0.00    -0.167 F 
ATOM     27  F   UNL A   1      33.620  23.091  27.639  1.00  0.00    -0.167 F 
ATOM     28  F   UNL A   1      35.451  23.695  26.621  1.00  0.00    -0.167 F 
ENDBRANCH  19  25
ENDBRANCH   7   9
ENDBRANCH   6   7
ENDBRANCH   5   6
ENDBRANCH   4   5
ENDBRANCH   3   4
ENDBRANCH   2   3
ENDBRANCH   1   2
BRANCH   1  29
ATOM     29  O   UNL A   1      32.863  29.353  23.771  1.00  0.00    -0.376 OA
BRANCH  29  30
ATOM     30  C   UNL A   1      32.417  28.927  25.056  1.00  0.00     0.202 C 
BRANCH  30  31
ATOM     31  C   UNL A   1      31.672  29.924  25.953  1.00  0.00     0.261 C 
BRANCH  31  32
ATOM     32  O   UNL A   1      32.329  30.211  27.198  1.00  0.00    -0.460 OA
BRANCH  32  33
ATOM     33  C   UNL A   1      33.053  31.359  27.225  1.00  0.00     0.338 C 
ATOM     34  O   UNL A   1      32.645  32.495  27.055  1.00  0.00    -0.246 OA
BRANCH  33  35
ATOM     35  C   UNL A   1      34.422  31.062  27.683  1.00  0.00     0.060 A 
ATOM     36  C   UNL A   1      34.754  29.731  27.980  1.00  0.00     0.016 A 
ATOM     37  C   UNL A   1      35.345  32.086  27.886  1.00  0.00     0.016 A 
ATOM     38  C   UNL A   1      36.011  29.421  28.492  1.00  0.00     0.010 A 
ATOM     39  C   UNL A   1      36.591  31.781  28.441  1.00  0.00     0.010 A 
ATOM     40  C   UNL A   1      36.915  30.454  28.773  1.00  0.00    -0.014 A 
BRANCH  40  41
ATOM     41  C   UNL A   1      38.103  30.173  29.609  1.00  0.00     0.031 A 
ATOM     42  C   UNL A   1      39.153  29.249  29.063  1.00  0.00     0.074 A 
ATOM     43  C   UNL A   1      38.246  30.722  30.827  1.00  0.00     0.049 A 
ATOM     44  N   UNL A   1      40.252  28.822  29.624  1.00  0.00    -0.248 NA
ATOM     45  C   UNL A   1      38.936  28.742  27.696  1.00  0.00     0.031 C 
ATOM     46  C   UNL A   1      37.317  31.670  31.438  1.00  0.00     0.029 A 
ATOM     47  N   UNL A   1      39.225  30.548  31.773  1.00  0.00    -0.354 N 
ATOM     48  C   UNL A   1      40.861  28.004  28.681  1.00  0.00     0.074 A 
ATOM     49  C   UNL A   1      40.000  27.973  27.520  1.00  0.00     0.031 C 
ATOM     50  C   UNL A   1      37.758  31.975  32.669  1.00  0.00     0.029 A 
ATOM     51  C   UNL A   1      38.983  31.221  32.946  1.00  0.00     0.049 A 
ATOM     52  H   UNL A   1      40.024  29.992  31.626  1.00  0.00     0.167 HD
ATOM     53  C   UNL A   1      42.034  27.338  28.774  1.00  0.00     0.034 A 
ATOM     54  C   UNL A   1      39.659  31.210  34.114  1.00  0.00     0.034 A 
ATOM     55  C   UNL A   1      42.867  27.344  29.946  1.00  0.00     0.049 A 
ATOM     56  C   UNL A   1      40.918  30.387  34.232  1.00  0.00     0.074 A 
ATOM     57  C   UNL A   1      44.074  26.697  30.139  1.00  0.00     0.029 A 
ATOM     58  N   UNL A   1      42.576  28.014  31.125  1.00  0.00    -0.354 N 
ATOM     59  N   UNL A   1      41.512  29.654  33.317  1.00  0.00    -0.248 NA
ATOM     60  C   UNL A   1      41.604  30.385  35.532  1.00  0.00     0.031 C 
ATOM     61  C   UNL A   1      44.487  26.931  31.451  1.00  0.00     0.029 A 
ATOM     62  C   UNL A   1      43.569  27.774  32.059  1.00  0.00     0.049 A 
ATOM     63  H   UNL A   1      41.782  28.575  31.275  1.00  0.00     0.167 HD
ATOM     64  C   UNL A   1      42.650  29.128  33.924  1.00  0.00     0.074 A 
ATOM     65  C   UNL A   1      42.670  29.636  35.280  1.00  0.00     0.031 C 
ATOM     66  C   UNL A   1      43.591  28.301  33.403  1.00  0.00     0.034 A 
BRANCH  53  67
ATOM     67  C   UNL A   1      42.491  26.538  27.587  1.00  0.00     0.023 A 
ATOM     68  C   UNL A   1      42.240  25.156  27.531  1.00  0.00     0.031 A 
ATOM     69  C   UNL A   1      43.250  27.126  26.560  1.00  0.00     0.131 A 
ATOM     70  C   UNL A   1      42.770  24.399  26.480  1.00  0.00     0.055 A 
ATOM     71  C   UNL A   1      43.748  26.372  25.497  1.00  0.00     0.041 A 
ATOM     72  F   UNL A   1      43.503  28.445  26.569  1.00  0.00    -0.206 F 
ATOM     73  C   UNL A   1      43.516  25.000  25.460  1.00  0.00     0.022 A 
BRANCH  70  74
ATOM     74  S   UNL A   1      42.537  22.603  26.413  1.00  0.00     0.124 S 
ATOM     75  O   UNL A   1      41.178  22.456  26.930  1.00  0.00    -0.237 OA
ATOM     76  O   UNL A   1      42.696  22.329  24.989  1.00  0.00    -0.237 OA
ATOM     77  O   UNL A   1      43.588  22.081  27.280  1.00  0.00    -0.744 OA
ENDBRANCH  70  74
ENDBRANCH  53  67
BRANCH  54  78
ATOM     78  C   UNL A   1      39.157  32.034  35.250  1.00  0.00     0.023 A 
ATOM     79  C   UNL A   1      39.634  33.340  35.462  1.00  0.00     0.031 A 
ATOM     80  C   UNL A   1      38.260  31.495  36.186  1.00  0.00     0.131 A 
ATOM     81  C   UNL A   1      39.255  34.041  36.615  1.00  0.00     0.055 A 
ATOM     82  C   UNL A   1      37.840  32.219  37.303  1.00  0.00     0.041 A 
ATOM     83  F   UNL A   1      37.784  30.251  36.026  1.00  0.00    -0.206 F 
ATOM     84  C   UNL A   1      38.349  33.494  37.529  1.00  0.00     0.022 A 
BRANCH  81  85
ATOM     85  S   UNL A   1      39.993  35.651  37.008  1.00  0.00     0.124 S 
ATOM     86  O   UNL A   1      39.327  36.000  38.259  1.00  0.00    -0.237 OA
ATOM     87  O   UNL A   1      41.408  35.304  37.122  1.00  0.00    -0.237 OA
ATOM     88  O   UNL A   1      39.644  36.478  35.859  1.00  0.00    -0.744 OA
ENDBRANCH  81  85
ENDBRANCH  54  78
BRANCH  66  89
ATOM     89  C   UNL A   1      44.753  27.880  34.268  1.00  0.00     0.023 A 
ATOM     90  C   UNL A   1      44.657  26.712  35.050  1.00  0.00     0.031 A 
ATOM     91  C   UNL A   1      45.866  28.717  34.452  1.00  0.00     0.131 A 
ATOM     92  C   UNL A   1      45.633  26.440  36.016  1.00  0.00     0.055 A 
ATOM     93  C   UNL A   1      46.859  28.418  35.388  1.00  0.00     0.041 A 
ATOM     94  F   UNL A   1      45.995  29.847  33.738  1.00  0.00    -0.206 F 
ATOM     95  C   UNL A   1      46.737  27.282  36.184  1.00  0.00     0.022 A 
BRANCH  92  96
ATOM     96  S   UNL A   1      45.466  25.026  37.141  1.00  0.00     0.124 S 
ATOM     97  O   UNL A   1      46.780  24.397  37.036  1.00  0.00    -0.237 OA
ATOM     98  O   UNL A   1      45.188  25.682  38.416  1.00  0.00    -0.237 OA
ATOM     99  O   UNL A   1      44.363  24.255  36.576  1.00  0.00    -0.744 OA
ENDBRANCH  92  96
ENDBRANCH  66  89
ENDBRANCH  40  41
ENDBRANCH  33  35
ENDBRANCH  32  33
ENDBRANCH  31  32
ENDBRANCH  30  31
ENDBRANCH  29  30
ENDBRANCH   1  29
TORSDOF 23
ENDMDL
MODEL 2
REMARK VINA RESULT:     -10.8      2.046      7.536
REMARK SMILES Cc1cc(OC(F)(F)F)cc2c1O[C@H](C(F)(F)F)C(C(=O)OCCOCCOCCOC(=O)c1ccc(-c3c4nc(c(-c5cc(S(=O)(=O)[O-])ccc5F)c5ccc([nH]5)c(-c5cc(S(=O)(=O)[O-])ccc5F)c5nc(c(-c6cc(S(=O)(=O)[O-])ccc6F)c6ccc3[nH]6)C=C5)C=C4)cc1)=C2
REMARK SMILES IDX 27 1 26 2 25 3 24 4 23 5 22 6 20 7 21 8 19 9 1 10 2 11 3 12
REMARK SMILES IDX 12 13 4 14 11 15 13 16 10 17 97 18 14 19 5 20 6 21 7 22 8 23
REMARK SMILES IDX 9 24 15 25 16 26 17 27 18 28 28 29 29 30 30 31 31 32 32 33
REMARK SMILES IDX 33 34 34 35 35 36 96 37 36 38 95 39 37 40 38 41 39 42 89 43
REMARK SMILES IDX 40 44 94 45 88 46 90 47 41 48 93 49 87 50 86 51 42 53 74 54
REMARK SMILES IDX 54 55 73 56 55 57 58 58 72 59 91 60 56 61 57 62 71 64 92 65
REMARK SMILES IDX 59 66 43 67 44 68 52 69 45 70 51 71 53 72 50 73 46 74 47 75
REMARK SMILES IDX 48 76 49 77 75 78 76 79 84 80 77 81 83 82 85 83 82 84 78 85
REMARK SMILES IDX 79 86 80 87 81 88 60 89 61 90 69 91 62 92 68 93 70 94 67 95
REMARK SMILES IDX 63 96 64 97 65 98 66 99
REMARK H PARENT 90 52 58 63
REMARK Flexibility Score: inf
ROOT
ATOM      1  C   UNL A   1      33.132  28.361  22.515  1.00  0.00     0.188 C 
ENDROOT
BRANCH   1   2
ATOM      2  C   UNL A   1      32.384  27.046  22.828  1.00  0.00     0.188 C 
BRANCH   2   3
ATOM      3  O   UNL A   1      31.020  27.115  22.469  1.00  0.00    -0.376 OA
BRANCH   3   4
ATOM      4  C   UNL A   1      30.048  27.348  23.466  1.00  0.00     0.202 C 
BRANCH   4   5
ATOM      5  C   UNL A   1      29.717  26.285  24.526  1.00  0.00     0.261 C 
BRANCH   5   6
ATOM      6  O   UNL A   1      30.353  25.008  24.383  1.00  0.00    -0.460 OA
BRANCH   6   7
ATOM      7  C   UNL A   1      30.678  24.351  25.516  1.00  0.00     0.338 C 
ATOM      8  O   UNL A   1      30.118  24.436  26.596  1.00  0.00    -0.246 OA
BRANCH   7   9
ATOM      9  C   UNL A   1      31.796  23.427  25.222  1.00  0.00     0.087 C 
ATOM     10  C   UNL A   1      36.418  21.296  24.521  1.00  0.00     0.048 C 
ATOM     11  C   UNL A   1      35.002  20.802  24.639  1.00  0.00    -0.005 A 
ATOM     12  C   UNL A   1      34.770  19.416  24.712  1.00  0.00     0.054 A 
ATOM     13  C   UNL A   1      33.921  21.688  24.776  1.00  0.00     0.131 A 
ATOM     14  C   UNL A   1      33.478  18.917  24.886  1.00  0.00     0.130 A 
ATOM     15  C   UNL A   1      32.629  21.196  24.977  1.00  0.00     0.021 A 
ATOM     16  O   UNL A   1      34.209  23.022  24.713  1.00  0.00    -0.475 OA
ATOM     17  C   UNL A   1      32.412  19.813  25.003  1.00  0.00     0.058 A 
ATOM     18  C   UNL A   1      31.528  22.115  25.224  1.00  0.00     0.027 C 
ATOM     19  C   UNL A   1      33.156  24.000  24.919  1.00  0.00     0.316 C 
BRANCH  14  20
ATOM     20  O   UNL A   1      33.125  17.601  24.971  1.00  0.00    -0.406 OA
BRANCH  20  21
ATOM     21  C   UNL A   1      33.988  16.645  24.376  1.00  0.00     0.573 C 
ATOM     22  F   UNL A   1      33.611  15.387  24.691  1.00  0.00    -0.132 F 
ATOM     23  F   UNL A   1      34.006  16.778  23.030  1.00  0.00    -0.132 F 
ATOM     24  F   UNL A   1      35.244  16.838  24.830  1.00  0.00    -0.132 F 
ENDBRANCH  20  21
ENDBRANCH  14  20
BRANCH  19  25
ATOM     25  C   UNL A   1      33.640  24.981  25.996  1.00  0.00     0.430 C 
ATOM     26  F   UNL A   1      32.957  26.152  25.934  1.00  0.00    -0.167 F 
ATOM     27  F   UNL A   1      33.456  24.500  27.247  1.00  0.00    -0.167 F 
ATOM     28  F   UNL A   1      34.954  25.274  25.865  1.00  0.00    -0.167 F 
ENDBRANCH  19  25
ENDBRANCH   7   9
ENDBRANCH   6   7
ENDBRANCH   5   6
ENDBRANCH   4   5
ENDBRANCH   3   4
ENDBRANCH   2   3
ENDBRANCH   1   2
BRANCH   1  29
ATOM     29  O   UNL A   1      33.083  29.433  23.452  1.00  0.00    -0.376 OA
BRANCH  29  30
ATOM     30  C   UNL A   1      32.901  29.126  24.832  1.00  0.00     0.202 C 
BRANCH  30  31
ATOM     31  C   UNL A   1      32.114  30.104  25.713  1.00  0.00     0.261 C 
BRANCH  31  32
ATOM     32  O   UNL A   1      32.598  30.214  27.062  1.00  0.00    -0.460 OA
BRANCH  32  33
ATOM     33  C   UNL A   1      33.343  31.316  27.327  1.00  0.00     0.338 C 
ATOM     34  O   UNL A   1      32.954  32.469  27.411  1.00  0.00    -0.246 OA
BRANCH  33  35
ATOM     35  C   UNL A   1      34.710  30.905  27.695  1.00  0.00     0.060 A 
ATOM     36  C   UNL A   1      34.981  29.536  27.834  1.00  0.00     0.016 A 
ATOM     37  C   UNL A   1      35.691  31.856  27.970  1.00  0.00     0.016 A 
ATOM     38  C   UNL A   1      36.238  29.112  28.259  1.00  0.00     0.010 A 
ATOM     39  C   UNL A   1      36.938  31.432  28.438  1.00  0.00     0.010 A 
ATOM     40  C   UNL A   1      37.203  30.062  28.612  1.00  0.00    -0.014 A 
BRANCH  40  41
ATOM     41  C   UNL A   1      38.403  29.635  29.365  1.00  0.00     0.031 A 
ATOM     42  C   UNL A   1      38.680  30.288  30.690  1.00  0.00     0.074 A 
ATOM     43  C   UNL A   1      39.232  28.693  28.884  1.00  0.00     0.049 A 
ATOM     44  N   UNL A   1      39.685  30.112  31.505  1.00  0.00    -0.248 NA
ATOM     45  C   UNL A   1      37.684  31.267  31.160  1.00  0.00     0.031 C 
ATOM     46  C   UNL A   1      39.038  27.958  27.636  1.00  0.00     0.029 A 
ATOM     47  N   UNL A   1      40.412  28.205  29.386  1.00  0.00    -0.354 N 
ATOM     48  C   UNL A   1      39.442  30.950  32.586  1.00  0.00     0.074 A 
ATOM     49  C   UNL A   1      38.208  31.653  32.314  1.00  0.00     0.031 C 
ATOM     50  C   UNL A   1      40.079  27.128  27.457  1.00  0.00     0.029 A 
ATOM     51  C   UNL A   1      41.028  27.296  28.560  1.00  0.00     0.049 A 
ATOM     52  H   UNL A   1      40.784  28.481  30.256  1.00  0.00     0.167 HD
ATOM     53  C   UNL A   1      40.182  31.118  33.705  1.00  0.00     0.034 A 
ATOM     54  C   UNL A   1      42.228  26.689  28.671  1.00  0.00     0.034 A 
ATOM     55  C   UNL A   1      41.427  30.443  33.951  1.00  0.00     0.049 A 
ATOM     56  C   UNL A   1      43.084  26.959  29.884  1.00  0.00     0.074 A 
ATOM     57  C   UNL A   1      42.253  30.550  35.055  1.00  0.00     0.029 A 
ATOM     58  N   UNL A   1      42.033  29.551  33.079  1.00  0.00    -0.354 N 
ATOM     59  N   UNL A   1      42.823  27.717  30.924  1.00  0.00    -0.248 NA
ATOM     60  C   UNL A   1      44.395  26.295  29.945  1.00  0.00     0.031 C 
ATOM     61  C   UNL A   1      43.383  29.765  34.828  1.00  0.00     0.029 A 
ATOM     62  C   UNL A   1      43.236  29.120  33.610  1.00  0.00     0.049 A 
ATOM     63  H   UNL A   1      41.663  29.268  32.212  1.00  0.00     0.167 HD
ATOM     64  C   UNL A   1      43.922  27.601  31.772  1.00  0.00     0.074 A 
ATOM     65  C   UNL A   1      44.846  26.689  31.130  1.00  0.00     0.031 C 
ATOM     66  C   UNL A   1      44.143  28.195  32.972  1.00  0.00     0.034 A 
BRANCH  53  67
ATOM     67  C   UNL A   1      39.678  32.073  34.750  1.00  0.00     0.023 A 
ATOM     68  C   UNL A   1      39.016  31.585  35.889  1.00  0.00     0.031 A 
ATOM     69  C   UNL A   1      39.772  33.465  34.571  1.00  0.00     0.131 A 
ATOM     70  C   UNL A   1      38.448  32.486  36.798  1.00  0.00     0.055 A 
ATOM     71  C   UNL A   1      39.232  34.358  35.496  1.00  0.00     0.041 A 
ATOM     72  F   UNL A   1      40.406  33.973  33.501  1.00  0.00    -0.206 F 
ATOM     73  C   UNL A   1      38.558  33.868  36.611  1.00  0.00     0.022 A 
BRANCH  70  74
ATOM     74  S   UNL A   1      37.518  31.897  38.238  1.00  0.00     0.124 S 
ATOM     75  O   UNL A   1      38.513  32.009  39.304  1.00  0.00    -0.237 OA
ATOM     76  O   UNL A   1      36.421  32.857  38.305  1.00  0.00    -0.237 OA
ATOM     77  O   UNL A   1      37.146  30.533  37.881  1.00  0.00    -0.744 OA
ENDBRANCH  70  74
ENDBRANCH  53  67
BRANCH  54  78
ATOM     78  C   UNL A   1      42.664  25.744  27.603  1.00  0.00     0.023 A 
ATOM     79  C   UNL A   1      42.120  24.451  27.515  1.00  0.00     0.031 A 
ATOM     80  C   UNL A   1      43.691  26.094  26.712  1.00  0.00     0.131 A 
ATOM     81  C   UNL A   1      42.647  23.535  26.595  1.00  0.00     0.055 A 
ATOM     82  C   UNL A   1      44.173  25.198  25.757  1.00  0.00     0.041 A 
ATOM     83  F   UNL A   1      44.242  27.317  26.764  1.00  0.00    -0.206 F 
ATOM     84  C   UNL A   1      43.660  23.905  25.705  1.00  0.00     0.022 A 
BRANCH  81  85
ATOM     85  S   UNL A   1      42.093  21.808  26.582  1.00  0.00     0.124 S 
ATOM     86  O   UNL A   1      42.885  21.236  25.497  1.00  0.00    -0.237 OA
ATOM     87  O   UNL A   1      42.460  21.372  27.927  1.00  0.00    -0.237 OA
ATOM     88  O   UNL A   1      40.660  21.908  26.327  1.00  0.00    -0.744 OA
ENDBRANCH  81  85
ENDBRANCH  54  78
BRANCH  66  89
ATOM     89  C   UNL A   1      45.421  27.891  33.713  1.00  0.00     0.023 A 
ATOM     90  C   UNL A   1      46.589  28.623  33.425  1.00  0.00     0.031 A 
ATOM     91  C   UNL A   1      45.524  26.776  34.561  1.00  0.00     0.131 A 
ATOM     92  C   UNL A   1      47.820  28.200  33.941  1.00  0.00     0.055 A 
ATOM     93  C   UNL A   1      46.748  26.384  35.108  1.00  0.00     0.041 A 
ATOM     94  F   UNL A   1      44.440  26.040  34.855  1.00  0.00    -0.206 F 
ATOM     95  C   UNL A   1      47.905  27.090  34.787  1.00  0.00     0.022 A 
BRANCH  92  96
ATOM     96  S   UNL A   1      49.364  29.029  33.472  1.00  0.00     0.124 S 
ATOM     97  O   UNL A   1      49.447  28.734  32.043  1.00  0.00    -0.237 OA
ATOM     98  O   UNL A   1      49.076  30.421  33.806  1.00  0.00    -0.237 OA
ATOM     99  O   UNL A   1      50.377  28.380  34.297  1.00  0.00    -0.744 OA
ENDBRANCH  92  96
ENDBRANCH  66  89
ENDBRANCH  40  41
ENDBRANCH  33  35
ENDBRANCH  32  33
ENDBRANCH  31  32
ENDBRANCH  30  31
ENDBRANCH  29  30
ENDBRANCH   1  29
TORSDOF 23
ENDMDL
MODEL 3
REMARK VINA RESULT:     -10.8      1.740      3.176
REMARK SMILES Cc1cc(OC(F)(F)F)cc2c1O[C@H](C(F)(F)F)C(C(=O)OCCOCCOCCOC(=O)c1ccc(-c3c4nc(c(-c5cc(S(=O)(=O)[O-])ccc5F)c5ccc([nH]5)c(-c5cc(S(=O)(=O)[O-])ccc5F)c5nc(c(-c6cc(S(=O)(=O)[O-])ccc6F)c6ccc3[nH]6)C=C5)C=C4)cc1)=C2
REMARK SMILES IDX 27 1 26 2 25 3 24 4 23 5 22 6 20 7 21 8 19 9 1 10 2 11 3 12
REMARK SMILES IDX 12 13 4 14 11 15 13 16 10 17 97 18 14 19 5 20 6 21 7 22 8 23
REMARK SMILES IDX 9 24 15 25 16 26 17 27 18 28 28 29 29 30 30 31 31 32 32 33
REMARK SMILES IDX 33 34 34 35 35 36 96 37 36 38 95 39 37 40 38 41 39 42 89 43
REMARK SMILES IDX 40 44 94 45 88 46 90 47 41 48 93 49 87 50 86 51 42 53 74 54
REMARK SMILES IDX 54 55 73 56 55 57 58 58 72 59 91 60 56 61 57 62 71 64 92 65
REMARK SMILES IDX 59 66 43 67 44 68 52 69 45 70 51 71 53 72 50 73 46 74 47 75
REMARK SMILES IDX 48 76 49 77 75 78 76 79 84 80 77 81 83 82 85 83 82 84 78 85
REMARK SMILES IDX 79 86 80 87 81 88 60 89 61 90 69 91 62 92 68 93 70 94 67 95
REMARK SMILES IDX 63 96 64 97 65 98 66 99
REMARK H PARENT 90 52 58 63
REMARK Flexibility Score: inf
ROOT
ATOM      1  C   UNL A   1      32.805  27.971  22.594  1.00  0.00     0.188 C 
ENDROOT
BRANCH   1   2
ATOM      2  C   UNL A   1      32.536  26.614  23.279  1.00  0.00     0.188 C 
BRANCH   2   3
ATOM      3  O   UNL A   1      31.154  26.363  23.432  1.00  0.00    -0.376 OA
BRANCH   3   4
ATOM      4  C   UNL A   1      30.558  26.500  24.704  1.00  0.00     0.202 C 
BRANCH   4   5
ATOM      5  C   UNL A   1      30.622  25.369  25.744  1.00  0.00     0.261 C 
BRANCH   5   6
ATOM      6  O   UNL A   1      31.603  24.347  25.530  1.00  0.00    -0.460 OA
BRANCH   6   7
ATOM      7  C   UNL A   1      31.872  23.523  26.565  1.00  0.00     0.338 C 
ATOM      8  O   UNL A   1      31.142  23.276  27.510  1.00  0.00    -0.246 OA
BRANCH   7   9
ATOM      9  C   UNL A   1      33.188  22.888  26.334  1.00  0.00     0.087 C 
ATOM     10  C   UNL A   1      37.007  19.767  24.896  1.00  0.00     0.048 C 
ATOM     11  C   UNL A   1      36.895  21.165  25.440  1.00  0.00    -0.005 A 
ATOM     12  C   UNL A   1      38.051  21.965  25.500  1.00  0.00     0.054 A 
ATOM     13  C   UNL A   1      35.655  21.720  25.795  1.00  0.00     0.131 A 
ATOM     14  C   UNL A   1      37.980  23.288  25.936  1.00  0.00     0.130 A 
ATOM     15  C   UNL A   1      35.573  23.053  26.208  1.00  0.00     0.021 A 
ATOM     16  O   UNL A   1      34.565  20.901  25.701  1.00  0.00    -0.475 OA
ATOM     17  C   UNL A   1      36.740  23.820  26.302  1.00  0.00     0.058 A 
ATOM     18  C   UNL A   1      34.276  23.657  26.473  1.00  0.00     0.027 C 
ATOM     19  C   UNL A   1      33.241  21.425  25.980  1.00  0.00     0.316 C 
BRANCH  14  20
ATOM     20  O   UNL A   1      39.025  24.162  26.040  1.00  0.00    -0.406 OA
BRANCH  20  21
ATOM     21  C   UNL A   1      39.592  24.366  27.324  1.00  0.00     0.573 C 
ATOM     22  F   UNL A   1      40.237  23.259  27.752  1.00  0.00    -0.132 F 
ATOM     23  F   UNL A   1      40.456  25.407  27.313  1.00  0.00    -0.132 F 
ATOM     24  F   UNL A   1      38.608  24.651  28.203  1.00  0.00    -0.132 F 
ENDBRANCH  20  21
ENDBRANCH  14  20
BRANCH  19  25
ATOM     25  C   UNL A   1      32.342  21.070  24.787  1.00  0.00     0.430 C 
ATOM     26  F   UNL A   1      32.671  21.800  23.691  1.00  0.00    -0.167 F 
ATOM     27  F   UNL A   1      32.460  19.771  24.426  1.00  0.00    -0.167 F 
ATOM     28  F   UNL A   1      31.035  21.300  25.046  1.00  0.00    -0.167 F 
ENDBRANCH  19  25
ENDBRANCH   7   9
ENDBRANCH   6   7
ENDBRANCH   5   6
ENDBRANCH   4   5
ENDBRANCH   3   4
ENDBRANCH   2   3
ENDBRANCH   1   2
BRANCH   1  29
ATOM     29  O   UNL A   1      32.791  29.163  23.375  1.00  0.00    -0.376 OA
BRANCH  29  30
ATOM     30  C   UNL A   1      33.092  29.072  24.765  1.00  0.00     0.202 C 
BRANCH  30  31
ATOM     31  C   UNL A   1      32.409  30.042  25.738  1.00  0.00     0.261 C 
BRANCH  31  32
ATOM     32  O   UNL A   1      32.990  30.076  27.052  1.00  0.00    -0.460 OA
BRANCH  32  33
ATOM     33  C   UNL A   1      33.528  31.265  27.422  1.00  0.00     0.338 C 
ATOM     34  O   UNL A   1      32.951  32.332  27.545  1.00  0.00    -0.246 OA
BRANCH  33  35
ATOM     35  C   UNL A   1      34.923  31.057  27.852  1.00  0.00     0.060 A 
ATOM     36  C   UNL A   1      35.307  29.778  28.281  1.00  0.00     0.016 A 
ATOM     37  C   UNL A   1      35.821  32.122  27.899  1.00  0.00     0.016 A 
ATOM     38  C   UNL A   1      36.592  29.561  28.770  1.00  0.00     0.010 A 
ATOM     39  C   UNL A   1      37.097  31.914  28.430  1.00  0.00     0.010 A 
ATOM     40  C   UNL A   1      37.474  30.641  28.894  1.00  0.00    -0.014 A 
BRANCH  40  41
ATOM     41  C   UNL A   1      38.703  30.488  29.704  1.00  0.00     0.031 A 
ATOM     42  C   UNL A   1      39.837  29.687  29.130  1.00  0.00     0.074 A 
ATOM     43  C   UNL A   1      38.810  31.043  30.923  1.00  0.00     0.049 A 
ATOM     44  N   UNL A   1      40.987  29.380  29.666  1.00  0.00    -0.248 NA
ATOM     45  C   UNL A   1      39.648  29.168  27.764  1.00  0.00     0.031 C 
ATOM     46  C   UNL A   1      37.795  31.880  31.560  1.00  0.00     0.029 A 
ATOM     47  N   UNL A   1      39.821  30.971  31.849  1.00  0.00    -0.354 N 
ATOM     48  C   UNL A   1      41.663  28.639  28.705  1.00  0.00     0.074 A 
ATOM     49  C   UNL A   1      40.786  28.521  27.561  1.00  0.00     0.031 C 
ATOM     50  C   UNL A   1      38.226  32.224  32.785  1.00  0.00     0.029 A 
ATOM     51  C   UNL A   1      39.531  31.607  33.031  1.00  0.00     0.049 A 
ATOM     52  H   UNL A   1      40.674  30.507  31.681  1.00  0.00     0.167 HD
ATOM     53  C   UNL A   1      42.903  28.106  28.770  1.00  0.00     0.034 A 
ATOM     54  C   UNL A   1      40.228  31.664  34.186  1.00  0.00     0.034 A 
ATOM     55  C   UNL A   1      43.754  28.196  29.925  1.00  0.00     0.049 A 
ATOM     56  C   UNL A   1      41.572  30.983  34.272  1.00  0.00     0.074 A 
ATOM     57  C   UNL A   1      45.028  27.684  30.089  1.00  0.00     0.029 A 
ATOM     58  N   UNL A   1      43.416  28.824  31.114  1.00  0.00    -0.354 N 
ATOM     59  N   UNL A   1      42.224  30.325  33.340  1.00  0.00    -0.248 NA
ATOM     60  C   UNL A   1      42.280  31.049  35.559  1.00  0.00     0.031 C 
ATOM     61  C   UNL A   1      45.440  27.955  31.394  1.00  0.00     0.029 A 
ATOM     62  C   UNL A   1      44.448  28.689  32.026  1.00  0.00     0.049 A 
ATOM     63  H   UNL A   1      42.568  29.294  31.284  1.00  0.00     0.167 HD
ATOM     64  C   UNL A   1      43.425  29.923  33.920  1.00  0.00     0.074 A 
ATOM     65  C   UNL A   1      43.417  30.423  35.279  1.00  0.00     0.031 C 
ATOM     66  C   UNL A   1      44.440  29.207  33.374  1.00  0.00     0.034 A 
BRANCH  53  67
ATOM     67  C   UNL A   1      43.420  27.367  27.567  1.00  0.00     0.023 A 
ATOM     68  C   UNL A   1      43.450  25.962  27.564  1.00  0.00     0.031 A 
ATOM     69  C   UNL A   1      43.965  28.054  26.468  1.00  0.00     0.131 A 
ATOM     70  C   UNL A   1      44.040  25.285  26.490  1.00  0.00     0.055 A 
ATOM     71  C   UNL A   1      44.522  27.374  25.386  1.00  0.00     0.041 A 
ATOM     72  F   UNL A   1      43.947  29.397  26.426  1.00  0.00    -0.206 F 
ATOM     73  C   UNL A   1      44.570  25.983  25.399  1.00  0.00     0.022 A 
BRANCH  70  74
ATOM     74  S   UNL A   1      44.169  23.478  26.483  1.00  0.00     0.124 S 
ATOM     75  O   UNL A   1      42.813  23.080  26.108  1.00  0.00    -0.237 OA
ATOM     76  O   UNL A   1      45.190  23.250  25.466  1.00  0.00    -0.237 OA
ATOM     77  O   UNL A   1      44.553  23.149  27.851  1.00  0.00    -0.744 OA
ENDBRANCH  70  74
ENDBRANCH  53  67
BRANCH  54  78
ATOM     78  C   UNL A   1      39.663  32.422  35.338  1.00  0.00     0.023 A 
ATOM     79  C   UNL A   1      39.979  33.777  35.537  1.00  0.00     0.031 A 
ATOM     80  C   UNL A   1      38.869  31.778  36.299  1.00  0.00     0.131 A 
ATOM     81  C   UNL A   1      39.552  34.428  36.702  1.00  0.00     0.055 A 
ATOM     82  C   UNL A   1      38.396  32.446  37.430  1.00  0.00     0.041 A 
ATOM     83  F   UNL A   1      38.546  30.483  36.152  1.00  0.00    -0.206 F 
ATOM     84  C   UNL A   1      38.750  33.775  37.642  1.00  0.00     0.022 A 
BRANCH  81  85
ATOM     85  S   UNL A   1      40.096  36.118  37.075  1.00  0.00     0.124 S 
ATOM     86  O   UNL A   1      39.194  36.502  38.157  1.00  0.00    -0.237 OA
ATOM     87  O   UNL A   1      41.487  35.899  37.462  1.00  0.00    -0.237 OA
ATOM     88  O   UNL A   1      39.903  36.827  35.815  1.00  0.00    -0.744 OA
ENDBRANCH  81  85
ENDBRANCH  54  78
BRANCH  66  89
ATOM     89  C   UNL A   1      45.659  28.911  34.212  1.00  0.00     0.023 A 
ATOM     90  C   UNL A   1      45.655  27.808  35.088  1.00  0.00     0.031 A 
ATOM     91  C   UNL A   1      46.736  29.810  34.276  1.00  0.00     0.131 A 
ATOM     92  C   UNL A   1      46.685  27.660  36.025  1.00  0.00     0.055 A 
ATOM     93  C   UNL A   1      47.783  29.634  35.183  1.00  0.00     0.041 A 
ATOM     94  F   UNL A   1      46.777  30.883  33.469  1.00  0.00    -0.206 F 
ATOM     95  C   UNL A   1      47.753  28.563  36.072  1.00  0.00     0.022 A 
BRANCH  92  96
ATOM     96  S   UNL A   1      46.637  26.337  37.265  1.00  0.00     0.124 S 
ATOM     97  O   UNL A   1      45.799  25.336  36.610  1.00  0.00    -0.237 OA
ATOM     98  O   UNL A   1      48.049  25.984  37.388  1.00  0.00    -0.237 OA
ATOM     99  O   UNL A   1      46.043  26.972  38.436  1.00  0.00    -0.744 OA
ENDBRANCH  92  96
ENDBRANCH  66  89
ENDBRANCH  40  41
ENDBRANCH  33  35
ENDBRANCH  32  33
ENDBRANCH  31  32
ENDBRANCH  30  31
ENDBRANCH  29  30
ENDBRANCH   1  29
TORSDOF 23
ENDMDL
