MODEL 1
REMARK VINA RESULT:     -10.7      0.000      0.000
REMARK SMILES COc1ccc(N2C(=O)/C(=C/c3c(C(=O)OCCOCCOCCOC(=O)c4ccc(-c5c6nc(c(-c7cc(S(=O)(=O)[O-])ccc7F)c7ccc([nH]7)c(-c7cc(S(=O)(=O)[O-])ccc7F)c7nc(c(-c8cc(S(=O)(=O)[O-])ccc8F)c8ccc5[nH]8)C=C7)C=C6)cc4)[nH]c4cc(OC)ccc34)SC2=S)cc1
REMARK SMILES IDX 20 1 19 2 18 3 17 4 16 5 14 6 15 7 13 8 12 9 99 10 91 11
REMARK SMILES IDX 92 12 98 13 93 15 97 16 94 17 11 18 7 19 8 20 101 21 9 22
REMARK SMILES IDX 10 23 100 24 102 25 6 26 3 27 4 28 104 29 5 30 103 31 2 32
REMARK SMILES IDX 1 33 95 34 96 35 21 36 22 37 23 38 24 39 25 40 26 41 27 42
REMARK SMILES IDX 28 43 29 44 90 45 30 46 89 47 31 48 32 49 33 50 83 51 34 52
REMARK SMILES IDX 88 53 82 54 84 55 35 56 87 57 81 58 80 59 36 61 68 62 48 63
REMARK SMILES IDX 67 64 49 65 52 66 66 67 85 68 50 69 51 70 65 72 86 73 53 74
REMARK SMILES IDX 37 75 38 76 46 77 39 78 45 79 47 80 44 81 40 82 41 83 42 84
REMARK SMILES IDX 43 85 69 86 70 87 78 88 71 89 77 90 79 91 76 92 72 93 73 94
REMARK SMILES IDX 74 95 75 96 54 97 55 98 63 99 56 100 62 101 64 102 61 103
REMARK SMILES IDX 57 104 58 105 59 106 60 107
REMARK H PARENT 91 14 84 60 52 71
REMARK Flexibility Score: inf
ROOT
ATOM      1  C   UNL A   1      42.251  22.056  26.005  1.00  0.00     0.188 C 
ENDROOT
BRANCH   1   2
ATOM      2  O   UNL A   1      41.722  20.761  25.756  1.00  0.00    -0.376 OA
BRANCH   2   3
ATOM      3  C   UNL A   1      40.494  20.412  26.389  1.00  0.00     0.202 C 
BRANCH   3   4
ATOM      4  C   UNL A   1      39.343  21.398  26.194  1.00  0.00     0.261 C 
BRANCH   4   5
ATOM      5  O   UNL A   1      38.298  20.819  25.390  1.00  0.00    -0.459 OA
BRANCH   5   6
ATOM      6  C   UNL A   1      37.153  21.557  25.348  1.00  0.00     0.355 C 
ATOM      7  O   UNL A   1      37.108  22.780  25.384  1.00  0.00    -0.244 OA
BRANCH   6   8
ATOM      8  C   UNL A   1      36.017  20.726  25.021  1.00  0.00     0.133 A 
ATOM      9  C   UNL A   1      34.631  20.878  25.024  1.00  0.00     0.016 A 
ATOM     10  C   UNL A   1      34.056  19.597  24.688  1.00  0.00     0.008 A 
ATOM     11  N   UNL A   1      36.268  19.410  24.690  1.00  0.00    -0.348 N 
ATOM     12  C   UNL A   1      35.109  18.687  24.623  1.00  0.00     0.050 A 
ATOM     13  C   UNL A   1      32.746  19.092  24.508  1.00  0.00     0.015 A 
ATOM     14  H   UNL A   1      37.164  19.040  24.525  1.00  0.00     0.167 HD
ATOM     15  C   UNL A   1      34.930  17.305  24.527  1.00  0.00     0.073 A 
ATOM     16  C   UNL A   1      32.547  17.706  24.352  1.00  0.00     0.047 A 
ATOM     17  C   UNL A   1      33.627  16.829  24.400  1.00  0.00     0.120 A 
BRANCH   9  18
ATOM     18  C   UNL A   1      33.882  22.018  25.489  1.00  0.00     0.032 C 
ATOM     19  N   UNL A   1      32.545  25.147  24.342  1.00  0.00    -0.261 N 
ATOM     20  C   UNL A   1      32.739  24.216  25.375  1.00  0.00     0.270 C 
ATOM     21  C   UNL A   1      32.665  24.604  23.061  1.00  0.00     0.152 C 
ATOM     22  O   UNL A   1      32.608  24.372  26.583  1.00  0.00    -0.268 OA
ATOM     23  C   UNL A   1      33.142  22.898  24.798  1.00  0.00     0.081 C 
ATOM     24  S   UNL A   1      32.670  22.844  23.159  1.00  0.00    -0.054 SA
ATOM     25  S   UNL A   1      32.911  25.323  21.567  1.00  0.00    -0.051 S 
BRANCH  19  26
ATOM     26  C   UNL A   1      32.257  26.538  24.629  1.00  0.00     0.051 A 
ATOM     27  C   UNL A   1      31.723  29.291  25.184  1.00  0.00     0.119 A 
ATOM     28  C   UNL A   1      30.766  28.486  24.570  1.00  0.00     0.048 A 
ATOM     29  C   UNL A   1      32.939  28.723  25.534  1.00  0.00     0.048 A 
ATOM     30  C   UNL A   1      31.029  27.131  24.297  1.00  0.00     0.030 A 
ATOM     31  C   UNL A   1      33.205  27.380  25.233  1.00  0.00     0.030 A 
BRANCH  27  32
ATOM     32  O   UNL A   1      31.366  30.594  25.388  1.00  0.00    -0.497 OA
ATOM     33  C   UNL A   1      31.780  31.173  26.621  1.00  0.00     0.278 C 
ENDBRANCH  27  32
ENDBRANCH  19  26
ENDBRANCH   9  18
BRANCH  17  34
ATOM     34  O   UNL A   1      33.473  15.470  24.454  1.00  0.00    -0.497 OA
ATOM     35  C   UNL A   1      32.772  15.031  25.611  1.00  0.00     0.278 C 
ENDBRANCH  17  34
ENDBRANCH   6   8
ENDBRANCH   5   6
ENDBRANCH   4   5
ENDBRANCH   3   4
ENDBRANCH   2   3
ENDBRANCH   1   2
BRANCH   1  36
ATOM     36  C   UNL A   1      43.245  22.655  24.991  1.00  0.00     0.188 C 
BRANCH  36  37
ATOM     37  O   UNL A   1      44.230  23.517  25.551  1.00  0.00    -0.376 OA
BRANCH  37  38
ATOM     38  C   UNL A   1      45.548  22.975  25.565  1.00  0.00     0.202 C 
BRANCH  38  39
ATOM     39  C   UNL A   1      46.558  23.809  24.769  1.00  0.00     0.261 C 
BRANCH  39  40
ATOM     40  O   UNL A   1      46.176  25.176  24.561  1.00  0.00    -0.460 OA
BRANCH  40  41
ATOM     41  C   UNL A   1      47.000  26.135  25.043  1.00  0.00     0.338 C 
ATOM     42  O   UNL A   1      48.070  26.473  24.571  1.00  0.00    -0.246 OA
BRANCH  41  43
ATOM     43  C   UNL A   1      46.277  26.846  26.127  1.00  0.00     0.060 A 
ATOM     44  C   UNL A   1      47.017  27.518  27.110  1.00  0.00     0.016 A 
ATOM     45  C   UNL A   1      44.879  26.929  26.123  1.00  0.00     0.016 A 
ATOM     46  C   UNL A   1      46.359  28.272  28.088  1.00  0.00     0.010 A 
ATOM     47  C   UNL A   1      44.222  27.659  27.116  1.00  0.00     0.010 A 
ATOM     48  C   UNL A   1      44.956  28.320  28.114  1.00  0.00    -0.014 A 
BRANCH  48  49
ATOM     49  C   UNL A   1      44.235  28.869  29.291  1.00  0.00     0.031 A 
ATOM     50  C   UNL A   1      43.862  30.325  29.265  1.00  0.00     0.074 A 
ATOM     51  C   UNL A   1      43.972  28.121  30.379  1.00  0.00     0.049 A 
ATOM     52  N   UNL A   1      43.323  31.065  30.197  1.00  0.00    -0.248 NA
ATOM     53  C   UNL A   1      44.148  31.044  28.012  1.00  0.00     0.031 C 
ATOM     54  C   UNL A   1      44.263  26.696  30.520  1.00  0.00     0.029 A 
ATOM     55  N   UNL A   1      43.418  28.473  31.587  1.00  0.00    -0.354 N 
ATOM     56  C   UNL A   1      43.191  32.332  29.642  1.00  0.00     0.074 A 
ATOM     57  C   UNL A   1      43.736  32.266  28.303  1.00  0.00     0.031 C 
ATOM     58  C   UNL A   1      43.909  26.300  31.757  1.00  0.00     0.029 A 
ATOM     59  C   UNL A   1      43.398  27.449  32.506  1.00  0.00     0.049 A 
ATOM     60  H   UNL A   1      43.069  29.373  31.776  1.00  0.00     0.167 HD
ATOM     61  C   UNL A   1      42.668  33.452  30.195  1.00  0.00     0.034 A 
ATOM     62  C   UNL A   1      43.043  27.452  33.809  1.00  0.00     0.034 A 
ATOM     63  C   UNL A   1      42.187  33.531  31.549  1.00  0.00     0.049 A 
ATOM     64  C   UNL A   1      42.566  28.741  34.442  1.00  0.00     0.074 A 
ATOM     65  C   UNL A   1      41.652  34.620  32.215  1.00  0.00     0.029 A 
ATOM     66  N   UNL A   1      42.209  32.481  32.456  1.00  0.00    -0.354 N 
ATOM     67  N   UNL A   1      42.425  29.928  33.897  1.00  0.00    -0.248 NA
ATOM     68  C   UNL A   1      42.205  28.691  35.866  1.00  0.00     0.031 C 
ATOM     69  C   UNL A   1      41.408  34.245  33.541  1.00  0.00     0.029 A 
ATOM     70  C   UNL A   1      41.728  32.904  33.684  1.00  0.00     0.049 A 
ATOM     71  H   UNL A   1      42.521  31.568  32.256  1.00  0.00     0.167 HD
ATOM     72  C   UNL A   1      41.928  30.753  34.904  1.00  0.00     0.074 A 
ATOM     73  C   UNL A   1      41.793  29.930  36.088  1.00  0.00     0.031 C 
ATOM     74  C   UNL A   1      41.602  32.070  34.855  1.00  0.00     0.034 A 
BRANCH  61  75
ATOM     75  C   UNL A   1      42.662  34.690  29.336  1.00  0.00     0.023 A 
ATOM     76  C   UNL A   1      43.839  35.421  29.099  1.00  0.00     0.031 A 
ATOM     77  C   UNL A   1      41.457  35.181  28.806  1.00  0.00     0.131 A 
ATOM     78  C   UNL A   1      43.774  36.643  28.415  1.00  0.00     0.055 A 
ATOM     79  C   UNL A   1      41.411  36.361  28.063  1.00  0.00     0.041 A 
ATOM     80  F   UNL A   1      40.300  34.536  29.025  1.00  0.00    -0.206 F 
ATOM     81  C   UNL A   1      42.573  37.108  27.876  1.00  0.00     0.022 A 
BRANCH  78  82
ATOM     82  S   UNL A   1      45.257  37.686  28.361  1.00  0.00     0.124 S 
ATOM     83  O   UNL A   1      45.637  37.590  26.954  1.00  0.00    -0.237 OA
ATOM     84  O   UNL A   1      44.749  38.982  28.799  1.00  0.00    -0.237 OA
ATOM     85  O   UNL A   1      46.173  37.029  29.292  1.00  0.00    -0.744 OA
ENDBRANCH  78  82
ENDBRANCH  61  75
BRANCH  62  86
ATOM     86  C   UNL A   1      43.174  26.219  34.639  1.00  0.00     0.023 A 
ATOM     87  C   UNL A   1      44.435  25.697  34.972  1.00  0.00     0.031 A 
ATOM     88  C   UNL A   1      42.035  25.498  35.041  1.00  0.00     0.131 A 
ATOM     89  C   UNL A   1      44.528  24.467  35.644  1.00  0.00     0.055 A 
ATOM     90  C   UNL A   1      42.133  24.300  35.750  1.00  0.00     0.041 A 
ATOM     91  F   UNL A   1      40.807  25.950  34.742  1.00  0.00    -0.206 F 
ATOM     92  C   UNL A   1      43.385  23.770  36.045  1.00  0.00     0.022 A 
BRANCH  89  93
ATOM     93  S   UNL A   1      46.170  23.744  35.915  1.00  0.00     0.124 S 
ATOM     94  O   UNL A   1      46.300  23.836  37.365  1.00  0.00    -0.237 OA
ATOM     95  O   UNL A   1      46.002  22.401  35.370  1.00  0.00    -0.237 OA
ATOM     96  O   UNL A   1      47.058  24.617  35.152  1.00  0.00    -0.744 OA
ENDBRANCH  89  93
ENDBRANCH  62  86
BRANCH  74  97
ATOM     97  C   UNL A   1      41.013  32.686  36.099  1.00  0.00     0.023 A 
ATOM     98  C   UNL A   1      39.707  32.396  36.527  1.00  0.00     0.031 A 
ATOM     99  C   UNL A   1      41.789  33.564  36.877  1.00  0.00     0.131 A 
ATOM    100  C   UNL A   1      39.203  33.005  37.686  1.00  0.00     0.055 A 
ATOM    101  C   UNL A   1      41.298  34.132  38.053  1.00  0.00     0.041 A 
ATOM    102  F   UNL A   1      43.044  33.872  36.512  1.00  0.00    -0.206 F 
ATOM    103  C   UNL A   1      39.995  33.860  38.459  1.00  0.00     0.022 A 
BRANCH 100 104
ATOM    104  S   UNL A   1      37.475  32.705  38.154  1.00  0.00     0.124 S 
ATOM    105  O   UNL A   1      37.366  33.447  39.405  1.00  0.00    -0.237 OA
ATOM    106  O   UNL A   1      36.743  33.257  37.019  1.00  0.00    -0.237 OA
ATOM    107  O   UNL A   1      37.404  31.251  38.287  1.00  0.00    -0.744 OA
ENDBRANCH 100 104
ENDBRANCH  74  97
ENDBRANCH  48  49
ENDBRANCH  41  43
ENDBRANCH  40  41
ENDBRANCH  39  40
ENDBRANCH  38  39
ENDBRANCH  37  38
ENDBRANCH  36  37
ENDBRANCH   1  36
TORSDOF 24
ENDMDL
MODEL 2
REMARK VINA RESULT:      -9.9      1.676      2.073
REMARK SMILES COc1ccc(N2C(=O)/C(=C/c3c(C(=O)OCCOCCOCCOC(=O)c4ccc(-c5c6nc(c(-c7cc(S(=O)(=O)[O-])ccc7F)c7ccc([nH]7)c(-c7cc(S(=O)(=O)[O-])ccc7F)c7nc(c(-c8cc(S(=O)(=O)[O-])ccc8F)c8ccc5[nH]8)C=C7)C=C6)cc4)[nH]c4cc(OC)ccc34)SC2=S)cc1
REMARK SMILES IDX 20 1 19 2 18 3 17 4 16 5 14 6 15 7 13 8 12 9 99 10 91 11
REMARK SMILES IDX 92 12 98 13 93 15 97 16 94 17 11 18 7 19 8 20 101 21 9 22
REMARK SMILES IDX 10 23 100 24 102 25 6 26 3 27 4 28 104 29 5 30 103 31 2 32
REMARK SMILES IDX 1 33 95 34 96 35 21 36 22 37 23 38 24 39 25 40 26 41 27 42
REMARK SMILES IDX 28 43 29 44 90 45 30 46 89 47 31 48 32 49 33 50 83 51 34 52
REMARK SMILES IDX 88 53 82 54 84 55 35 56 87 57 81 58 80 59 36 61 68 62 48 63
REMARK SMILES IDX 67 64 49 65 52 66 66 67 85 68 50 69 51 70 65 72 86 73 53 74
REMARK SMILES IDX 37 75 38 76 46 77 39 78 45 79 47 80 44 81 40 82 41 83 42 84
REMARK SMILES IDX 43 85 69 86 70 87 78 88 71 89 77 90 79 91 76 92 72 93 73 94
REMARK SMILES IDX 74 95 75 96 54 97 55 98 63 99 56 100 62 101 64 102 61 103
REMARK SMILES IDX 57 104 58 105 59 106 60 107
REMARK H PARENT 91 14 84 60 52 71
REMARK Flexibility Score: inf
ROOT
ATOM      1  C   UNL A   1      42.395  21.252  26.980  1.00  0.00     0.188 C 
ENDROOT
BRANCH   1   2
ATOM      2  O   UNL A   1      41.790  20.325  26.089  1.00  0.00    -0.376 OA
BRANCH   2   3
ATOM      3  C   UNL A   1      40.418  20.004  26.295  1.00  0.00     0.202 C 
BRANCH   3   4
ATOM      4  C   UNL A   1      39.422  21.125  26.001  1.00  0.00     0.261 C 
BRANCH   4   5
ATOM      5  O   UNL A   1      38.304  20.635  25.236  1.00  0.00    -0.459 OA
BRANCH   5   6
ATOM      6  C   UNL A   1      37.156  21.347  25.410  1.00  0.00     0.355 C 
ATOM      7  O   UNL A   1      37.105  22.551  25.627  1.00  0.00    -0.244 OA
BRANCH   6   8
ATOM      8  C   UNL A   1      35.999  20.548  25.074  1.00  0.00     0.133 A 
ATOM      9  C   UNL A   1      34.618  20.741  25.062  1.00  0.00     0.016 A 
ATOM     10  C   UNL A   1      34.010  19.476  24.725  1.00  0.00     0.008 A 
ATOM     11  N   UNL A   1      36.215  19.225  24.753  1.00  0.00    -0.348 N 
ATOM     12  C   UNL A   1      35.036  18.536  24.676  1.00  0.00     0.050 A 
ATOM     13  C   UNL A   1      32.687  19.009  24.533  1.00  0.00     0.015 A 
ATOM     14  H   UNL A   1      37.101  18.827  24.599  1.00  0.00     0.167 HD
ATOM     15  C   UNL A   1      34.818  17.158  24.585  1.00  0.00     0.073 A 
ATOM     16  C   UNL A   1      32.449  17.628  24.382  1.00  0.00     0.047 A 
ATOM     17  C   UNL A   1      33.502  16.720  24.445  1.00  0.00     0.120 A 
BRANCH   9  18
ATOM     18  C   UNL A   1      33.898  21.905  25.513  1.00  0.00     0.032 C 
ATOM     19  N   UNL A   1      32.631  25.048  24.325  1.00  0.00    -0.261 N 
ATOM     20  C   UNL A   1      32.807  24.128  25.371  1.00  0.00     0.270 C 
ATOM     21  C   UNL A   1      32.732  24.484  23.052  1.00  0.00     0.152 C 
ATOM     22  O   UNL A   1      32.684  24.304  26.577  1.00  0.00    -0.268 OA
ATOM     23  C   UNL A   1      33.176  22.792  24.811  1.00  0.00     0.081 C 
ATOM     24  S   UNL A   1      32.696  22.726  23.175  1.00  0.00    -0.054 SA
ATOM     25  S   UNL A   1      32.989  25.175  21.546  1.00  0.00    -0.051 S 
BRANCH  19  26
ATOM     26  C   UNL A   1      32.376  26.449  24.592  1.00  0.00     0.051 A 
ATOM     27  C   UNL A   1      31.842  29.205  25.137  1.00  0.00     0.119 A 
ATOM     28  C   UNL A   1      33.133  28.691  25.241  1.00  0.00     0.048 A 
ATOM     29  C   UNL A   1      30.820  28.350  24.750  1.00  0.00     0.048 A 
ATOM     30  C   UNL A   1      33.396  27.336  24.972  1.00  0.00     0.030 A 
ATOM     31  C   UNL A   1      31.084  26.994  24.511  1.00  0.00     0.030 A 
BRANCH  27  32
ATOM     32  O   UNL A   1      31.700  30.530  25.435  1.00  0.00    -0.497 OA
ATOM     33  C   UNL A   1      32.015  30.911  26.771  1.00  0.00     0.278 C 
ENDBRANCH  27  32
ENDBRANCH  19  26
ENDBRANCH   9  18
BRANCH  17  34
ATOM     34  O   UNL A   1      33.308  15.367  24.504  1.00  0.00    -0.497 OA
ATOM     35  C   UNL A   1      32.459  14.968  25.573  1.00  0.00     0.278 C 
ENDBRANCH  17  34
ENDBRANCH   6   8
ENDBRANCH   5   6
ENDBRANCH   4   5
ENDBRANCH   3   4
ENDBRANCH   2   3
ENDBRANCH   1   2
BRANCH   1  36
ATOM     36  C   UNL A   1      42.812  22.633  26.438  1.00  0.00     0.188 C 
BRANCH  36  37
ATOM     37  O   UNL A   1      44.146  23.024  26.746  1.00  0.00    -0.376 OA
BRANCH  37  38
ATOM     38  C   UNL A   1      45.116  22.608  25.788  1.00  0.00     0.202 C 
BRANCH  38  39
ATOM     39  C   UNL A   1      44.966  23.300  24.429  1.00  0.00     0.261 C 
BRANCH  39  40
ATOM     40  O   UNL A   1      44.954  24.734  24.484  1.00  0.00    -0.460 OA
BRANCH  40  41
ATOM     41  C   UNL A   1      46.086  25.352  24.892  1.00  0.00     0.338 C 
ATOM     42  O   UNL A   1      47.162  25.342  24.320  1.00  0.00    -0.246 OA
BRANCH  41  43
ATOM     43  C   UNL A   1      45.737  26.215  26.048  1.00  0.00     0.060 A 
ATOM     44  C   UNL A   1      46.764  26.695  26.872  1.00  0.00     0.016 A 
ATOM     45  C   UNL A   1      44.416  26.624  26.263  1.00  0.00     0.016 A 
ATOM     46  C   UNL A   1      46.469  27.584  27.911  1.00  0.00     0.010 A 
ATOM     47  C   UNL A   1      44.119  27.489  27.319  1.00  0.00     0.010 A 
ATOM     48  C   UNL A   1      45.140  27.961  28.159  1.00  0.00    -0.014 A 
BRANCH  48  49
ATOM     49  C   UNL A   1      44.770  28.665  29.413  1.00  0.00     0.031 A 
ATOM     50  C   UNL A   1      44.845  30.167  29.419  1.00  0.00     0.074 A 
ATOM     51  C   UNL A   1      44.437  27.999  30.535  1.00  0.00     0.049 A 
ATOM     52  N   UNL A   1      44.673  31.007  30.405  1.00  0.00    -0.248 NA
ATOM     53  C   UNL A   1      45.171  30.803  28.132  1.00  0.00     0.031 C 
ATOM     54  C   UNL A   1      44.308  26.548  30.653  1.00  0.00     0.029 A 
ATOM     55  N   UNL A   1      44.171  28.465  31.800  1.00  0.00    -0.354 N 
ATOM     56  C   UNL A   1      44.854  32.271  29.857  1.00  0.00     0.074 A 
ATOM     57  C   UNL A   1      45.180  32.085  28.460  1.00  0.00     0.031 C 
ATOM     58  C   UNL A   1      44.012  26.241  31.930  1.00  0.00     0.029 A 
ATOM     59  C   UNL A   1      43.965  27.468  32.725  1.00  0.00     0.049 A 
ATOM     60  H   UNL A   1      44.131  29.423  32.023  1.00  0.00     0.167 HD
ATOM     61  C   UNL A   1      44.761  33.480  30.460  1.00  0.00     0.034 A 
ATOM     62  C   UNL A   1      43.795  27.540  34.064  1.00  0.00     0.034 A 
ATOM     63  C   UNL A   1      44.502  33.660  31.865  1.00  0.00     0.049 A 
ATOM     64  C   UNL A   1      43.807  28.894  34.738  1.00  0.00     0.074 A 
ATOM     65  C   UNL A   1      44.403  34.840  32.582  1.00  0.00     0.029 A 
ATOM     66  N   UNL A   1      44.326  32.626  32.773  1.00  0.00    -0.354 N 
ATOM     67  N   UNL A   1      43.956  30.085  34.203  1.00  0.00    -0.248 NA
ATOM     68  C   UNL A   1      43.630  28.914  36.198  1.00  0.00     0.031 C 
ATOM     69  C   UNL A   1      44.229  34.517  33.932  1.00  0.00     0.029 A 
ATOM     70  C   UNL A   1      44.152  33.138  34.048  1.00  0.00     0.049 A 
ATOM     71  H   UNL A   1      44.325  31.668  32.545  1.00  0.00     0.167 HD
ATOM     72  C   UNL A   1      43.858  30.991  35.256  1.00  0.00     0.074 A 
ATOM     73  C   UNL A   1      43.636  30.213  36.457  1.00  0.00     0.031 C 
ATOM     74  C   UNL A   1      43.934  32.346  35.235  1.00  0.00     0.034 A 
BRANCH  61  75
ATOM     75  C   UNL A   1      45.013  34.688  29.596  1.00  0.00     0.023 A 
ATOM     76  C   UNL A   1      43.953  35.402  29.011  1.00  0.00     0.031 A 
ATOM     77  C   UNL A   1      46.326  35.087  29.298  1.00  0.00     0.131 A 
ATOM     78  C   UNL A   1      44.225  36.432  28.099  1.00  0.00     0.055 A 
ATOM     79  C   UNL A   1      46.590  36.161  28.446  1.00  0.00     0.041 A 
ATOM     80  F   UNL A   1      47.376  34.423  29.808  1.00  0.00    -0.206 F 
ATOM     81  C   UNL A   1      45.536  36.831  27.829  1.00  0.00     0.022 A 
BRANCH  78  82
ATOM     82  S   UNL A   1      42.847  37.149  27.164  1.00  0.00     0.124 S 
ATOM     83  O   UNL A   1      42.695  36.187  26.075  1.00  0.00    -0.237 OA
ATOM     84  O   UNL A   1      41.772  37.170  28.150  1.00  0.00    -0.237 OA
ATOM     85  O   UNL A   1      43.350  38.461  26.761  1.00  0.00    -0.744 OA
ENDBRANCH  78  82
ENDBRANCH  61  75
BRANCH  62  86
ATOM     86  C   UNL A   1      43.659  26.301  34.883  1.00  0.00     0.023 A 
ATOM     87  C   UNL A   1      44.788  25.598  35.333  1.00  0.00     0.031 A 
ATOM     88  C   UNL A   1      42.391  25.756  35.158  1.00  0.00     0.131 A 
ATOM     89  C   UNL A   1      44.631  24.368  35.993  1.00  0.00     0.055 A 
ATOM     90  C   UNL A   1      42.239  24.556  35.855  1.00  0.00     0.041 A 
ATOM     91  F   UNL A   1      41.279  26.384  34.745  1.00  0.00    -0.206 F 
ATOM     92  C   UNL A   1      43.364  23.847  36.266  1.00  0.00     0.022 A 
BRANCH  89  93
ATOM     93  S   UNL A   1      46.113  23.410  36.415  1.00  0.00     0.124 S 
ATOM     94  O   UNL A   1      46.504  22.878  35.114  1.00  0.00    -0.237 OA
ATOM     95  O   UNL A   1      46.985  24.435  36.978  1.00  0.00    -0.237 OA
ATOM     96  O   UNL A   1      45.619  22.422  37.371  1.00  0.00    -0.744 OA
ENDBRANCH  89  93
ENDBRANCH  62  86
BRANCH  74  97
ATOM     97  C   UNL A   1      43.718  33.075  36.537  1.00  0.00     0.023 A 
ATOM     98  C   UNL A   1      42.436  33.443  36.980  1.00  0.00     0.031 A 
ATOM     99  C   UNL A   1      44.819  33.384  37.356  1.00  0.00     0.131 A 
ATOM    100  C   UNL A   1      42.291  34.129  38.196  1.00  0.00     0.055 A 
ATOM    101  C   UNL A   1      44.664  34.027  38.584  1.00  0.00     0.041 A 
ATOM    102  F   UNL A   1      46.064  33.052  36.978  1.00  0.00    -0.206 F 
ATOM    103  C   UNL A   1      43.395  34.410  39.007  1.00  0.00     0.022 A 
BRANCH 100 104
ATOM    104  S   UNL A   1      40.639  34.696  38.689  1.00  0.00     0.124 S 
ATOM    105  O   UNL A   1      40.018  33.459  39.149  1.00  0.00    -0.237 OA
ATOM    106  O   UNL A   1      40.941  35.680  39.724  1.00  0.00    -0.237 OA
ATOM    107  O   UNL A   1      40.083  35.248  37.456  1.00  0.00    -0.744 OA
ENDBRANCH 100 104
ENDBRANCH  74  97
ENDBRANCH  48  49
ENDBRANCH  41  43
ENDBRANCH  40  41
ENDBRANCH  39  40
ENDBRANCH  38  39
ENDBRANCH  37  38
ENDBRANCH  36  37
ENDBRANCH   1  36
TORSDOF 24
ENDMDL
MODEL 3
REMARK VINA RESULT:      -9.6      3.808      8.290
REMARK SMILES COc1ccc(N2C(=O)/C(=C/c3c(C(=O)OCCOCCOCCOC(=O)c4ccc(-c5c6nc(c(-c7cc(S(=O)(=O)[O-])ccc7F)c7ccc([nH]7)c(-c7cc(S(=O)(=O)[O-])ccc7F)c7nc(c(-c8cc(S(=O)(=O)[O-])ccc8F)c8ccc5[nH]8)C=C7)C=C6)cc4)[nH]c4cc(OC)ccc34)SC2=S)cc1
REMARK SMILES IDX 20 1 19 2 18 3 17 4 16 5 14 6 15 7 13 8 12 9 99 10 91 11
REMARK SMILES IDX 92 12 98 13 93 15 97 16 94 17 11 18 7 19 8 20 101 21 9 22
REMARK SMILES IDX 10 23 100 24 102 25 6 26 3 27 4 28 104 29 5 30 103 31 2 32
REMARK SMILES IDX 1 33 95 34 96 35 21 36 22 37 23 38 24 39 25 40 26 41 27 42
REMARK SMILES IDX 28 43 29 44 90 45 30 46 89 47 31 48 32 49 33 50 83 51 34 52
REMARK SMILES IDX 88 53 82 54 84 55 35 56 87 57 81 58 80 59 36 61 68 62 48 63
REMARK SMILES IDX 67 64 49 65 52 66 66 67 85 68 50 69 51 70 65 72 86 73 53 74
REMARK SMILES IDX 37 75 38 76 46 77 39 78 45 79 47 80 44 81 40 82 41 83 42 84
REMARK SMILES IDX 43 85 69 86 70 87 78 88 71 89 77 90 79 91 76 92 72 93 73 94
REMARK SMILES IDX 74 95 75 96 54 97 55 98 63 99 56 100 62 101 64 102 61 103
REMARK SMILES IDX 57 104 58 105 59 106 60 107
REMARK H PARENT 91 14 84 60 52 71
REMARK Flexibility Score: inf
ROOT
ATOM      1  C   UNL A   1      41.626  20.835  27.688  1.00  0.00     0.188 C 
ENDROOT
BRANCH   1   2
ATOM      2  O   UNL A   1      41.387  20.334  26.379  1.00  0.00    -0.376 OA
BRANCH   2   3
ATOM      3  C   UNL A   1      40.038  20.077  26.002  1.00  0.00     0.202 C 
BRANCH   3   4
ATOM      4  C   UNL A   1      39.146  21.308  25.849  1.00  0.00     0.261 C 
BRANCH   4   5
ATOM      5  O   UNL A   1      38.066  21.054  24.931  1.00  0.00    -0.459 OA
BRANCH   5   6
ATOM      6  C   UNL A   1      36.883  21.627  25.288  1.00  0.00     0.355 C 
ATOM      7  O   UNL A   1      36.745  22.797  25.621  1.00  0.00    -0.244 OA
BRANCH   6   8
ATOM      8  C   UNL A   1      35.775  20.744  25.001  1.00  0.00     0.133 A 
ATOM      9  C   UNL A   1      34.385  20.843  25.019  1.00  0.00     0.016 A 
ATOM     10  C   UNL A   1      33.856  19.532  24.728  1.00  0.00     0.008 A 
ATOM     11  N   UNL A   1      36.073  19.429  24.707  1.00  0.00    -0.348 N 
ATOM     12  C   UNL A   1      34.942  18.661  24.677  1.00  0.00     0.050 A 
ATOM     13  C   UNL A   1      32.564  18.972  24.581  1.00  0.00     0.015 A 
ATOM     14  H   UNL A   1      36.980  19.088  24.541  1.00  0.00     0.167 HD
ATOM     15  C   UNL A   1      34.815  17.270  24.625  1.00  0.00     0.073 A 
ATOM     16  C   UNL A   1      32.416  17.575  24.470  1.00  0.00     0.047 A 
ATOM     17  C   UNL A   1      33.530  16.742  24.530  1.00  0.00     0.120 A 
BRANCH   9  18
ATOM     18  C   UNL A   1      33.599  21.968  25.459  1.00  0.00     0.032 C 
ATOM     19  N   UNL A   1      32.337  25.125  24.305  1.00  0.00    -0.261 N 
ATOM     20  C   UNL A   1      32.457  24.166  25.323  1.00  0.00     0.270 C 
ATOM     21  C   UNL A   1      32.554  24.620  23.022  1.00  0.00     0.152 C 
ATOM     22  O   UNL A   1      32.236  24.286  26.521  1.00  0.00    -0.268 OA
ATOM     23  C   UNL A   1      32.908  22.865  24.740  1.00  0.00     0.081 C 
ATOM     24  S   UNL A   1      32.559  22.858  23.070  1.00  0.00    -0.054 SA
ATOM     25  S   UNL A   1      32.907  25.382  21.571  1.00  0.00    -0.051 S 
BRANCH  19  26
ATOM     26  C   UNL A   1      32.022  26.506  24.609  1.00  0.00     0.051 A 
ATOM     27  C   UNL A   1      31.436  29.241  25.206  1.00  0.00     0.119 A 
ATOM     28  C   UNL A   1      30.616  28.502  24.357  1.00  0.00     0.048 A 
ATOM     29  C   UNL A   1      32.539  28.616  25.768  1.00  0.00     0.048 A 
ATOM     30  C   UNL A   1      30.903  27.156  24.063  1.00  0.00     0.030 A 
ATOM     31  C   UNL A   1      32.837  27.283  25.449  1.00  0.00     0.030 A 
BRANCH  27  32
ATOM     32  O   UNL A   1      31.070  30.541  25.409  1.00  0.00    -0.497 OA
ATOM     33  C   UNL A   1      31.724  31.218  26.479  1.00  0.00     0.278 C 
ENDBRANCH  27  32
ENDBRANCH  19  26
ENDBRANCH   9  18
BRANCH  17  34
ATOM     34  O   UNL A   1      33.429  15.380  24.626  1.00  0.00    -0.497 OA
ATOM     35  C   UNL A   1      32.504  14.956  25.620  1.00  0.00     0.278 C 
ENDBRANCH  17  34
ENDBRANCH   6   8
ENDBRANCH   5   6
ENDBRANCH   4   5
ENDBRANCH   3   4
ENDBRANCH   2   3
ENDBRANCH   1   2
BRANCH   1  36
ATOM     36  C   UNL A   1      41.634  22.360  27.904  1.00  0.00     0.188 C 
BRANCH  36  37
ATOM     37  O   UNL A   1      42.855  23.010  27.562  1.00  0.00    -0.376 OA
BRANCH  37  38
ATOM     38  C   UNL A   1      42.908  23.494  26.223  1.00  0.00     0.202 C 
BRANCH  38  39
ATOM     39  C   UNL A   1      42.016  24.716  25.980  1.00  0.00     0.261 C 
BRANCH  39  40
ATOM     40  O   UNL A   1      42.195  25.785  26.921  1.00  0.00    -0.460 OA
BRANCH  40  41
ATOM     41  C   UNL A   1      43.387  26.425  26.918  1.00  0.00     0.338 C 
ATOM     42  O   UNL A   1      44.010  26.789  25.937  1.00  0.00    -0.246 OA
BRANCH  41  43
ATOM     43  C   UNL A   1      43.704  26.792  28.321  1.00  0.00     0.060 A 
ATOM     44  C   UNL A   1      44.963  27.334  28.613  1.00  0.00     0.016 A 
ATOM     45  C   UNL A   1      42.734  26.690  29.325  1.00  0.00     0.016 A 
ATOM     46  C   UNL A   1      45.252  27.774  29.910  1.00  0.00     0.010 A 
ATOM     47  C   UNL A   1      43.033  27.103  30.626  1.00  0.00     0.010 A 
ATOM     48  C   UNL A   1      44.298  27.631  30.930  1.00  0.00    -0.014 A 
BRANCH  48  49
ATOM     49  C   UNL A   1      44.673  27.821  32.355  1.00  0.00     0.031 A 
ATOM     50  C   UNL A   1      45.175  26.621  33.110  1.00  0.00     0.074 A 
ATOM     51  C   UNL A   1      44.516  29.001  32.984  1.00  0.00     0.049 A 
ATOM     52  N   UNL A   1      45.472  26.498  34.376  1.00  0.00    -0.248 NA
ATOM     53  C   UNL A   1      45.357  25.391  32.322  1.00  0.00     0.031 C 
ATOM     54  C   UNL A   1      44.059  30.241  32.360  1.00  0.00     0.029 A 
ATOM     55  N   UNL A   1      44.704  29.338  34.303  1.00  0.00    -0.354 N 
ATOM     56  C   UNL A   1      45.889  25.182  34.537  1.00  0.00     0.074 A 
ATOM     57  C   UNL A   1      45.777  24.541  33.244  1.00  0.00     0.031 C 
ATOM     58  C   UNL A   1      43.978  31.198  33.303  1.00  0.00     0.029 A 
ATOM     59  C   UNL A   1      44.343  30.631  34.601  1.00  0.00     0.049 A 
ATOM     60  H   UNL A   1      45.065  28.711  34.971  1.00  0.00     0.167 HD
ATOM     61  C   UNL A   1      46.324  24.558  35.658  1.00  0.00     0.034 A 
ATOM     62  C   UNL A   1      44.280  31.268  35.791  1.00  0.00     0.034 A 
ATOM     63  C   UNL A   1      46.372  25.180  36.956  1.00  0.00     0.049 A 
ATOM     64  C   UNL A   1      44.662  30.521  37.050  1.00  0.00     0.074 A 
ATOM     65  C   UNL A   1      46.780  24.635  38.160  1.00  0.00     0.029 A 
ATOM     66  N   UNL A   1      45.971  26.482  37.222  1.00  0.00    -0.354 N 
ATOM     67  N   UNL A   1      45.078  29.282  37.184  1.00  0.00    -0.248 NA
ATOM     68  C   UNL A   1      44.564  31.258  38.319  1.00  0.00     0.031 C 
ATOM     69  C   UNL A   1      46.568  25.587  39.165  1.00  0.00     0.029 A 
ATOM     70  C   UNL A   1      46.091  26.748  38.576  1.00  0.00     0.049 A 
ATOM     71  H   UNL A   1      45.649  27.123  36.547  1.00  0.00     0.167 HD
ATOM     72  C   UNL A   1      45.320  29.106  38.544  1.00  0.00     0.074 A 
ATOM     73  C   UNL A   1      45.006  30.363  39.190  1.00  0.00     0.031 C 
ATOM     74  C   UNL A   1      45.771  28.007  39.203  1.00  0.00     0.034 A 
BRANCH  61  75
ATOM     75  C   UNL A   1      46.713  23.110  35.518  1.00  0.00     0.023 A 
ATOM     76  C   UNL A   1      48.033  22.734  35.213  1.00  0.00     0.031 A 
ATOM     77  C   UNL A   1      45.743  22.100  35.624  1.00  0.00     0.131 A 
ATOM     78  C   UNL A   1      48.331  21.389  34.950  1.00  0.00     0.055 A 
ATOM     79  C   UNL A   1      46.062  20.755  35.433  1.00  0.00     0.041 A 
ATOM     80  F   UNL A   1      44.462  22.407  35.887  1.00  0.00    -0.206 F 
ATOM     81  C   UNL A   1      47.360  20.394  35.079  1.00  0.00     0.022 A 
BRANCH  78  82
ATOM     82  S   UNL A   1      49.973  20.977  34.300  1.00  0.00     0.124 S 
ATOM     83  O   UNL A   1      49.778  19.602  33.850  1.00  0.00    -0.237 OA
ATOM     84  O   UNL A   1      50.157  21.973  33.249  1.00  0.00    -0.237 OA
ATOM     85  O   UNL A   1      50.850  21.127  35.460  1.00  0.00    -0.744 OA
ENDBRANCH  78  82
ENDBRANCH  61  75
BRANCH  62  86
ATOM     86  C   UNL A   1      43.782  32.671  35.880  1.00  0.00     0.023 A 
ATOM     87  C   UNL A   1      44.661  33.763  35.787  1.00  0.00     0.031 A 
ATOM     88  C   UNL A   1      42.426  32.937  36.142  1.00  0.00     0.131 A 
ATOM     89  C   UNL A   1      44.184  35.066  36.001  1.00  0.00     0.055 A 
ATOM     90  C   UNL A   1      41.948  34.239  36.309  1.00  0.00     0.041 A 
ATOM     91  F   UNL A   1      41.545  31.930  36.248  1.00  0.00    -0.206 F 
ATOM     92  C   UNL A   1      42.832  35.312  36.251  1.00  0.00     0.022 A 
BRANCH  89  93
ATOM     93  S   UNL A   1      45.374  36.435  36.035  1.00  0.00     0.124 S 
ATOM     94  O   UNL A   1      44.958  37.219  34.876  1.00  0.00    -0.237 OA
ATOM     95  O   UNL A   1      45.112  37.032  37.340  1.00  0.00    -0.237 OA
ATOM     96  O   UNL A   1      46.667  35.767  35.905  1.00  0.00    -0.744 OA
ENDBRANCH  89  93
ENDBRANCH  62  86
BRANCH  74  97
ATOM     97  C   UNL A   1      46.007  28.136  40.686  1.00  0.00     0.023 A 
ATOM     98  C   UNL A   1      47.162  28.744  41.207  1.00  0.00     0.031 A 
ATOM     99  C   UNL A   1      45.043  27.657  41.591  1.00  0.00     0.131 A 
ATOM    100  C   UNL A   1      47.338  28.829  42.596  1.00  0.00     0.055 A 
ATOM    101  C   UNL A   1      45.203  27.783  42.971  1.00  0.00     0.041 A 
ATOM    102  F   UNL A   1      43.921  27.070  41.144  1.00  0.00    -0.206 F 
ATOM    103  C   UNL A   1      46.359  28.365  43.481  1.00  0.00     0.022 A 
BRANCH 100 104
ATOM    104  S   UNL A   1      48.890  29.512  43.243  1.00  0.00     0.124 S 
ATOM    105  O   UNL A   1      48.562  30.927  43.387  1.00  0.00    -0.237 OA
ATOM    106  O   UNL A   1      49.067  28.769  44.486  1.00  0.00    -0.237 OA
ATOM    107  O   UNL A   1      49.863  29.205  42.196  1.00  0.00    -0.744 OA
ENDBRANCH 100 104
ENDBRANCH  74  97
ENDBRANCH  48  49
ENDBRANCH  41  43
ENDBRANCH  40  41
ENDBRANCH  39  40
ENDBRANCH  38  39
ENDBRANCH  37  38
ENDBRANCH  36  37
ENDBRANCH   1  36
TORSDOF 24
ENDMDL
