MODEL 1
REMARK VINA RESULT:     -10.2      0.000      0.000
REMARK SMILES CC1=C(C)C[C@@H](C(=O)OCCOCCOCCOC(=O)c2ccc(-c3c4nc(c(-c5cc(S(=O)(=O)[O-])ccc5F)c5ccc([nH]5)c(-c5cc(S(=O)(=O)[O-])ccc5F)c5nc(c(-c6cc(S(=O)(=O)[O-])ccc6F)c6ccc3[nH]6)C=C5)C=C4)cc2)[C@@H](C(=O)N2CCN(c3cccc(C(F)(F)F)c3)CC2)C1
REMARK SMILES IDX 13 1 12 2 11 3 10 4 9 5 7 6 8 7 6 8 1 9 2 10 3 11 103 12
REMARK SMILES IDX 4 13 5 14 84 15 85 16 86 17 87 18 88 19 102 20 89 21 101 22
REMARK SMILES IDX 90 23 91 24 92 25 100 26 93 27 95 28 94 29 96 30 97 31 98 32
REMARK SMILES IDX 99 33 14 34 15 35 16 36 17 37 18 38 19 39 20 40 21 41 22 42
REMARK SMILES IDX 83 43 23 44 82 45 24 46 25 47 26 48 76 49 27 50 81 51 75 52
REMARK SMILES IDX 77 53 28 54 80 55 74 56 73 57 29 59 61 60 41 61 60 62 42 63
REMARK SMILES IDX 45 64 59 65 78 66 43 67 44 68 58 70 79 71 46 72 30 73 31 74
REMARK SMILES IDX 39 75 32 76 38 77 40 78 37 79 33 80 34 81 35 82 36 83 62 84
REMARK SMILES IDX 63 85 71 86 64 87 70 88 72 89 69 90 65 91 66 92 67 93 68 94
REMARK SMILES IDX 47 95 48 96 56 97 49 98 55 99 57 100 54 101 50 102 51 103
REMARK SMILES IDX 52 104 53 105
REMARK H PARENT 77 58 45 69
REMARK Flexibility Score: inf
ROOT
ATOM      1  C   UNL A   1      37.013  21.761  25.057  1.00  0.00     0.188 C 
ENDROOT
BRANCH   1   2
ATOM      2  O   UNL A   1      36.826  22.790  24.084  1.00  0.00    -0.376 OA
BRANCH   2   3
ATOM      3  C   UNL A   1      35.537  22.993  23.528  1.00  0.00     0.202 C 
BRANCH   3   4
ATOM      4  C   UNL A   1      35.126  24.459  23.317  1.00  0.00     0.261 C 
BRANCH   4   5
ATOM      5  O   UNL A   1      33.852  24.703  22.668  1.00  0.00    -0.463 OA
BRANCH   5   6
ATOM      6  C   UNL A   1      33.186  25.787  23.121  1.00  0.00     0.310 C 
ATOM      7  O   UNL A   1      33.655  26.925  23.086  1.00  0.00    -0.252 OA
BRANCH   6   8
ATOM      8  C   UNL A   1      31.873  25.551  23.856  1.00  0.00     0.116 C 
ATOM      9  C   UNL A   1      31.425  28.026  27.445  1.00  0.00     0.039 C 
ATOM     10  C   UNL A   1      31.302  27.260  26.156  1.00  0.00    -0.074 C 
ATOM     11  C   UNL A   1      31.273  27.785  24.915  1.00  0.00    -0.073 C 
ATOM     12  C   UNL A   1      31.133  25.775  26.352  1.00  0.00     0.045 C 
ATOM     13  C   UNL A   1      31.367  29.243  24.567  1.00  0.00     0.039 C 
ATOM     14  C   UNL A   1      31.080  26.864  23.733  1.00  0.00     0.046 C 
ATOM     15  C   UNL A   1      31.639  24.853  25.215  1.00  0.00     0.097 C 
BRANCH  15  16
ATOM     16  C   UNL A   1      32.717  23.975  25.854  1.00  0.00     0.227 C 
ATOM     17  O   UNL A   1      33.483  24.446  26.696  1.00  0.00    -0.275 OA
ATOM     18  N   UNL A   1      32.654  22.589  25.625  1.00  0.00    -0.339 N 
ATOM     19  C   UNL A   1      33.455  21.737  26.525  1.00  0.00     0.141 C 
ATOM     20  C   UNL A   1      32.360  22.009  24.299  1.00  0.00     0.141 C 
ATOM     21  C   UNL A   1      33.103  20.238  26.482  1.00  0.00     0.138 C 
ATOM     22  C   UNL A   1      32.144  20.478  24.234  1.00  0.00     0.138 C 
ATOM     23  N   UNL A   1      33.113  19.790  25.090  1.00  0.00    -0.368 N 
BRANCH  23  24
ATOM     24  C   UNL A   1      33.440  18.476  24.798  1.00  0.00     0.037 A 
ATOM     25  C   UNL A   1      34.322  18.116  23.775  1.00  0.00     0.026 A 
ATOM     26  C   UNL A   1      32.826  17.442  25.519  1.00  0.00     0.039 A 
ATOM     27  C   UNL A   1      34.573  16.771  23.480  1.00  0.00     0.003 A 
ATOM     28  C   UNL A   1      33.014  16.087  25.198  1.00  0.00     0.058 A 
ATOM     29  C   UNL A   1      33.915  15.761  24.181  1.00  0.00     0.013 A 
BRANCH  28  30
ATOM     30  C   UNL A   1      32.254  14.996  25.908  1.00  0.00     0.416 C 
ATOM     31  F   UNL A   1      32.813  13.764  25.724  1.00  0.00    -0.166 F 
ATOM     32  F   UNL A   1      32.192  15.179  27.255  1.00  0.00    -0.166 F 
ATOM     33  F   UNL A   1      30.963  14.863  25.498  1.00  0.00    -0.166 F 
ENDBRANCH  28  30
ENDBRANCH  23  24
ENDBRANCH  15  16
ENDBRANCH   6   8
ENDBRANCH   5   6
ENDBRANCH   4   5
ENDBRANCH   3   4
ENDBRANCH   2   3
ENDBRANCH   1   2
BRANCH   1  34
ATOM     34  C   UNL A   1      38.433  21.294  25.389  1.00  0.00     0.188 C 
BRANCH  34  35
ATOM     35  O   UNL A   1      39.194  22.291  26.064  1.00  0.00    -0.376 OA
BRANCH  35  36
ATOM     36  C   UNL A   1      40.154  21.765  26.973  1.00  0.00     0.202 C 
BRANCH  36  37
ATOM     37  C   UNL A   1      41.501  21.599  26.272  1.00  0.00     0.261 C 
BRANCH  37  38
ATOM     38  O   UNL A   1      41.856  22.766  25.502  1.00  0.00    -0.460 OA
BRANCH  38  39
ATOM     39  C   UNL A   1      43.181  23.021  25.463  1.00  0.00     0.338 C 
ATOM     40  O   UNL A   1      44.045  22.265  25.059  1.00  0.00    -0.246 OA
BRANCH  39  41
ATOM     41  C   UNL A   1      43.451  24.394  25.935  1.00  0.00     0.060 A 
ATOM     42  C   UNL A   1      43.821  24.618  27.260  1.00  0.00     0.016 A 
ATOM     43  C   UNL A   1      43.157  25.472  25.108  1.00  0.00     0.016 A 
ATOM     44  C   UNL A   1      43.797  25.906  27.796  1.00  0.00     0.010 A 
ATOM     45  C   UNL A   1      43.200  26.771  25.625  1.00  0.00     0.010 A 
ATOM     46  C   UNL A   1      43.489  27.001  26.983  1.00  0.00    -0.014 A 
BRANCH  46  47
ATOM     47  C   UNL A   1      43.451  28.387  27.523  1.00  0.00     0.031 A 
ATOM     48  C   UNL A   1      44.713  29.205  27.567  1.00  0.00     0.074 A 
ATOM     49  C   UNL A   1      42.306  28.894  28.020  1.00  0.00     0.049 A 
ATOM     50  N   UNL A   1      44.980  30.280  28.261  1.00  0.00    -0.248 NA
ATOM     51  C   UNL A   1      45.824  28.744  26.718  1.00  0.00     0.031 C 
ATOM     52  C   UNL A   1      40.993  28.248  27.962  1.00  0.00     0.029 A 
ATOM     53  N   UNL A   1      42.068  30.061  28.707  1.00  0.00    -0.354 N 
ATOM     54  C   UNL A   1      46.308  30.592  27.985  1.00  0.00     0.074 A 
ATOM     55  C   UNL A   1      46.784  29.602  27.040  1.00  0.00     0.031 C 
ATOM     56  C   UNL A   1      40.096  29.013  28.602  1.00  0.00     0.029 A 
ATOM     57  C   UNL A   1      40.787  30.148  29.204  1.00  0.00     0.049 A 
ATOM     58  H   UNL A   1      42.746  30.763  28.832  1.00  0.00     0.167 HD
ATOM     59  C   UNL A   1      47.059  31.599  28.496  1.00  0.00     0.034 A 
ATOM     60  C   UNL A   1      40.248  30.990  30.108  1.00  0.00     0.034 A 
ATOM     61  C   UNL A   1      46.554  32.588  29.419  1.00  0.00     0.049 A 
ATOM     62  C   UNL A   1      41.123  32.049  30.727  1.00  0.00     0.074 A 
ATOM     63  C   UNL A   1      47.221  33.661  29.985  1.00  0.00     0.029 A 
ATOM     64  N   UNL A   1      45.257  32.624  29.915  1.00  0.00    -0.354 N 
ATOM     65  N   UNL A   1      42.393  32.302  30.510  1.00  0.00    -0.248 NA
ATOM     66  C   UNL A   1      40.495  32.926  31.724  1.00  0.00     0.031 C 
ATOM     67  C   UNL A   1      46.347  34.307  30.866  1.00  0.00     0.029 A 
ATOM     68  C   UNL A   1      45.114  33.681  30.800  1.00  0.00     0.049 A 
ATOM     69  H   UNL A   1      44.543  31.990  29.672  1.00  0.00     0.167 HD
ATOM     70  C   UNL A   1      42.709  33.381  31.330  1.00  0.00     0.074 A 
ATOM     71  C   UNL A   1      41.492  33.742  32.030  1.00  0.00     0.031 C 
ATOM     72  C   UNL A   1      43.895  34.019  31.494  1.00  0.00     0.034 A 
BRANCH  59  73
ATOM     73  C   UNL A   1      48.524  31.635  28.142  1.00  0.00     0.023 A 
ATOM     74  C   UNL A   1      49.037  32.472  27.138  1.00  0.00     0.031 A 
ATOM     75  C   UNL A   1      49.427  30.818  28.848  1.00  0.00     0.131 A 
ATOM     76  C   UNL A   1      50.412  32.444  26.843  1.00  0.00     0.055 A 
ATOM     77  C   UNL A   1      50.798  30.839  28.592  1.00  0.00     0.041 A 
ATOM     78  F   UNL A   1      48.986  29.984  29.805  1.00  0.00    -0.206 F 
ATOM     79  C   UNL A   1      51.297  31.651  27.579  1.00  0.00     0.022 A 
BRANCH  76  80
ATOM     80  S   UNL A   1      51.024  33.404  25.430  1.00  0.00     0.124 S 
ATOM     81  O   UNL A   1      49.837  34.168  25.053  1.00  0.00    -0.237 OA
ATOM     82  O   UNL A   1      52.116  34.172  26.016  1.00  0.00    -0.237 OA
ATOM     83  O   UNL A   1      51.429  32.381  24.468  1.00  0.00    -0.744 OA
ENDBRANCH  76  80
ENDBRANCH  59  73
BRANCH  60  84
ATOM     84  C   UNL A   1      38.841  30.803  30.573  1.00  0.00     0.023 A 
ATOM     85  C   UNL A   1      37.781  31.500  29.976  1.00  0.00     0.031 A 
ATOM     86  C   UNL A   1      38.548  29.972  31.671  1.00  0.00     0.131 A 
ATOM     87  C   UNL A   1      36.486  31.392  30.508  1.00  0.00     0.055 A 
ATOM     88  C   UNL A   1      37.250  29.820  32.158  1.00  0.00     0.041 A 
ATOM     89  F   UNL A   1      39.527  29.288  32.287  1.00  0.00    -0.206 F 
ATOM     90  C   UNL A   1      36.211  30.546  31.585  1.00  0.00     0.022 A 
BRANCH  87  91
ATOM     91  S   UNL A   1      35.185  32.465  29.842  1.00  0.00     0.124 S 
ATOM     92  O   UNL A   1      35.951  33.626  29.403  1.00  0.00    -0.237 OA
ATOM     93  O   UNL A   1      34.621  31.632  28.785  1.00  0.00    -0.237 OA
ATOM     94  O   UNL A   1      34.310  32.692  30.989  1.00  0.00    -0.744 OA
ENDBRANCH  87  91
ENDBRANCH  60  84
BRANCH  72  95
ATOM     95  C   UNL A   1      43.904  35.203  32.427  1.00  0.00     0.023 A 
ATOM     96  C   UNL A   1      44.060  35.047  33.815  1.00  0.00     0.031 A 
ATOM     97  C   UNL A   1      43.718  36.501  31.921  1.00  0.00     0.131 A 
ATOM     98  C   UNL A   1      43.969  36.165  34.657  1.00  0.00     0.055 A 
ATOM     99  C   UNL A   1      43.684  37.617  32.757  1.00  0.00     0.041 A 
ATOM    100  F   UNL A   1      43.562  36.703  30.602  1.00  0.00    -0.206 F 
ATOM    101  C   UNL A   1      43.796  37.451  34.135  1.00  0.00     0.022 A 
BRANCH  98 102
ATOM    102  S   UNL A   1      43.988  35.910  36.452  1.00  0.00     0.124 S 
ATOM    103  O   UNL A   1      42.718  35.228  36.675  1.00  0.00    -0.237 OA
ATOM    104  O   UNL A   1      45.187  35.101  36.640  1.00  0.00    -0.237 OA
ATOM    105  O   UNL A   1      44.066  37.267  36.991  1.00  0.00    -0.744 OA
ENDBRANCH  98 102
ENDBRANCH  72  95
ENDBRANCH  46  47
ENDBRANCH  39  41
ENDBRANCH  38  39
ENDBRANCH  37  38
ENDBRANCH  36  37
ENDBRANCH  35  36
ENDBRANCH  34  35
ENDBRANCH   1  34
TORSDOF 23
ENDMDL
MODEL 2
REMARK VINA RESULT:     -10.0      1.909      7.239
REMARK SMILES CC1=C(C)C[C@@H](C(=O)OCCOCCOCCOC(=O)c2ccc(-c3c4nc(c(-c5cc(S(=O)(=O)[O-])ccc5F)c5ccc([nH]5)c(-c5cc(S(=O)(=O)[O-])ccc5F)c5nc(c(-c6cc(S(=O)(=O)[O-])ccc6F)c6ccc3[nH]6)C=C5)C=C4)cc2)[C@@H](C(=O)N2CCN(c3cccc(C(F)(F)F)c3)CC2)C1
REMARK SMILES IDX 13 1 12 2 11 3 10 4 9 5 7 6 8 7 6 8 1 9 2 10 3 11 103 12
REMARK SMILES IDX 4 13 5 14 84 15 85 16 86 17 87 18 88 19 102 20 89 21 101 22
REMARK SMILES IDX 90 23 91 24 92 25 100 26 93 27 95 28 94 29 96 30 97 31 98 32
REMARK SMILES IDX 99 33 14 34 15 35 16 36 17 37 18 38 19 39 20 40 21 41 22 42
REMARK SMILES IDX 83 43 23 44 82 45 24 46 25 47 26 48 76 49 27 50 81 51 75 52
REMARK SMILES IDX 77 53 28 54 80 55 74 56 73 57 29 59 61 60 41 61 60 62 42 63
REMARK SMILES IDX 45 64 59 65 78 66 43 67 44 68 58 70 79 71 46 72 30 73 31 74
REMARK SMILES IDX 39 75 32 76 38 77 40 78 37 79 33 80 34 81 35 82 36 83 62 84
REMARK SMILES IDX 63 85 71 86 64 87 70 88 72 89 69 90 65 91 66 92 67 93 68 94
REMARK SMILES IDX 47 95 48 96 56 97 49 98 55 99 57 100 54 101 50 102 51 103
REMARK SMILES IDX 52 104 53 105
REMARK H PARENT 77 58 45 69
REMARK Flexibility Score: inf
ROOT
ATOM      1  C   UNL A   1      37.055  22.034  25.019  1.00  0.00     0.188 C 
ENDROOT
BRANCH   1   2
ATOM      2  O   UNL A   1      36.916  22.959  23.940  1.00  0.00    -0.376 OA
BRANCH   2   3
ATOM      3  C   UNL A   1      35.658  23.096  23.300  1.00  0.00     0.202 C 
BRANCH   3   4
ATOM      4  C   UNL A   1      35.026  24.497  23.368  1.00  0.00     0.261 C 
BRANCH   4   5
ATOM      5  O   UNL A   1      33.789  24.701  22.638  1.00  0.00    -0.463 OA
BRANCH   5   6
ATOM      6  C   UNL A   1      33.082  25.787  23.018  1.00  0.00     0.310 C 
ATOM      7  O   UNL A   1      33.487  26.939  22.863  1.00  0.00    -0.252 OA
BRANCH   6   8
ATOM      8  C   UNL A   1      31.809  25.553  23.822  1.00  0.00     0.116 C 
ATOM      9  C   UNL A   1      31.542  28.050  27.414  1.00  0.00     0.039 C 
ATOM     10  C   UNL A   1      31.354  27.276  26.138  1.00  0.00    -0.074 C 
ATOM     11  C   UNL A   1      31.259  27.792  24.896  1.00  0.00    -0.073 C 
ATOM     12  C   UNL A   1      31.200  25.792  26.352  1.00  0.00     0.045 C 
ATOM     13  C   UNL A   1      31.331  29.248  24.534  1.00  0.00     0.039 C 
ATOM     14  C   UNL A   1      31.007  26.863  23.732  1.00  0.00     0.046 C 
ATOM     15  C   UNL A   1      31.649  24.863  25.196  1.00  0.00     0.097 C 
BRANCH  15  16
ATOM     16  C   UNL A   1      32.760  23.992  25.784  1.00  0.00     0.227 C 
ATOM     17  O   UNL A   1      33.568  24.471  26.582  1.00  0.00    -0.275 OA
ATOM     18  N   UNL A   1      32.689  22.604  25.568  1.00  0.00    -0.339 N 
ATOM     19  C   UNL A   1      33.539  21.760  26.431  1.00  0.00     0.141 C 
ATOM     20  C   UNL A   1      32.328  22.015  24.264  1.00  0.00     0.141 C 
ATOM     21  C   UNL A   1      33.189  20.261  26.417  1.00  0.00     0.138 C 
ATOM     22  C   UNL A   1      32.113  20.482  24.221  1.00  0.00     0.138 C 
ATOM     23  N   UNL A   1      33.127  19.803  25.029  1.00  0.00    -0.368 N 
BRANCH  23  24
ATOM     24  C   UNL A   1      33.441  18.487  24.730  1.00  0.00     0.037 A 
ATOM     25  C   UNL A   1      34.281  18.122  23.674  1.00  0.00     0.026 A 
ATOM     26  C   UNL A   1      32.858  17.457  25.481  1.00  0.00     0.039 A 
ATOM     27  C   UNL A   1      34.519  16.776  23.374  1.00  0.00     0.003 A 
ATOM     28  C   UNL A   1      33.032  16.100  25.158  1.00  0.00     0.058 A 
ATOM     29  C   UNL A   1      33.891  15.770  24.105  1.00  0.00     0.013 A 
BRANCH  28  30
ATOM     30  C   UNL A   1      32.302  15.013  25.903  1.00  0.00     0.416 C 
ATOM     31  F   UNL A   1      32.144  15.301  27.228  1.00  0.00    -0.166 F 
ATOM     32  F   UNL A   1      31.050  14.784  25.420  1.00  0.00    -0.166 F 
ATOM     33  F   UNL A   1      32.930  13.805  25.877  1.00  0.00    -0.166 F 
ENDBRANCH  28  30
ENDBRANCH  23  24
ENDBRANCH  15  16
ENDBRANCH   6   8
ENDBRANCH   5   6
ENDBRANCH   4   5
ENDBRANCH   3   4
ENDBRANCH   2   3
ENDBRANCH   1   2
BRANCH   1  34
ATOM     34  C   UNL A   1      38.455  21.572  25.433  1.00  0.00     0.188 C 
BRANCH  34  35
ATOM     35  O   UNL A   1      39.117  22.513  26.273  1.00  0.00    -0.376 OA
BRANCH  35  36
ATOM     36  C   UNL A   1      40.180  21.955  27.036  1.00  0.00     0.202 C 
BRANCH  36  37
ATOM     37  C   UNL A   1      41.416  21.777  26.157  1.00  0.00     0.261 C 
BRANCH  37  38
ATOM     38  O   UNL A   1      41.765  22.993  25.463  1.00  0.00    -0.460 OA
BRANCH  38  39
ATOM     39  C   UNL A   1      43.093  23.197  25.339  1.00  0.00     0.338 C 
ATOM     40  O   UNL A   1      43.869  22.507  24.705  1.00  0.00    -0.246 OA
BRANCH  39  41
ATOM     41  C   UNL A   1      43.488  24.432  26.046  1.00  0.00     0.060 A 
ATOM     42  C   UNL A   1      43.871  24.380  27.386  1.00  0.00     0.016 A 
ATOM     43  C   UNL A   1      43.300  25.664  25.430  1.00  0.00     0.016 A 
ATOM     44  C   UNL A   1      43.964  25.547  28.145  1.00  0.00     0.010 A 
ATOM     45  C   UNL A   1      43.461  26.840  26.171  1.00  0.00     0.010 A 
ATOM     46  C   UNL A   1      43.763  26.794  27.544  1.00  0.00    -0.014 A 
BRANCH  46  47
ATOM     47  C   UNL A   1      43.852  28.058  28.324  1.00  0.00     0.031 A 
ATOM     48  C   UNL A   1      42.599  28.681  28.879  1.00  0.00     0.074 A 
ATOM     49  C   UNL A   1      45.037  28.676  28.491  1.00  0.00     0.049 A 
ATOM     50  N   UNL A   1      42.397  29.901  29.301  1.00  0.00    -0.248 NA
ATOM     51  C   UNL A   1      41.415  27.810  28.963  1.00  0.00     0.031 C 
ATOM     52  C   UNL A   1      46.340  28.142  28.084  1.00  0.00     0.029 A 
ATOM     53  N   UNL A   1      45.337  29.910  29.018  1.00  0.00    -0.354 N 
ATOM     54  C   UNL A   1      41.050  29.969  29.643  1.00  0.00     0.074 A 
ATOM     55  C   UNL A   1      40.488  28.655  29.399  1.00  0.00     0.031 C 
ATOM     56  C   UNL A   1      47.291  29.047  28.357  1.00  0.00     0.029 A 
ATOM     57  C   UNL A   1      46.659  30.262  28.859  1.00  0.00     0.049 A 
ATOM     58  H   UNL A   1      44.674  30.484  29.465  1.00  0.00     0.167 HD
ATOM     59  C   UNL A   1      40.349  31.038  30.095  1.00  0.00     0.034 A 
ATOM     60  C   UNL A   1      47.279  31.449  29.013  1.00  0.00     0.034 A 
ATOM     61  C   UNL A   1      40.937  32.331  30.354  1.00  0.00     0.049 A 
ATOM     62  C   UNL A   1      46.465  32.644  29.435  1.00  0.00     0.074 A 
ATOM     63  C   UNL A   1      40.324  33.478  30.829  1.00  0.00     0.029 A 
ATOM     64  N   UNL A   1      42.273  32.651  30.154  1.00  0.00    -0.354 N 
ATOM     65  N   UNL A   1      45.180  32.719  29.697  1.00  0.00    -0.248 NA
ATOM     66  C   UNL A   1      47.181  33.920  29.567  1.00  0.00     0.031 C 
ATOM     67  C   UNL A   1      41.276  34.504  30.860  1.00  0.00     0.029 A 
ATOM     68  C   UNL A   1      42.498  33.982  30.469  1.00  0.00     0.049 A 
ATOM     69  H   UNL A   1      42.962  32.023  29.836  1.00  0.00     0.167 HD
ATOM     70  C   UNL A   1      44.941  34.045  30.044  1.00  0.00     0.074 A 
ATOM     71  C   UNL A   1      46.216  34.729  29.977  1.00  0.00     0.031 C 
ATOM     72  C   UNL A   1      43.775  34.648  30.388  1.00  0.00     0.034 A 
BRANCH  59  73
ATOM     73  C   UNL A   1      38.857  30.886  30.256  1.00  0.00     0.023 A 
ATOM     74  C   UNL A   1      37.943  31.349  29.296  1.00  0.00     0.031 A 
ATOM     75  C   UNL A   1      38.348  30.242  31.399  1.00  0.00     0.131 A 
ATOM     76  C   UNL A   1      36.563  31.193  29.517  1.00  0.00     0.055 A 
ATOM     77  C   UNL A   1      36.981  30.037  31.584  1.00  0.00     0.041 A 
ATOM     78  F   UNL A   1      39.178  29.798  32.358  1.00  0.00    -0.206 F 
ATOM     79  C   UNL A   1      36.078  30.520  30.641  1.00  0.00     0.022 A 
BRANCH  76  80
ATOM     80  S   UNL A   1      35.399  31.950  28.348  1.00  0.00     0.124 S 
ATOM     81  O   UNL A   1      34.377  32.480  29.248  1.00  0.00    -0.237 OA
ATOM     82  O   UNL A   1      36.227  32.940  27.670  1.00  0.00    -0.237 OA
ATOM     83  O   UNL A   1      34.966  30.827  27.518  1.00  0.00    -0.744 OA
ENDBRANCH  76  80
ENDBRANCH  59  73
BRANCH  60  84
ATOM     84  C   UNL A   1      48.722  31.601  28.661  1.00  0.00     0.023 A 
ATOM     85  C   UNL A   1      49.119  32.319  27.524  1.00  0.00     0.031 A 
ATOM     86  C   UNL A   1      49.722  30.970  29.424  1.00  0.00     0.131 A 
ATOM     87  C   UNL A   1      50.473  32.350  27.154  1.00  0.00     0.055 A 
ATOM     88  C   UNL A   1      51.073  31.055  29.088  1.00  0.00     0.041 A 
ATOM     89  F   UNL A   1      49.398  30.262  30.519  1.00  0.00    -0.206 F 
ATOM     90  C   UNL A   1      51.454  31.736  27.936  1.00  0.00     0.022 A 
BRANCH  87  91
ATOM     91  S   UNL A   1      50.920  33.110  25.569  1.00  0.00     0.124 S 
ATOM     92  O   UNL A   1      51.982  34.027  25.968  1.00  0.00    -0.237 OA
ATOM     93  O   UNL A   1      51.335  31.951  24.786  1.00  0.00    -0.237 OA
ATOM     94  O   UNL A   1      49.679  33.745  25.134  1.00  0.00    -0.744 OA
ENDBRANCH  87  91
ENDBRANCH  60  84
BRANCH  72  95
ATOM     95  C   UNL A   1      43.852  36.105  30.767  1.00  0.00     0.023 A 
ATOM     96  C   UNL A   1      43.665  37.124  29.818  1.00  0.00     0.031 A 
ATOM     97  C   UNL A   1      44.151  36.474  32.089  1.00  0.00     0.131 A 
ATOM     98  C   UNL A   1      43.838  38.465  30.193  1.00  0.00     0.055 A 
ATOM     99  C   UNL A   1      44.267  37.811  32.470  1.00  0.00     0.041 A 
ATOM    100  F   UNL A   1      44.342  35.538  33.033  1.00  0.00    -0.206 F 
ATOM    101  C   UNL A   1      44.124  38.815  31.516  1.00  0.00     0.022 A 
BRANCH  98 102
ATOM    102  S   UNL A   1      43.773  39.745  28.910  1.00  0.00     0.124 S 
ATOM    103  O   UNL A   1      42.338  39.987  28.794  1.00  0.00    -0.237 OA
ATOM    104  O   UNL A   1      44.554  40.824  29.506  1.00  0.00    -0.237 OA
ATOM    105  O   UNL A   1      44.389  39.102  27.751  1.00  0.00    -0.744 OA
ENDBRANCH  98 102
ENDBRANCH  72  95
ENDBRANCH  46  47
ENDBRANCH  39  41
ENDBRANCH  38  39
ENDBRANCH  37  38
ENDBRANCH  36  37
ENDBRANCH  35  36
ENDBRANCH  34  35
ENDBRANCH   1  34
TORSDOF 23
ENDMDL
MODEL 3
REMARK VINA RESULT:      -9.6      7.099      9.233
REMARK SMILES CC1=C(C)C[C@@H](C(=O)OCCOCCOCCOC(=O)c2ccc(-c3c4nc(c(-c5cc(S(=O)(=O)[O-])ccc5F)c5ccc([nH]5)c(-c5cc(S(=O)(=O)[O-])ccc5F)c5nc(c(-c6cc(S(=O)(=O)[O-])ccc6F)c6ccc3[nH]6)C=C5)C=C4)cc2)[C@@H](C(=O)N2CCN(c3cccc(C(F)(F)F)c3)CC2)C1
REMARK SMILES IDX 13 1 12 2 11 3 10 4 9 5 7 6 8 7 6 8 1 9 2 10 3 11 103 12
REMARK SMILES IDX 4 13 5 14 84 15 85 16 86 17 87 18 88 19 102 20 89 21 101 22
REMARK SMILES IDX 90 23 91 24 92 25 100 26 93 27 95 28 94 29 96 30 97 31 98 32
REMARK SMILES IDX 99 33 14 34 15 35 16 36 17 37 18 38 19 39 20 40 21 41 22 42
REMARK SMILES IDX 83 43 23 44 82 45 24 46 25 47 26 48 76 49 27 50 81 51 75 52
REMARK SMILES IDX 77 53 28 54 80 55 74 56 73 57 29 59 61 60 41 61 60 62 42 63
REMARK SMILES IDX 45 64 59 65 78 66 43 67 44 68 58 70 79 71 46 72 30 73 31 74
REMARK SMILES IDX 39 75 32 76 38 77 40 78 37 79 33 80 34 81 35 82 36 83 62 84
REMARK SMILES IDX 63 85 71 86 64 87 70 88 72 89 69 90 65 91 66 92 67 93 68 94
REMARK SMILES IDX 47 95 48 96 56 97 49 98 55 99 57 100 54 101 50 102 51 103
REMARK SMILES IDX 52 104 53 105
REMARK H PARENT 77 58 45 69
REMARK Flexibility Score: inf
ROOT
ATOM      1  C   UNL A   1      37.729  21.823  25.567  1.00  0.00     0.188 C 
ENDROOT
BRANCH   1   2
ATOM      2  O   UNL A   1      37.241  22.901  24.767  1.00  0.00    -0.376 OA
BRANCH   2   3
ATOM      3  C   UNL A   1      35.975  22.782  24.138  1.00  0.00     0.202 C 
BRANCH   3   4
ATOM      4  C   UNL A   1      35.421  24.069  23.506  1.00  0.00     0.261 C 
BRANCH   4   5
ATOM      5  O   UNL A   1      34.313  23.929  22.581  1.00  0.00    -0.463 OA
BRANCH   5   6
ATOM      6  C   UNL A   1      33.555  25.037  22.436  1.00  0.00     0.310 C 
ATOM      7  O   UNL A   1      33.999  26.104  22.010  1.00  0.00    -0.252 OA
BRANCH   6   8
ATOM      8  C   UNL A   1      32.135  24.995  22.986  1.00  0.00     0.116 C 
ATOM      9  C   UNL A   1      31.320  28.138  25.930  1.00  0.00     0.039 C 
ATOM     10  C   UNL A   1      31.341  27.140  24.805  1.00  0.00    -0.074 C 
ATOM     11  C   UNL A   1      31.530  27.412  23.499  1.00  0.00    -0.073 C 
ATOM     12  C   UNL A   1      31.049  25.728  25.247  1.00  0.00     0.045 C 
ATOM     13  C   UNL A   1      31.769  28.770  22.902  1.00  0.00     0.039 C 
ATOM     14  C   UNL A   1      31.455  26.286  22.495  1.00  0.00     0.046 C 
ATOM     15  C   UNL A   1      31.658  24.585  24.398  1.00  0.00     0.097 C 
BRANCH  15  16
ATOM     16  C   UNL A   1      32.570  23.811  25.352  1.00  0.00     0.227 C 
ATOM     17  O   UNL A   1      33.104  24.386  26.302  1.00  0.00    -0.275 OA
ATOM     18  N   UNL A   1      32.590  22.409  25.247  1.00  0.00    -0.339 N 
ATOM     19  C   UNL A   1      33.172  21.673  26.387  1.00  0.00     0.141 C 
ATOM     20  C   UNL A   1      32.632  21.705  23.951  1.00  0.00     0.141 C 
ATOM     21  C   UNL A   1      32.870  20.163  26.404  1.00  0.00     0.138 C 
ATOM     22  C   UNL A   1      32.468  20.166  23.982  1.00  0.00     0.138 C 
ATOM     23  N   UNL A   1      33.220  19.597  25.102  1.00  0.00    -0.368 N 
BRANCH  23  24
ATOM     24  C   UNL A   1      33.632  18.276  25.021  1.00  0.00     0.037 A 
ATOM     25  C   UNL A   1      34.796  17.878  24.357  1.00  0.00     0.026 A 
ATOM     26  C   UNL A   1      32.830  17.273  25.583  1.00  0.00     0.039 A 
ATOM     27  C   UNL A   1      35.138  16.525  24.250  1.00  0.00     0.003 A 
ATOM     28  C   UNL A   1      33.120  15.906  25.433  1.00  0.00     0.058 A 
ATOM     29  C   UNL A   1      34.300  15.543  24.777  1.00  0.00     0.013 A 
BRANCH  28  30
ATOM     30  C   UNL A   1      32.184  14.841  25.941  1.00  0.00     0.416 C 
ATOM     31  F   UNL A   1      32.593  13.581  25.609  1.00  0.00    -0.166 F 
ATOM     32  F   UNL A   1      32.056  14.846  27.296  1.00  0.00    -0.166 F 
ATOM     33  F   UNL A   1      30.916  14.940  25.455  1.00  0.00    -0.166 F 
ENDBRANCH  28  30
ENDBRANCH  23  24
ENDBRANCH  15  16
ENDBRANCH   6   8
ENDBRANCH   5   6
ENDBRANCH   4   5
ENDBRANCH   3   4
ENDBRANCH   2   3
ENDBRANCH   1   2
BRANCH   1  34
ATOM     34  C   UNL A   1      39.172  21.863  26.078  1.00  0.00     0.188 C 
BRANCH  34  35
ATOM     35  O   UNL A   1      39.594  23.178  26.425  1.00  0.00    -0.376 OA
BRANCH  35  36
ATOM     36  C   UNL A   1      40.708  23.210  27.308  1.00  0.00     0.202 C 
BRANCH  36  37
ATOM     37  C   UNL A   1      42.009  23.250  26.508  1.00  0.00     0.261 C 
BRANCH  37  38
ATOM     38  O   UNL A   1      42.982  24.133  27.104  1.00  0.00    -0.460 OA
BRANCH  38  39
ATOM     39  C   UNL A   1      44.134  23.525  27.461  1.00  0.00     0.338 C 
ATOM     40  O   UNL A   1      44.901  22.947  26.714  1.00  0.00    -0.246 OA
BRANCH  39  41
ATOM     41  C   UNL A   1      44.378  23.704  28.906  1.00  0.00     0.060 A 
ATOM     42  C   UNL A   1      43.595  23.025  29.838  1.00  0.00     0.016 A 
ATOM     43  C   UNL A   1      45.264  24.687  29.335  1.00  0.00     0.016 A 
ATOM     44  C   UNL A   1      43.611  23.394  31.184  1.00  0.00     0.010 A 
ATOM     45  C   UNL A   1      45.333  25.010  30.694  1.00  0.00     0.010 A 
ATOM     46  C   UNL A   1      44.485  24.390  31.629  1.00  0.00    -0.014 A 
BRANCH  46  47
ATOM     47  C   UNL A   1      44.526  24.810  33.056  1.00  0.00     0.031 A 
ATOM     48  C   UNL A   1      44.151  26.219  33.430  1.00  0.00     0.074 A 
ATOM     49  C   UNL A   1      44.949  23.955  34.008  1.00  0.00     0.049 A 
ATOM     50  N   UNL A   1      44.407  26.882  34.527  1.00  0.00    -0.248 NA
ATOM     51  C   UNL A   1      43.388  26.983  32.429  1.00  0.00     0.031 C 
ATOM     52  C   UNL A   1      45.259  22.538  33.801  1.00  0.00     0.029 A 
ATOM     53  N   UNL A   1      45.224  24.162  35.339  1.00  0.00    -0.354 N 
ATOM     54  C   UNL A   1      43.895  28.161  34.328  1.00  0.00     0.074 A 
ATOM     55  C   UNL A   1      43.292  28.172  33.011  1.00  0.00     0.031 C 
ATOM     56  C   UNL A   1      45.699  22.011  34.953  1.00  0.00     0.029 A 
ATOM     57  C   UNL A   1      45.802  23.071  35.950  1.00  0.00     0.049 A 
ATOM     58  H   UNL A   1      45.028  25.005  35.808  1.00  0.00     0.167 HD
ATOM     59  C   UNL A   1      43.949  29.227  35.164  1.00  0.00     0.034 A 
ATOM     60  C   UNL A   1      46.423  22.956  37.140  1.00  0.00     0.034 A 
ATOM     61  C   UNL A   1      44.534  29.184  36.483  1.00  0.00     0.049 A 
ATOM     62  C   UNL A   1      46.547  24.175  38.017  1.00  0.00     0.074 A 
ATOM     63  C   UNL A   1      44.627  30.200  37.420  1.00  0.00     0.029 A 
ATOM     64  N   UNL A   1      45.131  28.067  37.052  1.00  0.00    -0.354 N 
ATOM     65  N   UNL A   1      46.116  25.396  37.800  1.00  0.00    -0.248 NA
ATOM     66  C   UNL A   1      47.253  24.004  39.293  1.00  0.00     0.031 C 
ATOM     67  C   UNL A   1      45.331  29.713  38.527  1.00  0.00     0.029 A 
ATOM     68  C   UNL A   1      45.618  28.376  38.313  1.00  0.00     0.049 A 
ATOM     69  H   UNL A   1      45.198  27.184  36.623  1.00  0.00     0.167 HD
ATOM     70  C   UNL A   1      46.483  26.132  38.922  1.00  0.00     0.074 A 
ATOM     71  C   UNL A   1      47.152  25.213  39.822  1.00  0.00     0.031 C 
ATOM     72  C   UNL A   1      46.289  27.448  39.191  1.00  0.00     0.034 A 
BRANCH  59  73
ATOM     73  C   UNL A   1      43.442  30.551  34.650  1.00  0.00     0.023 A 
ATOM     74  C   UNL A   1      42.174  31.055  34.985  1.00  0.00     0.031 A 
ATOM     75  C   UNL A   1      44.266  31.332  33.818  1.00  0.00     0.131 A 
ATOM     76  C   UNL A   1      41.753  32.288  34.457  1.00  0.00     0.055 A 
ATOM     77  C   UNL A   1      43.866  32.582  33.346  1.00  0.00     0.041 A 
ATOM     78  F   UNL A   1      45.480  30.889  33.451  1.00  0.00    -0.206 F 
ATOM     79  C   UNL A   1      42.599  33.065  33.660  1.00  0.00     0.022 A 
BRANCH  76  80
ATOM     80  S   UNL A   1      40.050  32.836  34.763  1.00  0.00     0.124 S 
ATOM     81  O   UNL A   1      40.263  34.010  35.606  1.00  0.00    -0.237 OA
ATOM     82  O   UNL A   1      39.554  33.099  33.417  1.00  0.00    -0.237 OA
ATOM     83  O   UNL A   1      39.438  31.694  35.440  1.00  0.00    -0.744 OA
ENDBRANCH  76  80
ENDBRANCH  59  73
BRANCH  60  84
ATOM     84  C   UNL A   1      47.079  21.673  37.531  1.00  0.00     0.023 A 
ATOM     85  C   UNL A   1      46.359  20.658  38.179  1.00  0.00     0.031 A 
ATOM     86  C   UNL A   1      48.456  21.472  37.322  1.00  0.00     0.131 A 
ATOM     87  C   UNL A   1      47.026  19.511  38.638  1.00  0.00     0.055 A 
ATOM     88  C   UNL A   1      49.103  20.303  37.724  1.00  0.00     0.041 A 
ATOM     89  F   UNL A   1      49.197  22.414  36.714  1.00  0.00    -0.206 F 
ATOM     90  C   UNL A   1      48.389  19.320  38.401  1.00  0.00     0.022 A 
BRANCH  87  91
ATOM     91  S   UNL A   1      46.105  18.321  39.650  1.00  0.00     0.124 S 
ATOM     92  O   UNL A   1      45.542  19.183  40.684  1.00  0.00    -0.237 OA
ATOM     93  O   UNL A   1      45.158  17.775  38.685  1.00  0.00    -0.237 OA
ATOM     94  O   UNL A   1      47.136  17.392  40.106  1.00  0.00    -0.744 OA
ENDBRANCH  87  91
ENDBRANCH  60  84
BRANCH  72  95
ATOM     95  C   UNL A   1      46.761  27.942  40.534  1.00  0.00     0.023 A 
ATOM     96  C   UNL A   1      45.877  28.098  41.615  1.00  0.00     0.031 A 
ATOM     97  C   UNL A   1      48.109  28.294  40.721  1.00  0.00     0.131 A 
ATOM     98  C   UNL A   1      46.339  28.648  42.820  1.00  0.00     0.055 A 
ATOM     99  C   UNL A   1      48.575  28.789  41.939  1.00  0.00     0.041 A 
ATOM    100  F   UNL A   1      48.993  28.166  39.719  1.00  0.00    -0.206 F 
ATOM    101  C   UNL A   1      47.686  28.981  42.993  1.00  0.00     0.022 A 
BRANCH  98 102
ATOM    102  S   UNL A   1      45.140  29.009  44.131  1.00  0.00     0.124 S 
ATOM    103  O   UNL A   1      44.879  27.681  44.677  1.00  0.00    -0.237 OA
ATOM    104  O   UNL A   1      45.886  29.917  44.996  1.00  0.00    -0.237 OA
ATOM    105  O   UNL A   1      44.020  29.617  43.415  1.00  0.00    -0.744 OA
ENDBRANCH  98 102
ENDBRANCH  72  95
ENDBRANCH  46  47
ENDBRANCH  39  41
ENDBRANCH  38  39
ENDBRANCH  37  38
ENDBRANCH  36  37
ENDBRANCH  35  36
ENDBRANCH  34  35
ENDBRANCH   1  34
TORSDOF 23
ENDMDL
