MODEL 1
REMARK VINA RESULT:      -9.1      0.000      0.000
REMARK SMILES CCc1ccsc1CNS(=O)(=O)N1CCC(C(=O)OCCOCCOCCOC(=O)c2ccc(-c3c4nc(c(-c5cc(S(=O)(=O)[O-])ccc5F)c5ccc([nH]5)c(-c5cc(S(=O)(=O)[O-])ccc5F)c5nc(c(-c6cc(S(=O)(=O)[O-])ccc6F)c6ccc3[nH]6)C=C5)C=C4)cc2)CC1
REMARK SMILES IDX 23 1 22 2 21 3 20 4 19 5 17 6 18 7 16 8 13 9 14 10 95 11
REMARK SMILES IDX 15 12 94 13 10 14 11 15 12 16 9 17 8 19 7 20 3 21 4 22 5 23
REMARK SMILES IDX 6 24 2 25 1 26 24 27 25 28 26 29 27 30 28 31 29 32 30 33
REMARK SMILES IDX 31 34 32 35 93 36 33 37 92 38 34 39 35 40 36 41 86 42 37 43
REMARK SMILES IDX 91 44 85 45 87 46 38 47 90 48 84 49 83 50 39 52 71 53 51 54
REMARK SMILES IDX 70 55 52 56 55 57 69 58 88 59 53 60 54 61 68 63 89 64 56 65
REMARK SMILES IDX 40 66 41 67 49 68 42 69 48 70 50 71 47 72 43 73 44 74 45 75
REMARK SMILES IDX 46 76 72 77 73 78 81 79 74 80 80 81 82 82 79 83 75 84 76 85
REMARK SMILES IDX 77 86 78 87 57 88 58 89 66 90 59 91 65 92 67 93 64 94 60 95
REMARK SMILES IDX 61 96 62 97 63 98
REMARK H PARENT 9 18 87 51 55 62
REMARK Flexibility Score: inf
ROOT
ATOM      1  C   UNL A   1      33.476  20.335  25.456  1.00  0.00     0.188 C 
ENDROOT
BRANCH   1   2
ATOM      2  O   UNL A   1      33.161  20.181  24.077  1.00  0.00    -0.376 OA
BRANCH   2   3
ATOM      3  C   UNL A   1      32.139  21.024  23.551  1.00  0.00     0.202 C 
BRANCH   3   4
ATOM      4  C   UNL A   1      32.540  21.978  22.414  1.00  0.00     0.261 C 
BRANCH   4   5
ATOM      5  O   UNL A   1      32.507  23.386  22.744  1.00  0.00    -0.463 OA
BRANCH   5   6
ATOM      6  C   UNL A   1      33.723  23.957  22.949  1.00  0.00     0.309 C 
ATOM      7  O   UNL A   1      34.793  23.380  22.779  1.00  0.00    -0.252 OA
BRANCH   6   8
ATOM      8  C   UNL A   1      33.683  25.418  23.373  1.00  0.00     0.102 C 
ATOM      9  N   UNL A   1      32.671  27.690  24.879  1.00  0.00    -0.189 NA
ATOM     10  C   UNL A   1      32.684  27.742  23.394  1.00  0.00     0.104 C 
ATOM     11  C   UNL A   1      33.761  26.848  25.434  1.00  0.00     0.104 C 
ATOM     12  C   UNL A   1      32.581  26.320  22.813  1.00  0.00     0.032 C 
ATOM     13  C   UNL A   1      33.633  25.434  24.901  1.00  0.00     0.032 C 
BRANCH   9  14
ATOM     14  S   UNL A   1      32.535  29.191  25.655  1.00  0.00     0.279 S 
ATOM     15  O   UNL A   1      33.832  29.801  25.779  1.00  0.00    -0.195 OA
ATOM     16  O   UNL A   1      31.630  29.082  26.776  1.00  0.00    -0.195 OA
BRANCH  14  17
ATOM     17  N   UNL A   1      31.722  30.028  24.448  1.00  0.00    -0.197 NA
ATOM     18  H   UNL A   1      32.236  30.888  24.249  1.00  0.00     0.142 HD
BRANCH  17  19
ATOM     19  C   UNL A   1      30.341  30.384  24.805  1.00  0.00     0.146 C 
BRANCH  19  20
ATOM     20  C   UNL A   1      29.474  30.320  23.578  1.00  0.00     0.023 A 
ATOM     21  C   UNL A   1      28.933  29.200  22.955  1.00  0.00    -0.033 A 
ATOM     22  C   UNL A   1      28.128  29.581  21.828  1.00  0.00     0.015 A 
ATOM     23  C   UNL A   1      28.087  30.942  21.637  1.00  0.00     0.065 A 
ATOM     24  S   UNL A   1      29.001  31.779  22.808  1.00  0.00    -0.147 S 
BRANCH  21  25
ATOM     25  C   UNL A   1      29.146  27.770  23.377  1.00  0.00     0.033 C 
ATOM     26  C   UNL A   1      27.856  27.063  23.765  1.00  0.00     0.009 C 
ENDBRANCH  21  25
ENDBRANCH  19  20
ENDBRANCH  17  19
ENDBRANCH  14  17
ENDBRANCH   9  14
ENDBRANCH   6   8
ENDBRANCH   5   6
ENDBRANCH   4   5
ENDBRANCH   3   4
ENDBRANCH   2   3
ENDBRANCH   1   2
BRANCH   1  27
ATOM     27  C   UNL A   1      34.897  20.800  25.766  1.00  0.00     0.188 C 
BRANCH  27  28
ATOM     28  O   UNL A   1      35.928  20.229  24.981  1.00  0.00    -0.376 OA
BRANCH  28  29
ATOM     29  C   UNL A   1      36.914  21.117  24.451  1.00  0.00     0.202 C 
BRANCH  29  30
ATOM     30  C   UNL A   1      38.294  21.228  25.150  1.00  0.00     0.261 C 
BRANCH  30  31
ATOM     31  O   UNL A   1      38.476  22.267  26.141  1.00  0.00    -0.460 OA
BRANCH  31  32
ATOM     32  C   UNL A   1      39.723  22.470  26.633  1.00  0.00     0.338 C 
ATOM     33  O   UNL A   1      40.668  21.712  26.499  1.00  0.00    -0.246 OA
BRANCH  32  34
ATOM     34  C   UNL A   1      39.841  23.890  27.097  1.00  0.00     0.060 A 
ATOM     35  C   UNL A   1      40.028  24.885  26.123  1.00  0.00     0.016 A 
ATOM     36  C   UNL A   1      39.699  24.270  28.435  1.00  0.00     0.016 A 
ATOM     37  C   UNL A   1      40.114  26.237  26.480  1.00  0.00     0.010 A 
ATOM     38  C   UNL A   1      39.812  25.625  28.796  1.00  0.00     0.010 A 
ATOM     39  C   UNL A   1      40.054  26.618  27.825  1.00  0.00    -0.014 A 
BRANCH  39  40
ATOM     40  C   UNL A   1      40.460  27.996  28.233  1.00  0.00     0.031 A 
ATOM     41  C   UNL A   1      41.931  28.337  28.209  1.00  0.00     0.074 A 
ATOM     42  C   UNL A   1      39.570  28.945  28.586  1.00  0.00     0.049 A 
ATOM     43  N   UNL A   1      42.543  29.434  28.578  1.00  0.00    -0.248 NA
ATOM     44  C   UNL A   1      42.830  27.291  27.699  1.00  0.00     0.031 C 
ATOM     45  C   UNL A   1      38.117  28.787  28.588  1.00  0.00     0.029 A 
ATOM     46  N   UNL A   1      39.764  30.239  29.018  1.00  0.00    -0.354 N 
ATOM     47  C   UNL A   1      43.899  29.203  28.365  1.00  0.00     0.074 A 
ATOM     48  C   UNL A   1      44.019  27.852  27.858  1.00  0.00     0.031 C 
ATOM     49  C   UNL A   1      37.553  29.936  29.007  1.00  0.00     0.029 A 
ATOM     50  C   UNL A   1      38.600  30.898  29.352  1.00  0.00     0.049 A 
ATOM     51  H   UNL A   1      40.653  30.654  29.084  1.00  0.00     0.167 HD
ATOM     52  C   UNL A   1      44.949  30.036  28.569  1.00  0.00     0.034 A 
ATOM     53  C   UNL A   1      38.404  32.119  29.897  1.00  0.00     0.034 A 
ATOM     54  C   UNL A   1      44.825  31.382  29.074  1.00  0.00     0.049 A 
ATOM     55  C   UNL A   1      39.602  32.991  30.220  1.00  0.00     0.074 A 
ATOM     56  C   UNL A   1      45.828  32.312  29.287  1.00  0.00     0.029 A 
ATOM     57  N   UNL A   1      43.638  31.985  29.462  1.00  0.00    -0.354 N 
ATOM     58  N   UNL A   1      40.878  32.762  30.006  1.00  0.00    -0.248 NA
ATOM     59  C   UNL A   1      39.331  34.289  30.858  1.00  0.00     0.031 C 
ATOM     60  C   UNL A   1      45.261  33.440  29.890  1.00  0.00     0.029 A 
ATOM     61  C   UNL A   1      43.890  33.256  29.958  1.00  0.00     0.049 A 
ATOM     62  H   UNL A   1      42.746  31.573  29.394  1.00  0.00     0.167 HD
ATOM     63  C   UNL A   1      41.550  33.905  30.440  1.00  0.00     0.074 A 
ATOM     64  C   UNL A   1      40.541  34.824  30.917  1.00  0.00     0.031 C 
ATOM     65  C   UNL A   1      42.881  34.173  30.435  1.00  0.00     0.034 A 
BRANCH  52  66
ATOM     66  C   UNL A   1      46.335  29.492  28.314  1.00  0.00     0.023 A 
ATOM     67  C   UNL A   1      47.104  28.894  29.328  1.00  0.00     0.031 A 
ATOM     68  C   UNL A   1      46.897  29.581  27.027  1.00  0.00     0.131 A 
ATOM     69  C   UNL A   1      48.412  28.466  29.051  1.00  0.00     0.055 A 
ATOM     70  C   UNL A   1      48.166  29.078  26.739  1.00  0.00     0.041 A 
ATOM     71  F   UNL A   1      46.221  30.166  26.026  1.00  0.00    -0.206 F 
ATOM     72  C   UNL A   1      48.937  28.527  27.759  1.00  0.00     0.022 A 
BRANCH  69  73
ATOM     73  S   UNL A   1      49.469  27.958  30.434  1.00  0.00     0.124 S 
ATOM     74  O   UNL A   1      48.481  27.674  31.473  1.00  0.00    -0.237 OA
ATOM     75  O   UNL A   1      50.173  26.804  29.888  1.00  0.00    -0.237 OA
ATOM     76  O   UNL A   1      50.298  29.136  30.681  1.00  0.00    -0.744 OA
ENDBRANCH  69  73
ENDBRANCH  52  66
BRANCH  53  77
ATOM     77  C   UNL A   1      37.028  32.603  30.235  1.00  0.00     0.023 A 
ATOM     78  C   UNL A   1      36.224  33.238  29.273  1.00  0.00     0.031 A 
ATOM     79  C   UNL A   1      36.538  32.533  31.552  1.00  0.00     0.131 A 
ATOM     80  C   UNL A   1      35.007  33.830  29.653  1.00  0.00     0.055 A 
ATOM     81  C   UNL A   1      35.296  33.061  31.910  1.00  0.00     0.041 A 
ATOM     82  F   UNL A   1      37.269  31.954  32.519  1.00  0.00    -0.206 F 
ATOM     83  C   UNL A   1      34.530  33.730  30.961  1.00  0.00     0.022 A 
BRANCH  80  84
ATOM     84  S   UNL A   1      34.116  34.844  28.440  1.00  0.00     0.124 S 
ATOM     85  O   UNL A   1      34.279  36.182  28.998  1.00  0.00    -0.237 OA
ATOM     86  O   UNL A   1      34.852  34.566  27.213  1.00  0.00    -0.237 OA
ATOM     87  O   UNL A   1      32.755  34.311  28.484  1.00  0.00    -0.744 OA
ENDBRANCH  80  84
ENDBRANCH  53  77
BRANCH  65  88
ATOM     88  C   UNL A   1      43.324  35.543  30.901  1.00  0.00     0.023 A 
ATOM     89  C   UNL A   1      43.368  36.651  30.035  1.00  0.00     0.031 A 
ATOM     90  C   UNL A   1      43.711  35.741  32.239  1.00  0.00     0.131 A 
ATOM     91  C   UNL A   1      43.843  37.887  30.503  1.00  0.00     0.055 A 
ATOM     92  C   UNL A   1      44.115  36.989  32.715  1.00  0.00     0.041 A 
ATOM     93  F   UNL A   1      43.694  34.722  33.113  1.00  0.00    -0.206 F 
ATOM     94  C   UNL A   1      44.197  38.069  31.842  1.00  0.00     0.022 A 
BRANCH  91  95
ATOM     95  S   UNL A   1      44.091  39.235  29.313  1.00  0.00     0.124 S 
ATOM     96  O   UNL A   1      45.466  39.636  29.591  1.00  0.00    -0.237 OA
ATOM     97  O   UNL A   1      43.869  38.568  28.034  1.00  0.00    -0.237 OA
ATOM     98  O   UNL A   1      43.071  40.214  29.685  1.00  0.00    -0.744 OA
ENDBRANCH  91  95
ENDBRANCH  65  88
ENDBRANCH  39  40
ENDBRANCH  32  34
ENDBRANCH  31  32
ENDBRANCH  30  31
ENDBRANCH  29  30
ENDBRANCH  28  29
ENDBRANCH  27  28
ENDBRANCH   1  27
TORSDOF 25
ENDMDL
MODEL 2
REMARK VINA RESULT:      -8.8      1.834      2.093
REMARK SMILES CCc1ccsc1CNS(=O)(=O)N1CCC(C(=O)OCCOCCOCCOC(=O)c2ccc(-c3c4nc(c(-c5cc(S(=O)(=O)[O-])ccc5F)c5ccc([nH]5)c(-c5cc(S(=O)(=O)[O-])ccc5F)c5nc(c(-c6cc(S(=O)(=O)[O-])ccc6F)c6ccc3[nH]6)C=C5)C=C4)cc2)CC1
REMARK SMILES IDX 23 1 22 2 21 3 20 4 19 5 17 6 18 7 16 8 13 9 14 10 95 11
REMARK SMILES IDX 15 12 94 13 10 14 11 15 12 16 9 17 8 19 7 20 3 21 4 22 5 23
REMARK SMILES IDX 6 24 2 25 1 26 24 27 25 28 26 29 27 30 28 31 29 32 30 33
REMARK SMILES IDX 31 34 32 35 93 36 33 37 92 38 34 39 35 40 36 41 86 42 37 43
REMARK SMILES IDX 91 44 85 45 87 46 38 47 90 48 84 49 83 50 39 52 71 53 51 54
REMARK SMILES IDX 70 55 52 56 55 57 69 58 88 59 53 60 54 61 68 63 89 64 56 65
REMARK SMILES IDX 40 66 41 67 49 68 42 69 48 70 50 71 47 72 43 73 44 74 45 75
REMARK SMILES IDX 46 76 72 77 73 78 81 79 74 80 80 81 82 82 79 83 75 84 76 85
REMARK SMILES IDX 77 86 78 87 57 88 58 89 66 90 59 91 65 92 67 93 64 94 60 95
REMARK SMILES IDX 61 96 62 97 63 98
REMARK H PARENT 9 18 87 51 55 62
REMARK Flexibility Score: inf
ROOT
ATOM      1  C   UNL A   1      33.228  21.229  25.725  1.00  0.00     0.188 C 
ENDROOT
BRANCH   1   2
ATOM      2  O   UNL A   1      32.851  20.924  24.387  1.00  0.00    -0.376 OA
BRANCH   2   3
ATOM      3  C   UNL A   1      32.136  21.929  23.673  1.00  0.00     0.202 C 
BRANCH   3   4
ATOM      4  C   UNL A   1      32.897  22.669  22.561  1.00  0.00     0.261 C 
BRANCH   4   5
ATOM      5  O   UNL A   1      33.025  24.098  22.741  1.00  0.00    -0.463 OA
BRANCH   5   6
ATOM      6  C   UNL A   1      34.107  24.493  23.463  1.00  0.00     0.309 C 
ATOM      7  O   UNL A   1      35.091  23.790  23.670  1.00  0.00    -0.252 OA
BRANCH   6   8
ATOM      8  C   UNL A   1      34.047  25.923  23.979  1.00  0.00     0.102 C 
ATOM      9  N   UNL A   1      32.810  28.177  25.338  1.00  0.00    -0.189 NA
ATOM     10  C   UNL A   1      33.235  28.318  23.921  1.00  0.00     0.104 C 
ATOM     11  C   UNL A   1      33.649  27.212  26.094  1.00  0.00     0.104 C 
ATOM     12  C   UNL A   1      33.202  26.949  23.218  1.00  0.00     0.032 C 
ATOM     13  C   UNL A   1      33.581  25.850  25.433  1.00  0.00     0.032 C 
BRANCH   9  14
ATOM     14  S   UNL A   1      32.564  29.634  26.169  1.00  0.00     0.279 S 
ATOM     15  O   UNL A   1      33.816  30.325  26.333  1.00  0.00    -0.195 OA
ATOM     16  O   UNL A   1      31.658  29.420  27.273  1.00  0.00    -0.195 OA
BRANCH  14  17
ATOM     17  N   UNL A   1      31.709  30.460  24.985  1.00  0.00    -0.197 NA
ATOM     18  H   UNL A   1      31.870  31.461  25.109  1.00  0.00     0.142 HD
BRANCH  17  19
ATOM     19  C   UNL A   1      30.259  30.215  25.026  1.00  0.00     0.146 C 
BRANCH  19  20
ATOM     20  C   UNL A   1      29.667  30.487  23.671  1.00  0.00     0.023 A 
ATOM     21  C   UNL A   1      29.442  29.596  22.627  1.00  0.00    -0.033 A 
ATOM     22  C   UNL A   1      28.819  30.257  21.515  1.00  0.00     0.015 A 
ATOM     23  C   UNL A   1      28.599  31.595  21.745  1.00  0.00     0.065 A 
ATOM     24  S   UNL A   1      29.124  32.071  23.295  1.00  0.00    -0.147 S 
BRANCH  21  25
ATOM     25  C   UNL A   1      29.795  28.131  22.629  1.00  0.00     0.033 C 
ATOM     26  C   UNL A   1      28.853  27.291  23.480  1.00  0.00     0.009 C 
ENDBRANCH  21  25
ENDBRANCH  19  20
ENDBRANCH  17  19
ENDBRANCH  14  17
ENDBRANCH   9  14
ENDBRANCH   6   8
ENDBRANCH   5   6
ENDBRANCH   4   5
ENDBRANCH   3   4
ENDBRANCH   2   3
ENDBRANCH   1   2
BRANCH   1  27
ATOM     27  C   UNL A   1      34.729  21.301  25.994  1.00  0.00     0.188 C 
BRANCH  27  28
ATOM     28  O   UNL A   1      35.531  20.342  25.327  1.00  0.00    -0.376 OA
BRANCH  28  29
ATOM     29  C   UNL A   1      36.644  20.831  24.575  1.00  0.00     0.202 C 
BRANCH  29  30
ATOM     30  C   UNL A   1      38.040  20.912  25.246  1.00  0.00     0.261 C 
BRANCH  30  31
ATOM     31  O   UNL A   1      38.282  21.980  26.192  1.00  0.00    -0.460 OA
BRANCH  31  32
ATOM     32  C   UNL A   1      39.558  22.205  26.590  1.00  0.00     0.338 C 
ATOM     33  O   UNL A   1      40.501  21.458  26.397  1.00  0.00    -0.246 OA
BRANCH  32  34
ATOM     34  C   UNL A   1      39.691  23.633  27.026  1.00  0.00     0.060 A 
ATOM     35  C   UNL A   1      39.812  24.615  26.029  1.00  0.00     0.016 A 
ATOM     36  C   UNL A   1      39.623  24.031  28.365  1.00  0.00     0.016 A 
ATOM     37  C   UNL A   1      39.907  25.973  26.361  1.00  0.00     0.010 A 
ATOM     38  C   UNL A   1      39.744  25.392  28.699  1.00  0.00     0.010 A 
ATOM     39  C   UNL A   1      39.921  26.373  27.702  1.00  0.00    -0.014 A 
BRANCH  39  40
ATOM     40  C   UNL A   1      40.338  27.760  28.067  1.00  0.00     0.031 A 
ATOM     41  C   UNL A   1      41.801  28.115  27.945  1.00  0.00     0.074 A 
ATOM     42  C   UNL A   1      39.462  28.705  28.464  1.00  0.00     0.049 A 
ATOM     43  N   UNL A   1      42.424  29.222  28.260  1.00  0.00    -0.248 NA
ATOM     44  C   UNL A   1      42.677  27.070  27.392  1.00  0.00     0.031 C 
ATOM     45  C   UNL A   1      38.015  28.534  28.559  1.00  0.00     0.029 A 
ATOM     46  N   UNL A   1      39.671  30.006  28.867  1.00  0.00    -0.354 N 
ATOM     47  C   UNL A   1      43.766  29.001  27.964  1.00  0.00     0.074 A 
ATOM     48  C   UNL A   1      43.868  27.645  27.467  1.00  0.00     0.031 C 
ATOM     49  C   UNL A   1      37.466  29.682  29.000  1.00  0.00     0.029 A 
ATOM     50  C   UNL A   1      38.524  30.658  29.265  1.00  0.00     0.049 A 
ATOM     51  H   UNL A   1      40.558  30.431  28.871  1.00  0.00     0.167 HD
ATOM     52  C   UNL A   1      44.819  29.846  28.091  1.00  0.00     0.034 A 
ATOM     53  C   UNL A   1      38.350  31.885  29.807  1.00  0.00     0.034 A 
ATOM     54  C   UNL A   1      44.713  31.197  28.586  1.00  0.00     0.049 A 
ATOM     55  C   UNL A   1      39.557  32.772  30.042  1.00  0.00     0.074 A 
ATOM     56  C   UNL A   1      45.718  32.140  28.724  1.00  0.00     0.029 A 
ATOM     57  N   UNL A   1      43.546  31.795  29.041  1.00  0.00    -0.354 N 
ATOM     58  N   UNL A   1      40.819  32.552  29.750  1.00  0.00    -0.248 NA
ATOM     59  C   UNL A   1      39.314  34.075  30.680  1.00  0.00     0.031 C 
ATOM     60  C   UNL A   1      45.178  33.270  29.348  1.00  0.00     0.029 A 
ATOM     61  C   UNL A   1      43.817  33.074  29.505  1.00  0.00     0.049 A 
ATOM     62  H   UNL A   1      42.657  31.373  29.036  1.00  0.00     0.167 HD
ATOM     63  C   UNL A   1      41.505  33.707  30.126  1.00  0.00     0.074 A 
ATOM     64  C   UNL A   1      40.519  34.622  30.656  1.00  0.00     0.031 C 
ATOM     65  C   UNL A   1      42.831  33.987  30.034  1.00  0.00     0.034 A 
BRANCH  52  66
ATOM     66  C   UNL A   1      46.191  29.312  27.755  1.00  0.00     0.023 A 
ATOM     67  C   UNL A   1      46.482  28.724  26.512  1.00  0.00     0.031 A 
ATOM     68  C   UNL A   1      47.225  29.389  28.707  1.00  0.00     0.131 A 
ATOM     69  C   UNL A   1      47.757  28.183  26.277  1.00  0.00     0.055 A 
ATOM     70  C   UNL A   1      48.512  28.924  28.436  1.00  0.00     0.041 A 
ATOM     71  F   UNL A   1      46.999  29.915  29.921  1.00  0.00    -0.206 F 
ATOM     72  C   UNL A   1      48.780  28.305  27.219  1.00  0.00     0.022 A 
BRANCH  69  73
ATOM     73  S   UNL A   1      48.016  27.192  24.781  1.00  0.00     0.124 S 
ATOM     74  O   UNL A   1      48.355  28.221  23.800  1.00  0.00    -0.237 OA
ATOM     75  O   UNL A   1      49.101  26.302  25.175  1.00  0.00    -0.237 OA
ATOM     76  O   UNL A   1      46.722  26.545  24.571  1.00  0.00    -0.744 OA
ENDBRANCH  69  73
ENDBRANCH  52  66
BRANCH  53  77
ATOM     77  C   UNL A   1      36.993  32.359  30.226  1.00  0.00     0.023 A 
ATOM     78  C   UNL A   1      36.142  33.017  29.321  1.00  0.00     0.031 A 
ATOM     79  C   UNL A   1      36.571  32.258  31.563  1.00  0.00     0.131 A 
ATOM     80  C   UNL A   1      34.947  33.599  29.776  1.00  0.00     0.055 A 
ATOM     81  C   UNL A   1      35.350  32.778  31.997  1.00  0.00     0.041 A 
ATOM     82  F   UNL A   1      37.350  31.658  32.478  1.00  0.00    -0.206 F 
ATOM     83  C   UNL A   1      34.536  33.469  31.104  1.00  0.00     0.022 A 
BRANCH  80  84
ATOM     84  S   UNL A   1      33.996  34.641  28.634  1.00  0.00     0.124 S 
ATOM     85  O   UNL A   1      34.339  35.980  29.101  1.00  0.00    -0.237 OA
ATOM     86  O   UNL A   1      34.544  34.252  27.340  1.00  0.00    -0.237 OA
ATOM     87  O   UNL A   1      32.612  34.233  28.872  1.00  0.00    -0.744 OA
ENDBRANCH  80  84
ENDBRANCH  53  77
BRANCH  65  88
ATOM     88  C   UNL A   1      43.288  35.368  30.453  1.00  0.00     0.023 A 
ATOM     89  C   UNL A   1      43.473  35.719  31.802  1.00  0.00     0.031 A 
ATOM     90  C   UNL A   1      43.541  36.352  29.478  1.00  0.00     0.131 A 
ATOM     91  C   UNL A   1      43.840  37.031  32.140  1.00  0.00     0.055 A 
ATOM     92  C   UNL A   1      43.975  37.634  29.818  1.00  0.00     0.041 A 
ATOM     93  F   UNL A   1      43.379  36.079  28.174  1.00  0.00    -0.206 F 
ATOM     94  C   UNL A   1      44.113  37.985  31.157  1.00  0.00     0.022 A 
BRANCH  91  95
ATOM     95  S   UNL A   1      43.861  37.510  33.891  1.00  0.00     0.124 S 
ATOM     96  O   UNL A   1      43.084  38.745  33.877  1.00  0.00    -0.237 OA
ATOM     97  O   UNL A   1      43.225  36.365  34.536  1.00  0.00    -0.237 OA
ATOM     98  O   UNL A   1      45.283  37.674  34.186  1.00  0.00    -0.744 OA
ENDBRANCH  91  95
ENDBRANCH  65  88
ENDBRANCH  39  40
ENDBRANCH  32  34
ENDBRANCH  31  32
ENDBRANCH  30  31
ENDBRANCH  29  30
ENDBRANCH  28  29
ENDBRANCH  27  28
ENDBRANCH   1  27
TORSDOF 25
ENDMDL
MODEL 3
REMARK VINA RESULT:      -8.1      4.002      5.149
REMARK SMILES CCc1ccsc1CNS(=O)(=O)N1CCC(C(=O)OCCOCCOCCOC(=O)c2ccc(-c3c4nc(c(-c5cc(S(=O)(=O)[O-])ccc5F)c5ccc([nH]5)c(-c5cc(S(=O)(=O)[O-])ccc5F)c5nc(c(-c6cc(S(=O)(=O)[O-])ccc6F)c6ccc3[nH]6)C=C5)C=C4)cc2)CC1
REMARK SMILES IDX 23 1 22 2 21 3 20 4 19 5 17 6 18 7 16 8 13 9 14 10 95 11
REMARK SMILES IDX 15 12 94 13 10 14 11 15 12 16 9 17 8 19 7 20 3 21 4 22 5 23
REMARK SMILES IDX 6 24 2 25 1 26 24 27 25 28 26 29 27 30 28 31 29 32 30 33
REMARK SMILES IDX 31 34 32 35 93 36 33 37 92 38 34 39 35 40 36 41 86 42 37 43
REMARK SMILES IDX 91 44 85 45 87 46 38 47 90 48 84 49 83 50 39 52 71 53 51 54
REMARK SMILES IDX 70 55 52 56 55 57 69 58 88 59 53 60 54 61 68 63 89 64 56 65
REMARK SMILES IDX 40 66 41 67 49 68 42 69 48 70 50 71 47 72 43 73 44 74 45 75
REMARK SMILES IDX 46 76 72 77 73 78 81 79 74 80 80 81 82 82 79 83 75 84 76 85
REMARK SMILES IDX 77 86 78 87 57 88 58 89 66 90 59 91 65 92 67 93 64 94 60 95
REMARK SMILES IDX 61 96 62 97 63 98
REMARK H PARENT 9 18 87 51 55 62
REMARK Flexibility Score: inf
ROOT
ATOM      1  C   UNL A   1      34.613  22.015  25.657  1.00  0.00     0.188 C 
ENDROOT
BRANCH   1   2
ATOM      2  O   UNL A   1      33.437  21.375  26.139  1.00  0.00    -0.376 OA
BRANCH   2   3
ATOM      3  C   UNL A   1      32.372  21.198  25.208  1.00  0.00     0.202 C 
BRANCH   3   4
ATOM      4  C   UNL A   1      32.758  20.805  23.773  1.00  0.00     0.261 C 
BRANCH   4   5
ATOM      5  O   UNL A   1      32.186  21.626  22.729  1.00  0.00    -0.463 OA
BRANCH   5   6
ATOM      6  C   UNL A   1      32.697  22.881  22.638  1.00  0.00     0.309 C 
ATOM      7  O   UNL A   1      33.896  23.133  22.554  1.00  0.00    -0.252 OA
BRANCH   6   8
ATOM      8  C   UNL A   1      31.661  23.995  22.599  1.00  0.00     0.102 C 
ATOM      9  N   UNL A   1      30.693  26.700  23.048  1.00  0.00    -0.189 NA
ATOM     10  C   UNL A   1      29.972  25.552  23.657  1.00  0.00     0.104 C 
ATOM     11  C   UNL A   1      31.361  26.344  21.770  1.00  0.00     0.104 C 
ATOM     12  C   UNL A   1      30.942  24.381  23.894  1.00  0.00     0.032 C 
ATOM     13  C   UNL A   1      32.354  25.223  22.010  1.00  0.00     0.032 C 
BRANCH   9  14
ATOM     14  S   UNL A   1      29.809  28.143  22.953  1.00  0.00     0.279 S 
ATOM     15  O   UNL A   1      28.454  27.920  23.383  1.00  0.00    -0.195 OA
ATOM     16  O   UNL A   1      30.118  28.825  21.718  1.00  0.00    -0.195 OA
BRANCH  14  17
ATOM     17  N   UNL A   1      30.572  28.990  24.185  1.00  0.00    -0.197 NA
ATOM     18  H   UNL A   1      30.084  29.876  24.318  1.00  0.00     0.142 HD
BRANCH  17  19
ATOM     19  C   UNL A   1      31.989  29.276  23.913  1.00  0.00     0.146 C 
BRANCH  19  20
ATOM     20  C   UNL A   1      32.780  29.137  25.184  1.00  0.00     0.023 A 
ATOM     21  C   UNL A   1      33.651  28.118  25.558  1.00  0.00    -0.033 A 
ATOM     22  C   UNL A   1      34.235  28.390  26.841  1.00  0.00     0.015 A 
ATOM     23  C   UNL A   1      33.798  29.575  27.386  1.00  0.00     0.065 A 
ATOM     24  S   UNL A   1      32.695  30.379  26.366  1.00  0.00    -0.147 S 
BRANCH  21  25
ATOM     25  C   UNL A   1      33.957  26.883  24.752  1.00  0.00     0.033 C 
ATOM     26  C   UNL A   1      33.999  25.615  25.593  1.00  0.00     0.009 C 
ENDBRANCH  21  25
ENDBRANCH  19  20
ENDBRANCH  17  19
ENDBRANCH  14  17
ENDBRANCH   9  14
ENDBRANCH   6   8
ENDBRANCH   5   6
ENDBRANCH   4   5
ENDBRANCH   3   4
ENDBRANCH   2   3
ENDBRANCH   1   2
BRANCH   1  27
ATOM     27  C   UNL A   1      35.937  21.394  26.098  1.00  0.00     0.188 C 
BRANCH  27  28
ATOM     28  O   UNL A   1      36.863  21.094  25.069  1.00  0.00    -0.376 OA
BRANCH  28  29
ATOM     29  C   UNL A   1      38.136  20.581  25.466  1.00  0.00     0.202 C 
BRANCH  29  30
ATOM     30  C   UNL A   1      39.303  21.566  25.739  1.00  0.00     0.261 C 
BRANCH  30  31
ATOM     31  O   UNL A   1      39.136  22.547  26.789  1.00  0.00    -0.460 OA
BRANCH  31  32
ATOM     32  C   UNL A   1      38.755  23.800  26.438  1.00  0.00     0.338 C 
ATOM     33  O   UNL A   1      37.741  24.085  25.825  1.00  0.00    -0.246 OA
BRANCH  32  34
ATOM     34  C   UNL A   1      39.600  24.794  27.177  1.00  0.00     0.060 A 
ATOM     35  C   UNL A   1      39.303  26.157  27.016  1.00  0.00     0.016 A 
ATOM     36  C   UNL A   1      40.611  24.421  28.069  1.00  0.00     0.016 A 
ATOM     37  C   UNL A   1      40.029  27.140  27.701  1.00  0.00     0.010 A 
ATOM     38  C   UNL A   1      41.357  25.409  28.736  1.00  0.00     0.010 A 
ATOM     39  C   UNL A   1      41.096  26.779  28.533  1.00  0.00    -0.014 A 
BRANCH  39  40
ATOM     40  C   UNL A   1      42.062  27.815  29.005  1.00  0.00     0.031 A 
ATOM     41  C   UNL A   1      43.482  27.744  28.495  1.00  0.00     0.074 A 
ATOM     42  C   UNL A   1      41.710  28.818  29.833  1.00  0.00     0.049 A 
ATOM     43  N   UNL A   1      44.521  28.478  28.803  1.00  0.00    -0.248 NA
ATOM     44  C   UNL A   1      43.762  26.694  27.503  1.00  0.00     0.031 C 
ATOM     45  C   UNL A   1      40.364  29.060  30.349  1.00  0.00     0.029 A 
ATOM     46  N   UNL A   1      42.466  29.827  30.391  1.00  0.00    -0.354 N 
ATOM     47  C   UNL A   1      45.582  27.968  28.059  1.00  0.00     0.074 A 
ATOM     48  C   UNL A   1      45.063  26.847  27.305  1.00  0.00     0.031 C 
ATOM     49  C   UNL A   1      40.392  30.141  31.153  1.00  0.00     0.029 A 
ATOM     50  C   UNL A   1      41.762  30.642  31.251  1.00  0.00     0.049 A 
ATOM     51  H   UNL A   1      43.422  29.952  30.195  1.00  0.00     0.167 HD
ATOM     52  C   UNL A   1      46.868  28.392  28.006  1.00  0.00     0.034 A 
ATOM     53  C   UNL A   1      42.179  31.654  32.045  1.00  0.00     0.034 A 
ATOM     54  C   UNL A   1      47.381  29.511  28.758  1.00  0.00     0.049 A 
ATOM     55  C   UNL A   1      43.646  32.040  32.050  1.00  0.00     0.074 A 
ATOM     56  C   UNL A   1      48.663  30.035  28.748  1.00  0.00     0.029 A 
ATOM     57  N   UNL A   1      46.653  30.267  29.666  1.00  0.00    -0.354 N 
ATOM     58  N   UNL A   1      44.635  31.553  31.336  1.00  0.00    -0.248 NA
ATOM     59  C   UNL A   1      44.050  33.115  32.970  1.00  0.00     0.031 C 
ATOM     60  C   UNL A   1      48.733  31.043  29.716  1.00  0.00     0.029 A 
ATOM     61  C   UNL A   1      47.471  31.219  30.257  1.00  0.00     0.049 A 
ATOM     62  H   UNL A   1      45.696  30.145  29.863  1.00  0.00     0.167 HD
ATOM     63  C   UNL A   1      45.763  32.295  31.690  1.00  0.00     0.074 A 
ATOM     64  C   UNL A   1      45.331  33.266  32.670  1.00  0.00     0.031 C 
ATOM     65  C   UNL A   1      47.039  32.188  31.237  1.00  0.00     0.034 A 
BRANCH  52  66
ATOM     66  C   UNL A   1      47.832  27.599  27.155  1.00  0.00     0.023 A 
ATOM     67  C   UNL A   1      47.977  27.827  25.776  1.00  0.00     0.031 A 
ATOM     68  C   UNL A   1      48.617  26.590  27.742  1.00  0.00     0.131 A 
ATOM     69  C   UNL A   1      48.838  27.015  25.021  1.00  0.00     0.055 A 
ATOM     70  C   UNL A   1      49.533  25.843  27.001  1.00  0.00     0.041 A 
ATOM     71  F   UNL A   1      48.503  26.308  29.050  1.00  0.00    -0.206 F 
ATOM     72  C   UNL A   1      49.638  26.045  25.628  1.00  0.00     0.022 A 
BRANCH  69  73
ATOM     73  S   UNL A   1      48.794  27.150  23.213  1.00  0.00     0.124 S 
ATOM     74  O   UNL A   1      47.848  28.247  23.021  1.00  0.00    -0.237 OA
ATOM     75  O   UNL A   1      50.184  27.438  22.882  1.00  0.00    -0.237 OA
ATOM     76  O   UNL A   1      48.308  25.839  22.784  1.00  0.00    -0.744 OA
ENDBRANCH  69  73
ENDBRANCH  52  66
BRANCH  53  77
ATOM     77  C   UNL A   1      41.226  32.365  32.956  1.00  0.00     0.023 A 
ATOM     78  C   UNL A   1      40.759  31.759  34.135  1.00  0.00     0.031 A 
ATOM     79  C   UNL A   1      40.686  33.615  32.606  1.00  0.00     0.131 A 
ATOM     80  C   UNL A   1      39.742  32.373  34.886  1.00  0.00     0.055 A 
ATOM     81  C   UNL A   1      39.725  34.254  33.392  1.00  0.00     0.041 A 
ATOM     82  F   UNL A   1      41.079  34.235  31.481  1.00  0.00    -0.206 F 
ATOM     83  C   UNL A   1      39.235  33.624  34.532  1.00  0.00     0.022 A 
BRANCH  80  84
ATOM     84  S   UNL A   1      39.000  31.452  36.262  1.00  0.00     0.124 S 
ATOM     85  O   UNL A   1      37.579  31.719  36.063  1.00  0.00    -0.237 OA
ATOM     86  O   UNL A   1      39.442  30.090  35.990  1.00  0.00    -0.237 OA
ATOM     87  O   UNL A   1      39.592  32.073  37.446  1.00  0.00    -0.744 OA
ENDBRANCH  80  84
ENDBRANCH  53  77
BRANCH  65  88
ATOM     88  C   UNL A   1      48.052  33.190  31.746  1.00  0.00     0.023 A 
ATOM     89  C   UNL A   1      48.849  32.942  32.877  1.00  0.00     0.031 A 
ATOM     90  C   UNL A   1      48.218  34.421  31.083  1.00  0.00     0.131 A 
ATOM     91  C   UNL A   1      49.731  33.930  33.344  1.00  0.00     0.055 A 
ATOM     92  C   UNL A   1      49.148  35.370  31.510  1.00  0.00     0.041 A 
ATOM     93  F   UNL A   1      47.485  34.718  29.999  1.00  0.00    -0.206 F 
ATOM     94  C   UNL A   1      49.901  35.134  32.656  1.00  0.00     0.022 A 
BRANCH  91  95
ATOM     95  S   UNL A   1      50.584  33.666  34.924  1.00  0.00     0.124 S 
ATOM     96  O   UNL A   1      50.699  35.027  35.438  1.00  0.00    -0.237 OA
ATOM     97  O   UNL A   1      49.657  32.793  35.638  1.00  0.00    -0.237 OA
ATOM     98  O   UNL A   1      51.846  33.040  34.533  1.00  0.00    -0.744 OA
ENDBRANCH  91  95
ENDBRANCH  65  88
ENDBRANCH  39  40
ENDBRANCH  32  34
ENDBRANCH  31  32
ENDBRANCH  30  31
ENDBRANCH  29  30
ENDBRANCH  28  29
ENDBRANCH  27  28
ENDBRANCH   1  27
TORSDOF 25
ENDMDL
