MODEL 1
REMARK VINA RESULT:      -7.7      0.000      0.000
REMARK SMILES Cc1cc2c(c(C)c1Cl)C=C(C(=O)OCCOCCOCCOC(=O)c1ccc(-c3c4nc(c(-c5cc(S(=O)(=O)[O-])ccc5F)c5ccc([nH]5)c(-c5cc(S(=O)(=O)[O-])ccc5F)c5nc(c(-c6cc(S(=O)(=O)[O-])ccc6F)c6ccc3[nH]6)C=C5)C=C4)cc1)[C@H](C(F)(F)F)O2
REMARK SMILES IDX 19 1 18 2 17 3 16 4 15 5 14 6 12 7 13 8 11 9 1 10 2 11 3 12
REMARK SMILES IDX 8 13 4 14 6 15 9 16 5 17 94 18 7 19 10 20 89 21 90 22 91 23
REMARK SMILES IDX 92 24 93 25 20 26 21 27 22 28 23 29 24 30 25 31 26 32 27 33
REMARK SMILES IDX 88 34 28 35 87 36 29 37 30 38 31 39 81 40 32 41 86 42 80 43
REMARK SMILES IDX 82 44 33 45 85 46 79 47 78 48 34 50 66 51 46 52 65 53 47 54
REMARK SMILES IDX 50 55 64 56 83 57 48 58 49 59 63 61 84 62 51 63 35 64 36 65
REMARK SMILES IDX 44 66 37 67 43 68 45 69 42 70 38 71 39 72 40 73 41 74 67 75
REMARK SMILES IDX 68 76 76 77 69 78 75 79 77 80 74 81 70 82 71 83 72 84 73 85
REMARK SMILES IDX 52 86 53 87 61 88 54 89 60 90 62 91 59 92 55 93 56 94 57 95
REMARK SMILES IDX 58 96
REMARK H PARENT 82 49 50 60
REMARK Flexibility Score: inf
ROOT
ATOM      1  C   UNL A   1      34.625  33.613  31.341  1.00  0.00     0.188 C 
ENDROOT
BRANCH   1   2
ATOM      2  C   UNL A   1      35.632  32.449  31.392  1.00  0.00     0.188 C 
BRANCH   2   3
ATOM      3  O   UNL A   1      35.996  31.863  30.164  1.00  0.00    -0.376 OA
BRANCH   3   4
ATOM      4  C   UNL A   1      36.992  30.859  30.102  1.00  0.00     0.202 C 
BRANCH   4   5
ATOM      5  C   UNL A   1      36.776  29.354  30.356  1.00  0.00     0.261 C 
BRANCH   5   6
ATOM      6  O   UNL A   1      37.627  28.439  29.662  1.00  0.00    -0.460 OA
BRANCH   6   7
ATOM      7  C   UNL A   1      38.591  27.855  30.408  1.00  0.00     0.338 C 
ATOM      8  O   UNL A   1      38.504  27.547  31.586  1.00  0.00    -0.246 OA
BRANCH   7   9
ATOM      9  C   UNL A   1      39.760  27.519  29.576  1.00  0.00     0.087 C 
ATOM     10  C   UNL A   1      44.773  24.319  27.001  1.00  0.00     0.046 C 
ATOM     11  C   UNL A   1      43.419  24.831  27.413  1.00  0.00    -0.028 A 
ATOM     12  C   UNL A   1      43.335  26.077  28.043  1.00  0.00     0.052 A 
ATOM     13  C   UNL A   1      42.243  24.073  27.236  1.00  0.00     0.047 A 
ATOM     14  C   UNL A   1      42.117  26.552  28.524  1.00  0.00     0.128 A 
ATOM     15  C   UNL A   1      40.991  24.548  27.695  1.00  0.00    -0.021 A 
ATOM     16  Cl  UNL A   1      42.378  22.516  26.475  1.00  0.00    -0.084 Cl
ATOM     17  C   UNL A   1      40.946  25.800  28.364  1.00  0.00     0.022 A 
ATOM     18  O   UNL A   1      42.193  27.727  29.222  1.00  0.00    -0.475 OA
ATOM     19  C   UNL A   1      39.729  23.729  27.535  1.00  0.00     0.047 C 
ATOM     20  C   UNL A   1      39.734  26.302  29.012  1.00  0.00     0.027 C 
ATOM     21  C   UNL A   1      40.961  28.419  29.556  1.00  0.00     0.316 C 
BRANCH  21  22
ATOM     22  C   UNL A   1      40.870  29.684  28.684  1.00  0.00     0.430 C 
ATOM     23  F   UNL A   1      40.075  29.509  27.606  1.00  0.00    -0.167 F 
ATOM     24  F   UNL A   1      40.313  30.707  29.388  1.00  0.00    -0.167 F 
ATOM     25  F   UNL A   1      42.078  30.113  28.261  1.00  0.00    -0.167 F 
ENDBRANCH  21  22
ENDBRANCH   7   9
ENDBRANCH   6   7
ENDBRANCH   5   6
ENDBRANCH   4   5
ENDBRANCH   3   4
ENDBRANCH   2   3
ENDBRANCH   1   2
BRANCH   1  26
ATOM     26  O   UNL A   1      34.532  34.532  32.413  1.00  0.00    -0.376 OA
BRANCH  26  27
ATOM     27  C   UNL A   1      35.589  34.604  33.355  1.00  0.00     0.202 C 
BRANCH  27  28
ATOM     28  C   UNL A   1      35.524  33.909  34.727  1.00  0.00     0.261 C 
BRANCH  28  29
ATOM     29  O   UNL A   1      36.439  32.826  34.934  1.00  0.00    -0.460 OA
BRANCH  29  30
ATOM     30  C   UNL A   1      37.643  33.175  35.456  1.00  0.00     0.338 C 
ATOM     31  O   UNL A   1      37.848  33.841  36.459  1.00  0.00    -0.246 OA
BRANCH  30  32
ATOM     32  C   UNL A   1      38.703  32.454  34.728  1.00  0.00     0.060 A 
ATOM     33  C   UNL A   1      40.020  32.517  35.207  1.00  0.00     0.016 A 
ATOM     34  C   UNL A   1      38.403  31.738  33.569  1.00  0.00     0.016 A 
ATOM     35  C   UNL A   1      41.041  31.852  34.534  1.00  0.00     0.010 A 
ATOM     36  C   UNL A   1      39.437  31.103  32.873  1.00  0.00     0.010 A 
ATOM     37  C   UNL A   1      40.760  31.170  33.344  1.00  0.00    -0.014 A 
BRANCH  37  38
ATOM     38  C   UNL A   1      41.882  30.710  32.494  1.00  0.00     0.031 A 
ATOM     39  C   UNL A   1      42.434  31.666  31.474  1.00  0.00     0.074 A 
ATOM     40  C   UNL A   1      42.435  29.495  32.661  1.00  0.00     0.049 A 
ATOM     41  N   UNL A   1      43.376  31.479  30.588  1.00  0.00    -0.248 NA
ATOM     42  C   UNL A   1      41.847  33.016  31.458  1.00  0.00     0.031 C 
ATOM     43  C   UNL A   1      42.040  28.516  33.672  1.00  0.00     0.029 A 
ATOM     44  N   UNL A   1      43.458  28.882  31.981  1.00  0.00    -0.354 N 
ATOM     45  C   UNL A   1      43.501  32.688  29.915  1.00  0.00     0.074 A 
ATOM     46  C   UNL A   1      42.515  33.589  30.469  1.00  0.00     0.031 C 
ATOM     47  C   UNL A   1      42.815  27.424  33.548  1.00  0.00     0.029 A 
ATOM     48  C   UNL A   1      43.731  27.608  32.421  1.00  0.00     0.049 A 
ATOM     49  H   UNL A   1      43.952  29.314  31.247  1.00  0.00     0.167 HD
ATOM     50  C   UNL A   1      44.369  33.019  28.931  1.00  0.00     0.034 A 
ATOM     51  C   UNL A   1      44.602  26.691  31.953  1.00  0.00     0.034 A 
ATOM     52  C   UNL A   1      45.341  32.112  28.380  1.00  0.00     0.049 A 
ATOM     53  C   UNL A   1      45.468  27.038  30.764  1.00  0.00     0.074 A 
ATOM     54  C   UNL A   1      46.256  32.346  27.369  1.00  0.00     0.029 A 
ATOM     55  N   UNL A   1      45.521  30.798  28.788  1.00  0.00    -0.354 N 
ATOM     56  N   UNL A   1      45.549  28.172  30.106  1.00  0.00    -0.248 NA
ATOM     57  C   UNL A   1      46.353  25.983  30.250  1.00  0.00     0.031 C 
ATOM     58  C   UNL A   1      46.940  31.154  27.118  1.00  0.00     0.029 A 
ATOM     59  C   UNL A   1      46.507  30.199  28.024  1.00  0.00     0.049 A 
ATOM     60  H   UNL A   1      45.022  30.358  29.513  1.00  0.00     0.167 HD
ATOM     61  C   UNL A   1      46.510  27.972  29.119  1.00  0.00     0.074 A 
ATOM     62  C   UNL A   1      46.985  26.612  29.268  1.00  0.00     0.031 C 
ATOM     63  C   UNL A   1      46.963  28.838  28.178  1.00  0.00     0.034 A 
BRANCH  50  64
ATOM     64  C   UNL A   1      44.282  34.410  28.363  1.00  0.00     0.023 A 
ATOM     65  C   UNL A   1      44.740  35.526  29.082  1.00  0.00     0.031 A 
ATOM     66  C   UNL A   1      43.753  34.617  27.078  1.00  0.00     0.131 A 
ATOM     67  C   UNL A   1      44.629  36.807  28.523  1.00  0.00     0.055 A 
ATOM     68  C   UNL A   1      43.701  35.887  26.502  1.00  0.00     0.041 A 
ATOM     69  F   UNL A   1      43.280  33.586  26.361  1.00  0.00    -0.206 F 
ATOM     70  C   UNL A   1      44.136  36.992  27.228  1.00  0.00     0.022 A 
BRANCH  67  71
ATOM     71  S   UNL A   1      45.067  38.241  29.541  1.00  0.00     0.124 S 
ATOM     72  O   UNL A   1      43.859  38.414  30.342  1.00  0.00    -0.237 OA
ATOM     73  O   UNL A   1      46.246  37.771  30.259  1.00  0.00    -0.237 OA
ATOM     74  O   UNL A   1      45.314  39.295  28.559  1.00  0.00    -0.744 OA
ENDBRANCH  67  71
ENDBRANCH  50  64
BRANCH  51  75
ATOM     75  C   UNL A   1      44.681  25.340  32.578  1.00  0.00     0.023 A 
ATOM     76  C   UNL A   1      45.356  25.140  33.792  1.00  0.00     0.031 A 
ATOM     77  C   UNL A   1      44.101  24.220  31.953  1.00  0.00     0.131 A 
ATOM     78  C   UNL A   1      45.455  23.848  34.333  1.00  0.00     0.055 A 
ATOM     79  C   UNL A   1      44.166  22.945  32.516  1.00  0.00     0.041 A 
ATOM     80  F   UNL A   1      43.447  24.356  30.788  1.00  0.00    -0.206 F 
ATOM     81  C   UNL A   1      44.852  22.752  33.711  1.00  0.00     0.022 A 
BRANCH  78  82
ATOM     82  S   UNL A   1      46.420  23.610  35.851  1.00  0.00     0.124 S 
ATOM     83  O   UNL A   1      45.731  24.497  36.781  1.00  0.00    -0.237 OA
ATOM     84  O   UNL A   1      46.263  22.180  36.091  1.00  0.00    -0.237 OA
ATOM     85  O   UNL A   1      47.766  24.029  35.467  1.00  0.00    -0.744 OA
ENDBRANCH  78  82
ENDBRANCH  51  75
BRANCH  63  86
ATOM     86  C   UNL A   1      48.045  28.362  27.242  1.00  0.00     0.023 A 
ATOM     87  C   UNL A   1      47.765  28.022  25.909  1.00  0.00     0.031 A 
ATOM     88  C   UNL A   1      49.385  28.321  27.672  1.00  0.00     0.131 A 
ATOM     89  C   UNL A   1      48.809  27.638  25.054  1.00  0.00     0.055 A 
ATOM     90  C   UNL A   1      50.424  27.986  26.804  1.00  0.00     0.041 A 
ATOM     91  F   UNL A   1      49.706  28.642  28.935  1.00  0.00    -0.206 F 
ATOM     92  C   UNL A   1      50.138  27.637  25.487  1.00  0.00     0.022 A 
BRANCH  89  93
ATOM     93  S   UNL A   1      48.405  27.112  23.366  1.00  0.00     0.124 S 
ATOM     94  O   UNL A   1      47.208  27.896  23.083  1.00  0.00    -0.237 OA
ATOM     95  O   UNL A   1      49.604  27.488  22.624  1.00  0.00    -0.237 OA
ATOM     96  O   UNL A   1      48.188  25.672  23.498  1.00  0.00    -0.744 OA
ENDBRANCH  89  93
ENDBRANCH  63  86
ENDBRANCH  37  38
ENDBRANCH  30  32
ENDBRANCH  29  30
ENDBRANCH  28  29
ENDBRANCH  27  28
ENDBRANCH  26  27
ENDBRANCH   1  26
TORSDOF 21
ENDMDL
MODEL 2
REMARK VINA RESULT:      -7.6      6.023     10.296
REMARK SMILES Cc1cc2c(c(C)c1Cl)C=C(C(=O)OCCOCCOCCOC(=O)c1ccc(-c3c4nc(c(-c5cc(S(=O)(=O)[O-])ccc5F)c5ccc([nH]5)c(-c5cc(S(=O)(=O)[O-])ccc5F)c5nc(c(-c6cc(S(=O)(=O)[O-])ccc6F)c6ccc3[nH]6)C=C5)C=C4)cc1)[C@H](C(F)(F)F)O2
REMARK SMILES IDX 19 1 18 2 17 3 16 4 15 5 14 6 12 7 13 8 11 9 1 10 2 11 3 12
REMARK SMILES IDX 8 13 4 14 6 15 9 16 5 17 94 18 7 19 10 20 89 21 90 22 91 23
REMARK SMILES IDX 92 24 93 25 20 26 21 27 22 28 23 29 24 30 25 31 26 32 27 33
REMARK SMILES IDX 88 34 28 35 87 36 29 37 30 38 31 39 81 40 32 41 86 42 80 43
REMARK SMILES IDX 82 44 33 45 85 46 79 47 78 48 34 50 66 51 46 52 65 53 47 54
REMARK SMILES IDX 50 55 64 56 83 57 48 58 49 59 63 61 84 62 51 63 35 64 36 65
REMARK SMILES IDX 44 66 37 67 43 68 45 69 42 70 38 71 39 72 40 73 41 74 67 75
REMARK SMILES IDX 68 76 76 77 69 78 75 79 77 80 74 81 70 82 71 83 72 84 73 85
REMARK SMILES IDX 52 86 53 87 61 88 54 89 60 90 62 91 59 92 55 93 56 94 57 95
REMARK SMILES IDX 58 96
REMARK H PARENT 82 49 50 60
REMARK Flexibility Score: inf
ROOT
ATOM      1  C   UNL A   1      36.855  33.008  29.500  1.00  0.00     0.188 C 
ENDROOT
BRANCH   1   2
ATOM      2  C   UNL A   1      35.607  33.817  29.901  1.00  0.00     0.188 C 
BRANCH   2   3
ATOM      3  O   UNL A   1      34.584  33.936  28.941  1.00  0.00    -0.376 OA
BRANCH   3   4
ATOM      4  C   UNL A   1      33.858  32.801  28.506  1.00  0.00     0.202 C 
BRANCH   4   5
ATOM      5  C   UNL A   1      34.359  31.731  27.517  1.00  0.00     0.261 C 
BRANCH   5   6
ATOM      6  O   UNL A   1      33.758  30.436  27.586  1.00  0.00    -0.460 OA
BRANCH   6   7
ATOM      7  C   UNL A   1      34.501  29.418  27.097  1.00  0.00     0.338 C 
ATOM      8  O   UNL A   1      35.556  29.010  27.557  1.00  0.00    -0.246 OA
BRANCH   7   9
ATOM      9  C   UNL A   1      33.810  28.763  25.973  1.00  0.00     0.087 C 
ATOM     10  C   UNL A   1      32.678  25.284  20.623  1.00  0.00     0.046 C 
ATOM     11  C   UNL A   1      32.988  25.775  22.012  1.00  0.00    -0.028 A 
ATOM     12  C   UNL A   1      32.712  27.109  22.330  1.00  0.00     0.052 A 
ATOM     13  C   UNL A   1      33.597  24.952  22.981  1.00  0.00     0.047 A 
ATOM     14  C   UNL A   1      33.066  27.633  23.571  1.00  0.00     0.128 A 
ATOM     15  C   UNL A   1      33.942  25.459  24.257  1.00  0.00    -0.021 A 
ATOM     16  Cl  UNL A   1      33.955  23.306  22.552  1.00  0.00    -0.084 Cl
ATOM     17  C   UNL A   1      33.683  26.827  24.536  1.00  0.00     0.022 A 
ATOM     18  O   UNL A   1      32.848  28.978  23.710  1.00  0.00    -0.475 OA
ATOM     19  C   UNL A   1      34.622  24.591  25.294  1.00  0.00     0.047 C 
ATOM     20  C   UNL A   1      34.144  27.481  25.760  1.00  0.00     0.027 C 
ATOM     21  C   UNL A   1      32.960  29.568  25.033  1.00  0.00     0.316 C 
BRANCH  21  22
ATOM     22  C   UNL A   1      31.545  29.936  25.515  1.00  0.00     0.430 C 
ATOM     23  F   UNL A   1      31.422  31.254  25.783  1.00  0.00    -0.167 F 
ATOM     24  F   UNL A   1      30.630  29.671  24.544  1.00  0.00    -0.167 F 
ATOM     25  F   UNL A   1      31.169  29.239  26.609  1.00  0.00    -0.167 F 
ENDBRANCH  21  22
ENDBRANCH   7   9
ENDBRANCH   6   7
ENDBRANCH   5   6
ENDBRANCH   4   5
ENDBRANCH   3   4
ENDBRANCH   2   3
ENDBRANCH   1   2
BRANCH   1  26
ATOM     26  O   UNL A   1      37.275  31.901  30.274  1.00  0.00    -0.376 OA
BRANCH  26  27
ATOM     27  C   UNL A   1      36.457  30.743  30.327  1.00  0.00     0.202 C 
BRANCH  27  28
ATOM     28  C   UNL A   1      36.987  29.376  30.795  1.00  0.00     0.261 C 
BRANCH  28  29
ATOM     29  O   UNL A   1      36.752  29.041  32.168  1.00  0.00    -0.460 OA
BRANCH  29  30
ATOM     30  C   UNL A   1      37.840  28.604  32.854  1.00  0.00     0.338 C 
ATOM     31  O   UNL A   1      38.179  27.445  33.040  1.00  0.00    -0.246 OA
BRANCH  30  32
ATOM     32  C   UNL A   1      38.685  29.764  33.192  1.00  0.00     0.060 A 
ATOM     33  C   UNL A   1      38.068  30.982  33.513  1.00  0.00     0.016 A 
ATOM     34  C   UNL A   1      40.075  29.656  33.171  1.00  0.00     0.016 A 
ATOM     35  C   UNL A   1      38.842  32.095  33.828  1.00  0.00     0.010 A 
ATOM     36  C   UNL A   1      40.851  30.787  33.450  1.00  0.00     0.010 A 
ATOM     37  C   UNL A   1      40.238  32.012  33.764  1.00  0.00    -0.014 A 
BRANCH  37  38
ATOM     38  C   UNL A   1      41.038  33.257  33.823  1.00  0.00     0.031 A 
ATOM     39  C   UNL A   1      41.586  33.806  32.537  1.00  0.00     0.074 A 
ATOM     40  C   UNL A   1      41.226  33.915  34.982  1.00  0.00     0.049 A 
ATOM     41  N   UNL A   1      42.350  34.847  32.339  1.00  0.00    -0.248 NA
ATOM     42  C   UNL A   1      41.215  33.085  31.307  1.00  0.00     0.031 C 
ATOM     43  C   UNL A   1      40.673  33.524  36.277  1.00  0.00     0.029 A 
ATOM     44  N   UNL A   1      41.934  35.060  35.250  1.00  0.00    -0.354 N 
ATOM     45  C   UNL A   1      42.545  34.913  30.965  1.00  0.00     0.074 A 
ATOM     46  C   UNL A   1      41.851  33.786  30.381  1.00  0.00     0.031 C 
ATOM     47  C   UNL A   1      41.062  34.417  37.204  1.00  0.00     0.029 A 
ATOM     48  C   UNL A   1      41.926  35.419  36.578  1.00  0.00     0.049 A 
ATOM     49  H   UNL A   1      42.404  35.577  34.557  1.00  0.00     0.167 HD
ATOM     50  C   UNL A   1      43.232  35.837  30.254  1.00  0.00     0.034 A 
ATOM     51  C   UNL A   1      42.561  36.424  37.214  1.00  0.00     0.034 A 
ATOM     52  C   UNL A   1      43.927  36.949  30.845  1.00  0.00     0.049 A 
ATOM     53  C   UNL A   1      43.434  37.365  36.416  1.00  0.00     0.074 A 
ATOM     54  C   UNL A   1      44.667  37.932  30.213  1.00  0.00     0.029 A 
ATOM     55  N   UNL A   1      43.975  37.224  32.204  1.00  0.00    -0.354 N 
ATOM     56  N   UNL A   1      43.646  37.393  35.120  1.00  0.00    -0.248 NA
ATOM     57  C   UNL A   1      44.157  38.403  37.164  1.00  0.00     0.031 C 
ATOM     58  C   UNL A   1      45.219  38.760  31.194  1.00  0.00     0.029 A 
ATOM     59  C   UNL A   1      44.761  38.340  32.432  1.00  0.00     0.049 A 
ATOM     60  H   UNL A   1      43.517  36.703  32.902  1.00  0.00     0.167 HD
ATOM     61  C   UNL A   1      44.506  38.465  34.897  1.00  0.00     0.074 A 
ATOM     62  C   UNL A   1      44.771  39.062  36.190  1.00  0.00     0.031 C 
ATOM     63  C   UNL A   1      45.025  38.918  33.728  1.00  0.00     0.034 A 
BRANCH  50  64
ATOM     64  C   UNL A   1      43.295  35.662  28.760  1.00  0.00     0.023 A 
ATOM     65  C   UNL A   1      44.155  34.723  28.169  1.00  0.00     0.031 A 
ATOM     66  C   UNL A   1      42.470  36.430  27.922  1.00  0.00     0.131 A 
ATOM     67  C   UNL A   1      44.195  34.599  26.772  1.00  0.00     0.055 A 
ATOM     68  C   UNL A   1      42.469  36.259  26.538  1.00  0.00     0.041 A 
ATOM     69  F   UNL A   1      41.648  37.358  28.438  1.00  0.00    -0.206 F 
ATOM     70  C   UNL A   1      43.340  35.342  25.955  1.00  0.00     0.022 A 
BRANCH  67  71
ATOM     71  S   UNL A   1      45.436  33.505  26.032  1.00  0.00     0.124 S 
ATOM     72  O   UNL A   1      46.296  34.461  25.340  1.00  0.00    -0.237 OA
ATOM     73  O   UNL A   1      46.018  32.850  27.198  1.00  0.00    -0.237 OA
ATOM     74  O   UNL A   1      44.649  32.637  25.158  1.00  0.00    -0.744 OA
ENDBRANCH  67  71
ENDBRANCH  50  64
BRANCH  51  75
ATOM     75  C   UNL A   1      42.433  36.580  38.691  1.00  0.00     0.023 A 
ATOM     76  C   UNL A   1      41.490  37.458  39.248  1.00  0.00     0.031 A 
ATOM     77  C   UNL A   1      43.273  35.869  39.568  1.00  0.00     0.131 A 
ATOM     78  C   UNL A   1      41.424  37.621  40.642  1.00  0.00     0.055 A 
ATOM     79  C   UNL A   1      43.175  36.003  40.954  1.00  0.00     0.041 A 
ATOM     80  F   UNL A   1      44.195  35.021  39.086  1.00  0.00    -0.206 F 
ATOM     81  C   UNL A   1      42.250  36.888  41.498  1.00  0.00     0.022 A 
BRANCH  78  82
ATOM     82  S   UNL A   1      40.263  38.836  41.324  1.00  0.00     0.124 S 
ATOM     83  O   UNL A   1      40.449  38.650  42.758  1.00  0.00    -0.237 OA
ATOM     84  O   UNL A   1      40.768  40.086  40.766  1.00  0.00    -0.237 OA
ATOM     85  O   UNL A   1      38.970  38.402  40.800  1.00  0.00    -0.744 OA
ENDBRANCH  78  82
ENDBRANCH  51  75
BRANCH  63  86
ATOM     86  C   UNL A   1      45.915  40.134  33.775  1.00  0.00     0.023 A 
ATOM     87  C   UNL A   1      45.389  41.421  33.967  1.00  0.00     0.031 A 
ATOM     88  C   UNL A   1      47.313  39.990  33.704  1.00  0.00     0.131 A 
ATOM     89  C   UNL A   1      46.255  42.521  34.062  1.00  0.00     0.055 A 
ATOM     90  C   UNL A   1      48.171  41.080  33.849  1.00  0.00     0.041 A 
ATOM     91  F   UNL A   1      47.867  38.779  33.528  1.00  0.00    -0.206 F 
ATOM     92  C   UNL A   1      47.643  42.356  34.024  1.00  0.00     0.022 A 
BRANCH  89  93
ATOM     93  S   UNL A   1      45.544  44.182  34.211  1.00  0.00     0.124 S 
ATOM     94  O   UNL A   1      45.391  44.572  32.813  1.00  0.00    -0.237 OA
ATOM     95  O   UNL A   1      44.306  43.930  34.941  1.00  0.00    -0.237 OA
ATOM     96  O   UNL A   1      46.559  44.926  34.955  1.00  0.00    -0.744 OA
ENDBRANCH  89  93
ENDBRANCH  63  86
ENDBRANCH  37  38
ENDBRANCH  30  32
ENDBRANCH  29  30
ENDBRANCH  28  29
ENDBRANCH  27  28
ENDBRANCH  26  27
ENDBRANCH   1  26
TORSDOF 21
ENDMDL
MODEL 3
REMARK VINA RESULT:      -7.6      6.239     10.392
REMARK SMILES Cc1cc2c(c(C)c1Cl)C=C(C(=O)OCCOCCOCCOC(=O)c1ccc(-c3c4nc(c(-c5cc(S(=O)(=O)[O-])ccc5F)c5ccc([nH]5)c(-c5cc(S(=O)(=O)[O-])ccc5F)c5nc(c(-c6cc(S(=O)(=O)[O-])ccc6F)c6ccc3[nH]6)C=C5)C=C4)cc1)[C@H](C(F)(F)F)O2
REMARK SMILES IDX 19 1 18 2 17 3 16 4 15 5 14 6 12 7 13 8 11 9 1 10 2 11 3 12
REMARK SMILES IDX 8 13 4 14 6 15 9 16 5 17 94 18 7 19 10 20 89 21 90 22 91 23
REMARK SMILES IDX 92 24 93 25 20 26 21 27 22 28 23 29 24 30 25 31 26 32 27 33
REMARK SMILES IDX 88 34 28 35 87 36 29 37 30 38 31 39 81 40 32 41 86 42 80 43
REMARK SMILES IDX 82 44 33 45 85 46 79 47 78 48 34 50 66 51 46 52 65 53 47 54
REMARK SMILES IDX 50 55 64 56 83 57 48 58 49 59 63 61 84 62 51 63 35 64 36 65
REMARK SMILES IDX 44 66 37 67 43 68 45 69 42 70 38 71 39 72 40 73 41 74 67 75
REMARK SMILES IDX 68 76 76 77 69 78 75 79 77 80 74 81 70 82 71 83 72 84 73 85
REMARK SMILES IDX 52 86 53 87 61 88 54 89 60 90 62 91 59 92 55 93 56 94 57 95
REMARK SMILES IDX 58 96
REMARK H PARENT 82 49 50 60
REMARK Flexibility Score: inf
ROOT
ATOM      1  C   UNL A   1      36.248  32.481  29.276  1.00  0.00     0.188 C 
ENDROOT
BRANCH   1   2
ATOM      2  C   UNL A   1      34.752  32.162  29.462  1.00  0.00     0.188 C 
BRANCH   2   3
ATOM      3  O   UNL A   1      33.949  32.158  28.306  1.00  0.00    -0.376 OA
BRANCH   3   4
ATOM      4  C   UNL A   1      33.814  30.991  27.515  1.00  0.00     0.202 C 
BRANCH   4   5
ATOM      5  C   UNL A   1      32.491  30.402  26.991  1.00  0.00     0.261 C 
BRANCH   5   6
ATOM      6  O   UNL A   1      32.558  29.173  26.265  1.00  0.00    -0.460 OA
BRANCH   6   7
ATOM      7  C   UNL A   1      31.825  28.155  26.767  1.00  0.00     0.338 C 
ATOM      8  O   UNL A   1      31.302  28.118  27.870  1.00  0.00    -0.246 OA
BRANCH   7   9
ATOM      9  C   UNL A   1      31.629  27.104  25.752  1.00  0.00     0.087 C 
ATOM     10  C   UNL A   1      32.371  21.691  22.266  1.00  0.00     0.046 C 
ATOM     11  C   UNL A   1      32.076  22.726  23.319  1.00  0.00    -0.028 A 
ATOM     12  C   UNL A   1      32.065  24.076  22.951  1.00  0.00     0.052 A 
ATOM     13  C   UNL A   1      31.868  22.383  24.671  1.00  0.00     0.047 A 
ATOM     14  C   UNL A   1      31.888  25.073  23.907  1.00  0.00     0.128 A 
ATOM     15  C   UNL A   1      31.662  23.381  25.654  1.00  0.00    -0.021 A 
ATOM     16  Cl  UNL A   1      31.915  20.701  25.107  1.00  0.00    -0.084 Cl
ATOM     17  C   UNL A   1      31.694  24.743  25.255  1.00  0.00     0.022 A 
ATOM     18  O   UNL A   1      32.016  26.352  23.434  1.00  0.00    -0.475 OA
ATOM     19  C   UNL A   1      31.467  23.024  27.112  1.00  0.00     0.047 C 
ATOM     20  C   UNL A   1      31.650  25.845  26.215  1.00  0.00     0.027 C 
ATOM     21  C   UNL A   1      31.618  27.454  24.292  1.00  0.00     0.316 C 
BRANCH  21  22
ATOM     22  C   UNL A   1      30.319  28.056  23.729  1.00  0.00     0.430 C 
ATOM     23  F   UNL A   1      30.302  28.067  22.378  1.00  0.00    -0.167 F 
ATOM     24  F   UNL A   1      29.247  27.306  24.104  1.00  0.00    -0.167 F 
ATOM     25  F   UNL A   1      30.091  29.312  24.170  1.00  0.00    -0.167 F 
ENDBRANCH  21  22
ENDBRANCH   7   9
ENDBRANCH   6   7
ENDBRANCH   5   6
ENDBRANCH   4   5
ENDBRANCH   3   4
ENDBRANCH   2   3
ENDBRANCH   1   2
BRANCH   1  26
ATOM     26  O   UNL A   1      37.218  31.455  29.354  1.00  0.00    -0.376 OA
BRANCH  26  27
ATOM     27  C   UNL A   1      36.798  30.100  29.318  1.00  0.00     0.202 C 
BRANCH  27  28
ATOM     28  C   UNL A   1      37.224  29.073  30.382  1.00  0.00     0.261 C 
BRANCH  28  29
ATOM     29  O   UNL A   1      36.692  29.265  31.699  1.00  0.00    -0.460 OA
BRANCH  29  30
ATOM     30  C   UNL A   1      37.513  28.896  32.716  1.00  0.00     0.338 C 
ATOM     31  O   UNL A   1      37.668  27.773  33.170  1.00  0.00    -0.246 OA
BRANCH  30  32
ATOM     32  C   UNL A   1      38.360  30.047  33.081  1.00  0.00     0.060 A 
ATOM     33  C   UNL A   1      37.796  31.331  33.078  1.00  0.00     0.016 A 
ATOM     34  C   UNL A   1      39.704  29.862  33.405  1.00  0.00     0.016 A 
ATOM     35  C   UNL A   1      38.575  32.436  33.411  1.00  0.00     0.010 A 
ATOM     36  C   UNL A   1      40.494  30.977  33.701  1.00  0.00     0.010 A 
ATOM     37  C   UNL A   1      39.937  32.268  33.691  1.00  0.00    -0.014 A 
BRANCH  37  38
ATOM     38  C   UNL A   1      40.810  33.462  33.766  1.00  0.00     0.031 A 
ATOM     39  C   UNL A   1      41.410  33.979  32.489  1.00  0.00     0.074 A 
ATOM     40  C   UNL A   1      41.020  34.104  34.929  1.00  0.00     0.049 A 
ATOM     41  N   UNL A   1      42.240  34.973  32.307  1.00  0.00    -0.248 NA
ATOM     42  C   UNL A   1      41.016  33.285  31.252  1.00  0.00     0.031 C 
ATOM     43  C   UNL A   1      40.425  33.745  36.215  1.00  0.00     0.029 A 
ATOM     44  N   UNL A   1      41.792  35.204  35.212  1.00  0.00    -0.354 N 
ATOM     45  C   UNL A   1      42.460  35.029  30.936  1.00  0.00     0.074 A 
ATOM     46  C   UNL A   1      41.707  33.948  30.338  1.00  0.00     0.031 C 
ATOM     47  C   UNL A   1      40.852  34.612  37.151  1.00  0.00     0.029 A 
ATOM     48  C   UNL A   1      41.785  35.560  36.540  1.00  0.00     0.049 A 
ATOM     49  H   UNL A   1      42.304  35.693  34.528  1.00  0.00     0.167 HD
ATOM     50  C   UNL A   1      43.213  35.911  30.239  1.00  0.00     0.034 A 
ATOM     51  C   UNL A   1      42.471  36.523  37.189  1.00  0.00     0.034 A 
ATOM     52  C   UNL A   1      43.965  36.977  30.844  1.00  0.00     0.049 A 
ATOM     53  C   UNL A   1      43.412  37.411  36.408  1.00  0.00     0.074 A 
ATOM     54  C   UNL A   1      44.774  37.915  30.226  1.00  0.00     0.029 A 
ATOM     55  N   UNL A   1      44.008  37.246  32.205  1.00  0.00    -0.354 N 
ATOM     56  N   UNL A   1      43.645  37.429  35.116  1.00  0.00    -0.248 NA
ATOM     57  C   UNL A   1      44.185  38.401  37.170  1.00  0.00     0.031 C 
ATOM     58  C   UNL A   1      45.359  38.705  31.218  1.00  0.00     0.029 A 
ATOM     59  C   UNL A   1      44.858  38.311  32.448  1.00  0.00     0.049 A 
ATOM     60  H   UNL A   1      43.509  36.752  32.894  1.00  0.00     0.167 HD
ATOM     61  C   UNL A   1      44.572  38.447  34.909  1.00  0.00     0.074 A 
ATOM     62  C   UNL A   1      44.853  39.023  36.208  1.00  0.00     0.031 C 
ATOM     63  C   UNL A   1      45.136  38.869  33.750  1.00  0.00     0.034 A 
BRANCH  50  64
ATOM     64  C   UNL A   1      43.289  35.736  28.746  1.00  0.00     0.023 A 
ATOM     65  C   UNL A   1      44.119  34.764  28.164  1.00  0.00     0.031 A 
ATOM     66  C   UNL A   1      42.505  36.536  27.898  1.00  0.00     0.131 A 
ATOM     67  C   UNL A   1      44.172  34.640  26.768  1.00  0.00     0.055 A 
ATOM     68  C   UNL A   1      42.516  36.367  26.514  1.00  0.00     0.041 A 
ATOM     69  F   UNL A   1      41.713  37.495  28.405  1.00  0.00    -0.206 F 
ATOM     70  C   UNL A   1      43.357  35.418  25.941  1.00  0.00     0.022 A 
BRANCH  67  71
ATOM     71  S   UNL A   1      45.379  33.500  26.041  1.00  0.00     0.124 S 
ATOM     72  O   UNL A   1      45.740  34.198  24.810  1.00  0.00    -0.237 OA
ATOM     73  O   UNL A   1      46.414  33.439  27.066  1.00  0.00    -0.237 OA
ATOM     74  O   UNL A   1      44.615  32.268  25.852  1.00  0.00    -0.744 OA
ENDBRANCH  67  71
ENDBRANCH  50  64
BRANCH  51  75
ATOM     75  C   UNL A   1      42.330  36.684  38.664  1.00  0.00     0.023 A 
ATOM     76  C   UNL A   1      41.293  37.454  39.214  1.00  0.00     0.031 A 
ATOM     77  C   UNL A   1      43.249  36.087  39.547  1.00  0.00     0.131 A 
ATOM     78  C   UNL A   1      41.212  37.627  40.606  1.00  0.00     0.055 A 
ATOM     79  C   UNL A   1      43.140  36.227  40.932  1.00  0.00     0.041 A 
ATOM     80  F   UNL A   1      44.261  35.344  39.073  1.00  0.00    -0.206 F 
ATOM     81  C   UNL A   1      42.120  37.006  41.468  1.00  0.00     0.022 A 
BRANCH  78  82
ATOM     82  S   UNL A   1      39.920  38.709  41.277  1.00  0.00     0.124 S 
ATOM     83  O   UNL A   1      40.502  40.029  41.067  1.00  0.00    -0.237 OA
ATOM     84  O   UNL A   1      38.774  38.370  40.440  1.00  0.00    -0.237 OA
ATOM     85  O   UNL A   1      39.815  38.287  42.672  1.00  0.00    -0.744 OA
ENDBRANCH  78  82
ENDBRANCH  51  75
BRANCH  63  86
ATOM     86  C   UNL A   1      46.098  40.028  33.814  1.00  0.00     0.023 A 
ATOM     87  C   UNL A   1      47.483  39.826  33.927  1.00  0.00     0.031 A 
ATOM     88  C   UNL A   1      45.626  41.348  33.682  1.00  0.00     0.131 A 
ATOM     89  C   UNL A   1      48.350  40.929  33.926  1.00  0.00     0.055 A 
ATOM     90  C   UNL A   1      46.497  42.436  33.632  1.00  0.00     0.041 A 
ATOM     91  F   UNL A   1      44.312  41.594  33.565  1.00  0.00    -0.206 F 
ATOM     92  C   UNL A   1      47.868  42.231  33.759  1.00  0.00     0.022 A 
BRANCH  89  93
ATOM     93  S   UNL A   1      50.124  40.644  34.172  1.00  0.00     0.124 S 
ATOM     94  O   UNL A   1      50.711  41.463  33.116  1.00  0.00    -0.237 OA
ATOM     95  O   UNL A   1      50.333  41.117  35.536  1.00  0.00    -0.237 OA
ATOM     96  O   UNL A   1      50.269  39.200  33.990  1.00  0.00    -0.744 OA
ENDBRANCH  89  93
ENDBRANCH  63  86
ENDBRANCH  37  38
ENDBRANCH  30  32
ENDBRANCH  29  30
ENDBRANCH  28  29
ENDBRANCH  27  28
ENDBRANCH  26  27
ENDBRANCH   1  26
TORSDOF 21
ENDMDL
