MODEL 1
REMARK VINA RESULT:     -10.9      0.000      0.000
REMARK SMILES O=C(OCCOCCOCCOC(=O)c1ccc(-c2c3nc(c(-c4cc(S(=O)(=O)[O-])ccc4F)c4ccc([nH]4)c(-c4cc(S(=O)(=O)[O-])ccc4F)c4nc(c(-c5cc(S(=O)(=O)[O-])ccc5F)c5ccc2[nH]5)C=C4)C=C3)cc1)c1ccc(/[NH+]=C2\S[C@@H](Cc3ccc(F)cc3)C(=O)N2Cc2ccccc2)cc1
REMARK SMILES IDX 7 1 6 2 5 3 4 4 3 5 2 6 1 7 78 8 79 9 105 10 80 11 104 12
REMARK SMILES IDX 81 13 82 14 83 15 84 17 96 18 85 19 94 20 95 21 97 22 98 23
REMARK SMILES IDX 99 24 103 25 100 26 102 27 101 28 86 29 87 30 88 31 93 32
REMARK SMILES IDX 89 33 92 34 90 35 91 36 8 37 9 38 10 39 11 40 12 41 13 42
REMARK SMILES IDX 14 43 15 44 16 45 77 46 17 47 76 48 18 49 19 50 20 51 70 52
REMARK SMILES IDX 21 53 75 54 69 55 71 56 22 57 74 58 68 59 67 60 23 62 55 63
REMARK SMILES IDX 35 64 54 65 36 66 39 67 53 68 72 69 37 70 38 71 52 73 73 74
REMARK SMILES IDX 40 75 24 76 25 77 33 78 26 79 32 80 34 81 31 82 27 83 28 84
REMARK SMILES IDX 29 85 30 86 56 87 57 88 65 89 58 90 64 91 66 92 63 93 59 94
REMARK SMILES IDX 60 95 61 96 62 97 41 98 42 99 50 100 43 101 49 102 51 103
REMARK SMILES IDX 48 104 44 105 45 106 46 107 47 108
REMARK H PARENT 82 16 71 61 39 72
REMARK Flexibility Score: inf
ROOT
ATOM      1  C   UNL A   1      33.050  36.767  32.055  1.00  0.00     0.188 C 
ENDROOT
BRANCH   1   2
ATOM      2  O   UNL A   1      32.829  36.698  30.641  1.00  0.00    -0.376 OA
BRANCH   2   3
ATOM      3  C   UNL A   1      32.957  35.383  30.099  1.00  0.00     0.202 C 
BRANCH   3   4
ATOM      4  C   UNL A   1      33.874  35.270  28.872  1.00  0.00     0.261 C 
BRANCH   4   5
ATOM      5  O   UNL A   1      33.975  33.922  28.380  1.00  0.00    -0.460 OA
BRANCH   5   6
ATOM      6  C   UNL A   1      33.014  33.199  27.746  1.00  0.00     0.338 C 
ATOM      7  O   UNL A   1      31.987  33.769  27.385  1.00  0.00    -0.246 OA
BRANCH   6   8
ATOM      8  C   UNL A   1      33.164  31.742  27.441  1.00  0.00     0.060 A 
ATOM      9  C   UNL A   1      34.330  31.017  27.671  1.00  0.00     0.020 A 
ATOM     10  C   UNL A   1      32.045  31.047  26.951  1.00  0.00     0.020 A 
ATOM     11  C   UNL A   1      34.434  29.688  27.281  1.00  0.00     0.052 A 
ATOM     12  C   UNL A   1      32.134  29.691  26.599  1.00  0.00     0.052 A 
ATOM     13  C   UNL A   1      33.355  29.030  26.701  1.00  0.00     0.125 A 
BRANCH  13  14
ATOM     14  N   UNL A   1      33.597  27.744  26.214  1.00  0.00    -0.235 N 
ATOM     15  C   UNL A   1      32.668  27.151  25.540  1.00  0.00     0.320 C 
ATOM     16  H   UNL A   1      34.459  27.297  26.380  1.00  0.00     0.313 HD
ATOM     17  S   UNL A   1      30.995  27.646  25.402  1.00  0.00    -0.022 SA
ATOM     18  N   UNL A   1      32.903  26.050  24.762  1.00  0.00    -0.186 N 
ATOM     19  C   UNL A   1      30.515  26.033  24.730  1.00  0.00     0.178 C 
ATOM     20  C   UNL A   1      31.805  25.501  24.124  1.00  0.00     0.324 C 
ATOM     21  O   UNL A   1      31.856  24.670  23.224  1.00  0.00    -0.245 OA
BRANCH  18  22
ATOM     22  C   UNL A   1      34.253  25.589  24.467  1.00  0.00     0.283 C 
BRANCH  22  23
ATOM     23  C   UNL A   1      34.517  24.186  24.987  1.00  0.00    -0.006 A 
ATOM     24  C   UNL A   1      34.415  23.891  26.354  1.00  0.00     0.008 A 
ATOM     25  C   UNL A   1      34.858  23.151  24.103  1.00  0.00     0.008 A 
ATOM     26  C   UNL A   1      34.651  22.593  26.819  1.00  0.00     0.000 A 
ATOM     27  C   UNL A   1      35.068  21.851  24.564  1.00  0.00     0.000 A 
ATOM     28  C   UNL A   1      34.969  21.572  25.925  1.00  0.00     0.000 A 
ENDBRANCH  22  23
ENDBRANCH  18  22
BRANCH  19  29
ATOM     29  C   UNL A   1      29.348  26.195  23.761  1.00  0.00     0.063 C 
BRANCH  29  30
ATOM     30  C   UNL A   1      29.225  27.596  23.204  1.00  0.00    -0.046 A 
ATOM     31  C   UNL A   1      30.322  28.193  22.565  1.00  0.00     0.007 A 
ATOM     32  C   UNL A   1      28.021  28.311  23.311  1.00  0.00     0.007 A 
ATOM     33  C   UNL A   1      30.210  29.472  22.022  1.00  0.00     0.039 A 
ATOM     34  C   UNL A   1      27.910  29.587  22.760  1.00  0.00     0.039 A 
ATOM     35  C   UNL A   1      29.003  30.155  22.119  1.00  0.00     0.123 A 
ATOM     36  F   UNL A   1      28.895  31.379  21.588  1.00  0.00    -0.207 F 
ENDBRANCH  29  30
ENDBRANCH  19  29
ENDBRANCH  13  14
ENDBRANCH   6   8
ENDBRANCH   5   6
ENDBRANCH   4   5
ENDBRANCH   3   4
ENDBRANCH   2   3
ENDBRANCH   1   2
BRANCH   1  37
ATOM     37  C   UNL A   1      34.471  36.333  32.417  1.00  0.00     0.188 C 
BRANCH  37  38
ATOM     38  O   UNL A   1      34.657  35.969  33.786  1.00  0.00    -0.376 OA
BRANCH  38  39
ATOM     39  C   UNL A   1      35.247  34.697  34.042  1.00  0.00     0.202 C 
BRANCH  39  40
ATOM     40  C   UNL A   1      34.487  33.464  33.534  1.00  0.00     0.261 C 
BRANCH  40  41
ATOM     41  O   UNL A   1      35.321  32.367  33.116  1.00  0.00    -0.460 OA
BRANCH  41  42
ATOM     42  C   UNL A   1      35.330  32.157  31.778  1.00  0.00     0.338 C 
ATOM     43  O   UNL A   1      34.418  32.403  30.994  1.00  0.00    -0.246 OA
BRANCH  42  44
ATOM     44  C   UNL A   1      36.618  31.626  31.301  1.00  0.00     0.060 A 
ATOM     45  C   UNL A   1      37.523  31.143  32.253  1.00  0.00     0.016 A 
ATOM     46  C   UNL A   1      37.030  31.860  29.986  1.00  0.00     0.016 A 
ATOM     47  C   UNL A   1      38.868  30.978  31.915  1.00  0.00     0.010 A 
ATOM     48  C   UNL A   1      38.381  31.691  29.649  1.00  0.00     0.010 A 
ATOM     49  C   UNL A   1      39.318  31.314  30.630  1.00  0.00    -0.014 A 
BRANCH  49  50
ATOM     50  C   UNL A   1      40.777  31.487  30.394  1.00  0.00     0.031 A 
ATOM     51  C   UNL A   1      41.583  30.305  29.904  1.00  0.00     0.074 A 
ATOM     52  C   UNL A   1      41.378  32.679  30.559  1.00  0.00     0.049 A 
ATOM     53  N   UNL A   1      42.858  30.226  29.616  1.00  0.00    -0.248 NA
ATOM     54  C   UNL A   1      40.848  29.045  29.724  1.00  0.00     0.031 C 
ATOM     55  C   UNL A   1      40.717  33.906  30.997  1.00  0.00     0.029 A 
ATOM     56  N   UNL A   1      42.688  33.050  30.372  1.00  0.00    -0.354 N 
ATOM     57  C   UNL A   1      43.080  28.908  29.227  1.00  0.00     0.074 A 
ATOM     58  C   UNL A   1      41.815  28.216  29.358  1.00  0.00     0.031 C 
ATOM     59  C   UNL A   1      41.625  34.896  31.043  1.00  0.00     0.029 A 
ATOM     60  C   UNL A   1      42.936  34.370  30.662  1.00  0.00     0.049 A 
ATOM     61  H   UNL A   1      43.383  32.428  30.059  1.00  0.00     0.167 HD
ATOM     62  C   UNL A   1      44.226  28.325  28.789  1.00  0.00     0.034 A 
ATOM     63  C   UNL A   1      44.088  35.071  30.633  1.00  0.00     0.034 A 
ATOM     64  C   UNL A   1      45.486  29.017  28.658  1.00  0.00     0.049 A 
ATOM     65  C   UNL A   1      45.363  34.393  30.188  1.00  0.00     0.074 A 
ATOM     66  C   UNL A   1      46.699  28.523  28.204  1.00  0.00     0.029 A 
ATOM     67  N   UNL A   1      45.701  30.348  28.986  1.00  0.00    -0.354 N 
ATOM     68  N   UNL A   1      45.552  33.151  29.806  1.00  0.00    -0.248 NA
ATOM     69  C   UNL A   1      46.576  35.221  30.157  1.00  0.00     0.031 C 
ATOM     70  C   UNL A   1      47.657  29.537  28.317  1.00  0.00     0.029 A 
ATOM     71  C   UNL A   1      47.030  30.685  28.771  1.00  0.00     0.049 A 
ATOM     72  H   UNL A   1      45.011  30.964  29.324  1.00  0.00     0.167 HD
ATOM     73  C   UNL A   1      46.897  33.064  29.451  1.00  0.00     0.074 A 
ATOM     74  C   UNL A   1      47.468  34.379  29.659  1.00  0.00     0.031 C 
ATOM     75  C   UNL A   1      47.595  31.997  28.984  1.00  0.00     0.034 A 
BRANCH  62  76
ATOM     76  C   UNL A   1      44.173  26.849  28.471  1.00  0.00     0.023 A 
ATOM     77  C   UNL A   1      43.983  26.379  27.160  1.00  0.00     0.031 A 
ATOM     78  C   UNL A   1      44.280  25.900  29.502  1.00  0.00     0.131 A 
ATOM     79  C   UNL A   1      43.834  25.003  26.924  1.00  0.00     0.055 A 
ATOM     80  C   UNL A   1      44.208  24.528  29.251  1.00  0.00     0.041 A 
ATOM     81  F   UNL A   1      44.443  26.289  30.776  1.00  0.00    -0.206 F 
ATOM     82  C   UNL A   1      43.968  24.073  27.958  1.00  0.00     0.022 A 
BRANCH  79  83
ATOM     83  S   UNL A   1      43.321  24.454  25.273  1.00  0.00     0.124 S 
ATOM     84  O   UNL A   1      42.226  25.377  24.981  1.00  0.00    -0.237 OA
ATOM     85  O   UNL A   1      44.537  24.635  24.489  1.00  0.00    -0.237 OA
ATOM     86  O   UNL A   1      42.914  23.066  25.484  1.00  0.00    -0.744 OA
ENDBRANCH  79  83
ENDBRANCH  62  76
BRANCH  63  87
ATOM     87  C   UNL A   1      44.110  36.500  31.054  1.00  0.00     0.023 A 
ATOM     88  C   UNL A   1      43.902  37.533  30.126  1.00  0.00     0.031 A 
ATOM     89  C   UNL A   1      44.406  36.853  32.382  1.00  0.00     0.131 A 
ATOM     90  C   UNL A   1      44.042  38.871  30.527  1.00  0.00     0.055 A 
ATOM     91  C   UNL A   1      44.498  38.185  32.787  1.00  0.00     0.041 A 
ATOM     92  F   UNL A   1      44.612  35.902  33.308  1.00  0.00    -0.206 F 
ATOM     93  C   UNL A   1      44.328  39.203  31.853  1.00  0.00     0.022 A 
BRANCH  90  94
ATOM     94  S   UNL A   1      43.925  40.174  29.271  1.00  0.00     0.124 S 
ATOM     95  O   UNL A   1      45.317  40.583  29.137  1.00  0.00    -0.237 OA
ATOM     96  O   UNL A   1      43.354  39.451  28.139  1.00  0.00    -0.237 OA
ATOM     97  O   UNL A   1      43.039  41.160  29.886  1.00  0.00    -0.744 OA
ENDBRANCH  90  94
ENDBRANCH  63  87
BRANCH  75  98
ATOM     98  C   UNL A   1      49.040  32.228  28.606  1.00  0.00     0.023 A 
ATOM     99  C   UNL A   1      49.409  32.764  27.360  1.00  0.00     0.031 A 
ATOM    100  C   UNL A   1      50.064  31.881  29.505  1.00  0.00     0.131 A 
ATOM    101  C   UNL A   1      50.767  32.883  27.023  1.00  0.00     0.055 A 
ATOM    102  C   UNL A   1      51.412  32.053  29.187  1.00  0.00     0.041 A 
ATOM    103  F   UNL A   1      49.771  31.364  30.709  1.00  0.00    -0.206 F 
ATOM    104  C   UNL A   1      51.771  32.542  27.935  1.00  0.00     0.022 A 
BRANCH 101 105
ATOM    105  S   UNL A   1      51.210  33.393  25.339  1.00  0.00     0.124 S 
ATOM    106  O   UNL A   1      51.296  32.113  24.644  1.00  0.00    -0.237 OA
ATOM    107  O   UNL A   1      50.085  34.244  24.967  1.00  0.00    -0.237 OA
ATOM    108  O   UNL A   1      52.482  34.090  25.513  1.00  0.00    -0.744 OA
ENDBRANCH 101 105
ENDBRANCH  75  98
ENDBRANCH  49  50
ENDBRANCH  42  44
ENDBRANCH  41  42
ENDBRANCH  40  41
ENDBRANCH  39  40
ENDBRANCH  38  39
ENDBRANCH  37  38
ENDBRANCH   1  37
TORSDOF 25
ENDMDL
MODEL 2
REMARK VINA RESULT:     -10.3      4.550      5.284
REMARK SMILES O=C(OCCOCCOCCOC(=O)c1ccc(-c2c3nc(c(-c4cc(S(=O)(=O)[O-])ccc4F)c4ccc([nH]4)c(-c4cc(S(=O)(=O)[O-])ccc4F)c4nc(c(-c5cc(S(=O)(=O)[O-])ccc5F)c5ccc2[nH]5)C=C4)C=C3)cc1)c1ccc(/[NH+]=C2\S[C@@H](Cc3ccc(F)cc3)C(=O)N2Cc2ccccc2)cc1
REMARK SMILES IDX 7 1 6 2 5 3 4 4 3 5 2 6 1 7 78 8 79 9 105 10 80 11 104 12
REMARK SMILES IDX 81 13 82 14 83 15 84 17 96 18 85 19 94 20 95 21 97 22 98 23
REMARK SMILES IDX 99 24 103 25 100 26 102 27 101 28 86 29 87 30 88 31 93 32
REMARK SMILES IDX 89 33 92 34 90 35 91 36 8 37 9 38 10 39 11 40 12 41 13 42
REMARK SMILES IDX 14 43 15 44 16 45 77 46 17 47 76 48 18 49 19 50 20 51 70 52
REMARK SMILES IDX 21 53 75 54 69 55 71 56 22 57 74 58 68 59 67 60 23 62 55 63
REMARK SMILES IDX 35 64 54 65 36 66 39 67 53 68 72 69 37 70 38 71 52 73 73 74
REMARK SMILES IDX 40 75 24 76 25 77 33 78 26 79 32 80 34 81 31 82 27 83 28 84
REMARK SMILES IDX 29 85 30 86 56 87 57 88 65 89 58 90 64 91 66 92 63 93 59 94
REMARK SMILES IDX 60 95 61 96 62 97 41 98 42 99 50 100 43 101 49 102 51 103
REMARK SMILES IDX 48 104 44 105 45 106 46 107 47 108
REMARK H PARENT 82 16 71 61 39 72
REMARK Flexibility Score: inf
ROOT
ATOM      1  C   UNL A   1      33.240  36.468  32.350  1.00  0.00     0.188 C 
ENDROOT
BRANCH   1   2
ATOM      2  O   UNL A   1      33.134  36.525  30.923  1.00  0.00    -0.376 OA
BRANCH   2   3
ATOM      3  C   UNL A   1      33.077  35.243  30.296  1.00  0.00     0.202 C 
BRANCH   3   4
ATOM      4  C   UNL A   1      34.064  35.038  29.137  1.00  0.00     0.261 C 
BRANCH   4   5
ATOM      5  O   UNL A   1      34.110  33.673  28.685  1.00  0.00    -0.460 OA
BRANCH   5   6
ATOM      6  C   UNL A   1      33.192  33.024  27.921  1.00  0.00     0.338 C 
ATOM      7  O   UNL A   1      32.231  33.656  27.487  1.00  0.00    -0.246 OA
BRANCH   6   8
ATOM      8  C   UNL A   1      33.314  31.578  27.559  1.00  0.00     0.060 A 
ATOM      9  C   UNL A   1      34.463  30.820  27.771  1.00  0.00     0.020 A 
ATOM     10  C   UNL A   1      32.187  30.927  27.029  1.00  0.00     0.020 A 
ATOM     11  C   UNL A   1      34.543  29.506  27.328  1.00  0.00     0.052 A 
ATOM     12  C   UNL A   1      32.251  29.585  26.624  1.00  0.00     0.052 A 
ATOM     13  C   UNL A   1      33.457  28.894  26.711  1.00  0.00     0.125 A 
BRANCH  13  14
ATOM     14  N   UNL A   1      33.678  27.624  26.175  1.00  0.00    -0.235 N 
ATOM     15  C   UNL A   1      32.730  27.062  25.500  1.00  0.00     0.320 C 
ATOM     16  H   UNL A   1      34.539  27.164  26.307  1.00  0.00     0.313 HD
ATOM     17  S   UNL A   1      31.059  27.576  25.414  1.00  0.00    -0.022 SA
ATOM     18  N   UNL A   1      32.939  25.988  24.679  1.00  0.00    -0.186 N 
ATOM     19  C   UNL A   1      30.551  25.992  24.697  1.00  0.00     0.178 C 
ATOM     20  C   UNL A   1      31.824  25.471  24.046  1.00  0.00     0.324 C 
ATOM     21  O   UNL A   1      31.849  24.671  23.117  1.00  0.00    -0.245 OA
BRANCH  18  22
ATOM     22  C   UNL A   1      34.279  25.526  24.341  1.00  0.00     0.283 C 
BRANCH  22  23
ATOM     23  C   UNL A   1      34.617  24.193  24.985  1.00  0.00    -0.006 A 
ATOM     24  C   UNL A   1      34.069  23.830  26.224  1.00  0.00     0.008 A 
ATOM     25  C   UNL A   1      35.479  23.290  24.345  1.00  0.00     0.008 A 
ATOM     26  C   UNL A   1      34.380  22.595  26.803  1.00  0.00     0.000 A 
ATOM     27  C   UNL A   1      35.770  22.048  24.910  1.00  0.00     0.000 A 
ATOM     28  C   UNL A   1      35.223  21.702  26.143  1.00  0.00     0.000 A 
ENDBRANCH  22  23
ENDBRANCH  18  22
BRANCH  19  29
ATOM     29  C   UNL A   1      29.366  26.197  23.758  1.00  0.00     0.063 C 
BRANCH  29  30
ATOM     30  C   UNL A   1      29.283  27.600  23.200  1.00  0.00    -0.046 A 
ATOM     31  C   UNL A   1      30.393  28.160  22.549  1.00  0.00     0.007 A 
ATOM     32  C   UNL A   1      28.104  28.353  23.317  1.00  0.00     0.007 A 
ATOM     33  C   UNL A   1      30.317  29.441  22.005  1.00  0.00     0.039 A 
ATOM     34  C   UNL A   1      28.029  29.632  22.764  1.00  0.00     0.039 A 
ATOM     35  C   UNL A   1      29.134  30.163  22.111  1.00  0.00     0.123 A 
ATOM     36  F   UNL A   1      29.061  31.389  21.579  1.00  0.00    -0.207 F 
ENDBRANCH  29  30
ENDBRANCH  19  29
ENDBRANCH  13  14
ENDBRANCH   6   8
ENDBRANCH   5   6
ENDBRANCH   4   5
ENDBRANCH   3   4
ENDBRANCH   2   3
ENDBRANCH   1   2
BRANCH   1  37
ATOM     37  C   UNL A   1      34.597  35.911  32.785  1.00  0.00     0.188 C 
BRANCH  37  38
ATOM     38  O   UNL A   1      34.588  35.213  34.031  1.00  0.00    -0.376 OA
BRANCH  38  39
ATOM     39  C   UNL A   1      35.055  33.867  34.021  1.00  0.00     0.202 C 
BRANCH  39  40
ATOM     40  C   UNL A   1      34.654  33.001  32.819  1.00  0.00     0.261 C 
BRANCH  40  41
ATOM     41  O   UNL A   1      35.663  32.074  32.376  1.00  0.00    -0.460 OA
BRANCH  41  42
ATOM     42  C   UNL A   1      36.531  32.591  31.473  1.00  0.00     0.338 C 
ATOM     43  O   UNL A   1      36.524  33.732  31.023  1.00  0.00    -0.246 OA
BRANCH  42  44
ATOM     44  C   UNL A   1      37.580  31.631  31.091  1.00  0.00     0.060 A 
ATOM     45  C   UNL A   1      37.756  30.495  31.889  1.00  0.00     0.016 A 
ATOM     46  C   UNL A   1      38.543  31.984  30.140  1.00  0.00     0.016 A 
ATOM     47  C   UNL A   1      38.939  29.759  31.804  1.00  0.00     0.010 A 
ATOM     48  C   UNL A   1      39.729  31.241  30.055  1.00  0.00     0.010 A 
ATOM     49  C   UNL A   1      39.961  30.166  30.934  1.00  0.00    -0.014 A 
BRANCH  49  50
ATOM     50  C   UNL A   1      41.331  29.612  31.112  1.00  0.00     0.031 A 
ATOM     51  C   UNL A   1      41.829  28.568  30.139  1.00  0.00     0.074 A 
ATOM     52  C   UNL A   1      42.146  30.056  32.086  1.00  0.00     0.049 A 
ATOM     53  N   UNL A   1      42.988  27.959  30.089  1.00  0.00    -0.248 NA
ATOM     54  C   UNL A   1      40.888  28.155  29.088  1.00  0.00     0.031 C 
ATOM     55  C   UNL A   1      41.805  31.078  33.073  1.00  0.00     0.029 A 
ATOM     56  N   UNL A   1      43.435  29.700  32.400  1.00  0.00    -0.354 N 
ATOM     57  C   UNL A   1      42.912  27.086  29.006  1.00  0.00     0.074 A 
ATOM     58  C   UNL A   1      41.579  27.217  28.457  1.00  0.00     0.031 C 
ATOM     59  C   UNL A   1      42.861  31.268  33.883  1.00  0.00     0.029 A 
ATOM     60  C   UNL A   1      43.943  30.366  33.489  1.00  0.00     0.049 A 
ATOM     61  H   UNL A   1      43.947  29.029  31.892  1.00  0.00     0.167 HD
ATOM     62  C   UNL A   1      43.866  26.259  28.506  1.00  0.00     0.034 A 
ATOM     63  C   UNL A   1      45.140  30.256  34.102  1.00  0.00     0.034 A 
ATOM     64  C   UNL A   1      45.195  26.130  29.054  1.00  0.00     0.049 A 
ATOM     65  C   UNL A   1      46.171  29.294  33.559  1.00  0.00     0.074 A 
ATOM     66  C   UNL A   1      46.240  25.338  28.608  1.00  0.00     0.029 A 
ATOM     67  N   UNL A   1      45.663  26.805  30.173  1.00  0.00    -0.354 N 
ATOM     68  N   UNL A   1      46.092  28.490  32.524  1.00  0.00    -0.248 NA
ATOM     69  C   UNL A   1      47.461  29.242  34.261  1.00  0.00     0.031 C 
ATOM     70  C   UNL A   1      47.315  25.487  29.492  1.00  0.00     0.029 A 
ATOM     71  C   UNL A   1      46.969  26.427  30.448  1.00  0.00     0.049 A 
ATOM     72  H   UNL A   1      45.142  27.456  30.697  1.00  0.00     0.167 HD
ATOM     73  C   UNL A   1      47.336  27.869  32.430  1.00  0.00     0.074 A 
ATOM     74  C   UNL A   1      48.146  28.395  33.508  1.00  0.00     0.031 C 
ATOM     75  C   UNL A   1      47.772  26.954  31.527  1.00  0.00     0.034 A 
BRANCH  62  76
ATOM     76  C   UNL A   1      43.479  25.390  27.332  1.00  0.00     0.023 A 
ATOM     77  C   UNL A   1      42.800  24.170  27.503  1.00  0.00     0.031 A 
ATOM     78  C   UNL A   1      43.824  25.774  26.024  1.00  0.00     0.131 A 
ATOM     79  C   UNL A   1      42.554  23.345  26.394  1.00  0.00     0.055 A 
ATOM     80  C   UNL A   1      43.508  24.984  24.917  1.00  0.00     0.041 A 
ATOM     81  F   UNL A   1      44.489  26.917  25.801  1.00  0.00    -0.206 F 
ATOM     82  C   UNL A   1      42.883  23.754  25.099  1.00  0.00     0.022 A 
BRANCH  79  83
ATOM     83  S   UNL A   1      41.926  21.667  26.682  1.00  0.00     0.124 S 
ATOM     84  O   UNL A   1      42.374  21.414  28.049  1.00  0.00    -0.237 OA
ATOM     85  O   UNL A   1      40.489  21.833  26.498  1.00  0.00    -0.237 OA
ATOM     86  O   UNL A   1      42.599  20.870  25.657  1.00  0.00    -0.744 OA
ENDBRANCH  79  83
ENDBRANCH  62  76
BRANCH  63  87
ATOM     87  C   UNL A   1      45.438  31.061  35.320  1.00  0.00     0.023 A 
ATOM     88  C   UNL A   1      45.314  30.507  36.604  1.00  0.00     0.031 A 
ATOM     89  C   UNL A   1      45.786  32.419  35.216  1.00  0.00     0.131 A 
ATOM     90  C   UNL A   1      45.488  31.320  37.735  1.00  0.00     0.055 A 
ATOM     91  C   UNL A   1      46.004  33.212  36.343  1.00  0.00     0.041 A 
ATOM     92  F   UNL A   1      45.918  32.995  34.010  1.00  0.00    -0.206 F 
ATOM     93  C   UNL A   1      45.843  32.665  37.613  1.00  0.00     0.022 A 
BRANCH  90  94
ATOM     94  S   UNL A   1      45.165  30.613  39.374  1.00  0.00     0.124 S 
ATOM     95  O   UNL A   1      45.442  29.200  39.147  1.00  0.00    -0.237 OA
ATOM     96  O   UNL A   1      46.125  31.331  40.207  1.00  0.00    -0.237 OA
ATOM     97  O   UNL A   1      43.764  30.946  39.617  1.00  0.00    -0.744 OA
ENDBRANCH  90  94
ENDBRANCH  63  87
BRANCH  75  98
ATOM     98  C   UNL A   1      49.214  26.513  31.631  1.00  0.00     0.023 A 
ATOM     99  C   UNL A   1      49.592  25.355  32.332  1.00  0.00     0.031 A 
ATOM    100  C   UNL A   1      50.228  27.285  31.035  1.00  0.00     0.131 A 
ATOM    101  C   UNL A   1      50.952  25.032  32.470  1.00  0.00     0.055 A 
ATOM    102  C   UNL A   1      51.575  26.929  31.129  1.00  0.00     0.041 A 
ATOM    103  F   UNL A   1      49.926  28.402  30.353  1.00  0.00    -0.206 F 
ATOM    104  C   UNL A   1      51.944  25.806  31.862  1.00  0.00     0.022 A 
BRANCH 101 105
ATOM    105  S   UNL A   1      51.417  23.644  33.543  1.00  0.00     0.124 S 
ATOM    106  O   UNL A   1      51.033  22.491  32.735  1.00  0.00    -0.237 OA
ATOM    107  O   UNL A   1      52.851  23.852  33.714  1.00  0.00    -0.237 OA
ATOM    108  O   UNL A   1      50.613  23.854  34.745  1.00  0.00    -0.744 OA
ENDBRANCH 101 105
ENDBRANCH  75  98
ENDBRANCH  49  50
ENDBRANCH  42  44
ENDBRANCH  41  42
ENDBRANCH  40  41
ENDBRANCH  39  40
ENDBRANCH  38  39
ENDBRANCH  37  38
ENDBRANCH   1  37
TORSDOF 25
ENDMDL
MODEL 3
REMARK VINA RESULT:     -10.3      4.266      4.834
REMARK SMILES O=C(OCCOCCOCCOC(=O)c1ccc(-c2c3nc(c(-c4cc(S(=O)(=O)[O-])ccc4F)c4ccc([nH]4)c(-c4cc(S(=O)(=O)[O-])ccc4F)c4nc(c(-c5cc(S(=O)(=O)[O-])ccc5F)c5ccc2[nH]5)C=C4)C=C3)cc1)c1ccc(/[NH+]=C2\S[C@@H](Cc3ccc(F)cc3)C(=O)N2Cc2ccccc2)cc1
REMARK SMILES IDX 7 1 6 2 5 3 4 4 3 5 2 6 1 7 78 8 79 9 105 10 80 11 104 12
REMARK SMILES IDX 81 13 82 14 83 15 84 17 96 18 85 19 94 20 95 21 97 22 98 23
REMARK SMILES IDX 99 24 103 25 100 26 102 27 101 28 86 29 87 30 88 31 93 32
REMARK SMILES IDX 89 33 92 34 90 35 91 36 8 37 9 38 10 39 11 40 12 41 13 42
REMARK SMILES IDX 14 43 15 44 16 45 77 46 17 47 76 48 18 49 19 50 20 51 70 52
REMARK SMILES IDX 21 53 75 54 69 55 71 56 22 57 74 58 68 59 67 60 23 62 55 63
REMARK SMILES IDX 35 64 54 65 36 66 39 67 53 68 72 69 37 70 38 71 52 73 73 74
REMARK SMILES IDX 40 75 24 76 25 77 33 78 26 79 32 80 34 81 31 82 27 83 28 84
REMARK SMILES IDX 29 85 30 86 56 87 57 88 65 89 58 90 64 91 66 92 63 93 59 94
REMARK SMILES IDX 60 95 61 96 62 97 41 98 42 99 50 100 43 101 49 102 51 103
REMARK SMILES IDX 48 104 44 105 45 106 46 107 47 108
REMARK H PARENT 82 16 71 61 39 72
REMARK Flexibility Score: inf
ROOT
ATOM      1  C   UNL A   1      32.861  36.606  32.452  1.00  0.00     0.188 C 
ENDROOT
BRANCH   1   2
ATOM      2  O   UNL A   1      32.631  36.608  31.038  1.00  0.00    -0.376 OA
BRANCH   2   3
ATOM      3  C   UNL A   1      32.773  35.324  30.428  1.00  0.00     0.202 C 
BRANCH   3   4
ATOM      4  C   UNL A   1      33.745  35.271  29.239  1.00  0.00     0.261 C 
BRANCH   4   5
ATOM      5  O   UNL A   1      33.869  33.949  28.686  1.00  0.00    -0.460 OA
BRANCH   5   6
ATOM      6  C   UNL A   1      33.009  33.322  27.840  1.00  0.00     0.338 C 
ATOM      7  O   UNL A   1      32.088  33.969  27.348  1.00  0.00    -0.246 OA
BRANCH   6   8
ATOM      8  C   UNL A   1      33.153  31.884  27.456  1.00  0.00     0.060 A 
ATOM      9  C   UNL A   1      34.299  31.128  27.692  1.00  0.00     0.020 A 
ATOM     10  C   UNL A   1      32.048  31.237  26.876  1.00  0.00     0.020 A 
ATOM     11  C   UNL A   1      34.402  29.823  27.229  1.00  0.00     0.052 A 
ATOM     12  C   UNL A   1      32.135  29.902  26.449  1.00  0.00     0.052 A 
ATOM     13  C   UNL A   1      33.342  29.217  26.565  1.00  0.00     0.125 A 
BRANCH  13  14
ATOM     14  N   UNL A   1      33.588  27.958  26.013  1.00  0.00    -0.235 N 
ATOM     15  C   UNL A   1      32.642  27.372  25.358  1.00  0.00     0.320 C 
ATOM     16  H   UNL A   1      34.466  27.525  26.120  1.00  0.00     0.313 HD
ATOM     17  S   UNL A   1      30.953  27.833  25.318  1.00  0.00    -0.022 SA
ATOM     18  N   UNL A   1      32.863  26.310  24.524  1.00  0.00    -0.186 N 
ATOM     19  C   UNL A   1      30.478  26.238  24.602  1.00  0.00     0.178 C 
ATOM     20  C   UNL A   1      31.749  25.762  23.915  1.00  0.00     0.324 C 
ATOM     21  O   UNL A   1      31.775  24.970  22.980  1.00  0.00    -0.245 OA
BRANCH  18  22
ATOM     22  C   UNL A   1      34.208  25.893  24.148  1.00  0.00     0.283 C 
BRANCH  22  23
ATOM     23  C   UNL A   1      34.559  24.511  24.673  1.00  0.00    -0.006 A 
ATOM     24  C   UNL A   1      35.173  23.560  23.847  1.00  0.00     0.008 A 
ATOM     25  C   UNL A   1      34.285  24.164  26.005  1.00  0.00     0.008 A 
ATOM     26  C   UNL A   1      35.501  22.294  24.344  1.00  0.00     0.000 A 
ATOM     27  C   UNL A   1      34.635  22.911  26.508  1.00  0.00     0.000 A 
ATOM     28  C   UNL A   1      35.240  21.973  25.675  1.00  0.00     0.000 A 
ENDBRANCH  22  23
ENDBRANCH  18  22
BRANCH  19  29
ATOM     29  C   UNL A   1      29.263  26.413  23.696  1.00  0.00     0.063 C 
BRANCH  29  30
ATOM     30  C   UNL A   1      29.140  27.808  23.124  1.00  0.00    -0.046 A 
ATOM     31  C   UNL A   1      27.940  28.520  23.269  1.00  0.00     0.007 A 
ATOM     32  C   UNL A   1      30.217  28.408  22.452  1.00  0.00     0.007 A 
ATOM     33  C   UNL A   1      27.827  29.817  22.772  1.00  0.00     0.039 A 
ATOM     34  C   UNL A   1      30.103  29.709  21.962  1.00  0.00     0.039 A 
ATOM     35  C   UNL A   1      28.911  30.402  22.129  1.00  0.00     0.123 A 
ATOM     36  F   UNL A   1      28.803  31.652  21.662  1.00  0.00    -0.207 F 
ENDBRANCH  29  30
ENDBRANCH  19  29
ENDBRANCH  13  14
ENDBRANCH   6   8
ENDBRANCH   5   6
ENDBRANCH   4   5
ENDBRANCH   3   4
ENDBRANCH   2   3
ENDBRANCH   1   2
BRANCH   1  37
ATOM     37  C   UNL A   1      34.320  36.285  32.778  1.00  0.00     0.188 C 
BRANCH  37  38
ATOM     38  O   UNL A   1      34.546  35.792  34.100  1.00  0.00    -0.376 OA
BRANCH  38  39
ATOM     39  C   UNL A   1      35.066  34.470  34.217  1.00  0.00     0.202 C 
BRANCH  39  40
ATOM     40  C   UNL A   1      34.460  33.402  33.296  1.00  0.00     0.261 C 
BRANCH  40  41
ATOM     41  O   UNL A   1      35.374  32.365  32.889  1.00  0.00    -0.460 OA
BRANCH  41  42
ATOM     42  C   UNL A   1      36.038  32.633  31.739  1.00  0.00     0.338 C 
ATOM     43  O   UNL A   1      35.895  33.622  31.026  1.00  0.00    -0.246 OA
BRANCH  42  44
ATOM     44  C   UNL A   1      37.044  31.606  31.420  1.00  0.00     0.060 A 
ATOM     45  C   UNL A   1      37.192  30.533  32.305  1.00  0.00     0.016 A 
ATOM     46  C   UNL A   1      38.001  31.845  30.429  1.00  0.00     0.016 A 
ATOM     47  C   UNL A   1      38.346  29.748  32.262  1.00  0.00     0.010 A 
ATOM     48  C   UNL A   1      39.157  31.053  30.387  1.00  0.00     0.010 A 
ATOM     49  C   UNL A   1      39.365  30.044  31.346  1.00  0.00    -0.014 A 
BRANCH  49  50
ATOM     50  C   UNL A   1      40.718  29.454  31.548  1.00  0.00     0.031 A 
ATOM     51  C   UNL A   1      41.216  28.416  30.569  1.00  0.00     0.074 A 
ATOM     52  C   UNL A   1      41.518  29.861  32.550  1.00  0.00     0.049 A 
ATOM     53  N   UNL A   1      42.360  27.781  30.536  1.00  0.00    -0.248 NA
ATOM     54  C   UNL A   1      40.292  28.044  29.487  1.00  0.00     0.031 C 
ATOM     55  C   UNL A   1      41.177  30.873  33.547  1.00  0.00     0.029 A 
ATOM     56  N   UNL A   1      42.790  29.468  32.889  1.00  0.00    -0.354 N 
ATOM     57  C   UNL A   1      42.292  26.929  29.436  1.00  0.00     0.074 A 
ATOM     58  C   UNL A   1      40.976  27.102  28.856  1.00  0.00     0.031 C 
ATOM     59  C   UNL A   1      42.216  31.023  34.386  1.00  0.00     0.029 A 
ATOM     60  C   UNL A   1      43.286  30.103  34.003  1.00  0.00     0.049 A 
ATOM     61  H   UNL A   1      43.298  28.795  32.382  1.00  0.00     0.167 HD
ATOM     62  C   UNL A   1      43.238  26.088  28.944  1.00  0.00     0.034 A 
ATOM     63  C   UNL A   1      44.464  29.953  34.643  1.00  0.00     0.034 A 
ATOM     64  C   UNL A   1      44.550  25.918  29.522  1.00  0.00     0.049 A 
ATOM     65  C   UNL A   1      45.486  28.977  34.108  1.00  0.00     0.074 A 
ATOM     66  C   UNL A   1      45.586  25.109  29.088  1.00  0.00     0.029 A 
ATOM     67  N   UNL A   1      45.005  26.562  30.665  1.00  0.00    -0.354 N 
ATOM     68  N   UNL A   1      45.414  28.194  33.057  1.00  0.00    -0.248 NA
ATOM     69  C   UNL A   1      46.755  28.882  34.841  1.00  0.00     0.031 C 
ATOM     70  C   UNL A   1      46.642  25.217  30.001  1.00  0.00     0.029 A 
ATOM     71  C   UNL A   1      46.294  26.148  30.965  1.00  0.00     0.049 A 
ATOM     72  H   UNL A   1      44.486  27.216  31.188  1.00  0.00     0.167 HD
ATOM     73  C   UNL A   1      46.645  27.545  32.982  1.00  0.00     0.074 A 
ATOM     74  C   UNL A   1      47.440  28.033  34.089  1.00  0.00     0.031 C 
ATOM     75  C   UNL A   1      47.082  26.636  32.073  1.00  0.00     0.034 A 
BRANCH  62  76
ATOM     76  C   UNL A   1      42.861  25.250  27.744  1.00  0.00     0.023 A 
ATOM     77  C   UNL A   1      42.171  24.032  27.878  1.00  0.00     0.031 A 
ATOM     78  C   UNL A   1      43.226  25.663  26.451  1.00  0.00     0.131 A 
ATOM     79  C   UNL A   1      41.934  23.235  26.747  1.00  0.00     0.055 A 
ATOM     80  C   UNL A   1      42.918  24.902  25.322  1.00  0.00     0.041 A 
ATOM     81  F   UNL A   1      43.901  26.806  26.264  1.00  0.00    -0.206 F 
ATOM     82  C   UNL A   1      42.282  23.672  25.467  1.00  0.00     0.022 A 
BRANCH  79  83
ATOM     83  S   UNL A   1      41.291  21.555  26.987  1.00  0.00     0.124 S 
ATOM     84  O   UNL A   1      42.476  20.744  26.716  1.00  0.00    -0.237 OA
ATOM     85  O   UNL A   1      40.839  21.586  28.372  1.00  0.00    -0.237 OA
ATOM     86  O   UNL A   1      40.231  21.448  25.985  1.00  0.00    -0.744 OA
ENDBRANCH  79  83
ENDBRANCH  62  76
BRANCH  63  87
ATOM     87  C   UNL A   1      44.750  30.729  35.883  1.00  0.00     0.023 A 
ATOM     88  C   UNL A   1      45.377  31.984  35.825  1.00  0.00     0.031 A 
ATOM     89  C   UNL A   1      44.459  30.193  37.149  1.00  0.00     0.131 A 
ATOM     90  C   UNL A   1      45.738  32.640  37.012  1.00  0.00     0.055 A 
ATOM     91  C   UNL A   1      44.777  30.870  38.327  1.00  0.00     0.041 A 
ATOM     92  F   UNL A   1      43.858  28.997  37.258  1.00  0.00    -0.206 F 
ATOM     93  C   UNL A   1      45.433  32.096  38.262  1.00  0.00     0.022 A 
BRANCH  90  94
ATOM     94  S   UNL A   1      46.688  34.181  36.901  1.00  0.00     0.124 S 
ATOM     95  O   UNL A   1      46.663  34.645  38.283  1.00  0.00    -0.237 OA
ATOM     96  O   UNL A   1      47.976  33.707  36.405  1.00  0.00    -0.237 OA
ATOM     97  O   UNL A   1      45.918  34.987  35.956  1.00  0.00    -0.744 OA
ENDBRANCH  90  94
ENDBRANCH  63  87
BRANCH  75  98
ATOM     98  C   UNL A   1      48.510  26.159  32.205  1.00  0.00     0.023 A 
ATOM     99  C   UNL A   1      49.577  26.812  31.563  1.00  0.00     0.031 A 
ATOM    100  C   UNL A   1      48.800  25.015  32.970  1.00  0.00     0.131 A 
ATOM    101  C   UNL A   1      50.875  26.283  31.649  1.00  0.00     0.055 A 
ATOM    102  C   UNL A   1      50.101  24.526  33.098  1.00  0.00     0.041 A 
ATOM    103  F   UNL A   1      47.821  24.351  33.605  1.00  0.00    -0.206 F 
ATOM    104  C   UNL A   1      51.145  25.151  32.423  1.00  0.00     0.022 A 
BRANCH 101 105
ATOM    105  S   UNL A   1      52.194  27.033  30.653  1.00  0.00     0.124 S 
ATOM    106  O   UNL A   1      51.510  27.298  29.391  1.00  0.00    -0.237 OA
ATOM    107  O   UNL A   1      52.549  28.207  31.443  1.00  0.00    -0.237 OA
ATOM    108  O   UNL A   1      53.217  25.992  30.596  1.00  0.00    -0.744 OA
ENDBRANCH 101 105
ENDBRANCH  75  98
ENDBRANCH  49  50
ENDBRANCH  42  44
ENDBRANCH  41  42
ENDBRANCH  40  41
ENDBRANCH  39  40
ENDBRANCH  38  39
ENDBRANCH  37  38
ENDBRANCH   1  37
TORSDOF 25
ENDMDL
