MODEL 1
REMARK VINA RESULT:      -9.3      0.000      0.000
REMARK SMILES CCc1cccc(-c2ccc([C@@H](C)C(=O)OCCOCCOCCOC(=O)c3ccc(-c4c5nc(c(-c6cc(S(=O)(=O)[O-])ccc6F)c6ccc([nH]6)c(-c6cc(S(=O)(=O)[O-])ccc6F)c6nc(c(-c7cc(S(=O)(=O)[O-])ccc7F)c7ccc4[nH]7)C=C6)C=C5)cc3)cc2)c1
REMARK SMILES IDX 20 1 19 2 18 3 17 4 16 5 14 6 15 7 12 8 13 9 11 10 8 11 9 12
REMARK SMILES IDX 92 13 10 14 91 15 7 16 3 17 4 18 93 19 5 20 6 21 2 22 1 23
REMARK SMILES IDX 21 24 22 25 23 26 24 27 25 28 26 29 27 30 28 31 29 32 90 33
REMARK SMILES IDX 30 34 89 35 31 36 32 37 33 38 83 39 34 40 88 41 82 42 84 43
REMARK SMILES IDX 35 44 87 45 81 46 80 47 36 49 68 50 48 51 67 52 49 53 52 54
REMARK SMILES IDX 66 55 85 56 50 57 51 58 65 60 86 61 53 62 37 63 38 64 46 65
REMARK SMILES IDX 39 66 45 67 47 68 44 69 40 70 41 71 42 72 43 73 69 74 70 75
REMARK SMILES IDX 78 76 71 77 77 78 79 79 76 80 72 81 73 82 74 83 75 84 54 85
REMARK SMILES IDX 55 86 63 87 56 88 62 89 64 90 61 91 57 92 58 93 59 94 60 95
REMARK H PARENT 84 48 52 59
REMARK Flexibility Score: inf
ROOT
ATOM      1  C   UNL A   1      30.785  26.171  26.068  1.00  0.00     0.188 C 
ENDROOT
BRANCH   1   2
ATOM      2  O   UNL A   1      30.774  25.635  24.748  1.00  0.00    -0.376 OA
BRANCH   2   3
ATOM      3  C   UNL A   1      30.538  24.247  24.561  1.00  0.00     0.202 C 
BRANCH   3   4
ATOM      4  C   UNL A   1      30.654  23.670  23.142  1.00  0.00     0.261 C 
BRANCH   4   5
ATOM      5  O   UNL A   1      31.787  22.801  22.913  1.00  0.00    -0.463 OA
BRANCH   5   6
ATOM      6  C   UNL A   1      32.905  23.385  22.416  1.00  0.00     0.313 C 
ATOM      7  O   UNL A   1      33.332  23.157  21.284  1.00  0.00    -0.252 OA
BRANCH   6   8
ATOM      8  C   UNL A   1      33.626  24.376  23.336  1.00  0.00     0.126 C 
ATOM      9  C   UNL A   1      33.815  25.689  22.575  1.00  0.00     0.025 C 
BRANCH   8  10
ATOM     10  C   UNL A   1      34.920  24.002  24.061  1.00  0.00    -0.034 A 
ATOM     11  C   UNL A   1      37.324  23.403  25.507  1.00  0.00    -0.018 A 
ATOM     12  C   UNL A   1      37.028  22.789  24.276  1.00  0.00     0.009 A 
ATOM     13  C   UNL A   1      36.394  24.326  26.001  1.00  0.00     0.009 A 
ATOM     14  C   UNL A   1      35.854  23.089  23.557  1.00  0.00     0.005 A 
ATOM     15  C   UNL A   1      35.221  24.625  25.290  1.00  0.00     0.005 A 
BRANCH  11  16
ATOM     16  C   UNL A   1      38.593  23.141  26.220  1.00  0.00    -0.018 A 
ATOM     17  C   UNL A   1      40.475  21.666  26.816  1.00  0.00    -0.048 A 
ATOM     18  C   UNL A   1      40.964  22.666  27.670  1.00  0.00     0.004 A 
ATOM     19  C   UNL A   1      39.294  21.922  26.090  1.00  0.00     0.012 A 
ATOM     20  C   UNL A   1      40.292  23.877  27.810  1.00  0.00     0.001 A 
ATOM     21  C   UNL A   1      39.118  24.108  27.094  1.00  0.00     0.009 A 
BRANCH  17  22
ATOM     22  C   UNL A   1      41.267  20.379  26.728  1.00  0.00     0.032 C 
ATOM     23  C   UNL A   1      40.626  19.206  26.001  1.00  0.00     0.009 C 
ENDBRANCH  17  22
ENDBRANCH  11  16
ENDBRANCH   8  10
ENDBRANCH   6   8
ENDBRANCH   5   6
ENDBRANCH   4   5
ENDBRANCH   3   4
ENDBRANCH   2   3
ENDBRANCH   1   2
BRANCH   1  24
ATOM     24  C   UNL A   1      32.056  26.852  26.598  1.00  0.00     0.188 C 
BRANCH  24  25
ATOM     25  O   UNL A   1      32.950  27.291  25.596  1.00  0.00    -0.376 OA
BRANCH  25  26
ATOM     26  C   UNL A   1      33.002  28.689  25.382  1.00  0.00     0.202 C 
BRANCH  26  27
ATOM     27  C   UNL A   1      34.085  29.402  26.203  1.00  0.00     0.261 C 
BRANCH  27  28
ATOM     28  O   UNL A   1      33.605  30.221  27.289  1.00  0.00    -0.460 OA
BRANCH  28  29
ATOM     29  C   UNL A   1      34.370  31.279  27.638  1.00  0.00     0.338 C 
ATOM     30  O   UNL A   1      34.026  32.455  27.631  1.00  0.00    -0.246 OA
BRANCH  29  31
ATOM     31  C   UNL A   1      35.624  30.778  28.247  1.00  0.00     0.060 A 
ATOM     32  C   UNL A   1      35.552  29.753  29.201  1.00  0.00     0.016 A 
ATOM     33  C   UNL A   1      36.863  31.318  27.893  1.00  0.00     0.016 A 
ATOM     34  C   UNL A   1      36.712  29.299  29.833  1.00  0.00     0.010 A 
ATOM     35  C   UNL A   1      38.023  30.873  28.542  1.00  0.00     0.010 A 
ATOM     36  C   UNL A   1      37.952  29.886  29.542  1.00  0.00    -0.014 A 
BRANCH  36  37
ATOM     37  C   UNL A   1      39.128  29.597  30.412  1.00  0.00     0.031 A 
ATOM     38  C   UNL A   1      39.224  30.291  31.749  1.00  0.00     0.074 A 
ATOM     39  C   UNL A   1      40.065  28.696  30.058  1.00  0.00     0.049 A 
ATOM     40  N   UNL A   1      40.152  30.208  32.667  1.00  0.00    -0.248 NA
ATOM     41  C   UNL A   1      38.117  31.198  32.093  1.00  0.00     0.031 C 
ATOM     42  C   UNL A   1      40.066  27.918  28.821  1.00  0.00     0.029 A 
ATOM     43  N   UNL A   1      41.200  28.280  30.715  1.00  0.00    -0.354 N 
ATOM     44  C   UNL A   1      39.738  31.042  33.702  1.00  0.00     0.074 A 
ATOM     45  C   UNL A   1      38.501  31.660  33.272  1.00  0.00     0.031 C 
ATOM     46  C   UNL A   1      41.147  27.117  28.810  1.00  0.00     0.029 A 
ATOM     47  C   UNL A   1      41.938  27.350  30.018  1.00  0.00     0.049 A 
ATOM     48  H   UNL A   1      41.460  28.617  31.603  1.00  0.00     0.167 HD
ATOM     49  C   UNL A   1      40.320  31.258  34.908  1.00  0.00     0.034 A 
ATOM     50  C   UNL A   1      43.121  26.771  30.312  1.00  0.00     0.034 A 
ATOM     51  C   UNL A   1      41.561  30.654  35.325  1.00  0.00     0.049 A 
ATOM     52  C   UNL A   1      43.809  27.122  31.616  1.00  0.00     0.074 A 
ATOM     53  C   UNL A   1      42.244  30.824  36.518  1.00  0.00     0.029 A 
ATOM     54  N   UNL A   1      42.311  29.767  34.566  1.00  0.00    -0.354 N 
ATOM     55  N   UNL A   1      43.403  27.912  32.583  1.00  0.00    -0.248 NA
ATOM     56  C   UNL A   1      45.111  26.487  31.870  1.00  0.00     0.031 C 
ATOM     57  C   UNL A   1      43.438  30.097  36.451  1.00  0.00     0.029 A 
ATOM     58  C   UNL A   1      43.459  29.402  35.253  1.00  0.00     0.049 A 
ATOM     59  H   UNL A   1      42.064  29.443  33.669  1.00  0.00     0.167 HD
ATOM     60  C   UNL A   1      44.380  27.829  33.576  1.00  0.00     0.074 A 
ATOM     61  C   UNL A   1      45.376  26.896  33.100  1.00  0.00     0.031 C 
ATOM     62  C   UNL A   1      44.450  28.467  34.773  1.00  0.00     0.034 A 
BRANCH  49  63
ATOM     63  C   UNL A   1      39.632  32.217  35.850  1.00  0.00     0.023 A 
ATOM     64  C   UNL A   1      40.021  33.565  35.940  1.00  0.00     0.031 A 
ATOM     65  C   UNL A   1      38.576  31.779  36.669  1.00  0.00     0.131 A 
ATOM     66  C   UNL A   1      39.395  34.413  36.865  1.00  0.00     0.055 A 
ATOM     67  C   UNL A   1      37.905  32.649  37.531  1.00  0.00     0.041 A 
ATOM     68  F   UNL A   1      38.178  30.498  36.645  1.00  0.00    -0.206 F 
ATOM     69  C   UNL A   1      38.321  33.973  37.641  1.00  0.00     0.022 A 
BRANCH  66  70
ATOM     70  S   UNL A   1      40.085  36.071  37.127  1.00  0.00     0.124 S 
ATOM     71  O   UNL A   1      41.467  35.761  37.484  1.00  0.00    -0.237 OA
ATOM     72  O   UNL A   1      39.887  36.705  35.829  1.00  0.00    -0.237 OA
ATOM     73  O   UNL A   1      39.275  36.611  38.217  1.00  0.00    -0.744 OA
ENDBRANCH  66  70
ENDBRANCH  49  63
BRANCH  50  74
ATOM     74  C   UNL A   1      43.778  25.823  29.359  1.00  0.00     0.023 A 
ATOM     75  C   UNL A   1      44.257  26.263  28.114  1.00  0.00     0.031 A 
ATOM     76  C   UNL A   1      43.825  24.443  29.628  1.00  0.00     0.131 A 
ATOM     77  C   UNL A   1      44.685  25.329  27.156  1.00  0.00     0.055 A 
ATOM     78  C   UNL A   1      44.323  23.525  28.700  1.00  0.00     0.041 A 
ATOM     79  F   UNL A   1      43.370  23.961  30.795  1.00  0.00    -0.206 F 
ATOM     80  C   UNL A   1      44.736  23.964  27.446  1.00  0.00     0.022 A 
BRANCH  77  81
ATOM     81  S   UNL A   1      45.031  25.910  25.472  1.00  0.00     0.124 S 
ATOM     82  O   UNL A   1      44.397  27.223  25.477  1.00  0.00    -0.237 OA
ATOM     83  O   UNL A   1      46.489  25.902  25.443  1.00  0.00    -0.237 OA
ATOM     84  O   UNL A   1      44.385  24.908  24.626  1.00  0.00    -0.744 OA
ENDBRANCH  77  81
ENDBRANCH  50  74
BRANCH  62  85
ATOM     85  C   UNL A   1      45.614  28.121  35.674  1.00  0.00     0.023 A 
ATOM     86  C   UNL A   1      46.813  28.857  35.655  1.00  0.00     0.031 A 
ATOM     87  C   UNL A   1      45.536  27.014  36.540  1.00  0.00     0.131 A 
ATOM     88  C   UNL A   1      47.910  28.428  36.420  1.00  0.00     0.055 A 
ATOM     89  C   UNL A   1      46.605  26.638  37.355  1.00  0.00     0.041 A 
ATOM     90  F   UNL A   1      44.419  26.273  36.603  1.00  0.00    -0.206 F 
ATOM     91  C   UNL A   1      47.808  27.335  37.283  1.00  0.00     0.022 A 
BRANCH  88  92
ATOM     92  S   UNL A   1      49.513  29.241  36.171  1.00  0.00     0.124 S 
ATOM     93  O   UNL A   1      49.452  29.607  34.761  1.00  0.00    -0.237 OA
ATOM     94  O   UNL A   1      49.451  30.348  37.121  1.00  0.00    -0.237 OA
ATOM     95  O   UNL A   1      50.482  28.197  36.501  1.00  0.00    -0.744 OA
ENDBRANCH  88  92
ENDBRANCH  62  85
ENDBRANCH  36  37
ENDBRANCH  29  31
ENDBRANCH  28  29
ENDBRANCH  27  28
ENDBRANCH  26  27
ENDBRANCH  25  26
ENDBRANCH  24  25
ENDBRANCH   1  24
TORSDOF 23
ENDMDL
MODEL 2
REMARK VINA RESULT:      -9.3      2.036      2.304
REMARK SMILES CCc1cccc(-c2ccc([C@@H](C)C(=O)OCCOCCOCCOC(=O)c3ccc(-c4c5nc(c(-c6cc(S(=O)(=O)[O-])ccc6F)c6ccc([nH]6)c(-c6cc(S(=O)(=O)[O-])ccc6F)c6nc(c(-c7cc(S(=O)(=O)[O-])ccc7F)c7ccc4[nH]7)C=C6)C=C5)cc3)cc2)c1
REMARK SMILES IDX 20 1 19 2 18 3 17 4 16 5 14 6 15 7 12 8 13 9 11 10 8 11 9 12
REMARK SMILES IDX 92 13 10 14 91 15 7 16 3 17 4 18 93 19 5 20 6 21 2 22 1 23
REMARK SMILES IDX 21 24 22 25 23 26 24 27 25 28 26 29 27 30 28 31 29 32 90 33
REMARK SMILES IDX 30 34 89 35 31 36 32 37 33 38 83 39 34 40 88 41 82 42 84 43
REMARK SMILES IDX 35 44 87 45 81 46 80 47 36 49 68 50 48 51 67 52 49 53 52 54
REMARK SMILES IDX 66 55 85 56 50 57 51 58 65 60 86 61 53 62 37 63 38 64 46 65
REMARK SMILES IDX 39 66 45 67 47 68 44 69 40 70 41 71 42 72 43 73 69 74 70 75
REMARK SMILES IDX 78 76 71 77 77 78 79 79 76 80 72 81 73 82 74 83 75 84 54 85
REMARK SMILES IDX 55 86 63 87 56 88 62 89 64 90 61 91 57 92 58 93 59 94 60 95
REMARK H PARENT 84 48 52 59
REMARK Flexibility Score: inf
ROOT
ATOM      1  C   UNL A   1      30.986  26.480  26.496  1.00  0.00     0.188 C 
ENDROOT
BRANCH   1   2
ATOM      2  O   UNL A   1      31.082  25.368  25.611  1.00  0.00    -0.376 OA
BRANCH   2   3
ATOM      3  C   UNL A   1      30.885  24.055  26.119  1.00  0.00     0.202 C 
BRANCH   3   4
ATOM      4  C   UNL A   1      30.603  22.920  25.122  1.00  0.00     0.261 C 
BRANCH   4   5
ATOM      5  O   UNL A   1      31.468  21.766  25.230  1.00  0.00    -0.463 OA
BRANCH   5   6
ATOM      6  C   UNL A   1      32.305  21.540  24.188  1.00  0.00     0.313 C 
ATOM      7  O   UNL A   1      32.334  20.475  23.572  1.00  0.00    -0.252 OA
BRANCH   6   8
ATOM      8  C   UNL A   1      33.228  22.697  23.789  1.00  0.00     0.126 C 
ATOM      9  C   UNL A   1      33.335  22.723  22.264  1.00  0.00     0.025 C 
BRANCH   8  10
ATOM     10  C   UNL A   1      34.614  22.869  24.413  1.00  0.00    -0.034 A 
ATOM     11  C   UNL A   1      37.152  23.221  25.702  1.00  0.00    -0.018 A 
ATOM     12  C   UNL A   1      37.041  23.106  24.303  1.00  0.00     0.009 A 
ATOM     13  C   UNL A   1      35.967  23.160  26.444  1.00  0.00     0.009 A 
ATOM     14  C   UNL A   1      35.796  22.945  23.666  1.00  0.00     0.005 A 
ATOM     15  C   UNL A   1      34.723  22.995  25.813  1.00  0.00     0.005 A 
BRANCH  11  16
ATOM     16  C   UNL A   1      38.454  23.467  26.360  1.00  0.00    -0.018 A 
ATOM     17  C   UNL A   1      40.614  22.676  27.243  1.00  0.00    -0.048 A 
ATOM     18  C   UNL A   1      40.884  23.976  27.696  1.00  0.00     0.004 A 
ATOM     19  C   UNL A   1      39.401  22.439  26.567  1.00  0.00     0.012 A 
ATOM     20  C   UNL A   1      39.967  25.006  27.499  1.00  0.00     0.001 A 
ATOM     21  C   UNL A   1      38.765  24.750  26.840  1.00  0.00     0.009 A 
BRANCH  17  22
ATOM     22  C   UNL A   1      41.665  21.618  27.506  1.00  0.00     0.032 C 
ATOM     23  C   UNL A   1      41.266  20.164  27.300  1.00  0.00     0.009 C 
ENDBRANCH  17  22
ENDBRANCH  11  16
ENDBRANCH   8  10
ENDBRANCH   6   8
ENDBRANCH   5   6
ENDBRANCH   4   5
ENDBRANCH   3   4
ENDBRANCH   2   3
ENDBRANCH   1   2
BRANCH   1  24
ATOM     24  C   UNL A   1      32.231  27.334  26.776  1.00  0.00     0.188 C 
BRANCH  24  25
ATOM     25  O   UNL A   1      32.820  27.912  25.629  1.00  0.00    -0.376 OA
BRANCH  25  26
ATOM     26  C   UNL A   1      32.715  29.318  25.521  1.00  0.00     0.202 C 
BRANCH  26  27
ATOM     27  C   UNL A   1      33.851  30.080  26.215  1.00  0.00     0.261 C 
BRANCH  27  28
ATOM     28  O   UNL A   1      33.569  30.533  27.555  1.00  0.00    -0.460 OA
BRANCH  28  29
ATOM     29  C   UNL A   1      34.230  31.635  27.978  1.00  0.00     0.338 C 
ATOM     30  O   UNL A   1      33.764  32.763  28.081  1.00  0.00    -0.246 OA
BRANCH  29  31
ATOM     31  C   UNL A   1      35.549  31.222  28.510  1.00  0.00     0.060 A 
ATOM     32  C   UNL A   1      35.664  29.978  29.146  1.00  0.00     0.016 A 
ATOM     33  C   UNL A   1      36.665  32.054  28.397  1.00  0.00     0.016 A 
ATOM     34  C   UNL A   1      36.881  29.585  29.707  1.00  0.00     0.010 A 
ATOM     35  C   UNL A   1      37.880  31.666  28.976  1.00  0.00     0.010 A 
ATOM     36  C   UNL A   1      37.988  30.446  29.667  1.00  0.00    -0.014 A 
BRANCH  36  37
ATOM     37  C   UNL A   1      39.186  30.146  30.503  1.00  0.00     0.031 A 
ATOM     38  C   UNL A   1      39.266  30.740  31.888  1.00  0.00     0.074 A 
ATOM     39  C   UNL A   1      40.159  29.319  30.073  1.00  0.00     0.049 A 
ATOM     40  N   UNL A   1      40.208  30.631  32.789  1.00  0.00    -0.248 NA
ATOM     41  C   UNL A   1      38.124  31.567  32.310  1.00  0.00     0.031 C 
ATOM     42  C   UNL A   1      40.181  28.638  28.780  1.00  0.00     0.029 A 
ATOM     43  N   UNL A   1      41.319  28.907  30.687  1.00  0.00    -0.354 N 
ATOM     44  C   UNL A   1      39.769  31.364  33.889  1.00  0.00     0.074 A 
ATOM     45  C   UNL A   1      38.501  31.955  33.517  1.00  0.00     0.031 C 
ATOM     46  C   UNL A   1      41.297  27.891  28.699  1.00  0.00     0.029 A 
ATOM     47  C   UNL A   1      42.090  28.068  29.914  1.00  0.00     0.049 A 
ATOM     48  H   UNL A   1      41.574  29.188  31.595  1.00  0.00     0.167 HD
ATOM     49  C   UNL A   1      40.355  31.515  35.102  1.00  0.00     0.034 A 
ATOM     50  C   UNL A   1      43.302  27.524  30.154  1.00  0.00     0.034 A 
ATOM     51  C   UNL A   1      41.627  30.939  35.462  1.00  0.00     0.049 A 
ATOM     52  C   UNL A   1      43.990  27.806  31.475  1.00  0.00     0.074 A 
ATOM     53  C   UNL A   1      42.316  31.049  36.659  1.00  0.00     0.029 A 
ATOM     54  N   UNL A   1      42.408  30.147  34.630  1.00  0.00    -0.354 N 
ATOM     55  N   UNL A   1      43.559  28.502  32.503  1.00  0.00    -0.248 NA
ATOM     56  C   UNL A   1      45.321  27.215  31.669  1.00  0.00     0.031 C 
ATOM     57  C   UNL A   1      43.540  30.386  36.526  1.00  0.00     0.029 A 
ATOM     58  C   UNL A   1      43.580  29.785  35.278  1.00  0.00     0.049 A 
ATOM     59  H   UNL A   1      42.165  29.881  33.714  1.00  0.00     0.167 HD
ATOM     60  C   UNL A   1      44.551  28.389  33.478  1.00  0.00     0.074 A 
ATOM     61  C   UNL A   1      45.583  27.541  32.924  1.00  0.00     0.031 C 
ATOM     62  C   UNL A   1      44.605  28.936  34.720  1.00  0.00     0.034 A 
BRANCH  49  63
ATOM     63  C   UNL A   1      39.635  32.366  36.121  1.00  0.00     0.023 A 
ATOM     64  C   UNL A   1      38.826  31.793  37.118  1.00  0.00     0.031 A 
ATOM     65  C   UNL A   1      39.759  33.767  36.096  1.00  0.00     0.131 A 
ATOM     66  C   UNL A   1      38.131  32.619  38.013  1.00  0.00     0.055 A 
ATOM     67  C   UNL A   1      39.126  34.578  37.039  1.00  0.00     0.041 A 
ATOM     68  F   UNL A   1      40.497  34.371  35.152  1.00  0.00    -0.206 F 
ATOM     69  C   UNL A   1      38.297  34.005  37.999  1.00  0.00     0.022 A 
BRANCH  66  70
ATOM     70  S   UNL A   1      36.909  31.862  39.121  1.00  0.00     0.124 S 
ATOM     71  O   UNL A   1      35.699  32.606  38.778  1.00  0.00    -0.237 OA
ATOM     72  O   UNL A   1      36.935  30.463  38.712  1.00  0.00    -0.237 OA
ATOM     73  O   UNL A   1      37.440  32.133  40.455  1.00  0.00    -0.744 OA
ENDBRANCH  66  70
ENDBRANCH  49  63
BRANCH  50  74
ATOM     74  C   UNL A   1      43.991  26.682  29.126  1.00  0.00     0.023 A 
ATOM     75  C   UNL A   1      44.596  27.264  27.999  1.00  0.00     0.031 A 
ATOM     76  C   UNL A   1      43.946  25.278  29.192  1.00  0.00     0.131 A 
ATOM     77  C   UNL A   1      45.056  26.451  26.951  1.00  0.00     0.055 A 
ATOM     78  C   UNL A   1      44.475  24.473  28.181  1.00  0.00     0.041 A 
ATOM     79  F   UNL A   1      43.370  24.664  30.237  1.00  0.00    -0.206 F 
ATOM     80  C   UNL A   1      45.015  25.059  27.041  1.00  0.00     0.022 A 
BRANCH  77  81
ATOM     81  S   UNL A   1      45.573  27.244  25.401  1.00  0.00     0.124 S 
ATOM     82  O   UNL A   1      46.566  28.201  25.877  1.00  0.00    -0.237 OA
ATOM     83  O   UNL A   1      46.087  26.112  24.639  1.00  0.00    -0.237 OA
ATOM     84  O   UNL A   1      44.336  27.830  24.890  1.00  0.00    -0.744 OA
ENDBRANCH  77  81
ENDBRANCH  50  74
BRANCH  62  85
ATOM     85  C   UNL A   1      45.795  28.577  35.582  1.00  0.00     0.023 A 
ATOM     86  C   UNL A   1      45.764  27.496  36.480  1.00  0.00     0.031 A 
ATOM     87  C   UNL A   1      46.968  29.354  35.530  1.00  0.00     0.131 A 
ATOM     88  C   UNL A   1      46.847  27.272  37.346  1.00  0.00     0.055 A 
ATOM     89  C   UNL A   1      48.071  29.080  36.340  1.00  0.00     0.041 A 
ATOM     90  F   UNL A   1      47.059  30.400  34.693  1.00  0.00    -0.206 F 
ATOM     91  C   UNL A   1      48.007  28.046  37.269  1.00  0.00     0.022 A 
BRANCH  88  92
ATOM     92  S   UNL A   1      46.664  26.039  38.665  1.00  0.00     0.124 S 
ATOM     93  O   UNL A   1      45.215  25.972  38.820  1.00  0.00    -0.237 OA
ATOM     94  O   UNL A   1      47.297  24.862  38.079  1.00  0.00    -0.237 OA
ATOM     95  O   UNL A   1      47.383  26.632  39.791  1.00  0.00    -0.744 OA
ENDBRANCH  88  92
ENDBRANCH  62  85
ENDBRANCH  36  37
ENDBRANCH  29  31
ENDBRANCH  28  29
ENDBRANCH  27  28
ENDBRANCH  26  27
ENDBRANCH  25  26
ENDBRANCH  24  25
ENDBRANCH   1  24
TORSDOF 23
ENDMDL
MODEL 3
REMARK VINA RESULT:      -8.9      4.601      9.831
REMARK SMILES CCc1cccc(-c2ccc([C@@H](C)C(=O)OCCOCCOCCOC(=O)c3ccc(-c4c5nc(c(-c6cc(S(=O)(=O)[O-])ccc6F)c6ccc([nH]6)c(-c6cc(S(=O)(=O)[O-])ccc6F)c6nc(c(-c7cc(S(=O)(=O)[O-])ccc7F)c7ccc4[nH]7)C=C6)C=C5)cc3)cc2)c1
REMARK SMILES IDX 20 1 19 2 18 3 17 4 16 5 14 6 15 7 12 8 13 9 11 10 8 11 9 12
REMARK SMILES IDX 92 13 10 14 91 15 7 16 3 17 4 18 93 19 5 20 6 21 2 22 1 23
REMARK SMILES IDX 21 24 22 25 23 26 24 27 25 28 26 29 27 30 28 31 29 32 90 33
REMARK SMILES IDX 30 34 89 35 31 36 32 37 33 38 83 39 34 40 88 41 82 42 84 43
REMARK SMILES IDX 35 44 87 45 81 46 80 47 36 49 68 50 48 51 67 52 49 53 52 54
REMARK SMILES IDX 66 55 85 56 50 57 51 58 65 60 86 61 53 62 37 63 38 64 46 65
REMARK SMILES IDX 39 66 45 67 47 68 44 69 40 70 41 71 42 72 43 73 69 74 70 75
REMARK SMILES IDX 78 76 71 77 77 78 79 79 76 80 72 81 73 82 74 83 75 84 54 85
REMARK SMILES IDX 55 86 63 87 56 88 62 89 64 90 61 91 57 92 58 93 59 94 60 95
REMARK H PARENT 84 48 52 59
REMARK Flexibility Score: inf
ROOT
ATOM      1  C   UNL A   1      37.716  33.487  37.023  1.00  0.00     0.188 C 
ENDROOT
BRANCH   1   2
ATOM      2  O   UNL A   1      38.432  32.956  35.912  1.00  0.00    -0.376 OA
BRANCH   2   3
ATOM      3  C   UNL A   1      38.322  31.572  35.610  1.00  0.00     0.202 C 
BRANCH   3   4
ATOM      4  C   UNL A   1      37.986  31.164  34.167  1.00  0.00     0.261 C 
BRANCH   4   5
ATOM      5  O   UNL A   1      38.181  32.190  33.167  1.00  0.00    -0.463 OA
BRANCH   5   6
ATOM      6  C   UNL A   1      38.158  31.784  31.873  1.00  0.00     0.313 C 
ATOM      7  O   UNL A   1      37.125  31.729  31.207  1.00  0.00    -0.252 OA
BRANCH   6   8
ATOM      8  C   UNL A   1      39.506  31.398  31.254  1.00  0.00     0.126 C 
ATOM      9  C   UNL A   1      39.953  32.533  30.332  1.00  0.00     0.025 C 
BRANCH   8  10
ATOM     10  C   UNL A   1      39.715  30.050  30.563  1.00  0.00    -0.034 A 
ATOM     11  C   UNL A   1      40.045  27.571  29.158  1.00  0.00    -0.018 A 
ATOM     12  C   UNL A   1      40.310  27.682  30.536  1.00  0.00     0.009 A 
ATOM     13  C   UNL A   1      39.609  28.725  28.496  1.00  0.00     0.009 A 
ATOM     14  C   UNL A   1      40.138  28.894  31.232  1.00  0.00     0.005 A 
ATOM     15  C   UNL A   1      39.440  29.937  29.184  1.00  0.00     0.005 A 
BRANCH  11  16
ATOM     16  C   UNL A   1      40.154  26.277  28.448  1.00  0.00    -0.018 A 
ATOM     17  C   UNL A   1      41.368  24.202  27.908  1.00  0.00    -0.048 A 
ATOM     18  C   UNL A   1      40.350  23.864  27.004  1.00  0.00     0.004 A 
ATOM     19  C   UNL A   1      41.251  25.407  28.631  1.00  0.00     0.012 A 
ATOM     20  C   UNL A   1      39.258  24.706  26.811  1.00  0.00     0.001 A 
ATOM     21  C   UNL A   1      39.165  25.900  27.525  1.00  0.00     0.009 A 
BRANCH  17  22
ATOM     22  C   UNL A   1      42.521  23.231  28.050  1.00  0.00     0.032 C 
ATOM     23  C   UNL A   1      43.099  23.025  29.442  1.00  0.00     0.009 C 
ENDBRANCH  17  22
ENDBRANCH  11  16
ENDBRANCH   8  10
ENDBRANCH   6   8
ENDBRANCH   5   6
ENDBRANCH   4   5
ENDBRANCH   3   4
ENDBRANCH   2   3
ENDBRANCH   1   2
BRANCH   1  24
ATOM     24  C   UNL A   1      38.478  33.883  38.297  1.00  0.00     0.188 C 
BRANCH  24  25
ATOM     25  O   UNL A   1      38.930  35.221  38.322  1.00  0.00    -0.376 OA
BRANCH  25  26
ATOM     26  C   UNL A   1      39.657  35.608  39.472  1.00  0.00     0.202 C 
BRANCH  26  27
ATOM     27  C   UNL A   1      40.601  36.795  39.240  1.00  0.00     0.261 C 
BRANCH  27  28
ATOM     28  O   UNL A   1      42.004  36.468  39.163  1.00  0.00    -0.460 OA
BRANCH  28  29
ATOM     29  C   UNL A   1      42.654  36.835  38.035  1.00  0.00     0.338 C 
ATOM     30  O   UNL A   1      43.263  37.884  37.860  1.00  0.00    -0.246 OA
BRANCH  29  31
ATOM     31  C   UNL A   1      42.706  35.674  37.118  1.00  0.00     0.060 A 
ATOM     32  C   UNL A   1      43.909  34.968  36.985  1.00  0.00     0.016 A 
ATOM     33  C   UNL A   1      41.583  35.287  36.381  1.00  0.00     0.016 A 
ATOM     34  C   UNL A   1      44.004  33.903  36.085  1.00  0.00     0.010 A 
ATOM     35  C   UNL A   1      41.686  34.230  35.467  1.00  0.00     0.010 A 
ATOM     36  C   UNL A   1      42.906  33.554  35.285  1.00  0.00    -0.014 A 
BRANCH  36  37
ATOM     37  C   UNL A   1      43.096  32.616  34.142  1.00  0.00     0.031 A 
ATOM     38  C   UNL A   1      43.227  33.190  32.753  1.00  0.00     0.074 A 
ATOM     39  C   UNL A   1      43.208  31.287  34.329  1.00  0.00     0.049 A 
ATOM     40  N   UNL A   1      43.387  32.576  31.608  1.00  0.00    -0.248 NA
ATOM     41  C   UNL A   1      43.174  34.657  32.645  1.00  0.00     0.031 C 
ATOM     42  C   UNL A   1      43.151  30.607  35.622  1.00  0.00     0.029 A 
ATOM     43  N   UNL A   1      43.399  30.268  33.424  1.00  0.00    -0.354 N 
ATOM     44  C   UNL A   1      43.465  33.579  30.646  1.00  0.00     0.074 A 
ATOM     45  C   UNL A   1      43.281  34.838  31.338  1.00  0.00     0.031 C 
ATOM     46  C   UNL A   1      43.308  29.284  35.427  1.00  0.00     0.029 A 
ATOM     47  C   UNL A   1      43.436  29.016  33.995  1.00  0.00     0.049 A 
ATOM     48  H   UNL A   1      43.499  30.422  32.457  1.00  0.00     0.167 HD
ATOM     49  C   UNL A   1      43.690  33.468  29.314  1.00  0.00     0.034 A 
ATOM     50  C   UNL A   1      43.542  27.797  33.426  1.00  0.00     0.034 A 
ATOM     51  C   UNL A   1      43.855  32.212  28.625  1.00  0.00     0.049 A 
ATOM     52  C   UNL A   1      43.673  27.695  31.919  1.00  0.00     0.074 A 
ATOM     53  C   UNL A   1      44.067  31.991  27.274  1.00  0.00     0.029 A 
ATOM     54  N   UNL A   1      43.823  30.962  29.228  1.00  0.00    -0.354 N 
ATOM     55  N   UNL A   1      43.746  28.655  31.025  1.00  0.00    -0.248 NA
ATOM     56  C   UNL A   1      43.752  26.342  31.351  1.00  0.00     0.031 C 
ATOM     57  C   UNL A   1      44.093  30.610  27.051  1.00  0.00     0.029 A 
ATOM     58  C   UNL A   1      43.986  29.968  28.274  1.00  0.00     0.049 A 
ATOM     59  H   UNL A   1      43.703  30.804  30.192  1.00  0.00     0.167 HD
ATOM     60  C   UNL A   1      43.924  28.016  29.798  1.00  0.00     0.074 A 
ATOM     61  C   UNL A   1      43.974  26.597  30.072  1.00  0.00     0.031 C 
ATOM     62  C   UNL A   1      44.037  28.552  28.555  1.00  0.00     0.034 A 
BRANCH  49  63
ATOM     63  C   UNL A   1      43.738  34.744  28.507  1.00  0.00     0.023 A 
ATOM     64  C   UNL A   1      44.959  35.344  28.152  1.00  0.00     0.031 A 
ATOM     65  C   UNL A   1      42.550  35.368  28.087  1.00  0.00     0.131 A 
ATOM     66  C   UNL A   1      44.963  36.558  27.449  1.00  0.00     0.055 A 
ATOM     67  C   UNL A   1      42.562  36.534  27.320  1.00  0.00     0.041 A 
ATOM     68  F   UNL A   1      41.355  34.855  28.418  1.00  0.00    -0.206 F 
ATOM     69  C   UNL A   1      43.775  37.142  27.006  1.00  0.00     0.022 A 
BRANCH  66  70
ATOM     70  S   UNL A   1      46.540  37.426  27.226  1.00  0.00     0.124 S 
ATOM     71  O   UNL A   1      46.198  38.777  27.666  1.00  0.00    -0.237 OA
ATOM     72  O   UNL A   1      47.439  36.680  28.099  1.00  0.00    -0.237 OA
ATOM     73  O   UNL A   1      46.806  37.294  25.795  1.00  0.00    -0.744 OA
ENDBRANCH  66  70
ENDBRANCH  49  63
BRANCH  50  74
ATOM     74  C   UNL A   1      43.494  26.549  34.251  1.00  0.00     0.023 A 
ATOM     75  C   UNL A   1      44.661  25.819  34.530  1.00  0.00     0.031 A 
ATOM     76  C   UNL A   1      42.265  26.004  34.667  1.00  0.00     0.131 A 
ATOM     77  C   UNL A   1      44.571  24.553  35.130  1.00  0.00     0.055 A 
ATOM     78  C   UNL A   1      42.188  24.778  35.331  1.00  0.00     0.041 A 
ATOM     79  F   UNL A   1      41.115  26.648  34.417  1.00  0.00    -0.206 F 
ATOM     80  C   UNL A   1      43.343  24.034  35.547  1.00  0.00     0.022 A 
BRANCH  77  81
ATOM     81  S   UNL A   1      46.066  23.527  35.220  1.00  0.00     0.124 S 
ATOM     82  O   UNL A   1      46.856  24.060  34.117  1.00  0.00    -0.237 OA
ATOM     83  O   UNL A   1      46.555  23.824  36.562  1.00  0.00    -0.237 OA
ATOM     84  O   UNL A   1      45.560  22.170  35.029  1.00  0.00    -0.744 OA
ENDBRANCH  77  81
ENDBRANCH  50  74
BRANCH  62  85
ATOM     85  C   UNL A   1      44.289  27.597  27.410  1.00  0.00     0.023 A 
ATOM     86  C   UNL A   1      45.531  26.962  27.231  1.00  0.00     0.031 A 
ATOM     87  C   UNL A   1      43.280  27.346  26.460  1.00  0.00     0.131 A 
ATOM     88  C   UNL A   1      45.758  26.177  26.089  1.00  0.00     0.055 A 
ATOM     89  C   UNL A   1      43.489  26.504  25.367  1.00  0.00     0.041 A 
ATOM     90  F   UNL A   1      42.073  27.923  26.577  1.00  0.00    -0.206 F 
ATOM     91  C   UNL A   1      44.740  25.930  25.165  1.00  0.00     0.022 A 
BRANCH  88  92
ATOM     92  S   UNL A   1      47.445  25.592  25.758  1.00  0.00     0.124 S 
ATOM     93  O   UNL A   1      47.518  25.683  24.305  1.00  0.00    -0.237 OA
ATOM     94  O   UNL A   1      48.257  26.552  26.499  1.00  0.00    -0.237 OA
ATOM     95  O   UNL A   1      47.448  24.234  26.297  1.00  0.00    -0.744 OA
ENDBRANCH  88  92
ENDBRANCH  62  85
ENDBRANCH  36  37
ENDBRANCH  29  31
ENDBRANCH  28  29
ENDBRANCH  27  28
ENDBRANCH  26  27
ENDBRANCH  25  26
ENDBRANCH  24  25
ENDBRANCH   1  24
TORSDOF 23
ENDMDL
