MODEL 1
REMARK VINA RESULT:      -9.5      0.000      0.000
REMARK SMILES CO[C@@H]1C[NH2+][C@@H](O[C@@H]2C[C@@H](C(=O)OCCOCCOCCOC(=O)c3ccc(-c4c5nc(c(-c6cc(S(=O)(=O)[O-])ccc6F)c6ccc([nH]6)c(-c6cc(S(=O)(=O)[O-])ccc6F)c6nc(c(-c7cc(S(=O)(=O)[O-])ccc7F)c7ccc4[nH]7)C=C6)C=C5)cc3)N(C(=O)OC(C)(C)C)C2)c2cc(Cl)ccc21
REMARK SMILES IDX 17 1 16 2 15 3 14 4 13 5 11 6 12 7 10 8 8 9 9 10 96 11 88 12
REMARK SMILES IDX 7 13 6 14 3 15 4 16 103 17 5 18 97 19 102 20 98 23 101 24
REMARK SMILES IDX 99 25 100 26 2 27 1 28 89 29 90 30 91 31 92 32 93 33 94 34
REMARK SMILES IDX 95 35 18 36 19 37 20 38 21 39 22 40 23 41 24 42 25 43 26 44
REMARK SMILES IDX 87 45 27 46 86 47 28 48 29 49 30 50 80 51 31 52 85 53 79 54
REMARK SMILES IDX 81 55 32 56 84 57 78 58 77 59 33 61 65 62 45 63 64 64 46 65
REMARK SMILES IDX 49 66 63 67 82 68 47 69 48 70 62 72 83 73 50 74 34 75 35 76
REMARK SMILES IDX 43 77 36 78 42 79 44 80 41 81 37 82 38 83 39 84 40 85 66 86
REMARK SMILES IDX 67 87 75 88 68 89 74 90 76 91 73 92 69 93 70 94 71 95 72 96
REMARK SMILES IDX 51 97 52 98 60 99 53 100 59 101 61 102 58 103 54 104 55 105
REMARK SMILES IDX 56 106 57 107
REMARK H PARENT 5 21 5 22 81 60 49 71
REMARK Flexibility Score: inf
ROOT
ATOM      1  C   UNL A   1      38.781  22.872  26.457  1.00  0.00     0.188 C 
ENDROOT
BRANCH   1   2
ATOM      2  O   UNL A   1      38.188  23.871  25.643  1.00  0.00    -0.376 OA
BRANCH   2   3
ATOM      3  C   UNL A   1      37.018  23.467  24.939  1.00  0.00     0.202 C 
BRANCH   3   4
ATOM      4  C   UNL A   1      35.856  23.136  25.878  1.00  0.00     0.261 C 
BRANCH   4   5
ATOM      5  O   UNL A   1      34.953  24.247  25.963  1.00  0.00    -0.462 OA
BRANCH   5   6
ATOM      6  C   UNL A   1      33.654  24.015  26.349  1.00  0.00     0.329 C 
ATOM      7  O   UNL A   1      33.288  23.297  27.265  1.00  0.00    -0.250 OA
BRANCH   6   8
ATOM      8  C   UNL A   1      32.760  24.868  25.440  1.00  0.00     0.201 C 
ATOM      9  C   UNL A   1      31.357  26.771  25.094  1.00  0.00     0.147 C 
ATOM     10  C   UNL A   1      32.591  26.320  25.870  1.00  0.00     0.071 C 
ATOM     11  C   UNL A   1      30.488  25.501  25.011  1.00  0.00     0.156 C 
ATOM     12  N   UNL A   1      31.416  24.392  25.194  1.00  0.00    -0.292 N 
BRANCH   9  13
ATOM     13  O   UNL A   1      31.584  27.547  23.924  1.00  0.00    -0.320 OA
BRANCH  13  14
ATOM     14  C   UNL A   1      31.755  28.946  23.741  1.00  0.00     0.354 C 
ATOM     15  C   UNL A   1      31.034  30.994  25.768  1.00  0.00     0.203 C 
ATOM     16  C   UNL A   1      32.321  30.114  25.805  1.00  0.00     0.300 C 
ATOM     17  C   UNL A   1      30.216  30.838  24.489  1.00  0.00    -0.002 A 
ATOM     18  N   UNL A   1      32.793  29.530  24.561  1.00  0.00    -0.315 N 
ATOM     19  C   UNL A   1      30.558  29.855  23.534  1.00  0.00     0.046 A 
ATOM     20  C   UNL A   1      29.064  31.621  24.283  1.00  0.00     0.009 A 
ATOM     21  H   UNL A   1      33.467  28.800  24.788  1.00  0.00     0.349 HD
ATOM     22  H   UNL A   1      33.196  30.293  24.017  1.00  0.00     0.349 HD
ATOM     23  C   UNL A   1      29.828  29.783  22.330  1.00  0.00     0.033 A 
ATOM     24  C   UNL A   1      28.332  31.518  23.097  1.00  0.00     0.021 A 
ATOM     25  C   UNL A   1      28.748  30.636  22.104  1.00  0.00     0.041 A 
ATOM     26  Cl  UNL A   1      27.892  30.557  20.612  1.00  0.00    -0.084 Cl
BRANCH  15  27
ATOM     27  O   UNL A   1      31.311  32.374  26.043  1.00  0.00    -0.371 OA
ATOM     28  C   UNL A   1      32.091  32.524  27.232  1.00  0.00     0.196 C 
ENDBRANCH  15  27
ENDBRANCH  13  14
ENDBRANCH   9  13
BRANCH  12  29
ATOM     29  C   UNL A   1      31.129  23.084  24.880  1.00  0.00     0.411 C 
ATOM     30  O   UNL A   1      30.692  22.262  25.671  1.00  0.00    -0.224 OA
BRANCH  29  31
ATOM     31  O   UNL A   1      31.379  22.847  23.569  1.00  0.00    -0.444 OA
BRANCH  31  32
ATOM     32  C   UNL A   1      32.523  22.093  23.099  1.00  0.00     0.106 C 
ATOM     33  C   UNL A   1      33.532  23.025  22.426  1.00  0.00     0.056 C 
ATOM     34  C   UNL A   1      33.143  21.249  24.209  1.00  0.00     0.056 C 
ATOM     35  C   UNL A   1      31.953  21.143  22.031  1.00  0.00     0.056 C 
ENDBRANCH  31  32
ENDBRANCH  29  31
ENDBRANCH  12  29
ENDBRANCH   6   8
ENDBRANCH   5   6
ENDBRANCH   4   5
ENDBRANCH   3   4
ENDBRANCH   2   3
ENDBRANCH   1   2
BRANCH   1  36
ATOM     36  C   UNL A   1      39.115  21.535  25.809  1.00  0.00     0.188 C 
BRANCH  36  37
ATOM     37  O   UNL A   1      39.578  20.505  26.658  1.00  0.00    -0.376 OA
BRANCH  37  38
ATOM     38  C   UNL A   1      40.473  19.574  26.055  1.00  0.00     0.202 C 
BRANCH  38  39
ATOM     39  C   UNL A   1      41.946  19.777  26.422  1.00  0.00     0.261 C 
BRANCH  39  40
ATOM     40  O   UNL A   1      42.708  20.094  25.238  1.00  0.00    -0.460 OA
BRANCH  40  41
ATOM     41  C   UNL A   1      43.905  20.708  25.418  1.00  0.00     0.338 C 
ATOM     42  O   UNL A   1      44.997  20.304  25.059  1.00  0.00    -0.246 OA
BRANCH  41  43
ATOM     43  C   UNL A   1      43.656  22.077  25.923  1.00  0.00     0.060 A 
ATOM     44  C   UNL A   1      43.802  22.370  27.279  1.00  0.00     0.016 A 
ATOM     45  C   UNL A   1      43.273  23.079  25.019  1.00  0.00     0.016 A 
ATOM     46  C   UNL A   1      43.608  23.677  27.724  1.00  0.00     0.010 A 
ATOM     47  C   UNL A   1      43.077  24.391  25.466  1.00  0.00     0.010 A 
ATOM     48  C   UNL A   1      43.276  24.705  26.819  1.00  0.00    -0.014 A 
BRANCH  48  49
ATOM     49  C   UNL A   1      43.424  26.111  27.271  1.00  0.00     0.031 A 
ATOM     50  C   UNL A   1      42.293  26.912  27.829  1.00  0.00     0.074 A 
ATOM     51  C   UNL A   1      44.662  26.639  27.213  1.00  0.00     0.049 A 
ATOM     52  N   UNL A   1      42.347  28.049  28.477  1.00  0.00    -0.248 NA
ATOM     53  C   UNL A   1      40.935  26.394  27.627  1.00  0.00     0.031 C 
ATOM     54  C   UNL A   1      45.820  25.960  26.630  1.00  0.00     0.029 A 
ATOM     55  N   UNL A   1      45.165  27.832  27.668  1.00  0.00    -0.354 N 
ATOM     56  C   UNL A   1      41.034  28.376  28.788  1.00  0.00     0.074 A 
ATOM     57  C   UNL A   1      40.202  27.343  28.202  1.00  0.00     0.031 C 
ATOM     58  C   UNL A   1      46.906  26.721  26.809  1.00  0.00     0.029 A 
ATOM     59  C   UNL A   1      46.524  27.950  27.500  1.00  0.00     0.049 A 
ATOM     60  H   UNL A   1      44.607  28.534  28.075  1.00  0.00     0.167 HD
ATOM     61  C   UNL A   1      40.583  29.429  29.514  1.00  0.00     0.034 A 
ATOM     62  C   UNL A   1      47.381  28.919  27.881  1.00  0.00     0.034 A 
ATOM     63  C   UNL A   1      41.445  30.448  30.075  1.00  0.00     0.049 A 
ATOM     64  C   UNL A   1      46.861  30.071  28.697  1.00  0.00     0.074 A 
ATOM     65  C   UNL A   1      41.091  31.505  30.896  1.00  0.00     0.029 A 
ATOM     66  N   UNL A   1      42.814  30.556  29.863  1.00  0.00    -0.354 N 
ATOM     67  N   UNL A   1      45.638  30.289  29.121  1.00  0.00    -0.248 NA
ATOM     68  C   UNL A   1      47.830  31.093  29.108  1.00  0.00     0.031 C 
ATOM     69  C   UNL A   1      42.221  32.299  31.104  1.00  0.00     0.029 A 
ATOM     70  C   UNL A   1      43.306  31.689  30.496  1.00  0.00     0.049 A 
ATOM     71  H   UNL A   1      43.356  29.921  29.341  1.00  0.00     0.167 HD
ATOM     72  C   UNL A   1      45.693  31.465  29.864  1.00  0.00     0.074 A 
ATOM     73  C   UNL A   1      47.078  31.893  29.856  1.00  0.00     0.031 C 
ATOM     74  C   UNL A   1      44.686  32.124  30.489  1.00  0.00     0.034 A 
BRANCH  61  75
ATOM     75  C   UNL A   1      39.101  29.548  29.792  1.00  0.00     0.023 A 
ATOM     76  C   UNL A   1      38.348  30.582  29.201  1.00  0.00     0.031 A 
ATOM     77  C   UNL A   1      38.474  28.748  30.764  1.00  0.00     0.131 A 
ATOM     78  C   UNL A   1      37.030  30.813  29.616  1.00  0.00     0.055 A 
ATOM     79  C   UNL A   1      37.144  28.952  31.139  1.00  0.00     0.041 A 
ATOM     80  F   UNL A   1      39.148  27.761  31.376  1.00  0.00    -0.206 F 
ATOM     81  C   UNL A   1      36.421  29.997  30.574  1.00  0.00     0.022 A 
BRANCH  78  82
ATOM     82  S   UNL A   1      36.083  32.233  28.998  1.00  0.00     0.124 S 
ATOM     83  O   UNL A   1      36.082  31.988  27.557  1.00  0.00    -0.237 OA
ATOM     84  O   UNL A   1      34.794  32.052  29.661  1.00  0.00    -0.237 OA
ATOM     85  O   UNL A   1      36.859  33.389  29.432  1.00  0.00    -0.744 OA
ENDBRANCH  78  82
ENDBRANCH  61  75
BRANCH  62  86
ATOM     86  C   UNL A   1      48.828  28.751  27.561  1.00  0.00     0.023 A 
ATOM     87  C   UNL A   1      49.286  28.889  26.238  1.00  0.00     0.031 A 
ATOM     88  C   UNL A   1      49.735  28.293  28.532  1.00  0.00     0.131 A 
ATOM     89  C   UNL A   1      50.584  28.483  25.905  1.00  0.00     0.055 A 
ATOM     90  C   UNL A   1      51.053  27.966  28.208  1.00  0.00     0.041 A 
ATOM     91  F   UNL A   1      49.338  28.127  29.803  1.00  0.00    -0.206 F 
ATOM     92  C   UNL A   1      51.476  28.040  26.885  1.00  0.00     0.022 A 
BRANCH  89  93
ATOM     93  S   UNL A   1      51.098  28.362  24.169  1.00  0.00     0.124 S 
ATOM     94  O   UNL A   1      49.825  28.162  23.486  1.00  0.00    -0.237 OA
ATOM     95  O   UNL A   1      51.731  29.661  23.957  1.00  0.00    -0.237 OA
ATOM     96  O   UNL A   1      52.006  27.220  24.157  1.00  0.00    -0.744 OA
ENDBRANCH  89  93
ENDBRANCH  62  86
BRANCH  74  97
ATOM     97  C   UNL A   1      45.004  33.410  31.221  1.00  0.00     0.023 A 
ATOM     98  C   UNL A   1      44.952  34.643  30.540  1.00  0.00     0.031 A 
ATOM     99  C   UNL A   1      45.508  33.403  32.534  1.00  0.00     0.131 A 
ATOM    100  C   UNL A   1      45.445  35.804  31.153  1.00  0.00     0.055 A 
ATOM    101  C   UNL A   1      45.946  34.571  33.161  1.00  0.00     0.041 A 
ATOM    102  F   UNL A   1      45.590  32.255  33.226  1.00  0.00    -0.206 F 
ATOM    103  C   UNL A   1      45.931  35.776  32.464  1.00  0.00     0.022 A 
BRANCH 100 104
ATOM    104  S   UNL A   1      45.565  37.368  30.241  1.00  0.00     0.124 S 
ATOM    105  O   UNL A   1      44.171  37.801  30.197  1.00  0.00    -0.237 OA
ATOM    106  O   UNL A   1      46.436  38.160  31.105  1.00  0.00    -0.237 OA
ATOM    107  O   UNL A   1      46.137  36.983  28.955  1.00  0.00    -0.744 OA
ENDBRANCH 100 104
ENDBRANCH  74  97
ENDBRANCH  48  49
ENDBRANCH  41  43
ENDBRANCH  40  41
ENDBRANCH  39  40
ENDBRANCH  38  39
ENDBRANCH  37  38
ENDBRANCH  36  37
ENDBRANCH   1  36
TORSDOF 26
ENDMDL
MODEL 2
REMARK VINA RESULT:      -9.4      4.436      8.884
REMARK SMILES CO[C@@H]1C[NH2+][C@@H](O[C@@H]2C[C@@H](C(=O)OCCOCCOCCOC(=O)c3ccc(-c4c5nc(c(-c6cc(S(=O)(=O)[O-])ccc6F)c6ccc([nH]6)c(-c6cc(S(=O)(=O)[O-])ccc6F)c6nc(c(-c7cc(S(=O)(=O)[O-])ccc7F)c7ccc4[nH]7)C=C6)C=C5)cc3)N(C(=O)OC(C)(C)C)C2)c2cc(Cl)ccc21
REMARK SMILES IDX 17 1 16 2 15 3 14 4 13 5 11 6 12 7 10 8 8 9 9 10 96 11 88 12
REMARK SMILES IDX 7 13 6 14 3 15 4 16 103 17 5 18 97 19 102 20 98 23 101 24
REMARK SMILES IDX 99 25 100 26 2 27 1 28 89 29 90 30 91 31 92 32 93 33 94 34
REMARK SMILES IDX 95 35 18 36 19 37 20 38 21 39 22 40 23 41 24 42 25 43 26 44
REMARK SMILES IDX 87 45 27 46 86 47 28 48 29 49 30 50 80 51 31 52 85 53 79 54
REMARK SMILES IDX 81 55 32 56 84 57 78 58 77 59 33 61 65 62 45 63 64 64 46 65
REMARK SMILES IDX 49 66 63 67 82 68 47 69 48 70 62 72 83 73 50 74 34 75 35 76
REMARK SMILES IDX 43 77 36 78 42 79 44 80 41 81 37 82 38 83 39 84 40 85 66 86
REMARK SMILES IDX 67 87 75 88 68 89 74 90 76 91 73 92 69 93 70 94 71 95 72 96
REMARK SMILES IDX 51 97 52 98 60 99 53 100 59 101 61 102 58 103 54 104 55 105
REMARK SMILES IDX 56 106 57 107
REMARK H PARENT 5 21 5 22 81 60 49 71
REMARK Flexibility Score: inf
ROOT
ATOM      1  C   UNL A   1      34.532  22.671  26.493  1.00  0.00     0.188 C 
ENDROOT
BRANCH   1   2
ATOM      2  O   UNL A   1      33.351  22.943  25.755  1.00  0.00    -0.376 OA
BRANCH   2   3
ATOM      3  C   UNL A   1      33.544  23.657  24.538  1.00  0.00     0.202 C 
BRANCH   3   4
ATOM      4  C   UNL A   1      32.506  24.763  24.339  1.00  0.00     0.261 C 
BRANCH   4   5
ATOM      5  O   UNL A   1      32.676  25.788  25.329  1.00  0.00    -0.462 OA
BRANCH   5   6
ATOM      6  C   UNL A   1      31.630  26.645  25.578  1.00  0.00     0.329 C 
ATOM      7  O   UNL A   1      30.448  26.348  25.638  1.00  0.00    -0.250 OA
BRANCH   6   8
ATOM      8  C   UNL A   1      32.239  28.033  25.812  1.00  0.00     0.201 C 
ATOM      9  C   UNL A   1      32.507  29.987  27.161  1.00  0.00     0.147 C 
ATOM     10  C   UNL A   1      32.305  28.479  27.268  1.00  0.00     0.071 C 
ATOM     11  C   UNL A   1      31.732  30.375  25.886  1.00  0.00     0.156 C 
ATOM     12  N   UNL A   1      31.643  29.147  25.107  1.00  0.00    -0.292 N 
BRANCH   9  13
ATOM     13  O   UNL A   1      33.831  30.471  27.355  1.00  0.00    -0.320 OA
BRANCH  13  14
ATOM     14  C   UNL A   1      34.514  30.898  28.527  1.00  0.00     0.354 C 
ATOM     15  C   UNL A   1      36.368  33.216  28.627  1.00  0.00     0.203 C 
ATOM     16  C   UNL A   1      34.812  33.316  28.629  1.00  0.00     0.300 C 
ATOM     17  C   UNL A   1      36.896  31.787  28.733  1.00  0.00    -0.002 A 
ATOM     18  N   UNL A   1      34.047  32.158  29.061  1.00  0.00    -0.315 N 
ATOM     19  C   UNL A   1      36.009  30.689  28.674  1.00  0.00     0.046 A 
ATOM     20  C   UNL A   1      38.281  31.546  28.812  1.00  0.00     0.009 A 
ATOM     21  H   UNL A   1      33.079  32.288  28.769  1.00  0.00     0.349 HD
ATOM     22  H   UNL A   1      34.156  32.100  30.073  1.00  0.00     0.349 HD
ATOM     23  C   UNL A   1      36.517  29.385  28.847  1.00  0.00     0.033 A 
ATOM     24  C   UNL A   1      38.772  30.245  28.954  1.00  0.00     0.021 A 
ATOM     25  C   UNL A   1      37.884  29.175  29.023  1.00  0.00     0.041 A 
ATOM     26  Cl  UNL A   1      38.481  27.579  29.269  1.00  0.00    -0.084 Cl
BRANCH  15  27
ATOM     27  O   UNL A   1      36.968  34.066  29.614  1.00  0.00    -0.371 OA
ATOM     28  C   UNL A   1      36.167  34.142  30.795  1.00  0.00     0.196 C 
ENDBRANCH  15  27
ENDBRANCH  13  14
ENDBRANCH   9  13
BRANCH  12  29
ATOM     29  C   UNL A   1      31.317  29.102  23.771  1.00  0.00     0.411 C 
ATOM     30  O   UNL A   1      32.121  29.214  22.858  1.00  0.00    -0.224 OA
BRANCH  29  31
ATOM     31  O   UNL A   1      29.986  28.896  23.615  1.00  0.00    -0.444 OA
BRANCH  31  32
ATOM     32  C   UNL A   1      29.105  29.839  22.959  1.00  0.00     0.106 C 
ATOM     33  C   UNL A   1      29.589  30.115  21.535  1.00  0.00     0.056 C 
ATOM     34  C   UNL A   1      27.648  29.388  23.014  1.00  0.00     0.056 C 
ATOM     35  C   UNL A   1      29.241  31.135  23.778  1.00  0.00     0.056 C 
ENDBRANCH  31  32
ENDBRANCH  29  31
ENDBRANCH  12  29
ENDBRANCH   6   8
ENDBRANCH   5   6
ENDBRANCH   4   5
ENDBRANCH   3   4
ENDBRANCH   2   3
ENDBRANCH   1   2
BRANCH   1  36
ATOM     36  C   UNL A   1      35.769  22.238  25.716  1.00  0.00     0.188 C 
BRANCH  36  37
ATOM     37  O   UNL A   1      35.896  20.862  25.421  1.00  0.00    -0.376 OA
BRANCH  37  38
ATOM     38  C   UNL A   1      37.200  20.439  25.033  1.00  0.00     0.202 C 
BRANCH  38  39
ATOM     39  C   UNL A   1      38.309  21.462  25.302  1.00  0.00     0.261 C 
BRANCH  39  40
ATOM     40  O   UNL A   1      39.104  21.039  26.429  1.00  0.00    -0.460 OA
BRANCH  40  41
ATOM     41  C   UNL A   1      40.244  20.354  26.160  1.00  0.00     0.338 C 
ATOM     42  O   UNL A   1      40.335  19.262  25.628  1.00  0.00    -0.246 OA
BRANCH  41  43
ATOM     43  C   UNL A   1      41.396  21.250  26.408  1.00  0.00     0.060 A 
ATOM     44  C   UNL A   1      41.193  22.586  26.754  1.00  0.00     0.016 A 
ATOM     45  C   UNL A   1      42.698  20.738  26.293  1.00  0.00     0.016 A 
ATOM     46  C   UNL A   1      42.293  23.399  27.029  1.00  0.00     0.010 A 
ATOM     47  C   UNL A   1      43.800  21.554  26.568  1.00  0.00     0.010 A 
ATOM     48  C   UNL A   1      43.603  22.883  26.971  1.00  0.00    -0.014 A 
BRANCH  48  49
ATOM     49  C   UNL A   1      44.694  23.669  27.600  1.00  0.00     0.031 A 
ATOM     50  C   UNL A   1      45.781  24.330  26.817  1.00  0.00     0.074 A 
ATOM     51  C   UNL A   1      44.638  23.819  28.938  1.00  0.00     0.049 A 
ATOM     52  N   UNL A   1      46.637  25.234  27.222  1.00  0.00    -0.248 NA
ATOM     53  C   UNL A   1      45.947  23.922  25.416  1.00  0.00     0.031 C 
ATOM     54  C   UNL A   1      43.652  23.165  29.799  1.00  0.00     0.029 A 
ATOM     55  N   UNL A   1      45.387  24.579  29.800  1.00  0.00    -0.354 N 
ATOM     56  C   UNL A   1      47.431  25.530  26.122  1.00  0.00     0.074 A 
ATOM     57  C   UNL A   1      46.990  24.661  25.049  1.00  0.00     0.031 C 
ATOM     58  C   UNL A   1      43.821  23.592  31.056  1.00  0.00     0.029 A 
ATOM     59  C   UNL A   1      44.939  24.532  31.099  1.00  0.00     0.049 A 
ATOM     60  H   UNL A   1      46.169  25.107  29.517  1.00  0.00     0.167 HD
ATOM     61  C   UNL A   1      48.415  26.458  26.025  1.00  0.00     0.034 A 
ATOM     62  C   UNL A   1      45.352  25.189  32.201  1.00  0.00     0.034 A 
ATOM     63  C   UNL A   1      48.837  27.301  27.124  1.00  0.00     0.049 A 
ATOM     64  C   UNL A   1      46.436  26.223  32.069  1.00  0.00     0.074 A 
ATOM     65  C   UNL A   1      49.765  28.328  27.101  1.00  0.00     0.029 A 
ATOM     66  N   UNL A   1      48.384  27.210  28.434  1.00  0.00    -0.354 N 
ATOM     67  N   UNL A   1      47.074  26.608  30.988  1.00  0.00    -0.248 NA
ATOM     68  C   UNL A   1      46.843  26.929  33.289  1.00  0.00     0.031 C 
ATOM     69  C   UNL A   1      49.940  28.793  28.406  1.00  0.00     0.029 A 
ATOM     70  C   UNL A   1      49.050  28.127  29.234  1.00  0.00     0.049 A 
ATOM     71  H   UNL A   1      47.690  26.586  28.749  1.00  0.00     0.167 HD
ATOM     72  C   UNL A   1      47.946  27.614  31.394  1.00  0.00     0.074 A 
ATOM     73  C   UNL A   1      47.730  27.798  32.815  1.00  0.00     0.031 C 
ATOM     74  C   UNL A   1      48.842  28.313  30.654  1.00  0.00     0.034 A 
BRANCH  61  75
ATOM     75  C   UNL A   1      49.105  26.660  24.695  1.00  0.00     0.023 A 
ATOM     76  C   UNL A   1      50.479  26.377  24.556  1.00  0.00     0.031 A 
ATOM     77  C   UNL A   1      48.449  27.288  23.620  1.00  0.00     0.131 A 
ATOM     78  C   UNL A   1      51.157  26.756  23.390  1.00  0.00     0.055 A 
ATOM     79  C   UNL A   1      49.119  27.620  22.441  1.00  0.00     0.041 A 
ATOM     80  F   UNL A   1      47.146  27.600  23.704  1.00  0.00    -0.206 F 
ATOM     81  C   UNL A   1      50.482  27.366  22.328  1.00  0.00     0.022 A 
BRANCH  78  82
ATOM     82  S   UNL A   1      52.954  26.556  23.238  1.00  0.00     0.124 S 
ATOM     83  O   UNL A   1      53.126  26.480  21.789  1.00  0.00    -0.237 OA
ATOM     84  O   UNL A   1      53.452  27.781  23.860  1.00  0.00    -0.237 OA
ATOM     85  O   UNL A   1      53.234  25.321  23.964  1.00  0.00    -0.744 OA
ENDBRANCH  78  82
ENDBRANCH  61  75
BRANCH  62  86
ATOM     86  C   UNL A   1      44.642  24.931  33.488  1.00  0.00     0.023 A 
ATOM     87  C   UNL A   1      43.612  25.788  33.918  1.00  0.00     0.031 A 
ATOM     88  C   UNL A   1      45.089  23.936  34.373  1.00  0.00     0.131 A 
ATOM     89  C   UNL A   1      43.131  25.694  35.229  1.00  0.00     0.055 A 
ATOM     90  C   UNL A   1      44.547  23.794  35.652  1.00  0.00     0.041 A 
ATOM     91  F   UNL A   1      46.082  23.107  34.014  1.00  0.00    -0.206 F 
ATOM     92  C   UNL A   1      43.578  24.690  36.093  1.00  0.00     0.022 A 
BRANCH  89  93
ATOM     93  S   UNL A   1      42.032  26.970  35.904  1.00  0.00     0.124 S 
ATOM     94  O   UNL A   1      40.963  27.010  34.912  1.00  0.00    -0.237 OA
ATOM     95  O   UNL A   1      41.671  26.395  37.198  1.00  0.00    -0.237 OA
ATOM     96  O   UNL A   1      42.879  28.156  35.967  1.00  0.00    -0.744 OA
ENDBRANCH  89  93
ENDBRANCH  62  86
BRANCH  74  97
ATOM     97  C   UNL A   1      49.700  29.353  31.344  1.00  0.00     0.023 A 
ATOM     98  C   UNL A   1      50.901  28.971  31.975  1.00  0.00     0.031 A 
ATOM     99  C   UNL A   1      49.256  30.676  31.514  1.00  0.00     0.131 A 
ATOM    100  C   UNL A   1      51.587  29.885  32.787  1.00  0.00     0.055 A 
ATOM    101  C   UNL A   1      49.972  31.600  32.278  1.00  0.00     0.041 A 
ATOM    102  F   UNL A   1      48.114  31.091  30.944  1.00  0.00    -0.206 F 
ATOM    103  C   UNL A   1      51.134  31.201  32.932  1.00  0.00     0.022 A 
BRANCH 100 104
ATOM    104  S   UNL A   1      53.031  29.377  33.760  1.00  0.00     0.124 S 
ATOM    105  O   UNL A   1      54.119  30.070  33.073  1.00  0.00    -0.237 OA
ATOM    106  O   UNL A   1      52.704  29.893  35.087  1.00  0.00    -0.237 OA
ATOM    107  O   UNL A   1      53.045  27.924  33.637  1.00  0.00    -0.744 OA
ENDBRANCH 100 104
ENDBRANCH  74  97
ENDBRANCH  48  49
ENDBRANCH  41  43
ENDBRANCH  40  41
ENDBRANCH  39  40
ENDBRANCH  38  39
ENDBRANCH  37  38
ENDBRANCH  36  37
ENDBRANCH   1  36
TORSDOF 26
ENDMDL
MODEL 3
REMARK VINA RESULT:      -8.7      3.204      8.316
REMARK SMILES CO[C@@H]1C[NH2+][C@@H](O[C@@H]2C[C@@H](C(=O)OCCOCCOCCOC(=O)c3ccc(-c4c5nc(c(-c6cc(S(=O)(=O)[O-])ccc6F)c6ccc([nH]6)c(-c6cc(S(=O)(=O)[O-])ccc6F)c6nc(c(-c7cc(S(=O)(=O)[O-])ccc7F)c7ccc4[nH]7)C=C6)C=C5)cc3)N(C(=O)OC(C)(C)C)C2)c2cc(Cl)ccc21
REMARK SMILES IDX 17 1 16 2 15 3 14 4 13 5 11 6 12 7 10 8 8 9 9 10 96 11 88 12
REMARK SMILES IDX 7 13 6 14 3 15 4 16 103 17 5 18 97 19 102 20 98 23 101 24
REMARK SMILES IDX 99 25 100 26 2 27 1 28 89 29 90 30 91 31 92 32 93 33 94 34
REMARK SMILES IDX 95 35 18 36 19 37 20 38 21 39 22 40 23 41 24 42 25 43 26 44
REMARK SMILES IDX 87 45 27 46 86 47 28 48 29 49 30 50 80 51 31 52 85 53 79 54
REMARK SMILES IDX 81 55 32 56 84 57 78 58 77 59 33 61 65 62 45 63 64 64 46 65
REMARK SMILES IDX 49 66 63 67 82 68 47 69 48 70 62 72 83 73 50 74 34 75 35 76
REMARK SMILES IDX 43 77 36 78 42 79 44 80 41 81 37 82 38 83 39 84 40 85 66 86
REMARK SMILES IDX 67 87 75 88 68 89 74 90 76 91 73 92 69 93 70 94 71 95 72 96
REMARK SMILES IDX 51 97 52 98 60 99 53 100 59 101 61 102 58 103 54 104 55 105
REMARK SMILES IDX 56 106 57 107
REMARK H PARENT 5 21 5 22 81 60 49 71
REMARK Flexibility Score: inf
ROOT
ATOM      1  C   UNL A   1      35.156  22.572  26.304  1.00  0.00     0.188 C 
ENDROOT
BRANCH   1   2
ATOM      2  O   UNL A   1      34.134  23.018  25.427  1.00  0.00    -0.376 OA
BRANCH   2   3
ATOM      3  C   UNL A   1      33.978  24.431  25.341  1.00  0.00     0.202 C 
BRANCH   3   4
ATOM      4  C   UNL A   1      32.514  24.850  25.197  1.00  0.00     0.261 C 
BRANCH   4   5
ATOM      5  O   UNL A   1      32.158  25.776  26.234  1.00  0.00    -0.462 OA
BRANCH   5   6
ATOM      6  C   UNL A   1      31.364  26.852  25.915  1.00  0.00     0.329 C 
ATOM      7  O   UNL A   1      30.163  26.829  25.705  1.00  0.00    -0.250 OA
BRANCH   6   8
ATOM      8  C   UNL A   1      32.270  28.090  25.919  1.00  0.00     0.201 C 
ATOM      9  C   UNL A   1      33.233  29.959  27.053  1.00  0.00     0.147 C 
ATOM     10  C   UNL A   1      32.772  28.525  27.290  1.00  0.00     0.071 C 
ATOM     11  C   UNL A   1      32.263  30.486  25.977  1.00  0.00     0.156 C 
ATOM     12  N   UNL A   1      31.750  29.296  25.312  1.00  0.00    -0.292 N 
BRANCH   9  13
ATOM     13  O   UNL A   1      34.632  30.167  26.902  1.00  0.00    -0.320 OA
BRANCH  13  14
ATOM     14  C   UNL A   1      35.553  30.949  27.651  1.00  0.00     0.354 C 
ATOM     15  C   UNL A   1      36.112  30.556  30.541  1.00  0.00     0.203 C 
ATOM     16  C   UNL A   1      36.690  29.676  29.392  1.00  0.00     0.300 C 
ATOM     17  C   UNL A   1      35.336  31.778  30.054  1.00  0.00    -0.002 A 
ATOM     18  N   UNL A   1      36.746  30.239  28.054  1.00  0.00    -0.315 N 
ATOM     19  C   UNL A   1      35.064  31.952  28.678  1.00  0.00     0.046 A 
ATOM     20  C   UNL A   1      34.815  32.703  30.978  1.00  0.00     0.009 A 
ATOM     21  H   UNL A   1      36.901  29.477  27.394  1.00  0.00     0.349 HD
ATOM     22  H   UNL A   1      37.502  30.923  28.059  1.00  0.00     0.349 HD
ATOM     23  C   UNL A   1      34.410  33.125  28.251  1.00  0.00     0.033 A 
ATOM     24  C   UNL A   1      34.142  33.847  30.541  1.00  0.00     0.021 A 
ATOM     25  C   UNL A   1      33.988  34.079  29.177  1.00  0.00     0.041 A 
ATOM     26  Cl  UNL A   1      33.221  35.521  28.632  1.00  0.00    -0.084 Cl
BRANCH  15  27
ATOM     27  O   UNL A   1      37.114  30.926  31.499  1.00  0.00    -0.371 OA
ATOM     28  C   UNL A   1      37.087  30.066  32.641  1.00  0.00     0.196 C 
ENDBRANCH  15  27
ENDBRANCH  13  14
ENDBRANCH   9  13
BRANCH  12  29
ATOM     29  C   UNL A   1      31.109  29.306  24.095  1.00  0.00     0.411 C 
ATOM     30  O   UNL A   1      31.465  28.665  23.119  1.00  0.00    -0.224 OA
BRANCH  29  31
ATOM     31  O   UNL A   1      30.017  30.110  24.142  1.00  0.00    -0.444 OA
BRANCH  31  32
ATOM     32  C   UNL A   1      28.921  30.023  23.200  1.00  0.00     0.106 C 
ATOM     33  C   UNL A   1      28.397  28.588  23.128  1.00  0.00     0.056 C 
ATOM     34  C   UNL A   1      27.826  31.041  23.505  1.00  0.00     0.056 C 
ATOM     35  C   UNL A   1      29.547  30.379  21.840  1.00  0.00     0.056 C 
ENDBRANCH  31  32
ENDBRANCH  29  31
ENDBRANCH  12  29
ENDBRANCH   6   8
ENDBRANCH   5   6
ENDBRANCH   4   5
ENDBRANCH   3   4
ENDBRANCH   2   3
ENDBRANCH   1   2
BRANCH   1  36
ATOM     36  C   UNL A   1      36.588  22.579  25.785  1.00  0.00     0.188 C 
BRANCH  36  37
ATOM     37  O   UNL A   1      37.247  21.332  25.697  1.00  0.00    -0.376 OA
BRANCH  37  38
ATOM     38  C   UNL A   1      38.666  21.399  25.578  1.00  0.00     0.202 C 
BRANCH  38  39
ATOM     39  C   UNL A   1      39.329  22.474  26.444  1.00  0.00     0.261 C 
BRANCH  39  40
ATOM     40  O   UNL A   1      40.401  21.892  27.215  1.00  0.00    -0.460 OA
BRANCH  40  41
ATOM     41  C   UNL A   1      41.509  21.499  26.537  1.00  0.00     0.338 C 
ATOM     42  O   UNL A   1      41.584  20.607  25.709  1.00  0.00    -0.246 OA
BRANCH  41  43
ATOM     43  C   UNL A   1      42.584  22.485  26.789  1.00  0.00     0.060 A 
ATOM     44  C   UNL A   1      42.736  23.596  25.958  1.00  0.00     0.016 A 
ATOM     45  C   UNL A   1      43.448  22.290  27.877  1.00  0.00     0.016 A 
ATOM     46  C   UNL A   1      43.725  24.536  26.244  1.00  0.00     0.010 A 
ATOM     47  C   UNL A   1      44.442  23.234  28.162  1.00  0.00     0.010 A 
ATOM     48  C   UNL A   1      44.565  24.381  27.365  1.00  0.00    -0.014 A 
BRANCH  48  49
ATOM     49  C   UNL A   1      45.349  25.557  27.820  1.00  0.00     0.031 A 
ATOM     50  C   UNL A   1      46.672  25.931  27.237  1.00  0.00     0.074 A 
ATOM     51  C   UNL A   1      44.784  26.332  28.766  1.00  0.00     0.049 A 
ATOM     52  N   UNL A   1      47.330  27.055  27.374  1.00  0.00    -0.248 NA
ATOM     53  C   UNL A   1      47.356  24.926  26.414  1.00  0.00     0.031 C 
ATOM     54  C   UNL A   1      43.523  26.020  29.441  1.00  0.00     0.029 A 
ATOM     55  N   UNL A   1      45.162  27.538  29.299  1.00  0.00    -0.354 N 
ATOM     56  C   UNL A   1      48.496  26.910  26.634  1.00  0.00     0.074 A 
ATOM     57  C   UNL A   1      48.480  25.563  26.100  1.00  0.00     0.031 C 
ATOM     58  C   UNL A   1      43.205  27.032  30.257  1.00  0.00     0.029 A 
ATOM     59  C   UNL A   1      44.245  28.056  30.183  1.00  0.00     0.049 A 
ATOM     60  H   UNL A   1      46.007  27.989  29.071  1.00  0.00     0.167 HD
ATOM     61  C   UNL A   1      49.467  27.830  26.413  1.00  0.00     0.034 A 
ATOM     62  C   UNL A   1      44.217  29.231  30.842  1.00  0.00     0.034 A 
ATOM     63  C   UNL A   1      49.454  29.165  26.974  1.00  0.00     0.049 A 
ATOM     64  C   UNL A   1      45.297  30.243  30.571  1.00  0.00     0.074 A 
ATOM     65  C   UNL A   1      50.347  30.196  26.739  1.00  0.00     0.029 A 
ATOM     66  N   UNL A   1      48.527  29.649  27.888  1.00  0.00    -0.354 N 
ATOM     67  N   UNL A   1      46.315  30.155  29.746  1.00  0.00    -0.248 NA
ATOM     68  C   UNL A   1      45.220  31.518  31.294  1.00  0.00     0.031 C 
ATOM     69  C   UNL A   1      50.016  31.265  27.574  1.00  0.00     0.029 A 
ATOM     70  C   UNL A   1      48.857  30.944  28.263  1.00  0.00     0.049 A 
ATOM     71  H   UNL A   1      47.748  29.147  28.222  1.00  0.00     0.167 HD
ATOM     72  C   UNL A   1      46.989  31.369  29.836  1.00  0.00     0.074 A 
ATOM     73  C   UNL A   1      46.245  32.185  30.775  1.00  0.00     0.031 C 
ATOM     74  C   UNL A   1      48.121  31.763  29.201  1.00  0.00     0.034 A 
BRANCH  61  75
ATOM     75  C   UNL A   1      50.623  27.474  25.506  1.00  0.00     0.023 A 
ATOM     76  C   UNL A   1      50.505  27.628  24.110  1.00  0.00     0.031 A 
ATOM     77  C   UNL A   1      51.770  26.828  26.003  1.00  0.00     0.131 A 
ATOM     78  C   UNL A   1      51.493  27.110  23.262  1.00  0.00     0.055 A 
ATOM     79  C   UNL A   1      52.775  26.356  25.156  1.00  0.00     0.041 A 
ATOM     80  F   UNL A   1      51.927  26.635  27.323  1.00  0.00    -0.206 F 
ATOM     81  C   UNL A   1      52.632  26.484  23.779  1.00  0.00     0.022 A 
BRANCH  78  82
ATOM     82  S   UNL A   1      51.299  27.144  21.458  1.00  0.00     0.124 S 
ATOM     83  O   UNL A   1      51.684  28.519  21.142  1.00  0.00    -0.237 OA
ATOM     84  O   UNL A   1      52.247  26.119  21.029  1.00  0.00    -0.237 OA
ATOM     85  O   UNL A   1      49.890  26.829  21.249  1.00  0.00    -0.744 OA
ENDBRANCH  78  82
ENDBRANCH  61  75
BRANCH  62  86
ATOM     86  C   UNL A   1      43.058  29.516  31.737  1.00  0.00     0.023 A 
ATOM     87  C   UNL A   1      43.079  29.106  33.082  1.00  0.00     0.031 A 
ATOM     88  C   UNL A   1      41.862  30.045  31.223  1.00  0.00     0.131 A 
ATOM     89  C   UNL A   1      41.902  29.145  33.840  1.00  0.00     0.055 A 
ATOM     90  C   UNL A   1      40.713  30.157  32.008  1.00  0.00     0.041 A 
ATOM     91  F   UNL A   1      41.789  30.432  29.940  1.00  0.00    -0.206 F 
ATOM     92  C   UNL A   1      40.724  29.685  33.317  1.00  0.00     0.022 A 
BRANCH  89  93
ATOM     93  S   UNL A   1      41.823  28.346  35.467  1.00  0.00     0.124 S 
ATOM     94  O   UNL A   1      43.234  28.143  35.777  1.00  0.00    -0.237 OA
ATOM     95  O   UNL A   1      41.141  29.364  36.263  1.00  0.00    -0.237 OA
ATOM     96  O   UNL A   1      41.051  27.133  35.218  1.00  0.00    -0.744 OA
ENDBRANCH  89  93
ENDBRANCH  62  86
BRANCH  74  97
ATOM     97  C   UNL A   1      48.674  33.142  29.491  1.00  0.00     0.023 A 
ATOM     98  C   UNL A   1      48.342  34.226  28.653  1.00  0.00     0.031 A 
ATOM     99  C   UNL A   1      49.644  33.351  30.488  1.00  0.00     0.131 A 
ATOM    100  C   UNL A   1      49.012  35.450  28.794  1.00  0.00     0.055 A 
ATOM    101  C   UNL A   1      50.267  34.588  30.660  1.00  0.00     0.041 A 
ATOM    102  F   UNL A   1      50.005  32.350  31.307  1.00  0.00    -0.206 F 
ATOM    103  C   UNL A   1      49.964  35.639  29.800  1.00  0.00     0.022 A 
BRANCH 100 104
ATOM    104  S   UNL A   1      48.745  36.806  27.618  1.00  0.00     0.124 S 
ATOM    105  O   UNL A   1      47.621  36.307  26.829  1.00  0.00    -0.237 OA
ATOM    106  O   UNL A   1      48.436  37.924  28.505  1.00  0.00    -0.237 OA
ATOM    107  O   UNL A   1      50.012  36.904  26.901  1.00  0.00    -0.744 OA
ENDBRANCH 100 104
ENDBRANCH  74  97
ENDBRANCH  48  49
ENDBRANCH  41  43
ENDBRANCH  40  41
ENDBRANCH  39  40
ENDBRANCH  38  39
ENDBRANCH  37  38
ENDBRANCH  36  37
ENDBRANCH   1  36
TORSDOF 26
ENDMDL
