MODEL 1
REMARK VINA RESULT:      -8.7      0.000      0.000
REMARK SMILES O=C(C[C@H]1S/C(=[NH+]/N=C/c2cccc(Cl)c2)NC1=O)OCCOCCOCCOC(=O)c1ccc(-c2c3nc(c(-c4cc(S(=O)(=O)[O-])ccc4F)c4ccc([nH]4)c(-c4cc(S(=O)(=O)[O-])ccc4F)c4nc(c(-c5cc(S(=O)(=O)[O-])ccc5F)c5ccc2[nH]5)C=C4)C=C3)cc1
REMARK SMILES IDX 24 1 23 2 22 3 21 4 20 5 2 6 1 7 3 8 4 9 5 10 18 11 6 12
REMARK SMILES IDX 17 13 19 14 7 15 8 18 9 19 10 20 11 21 16 22 12 23 14 24
REMARK SMILES IDX 13 25 15 26 25 27 26 28 27 29 28 30 29 31 30 32 31 33 32 34
REMARK SMILES IDX 33 35 94 36 34 37 93 38 35 39 36 40 37 41 87 42 38 43 92 44
REMARK SMILES IDX 86 45 88 46 39 47 91 48 85 49 84 50 40 52 72 53 52 54 71 55
REMARK SMILES IDX 53 56 56 57 70 58 89 59 54 60 55 61 69 63 90 64 57 65 41 66
REMARK SMILES IDX 42 67 50 68 43 69 49 70 51 71 48 72 44 73 45 74 46 75 47 76
REMARK SMILES IDX 73 77 74 78 82 79 75 80 81 81 83 82 80 83 76 84 77 85 78 86
REMARK SMILES IDX 79 87 58 88 59 89 67 90 60 91 66 92 68 93 65 94 61 95 62 96
REMARK SMILES IDX 63 97 64 98
REMARK H PARENT 17 16 7 17 88 51 56 62
REMARK Flexibility Score: inf
ROOT
ATOM      1  C   UNL A   1      40.655  29.390  31.814  1.00  0.00     0.188 C 
ENDROOT
BRANCH   1   2
ATOM      2  O   UNL A   1      39.487  30.155  31.599  1.00  0.00    -0.376 OA
BRANCH   2   3
ATOM      3  C   UNL A   1      38.357  29.569  30.986  1.00  0.00     0.202 C 
BRANCH   3   4
ATOM      4  C   UNL A   1      37.050  29.606  31.768  1.00  0.00     0.261 C 
BRANCH   4   5
ATOM      5  O   UNL A   1      36.910  30.571  32.835  1.00  0.00    -0.463 OA
BRANCH   5   6
ATOM      6  C   UNL A   1      36.893  31.914  32.810  1.00  0.00     0.307 C 
ATOM      7  O   UNL A   1      36.594  32.537  33.828  1.00  0.00    -0.252 OA
BRANCH   6   8
ATOM      8  C   UNL A   1      37.162  32.664  31.528  1.00  0.00     0.150 C 
BRANCH   8   9
ATOM      9  C   UNL A   1      35.995  33.476  30.993  1.00  0.00     0.184 C 
ATOM     10  S   UNL A   1      36.308  33.827  29.220  1.00  0.00    -0.020 SA
ATOM     11  C   UNL A   1      34.722  32.665  30.985  1.00  0.00     0.322 C 
ATOM     12  C   UNL A   1      35.376  32.440  28.769  1.00  0.00     0.337 C 
ATOM     13  N   UNL A   1      34.604  32.020  29.803  1.00  0.00    -0.202 N 
ATOM     14  O   UNL A   1      33.956  32.547  31.929  1.00  0.00    -0.246 OA
ATOM     15  N   UNL A   1      35.362  31.875  27.611  1.00  0.00    -0.142 N 
ATOM     16  H   UNL A   1      33.978  31.269  29.696  1.00  0.00     0.316 HD
ATOM     17  H   UNL A   1      35.932  32.114  26.845  1.00  0.00     0.343 HD
BRANCH  15  18
ATOM     18  N   UNL A   1      34.405  30.870  27.631  1.00  0.00    -0.093 NA
ATOM     19  C   UNL A   1      34.675  29.853  26.891  1.00  0.00     0.166 C 
BRANCH  19  20
ATOM     20  C   UNL A   1      33.657  28.793  26.814  1.00  0.00    -0.002 A 
ATOM     21  C   UNL A   1      32.429  28.979  27.471  1.00  0.00     0.010 A 
ATOM     22  C   UNL A   1      33.916  27.628  26.103  1.00  0.00     0.030 A 
ATOM     23  C   UNL A   1      31.448  27.996  27.413  1.00  0.00     0.002 A 
ATOM     24  C   UNL A   1      32.929  26.645  26.058  1.00  0.00     0.041 A 
ATOM     25  C   UNL A   1      31.700  26.825  26.703  1.00  0.00     0.020 A 
ATOM     26  Cl  UNL A   1      33.223  25.184  25.199  1.00  0.00    -0.084 Cl
ENDBRANCH  19  20
ENDBRANCH  15  18
ENDBRANCH   8   9
ENDBRANCH   6   8
ENDBRANCH   5   6
ENDBRANCH   4   5
ENDBRANCH   3   4
ENDBRANCH   2   3
ENDBRANCH   1   2
BRANCH   1  27
ATOM     27  C   UNL A   1      40.788  28.133  30.942  1.00  0.00     0.188 C 
BRANCH  27  28
ATOM     28  O   UNL A   1      41.287  28.264  29.621  1.00  0.00    -0.376 OA
BRANCH  28  29
ATOM     29  C   UNL A   1      40.653  27.534  28.578  1.00  0.00     0.202 C 
BRANCH  29  30
ATOM     30  C   UNL A   1      40.178  28.256  27.299  1.00  0.00     0.261 C 
BRANCH  30  31
ATOM     31  O   UNL A   1      41.074  29.241  26.740  1.00  0.00    -0.460 OA
BRANCH  31  32
ATOM     32  C   UNL A   1      41.945  28.787  25.800  1.00  0.00     0.338 C 
ATOM     33  O   UNL A   1      41.799  28.838  24.593  1.00  0.00    -0.246 OA
BRANCH  32  34
ATOM     34  C   UNL A   1      43.216  28.348  26.428  1.00  0.00     0.060 A 
ATOM     35  C   UNL A   1      43.649  27.027  26.229  1.00  0.00     0.016 A 
ATOM     36  C   UNL A   1      43.918  29.189  27.290  1.00  0.00     0.016 A 
ATOM     37  C   UNL A   1      44.766  26.533  26.910  1.00  0.00     0.010 A 
ATOM     38  C   UNL A   1      45.018  28.683  27.998  1.00  0.00     0.010 A 
ATOM     39  C   UNL A   1      45.426  27.343  27.842  1.00  0.00    -0.014 A 
BRANCH  39  40
ATOM     40  C   UNL A   1      46.375  26.744  28.821  1.00  0.00     0.031 A 
ATOM     41  C   UNL A   1      45.816  26.239  30.127  1.00  0.00     0.074 A 
ATOM     42  C   UNL A   1      47.694  26.646  28.577  1.00  0.00     0.049 A 
ATOM     43  N   UNL A   1      46.440  25.803  31.191  1.00  0.00    -0.248 NA
ATOM     44  C   UNL A   1      44.350  26.240  30.244  1.00  0.00     0.031 C 
ATOM     45  C   UNL A   1      48.355  27.027  27.332  1.00  0.00     0.029 A 
ATOM     46  N   UNL A   1      48.719  26.208  29.383  1.00  0.00    -0.354 N 
ATOM     47  C   UNL A   1      45.444  25.496  32.114  1.00  0.00     0.074 A 
ATOM     48  C   UNL A   1      44.179  25.829  31.490  1.00  0.00     0.031 C 
ATOM     49  C   UNL A   1      49.680  26.827  27.464  1.00  0.00     0.029 A 
ATOM     50  C   UNL A   1      49.967  26.352  28.818  1.00  0.00     0.049 A 
ATOM     51  H   UNL A   1      48.575  25.827  30.280  1.00  0.00     0.167 HD
ATOM     52  C   UNL A   1      45.570  24.982  33.362  1.00  0.00     0.034 A 
ATOM     53  C   UNL A   1      51.196  26.160  29.344  1.00  0.00     0.034 A 
ATOM     54  C   UNL A   1      46.837  24.669  33.976  1.00  0.00     0.049 A 
ATOM     55  C   UNL A   1      51.322  25.690  30.777  1.00  0.00     0.074 A 
ATOM     56  C   UNL A   1      47.078  24.139  35.232  1.00  0.00     0.029 A 
ATOM     57  N   UNL A   1      48.079  24.873  33.389  1.00  0.00    -0.354 N 
ATOM     58  N   UNL A   1      50.376  25.415  31.646  1.00  0.00    -0.248 NA
ATOM     59  C   UNL A   1      52.683  25.503  31.299  1.00  0.00     0.031 C 
ATOM     60  C   UNL A   1      48.461  24.104  35.437  1.00  0.00     0.029 A 
ATOM     61  C   UNL A   1      49.088  24.516  34.272  1.00  0.00     0.049 A 
ATOM     62  H   UNL A   1      48.223  25.220  32.479  1.00  0.00     0.167 HD
ATOM     63  C   UNL A   1      51.030  24.981  32.800  1.00  0.00     0.074 A 
ATOM     64  C   UNL A   1      52.448  25.029  32.514  1.00  0.00     0.031 C 
ATOM     65  C   UNL A   1      50.504  24.569  33.983  1.00  0.00     0.034 A 
BRANCH  52  66
ATOM     66  C   UNL A   1      44.302  24.793  34.164  1.00  0.00     0.023 A 
ATOM     67  C   UNL A   1      43.635  25.873  34.768  1.00  0.00     0.031 A 
ATOM     68  C   UNL A   1      43.776  23.504  34.362  1.00  0.00     0.131 A 
ATOM     69  C   UNL A   1      42.537  25.637  35.608  1.00  0.00     0.055 A 
ATOM     70  C   UNL A   1      42.626  23.285  35.124  1.00  0.00     0.041 A 
ATOM     71  F   UNL A   1      44.381  22.429  33.834  1.00  0.00    -0.206 F 
ATOM     72  C   UNL A   1      42.009  24.354  35.767  1.00  0.00     0.022 A 
BRANCH  69  73
ATOM     73  S   UNL A   1      41.912  27.006  36.622  1.00  0.00     0.124 S 
ATOM     74  O   UNL A   1      40.812  26.364  37.338  1.00  0.00    -0.237 OA
ATOM     75  O   UNL A   1      43.076  27.360  37.425  1.00  0.00    -0.237 OA
ATOM     76  O   UNL A   1      41.505  28.005  35.637  1.00  0.00    -0.744 OA
ENDBRANCH  69  73
ENDBRANCH  52  66
BRANCH  53  77
ATOM     77  C   UNL A   1      52.419  26.460  28.540  1.00  0.00     0.023 A 
ATOM     78  C   UNL A   1      52.902  25.554  27.583  1.00  0.00     0.031 A 
ATOM     79  C   UNL A   1      53.157  27.636  28.762  1.00  0.00     0.131 A 
ATOM     80  C   UNL A   1      54.110  25.817  26.916  1.00  0.00     0.055 A 
ATOM     81  C   UNL A   1      54.326  27.922  28.053  1.00  0.00     0.041 A 
ATOM     82  F   UNL A   1      52.748  28.534  29.674  1.00  0.00    -0.206 F 
ATOM     83  C   UNL A   1      54.815  27.003  27.131  1.00  0.00     0.022 A 
BRANCH  80  84
ATOM     84  S   UNL A   1      54.798  24.541  25.824  1.00  0.00     0.124 S 
ATOM     85  O   UNL A   1      53.596  23.834  25.400  1.00  0.00    -0.237 OA
ATOM     86  O   UNL A   1      55.467  25.341  24.804  1.00  0.00    -0.237 OA
ATOM     87  O   UNL A   1      55.690  23.786  26.704  1.00  0.00    -0.744 OA
ENDBRANCH  80  84
ENDBRANCH  53  77
BRANCH  65  88
ATOM     88  C   UNL A   1      51.463  24.069  35.040  1.00  0.00     0.023 A 
ATOM     89  C   UNL A   1      52.013  24.917  36.017  1.00  0.00     0.031 A 
ATOM     90  C   UNL A   1      51.822  22.708  35.072  1.00  0.00     0.131 A 
ATOM     91  C   UNL A   1      52.932  24.407  36.949  1.00  0.00     0.055 A 
ATOM     92  C   UNL A   1      52.684  22.194  36.042  1.00  0.00     0.041 A 
ATOM     93  F   UNL A   1      51.333  21.851  34.162  1.00  0.00    -0.206 F 
ATOM     94  C   UNL A   1      53.255  23.048  36.981  1.00  0.00     0.022 A 
BRANCH  91  95
ATOM     95  S   UNL A   1      53.781  25.561  38.063  1.00  0.00     0.124 S 
ATOM     96  O   UNL A   1      52.710  25.944  38.976  1.00  0.00    -0.237 OA
ATOM     97  O   UNL A   1      54.837  24.727  38.631  1.00  0.00    -0.237 OA
ATOM     98  O   UNL A   1      54.244  26.622  37.170  1.00  0.00    -0.744 OA
ENDBRANCH  91  95
ENDBRANCH  65  88
ENDBRANCH  39  40
ENDBRANCH  32  34
ENDBRANCH  31  32
ENDBRANCH  30  31
ENDBRANCH  29  30
ENDBRANCH  28  29
ENDBRANCH  27  28
ENDBRANCH   1  27
TORSDOF 23
ENDMDL
MODEL 2
REMARK VINA RESULT:      -8.6      7.913     13.474
REMARK SMILES O=C(C[C@H]1S/C(=[NH+]/N=C/c2cccc(Cl)c2)NC1=O)OCCOCCOCCOC(=O)c1ccc(-c2c3nc(c(-c4cc(S(=O)(=O)[O-])ccc4F)c4ccc([nH]4)c(-c4cc(S(=O)(=O)[O-])ccc4F)c4nc(c(-c5cc(S(=O)(=O)[O-])ccc5F)c5ccc2[nH]5)C=C4)C=C3)cc1
REMARK SMILES IDX 24 1 23 2 22 3 21 4 20 5 2 6 1 7 3 8 4 9 5 10 18 11 6 12
REMARK SMILES IDX 17 13 19 14 7 15 8 18 9 19 10 20 11 21 16 22 12 23 14 24
REMARK SMILES IDX 13 25 15 26 25 27 26 28 27 29 28 30 29 31 30 32 31 33 32 34
REMARK SMILES IDX 33 35 94 36 34 37 93 38 35 39 36 40 37 41 87 42 38 43 92 44
REMARK SMILES IDX 86 45 88 46 39 47 91 48 85 49 84 50 40 52 72 53 52 54 71 55
REMARK SMILES IDX 53 56 56 57 70 58 89 59 54 60 55 61 69 63 90 64 57 65 41 66
REMARK SMILES IDX 42 67 50 68 43 69 49 70 51 71 48 72 44 73 45 74 46 75 47 76
REMARK SMILES IDX 73 77 74 78 82 79 75 80 81 81 83 82 80 83 76 84 77 85 78 86
REMARK SMILES IDX 79 87 58 88 59 89 67 90 60 91 66 92 68 93 65 94 61 95 62 96
REMARK SMILES IDX 63 97 64 98
REMARK H PARENT 17 16 7 17 88 51 56 62
REMARK Flexibility Score: inf
ROOT
ATOM      1  C   UNL A   1      45.826  42.645  29.453  1.00  0.00     0.188 C 
ENDROOT
BRANCH   1   2
ATOM      2  O   UNL A   1      45.759  42.991  28.084  1.00  0.00    -0.376 OA
BRANCH   2   3
ATOM      3  C   UNL A   1      44.751  42.440  27.262  1.00  0.00     0.202 C 
BRANCH   3   4
ATOM      4  C   UNL A   1      44.681  40.920  27.178  1.00  0.00     0.261 C 
BRANCH   4   5
ATOM      5  O   UNL A   1      43.520  40.314  26.566  1.00  0.00    -0.463 OA
BRANCH   5   6
ATOM      6  C   UNL A   1      42.441  39.730  27.114  1.00  0.00     0.307 C 
ATOM      7  O   UNL A   1      41.772  40.346  27.943  1.00  0.00    -0.252 OA
BRANCH   6   8
ATOM      8  C   UNL A   1      42.087  38.300  26.783  1.00  0.00     0.150 C 
BRANCH   8   9
ATOM      9  C   UNL A   1      43.208  37.293  26.969  1.00  0.00     0.184 C 
ATOM     10  S   UNL A   1      43.714  37.321  28.732  1.00  0.00    -0.020 SA
ATOM     11  C   UNL A   1      42.719  35.882  26.752  1.00  0.00     0.322 C 
ATOM     12  C   UNL A   1      42.652  35.997  29.070  1.00  0.00     0.337 C 
ATOM     13  N   UNL A   1      42.283  35.369  27.924  1.00  0.00    -0.202 N 
ATOM     14  O   UNL A   1      42.653  35.317  25.671  1.00  0.00    -0.246 OA
ATOM     15  N   UNL A   1      42.266  35.608  30.236  1.00  0.00    -0.142 N 
ATOM     16  H   UNL A   1      41.717  34.565  27.947  1.00  0.00     0.316 HD
ATOM     17  H   UNL A   1      42.470  36.053  31.090  1.00  0.00     0.343 HD
BRANCH  15  18
ATOM     18  N   UNL A   1      41.514  34.453  30.080  1.00  0.00    -0.093 NA
ATOM     19  C   UNL A   1      40.429  34.418  30.771  1.00  0.00     0.166 C 
BRANCH  19  20
ATOM     20  C   UNL A   1      39.633  33.183  30.703  1.00  0.00    -0.002 A 
ATOM     21  C   UNL A   1      38.286  33.216  31.101  1.00  0.00     0.010 A 
ATOM     22  C   UNL A   1      40.213  32.003  30.252  1.00  0.00     0.030 A 
ATOM     23  C   UNL A   1      37.509  32.065  31.045  1.00  0.00     0.002 A 
ATOM     24  C   UNL A   1      39.428  30.853  30.207  1.00  0.00     0.041 A 
ATOM     25  C   UNL A   1      38.084  30.880  30.595  1.00  0.00     0.020 A 
ATOM     26  Cl  UNL A   1      40.119  29.372  29.669  1.00  0.00    -0.084 Cl
ENDBRANCH  19  20
ENDBRANCH  15  18
ENDBRANCH   8   9
ENDBRANCH   6   8
ENDBRANCH   5   6
ENDBRANCH   4   5
ENDBRANCH   3   4
ENDBRANCH   2   3
ENDBRANCH   1   2
BRANCH   1  27
ATOM     27  C   UNL A   1      44.634  43.100  30.305  1.00  0.00     0.188 C 
BRANCH  27  28
ATOM     28  O   UNL A   1      44.759  44.274  31.091  1.00  0.00    -0.376 OA
BRANCH  28  29
ATOM     29  C   UNL A   1      43.727  44.588  32.018  1.00  0.00     0.202 C 
BRANCH  29  30
ATOM     30  C   UNL A   1      44.063  44.830  33.505  1.00  0.00     0.261 C 
BRANCH  30  31
ATOM     31  O   UNL A   1      44.254  43.657  34.325  1.00  0.00    -0.460 OA
BRANCH  31  32
ATOM     32  C   UNL A   1      43.215  42.782  34.363  1.00  0.00     0.338 C 
ATOM     33  O   UNL A   1      42.050  43.050  34.588  1.00  0.00    -0.246 OA
BRANCH  32  34
ATOM     34  C   UNL A   1      43.648  41.431  33.928  1.00  0.00     0.060 A 
ATOM     35  C   UNL A   1      43.110  40.894  32.747  1.00  0.00     0.016 A 
ATOM     36  C   UNL A   1      44.490  40.656  34.725  1.00  0.00     0.016 A 
ATOM     37  C   UNL A   1      43.387  39.575  32.374  1.00  0.00     0.010 A 
ATOM     38  C   UNL A   1      44.740  39.323  34.367  1.00  0.00     0.010 A 
ATOM     39  C   UNL A   1      44.161  38.763  33.212  1.00  0.00    -0.014 A 
BRANCH  39  40
ATOM     40  C   UNL A   1      44.174  37.285  33.024  1.00  0.00     0.031 A 
ATOM     41  C   UNL A   1      45.224  36.698  32.116  1.00  0.00     0.074 A 
ATOM     42  C   UNL A   1      43.287  36.475  33.629  1.00  0.00     0.049 A 
ATOM     43  N   UNL A   1      45.366  35.472  31.683  1.00  0.00    -0.248 NA
ATOM     44  C   UNL A   1      46.247  37.634  31.624  1.00  0.00     0.031 C 
ATOM     45  C   UNL A   1      42.268  36.900  34.585  1.00  0.00     0.029 A 
ATOM     46  N   UNL A   1      43.093  35.119  33.510  1.00  0.00    -0.354 N 
ATOM     47  C   UNL A   1      46.481  35.491  30.851  1.00  0.00     0.074 A 
ATOM     48  C   UNL A   1      46.955  36.860  30.818  1.00  0.00     0.031 C 
ATOM     49  C   UNL A   1      41.540  35.829  34.950  1.00  0.00     0.029 A 
ATOM     50  C   UNL A   1      42.008  34.651  34.218  1.00  0.00     0.049 A 
ATOM     51  H   UNL A   1      43.676  34.536  32.971  1.00  0.00     0.167 HD
ATOM     52  C   UNL A   1      47.060  34.465  30.180  1.00  0.00     0.034 A 
ATOM     53  C   UNL A   1      41.437  33.427  34.241  1.00  0.00     0.034 A 
ATOM     54  C   UNL A   1      46.568  33.109  30.210  1.00  0.00     0.049 A 
ATOM     55  C   UNL A   1      42.030  32.317  33.399  1.00  0.00     0.074 A 
ATOM     56  C   UNL A   1      47.082  31.992  29.573  1.00  0.00     0.029 A 
ATOM     57  N   UNL A   1      45.440  32.686  30.900  1.00  0.00    -0.354 N 
ATOM     58  N   UNL A   1      43.077  32.348  32.606  1.00  0.00    -0.248 NA
ATOM     59  C   UNL A   1      41.366  31.008  33.460  1.00  0.00     0.031 C 
ATOM     60  C   UNL A   1      46.218  30.917  29.806  1.00  0.00     0.029 A 
ATOM     61  C   UNL A   1      45.220  31.335  30.672  1.00  0.00     0.049 A 
ATOM     62  H   UNL A   1      44.877  33.260  31.469  1.00  0.00     0.167 HD
ATOM     63  C   UNL A   1      43.219  31.051  32.109  1.00  0.00     0.074 A 
ATOM     64  C   UNL A   1      42.153  30.266  32.694  1.00  0.00     0.031 C 
ATOM     65  C   UNL A   1      44.152  30.555  31.256  1.00  0.00     0.034 A 
BRANCH  52  66
ATOM     66  C   UNL A   1      48.248  34.792  29.304  1.00  0.00     0.023 A 
ATOM     67  C   UNL A   1      48.099  35.186  27.963  1.00  0.00     0.031 A 
ATOM     68  C   UNL A   1      49.555  34.667  29.810  1.00  0.00     0.131 A 
ATOM     69  C   UNL A   1      49.232  35.356  27.153  1.00  0.00     0.055 A 
ATOM     70  C   UNL A   1      50.679  34.929  29.023  1.00  0.00     0.041 A 
ATOM     71  F   UNL A   1      49.765  34.271  31.074  1.00  0.00    -0.206 F 
ATOM     72  C   UNL A   1      50.521  35.258  27.681  1.00  0.00     0.022 A 
BRANCH  69  73
ATOM     73  S   UNL A   1      48.996  35.538  25.364  1.00  0.00     0.124 S 
ATOM     74  O   UNL A   1      48.608  36.943  25.259  1.00  0.00    -0.237 OA
ATOM     75  O   UNL A   1      50.312  35.199  24.836  1.00  0.00    -0.237 OA
ATOM     76  O   UNL A   1      47.934  34.582  25.058  1.00  0.00    -0.744 OA
ENDBRANCH  69  73
ENDBRANCH  52  66
BRANCH  53  77
ATOM     77  C   UNL A   1      40.202  33.183  35.045  1.00  0.00     0.023 A 
ATOM     78  C   UNL A   1      38.927  33.448  34.522  1.00  0.00     0.031 A 
ATOM     79  C   UNL A   1      40.285  32.736  36.376  1.00  0.00     0.131 A 
ATOM     80  C   UNL A   1      37.791  33.305  35.336  1.00  0.00     0.055 A 
ATOM     81  C   UNL A   1      39.149  32.538  37.163  1.00  0.00     0.041 A 
ATOM     82  F   UNL A   1      41.480  32.477  36.933  1.00  0.00    -0.206 F 
ATOM     83  C   UNL A   1      37.892  32.835  36.647  1.00  0.00     0.022 A 
BRANCH  80  84
ATOM     84  S   UNL A   1      36.181  33.832  34.685  1.00  0.00     0.124 S 
ATOM     85  O   UNL A   1      36.558  34.953  33.833  1.00  0.00    -0.237 OA
ATOM     86  O   UNL A   1      35.722  32.630  33.998  1.00  0.00    -0.237 OA
ATOM     87  O   UNL A   1      35.428  34.186  35.887  1.00  0.00    -0.744 OA
ENDBRANCH  80  84
ENDBRANCH  53  77
BRANCH  65  88
ATOM     88  C   UNL A   1      44.109  29.073  30.955  1.00  0.00     0.023 A 
ATOM     89  C   UNL A   1      43.619  28.568  29.738  1.00  0.00     0.031 A 
ATOM     90  C   UNL A   1      44.579  28.151  31.909  1.00  0.00     0.131 A 
ATOM     91  C   UNL A   1      43.563  27.180  29.529  1.00  0.00     0.055 A 
ATOM     92  C   UNL A   1      44.583  26.776  31.668  1.00  0.00     0.041 A 
ATOM     93  F   UNL A   1      45.054  28.573  33.092  1.00  0.00    -0.206 F 
ATOM     94  C   UNL A   1      44.060  26.282  30.477  1.00  0.00     0.022 A 
BRANCH  91  95
ATOM     95  S   UNL A   1      42.738  26.552  28.039  1.00  0.00     0.124 S 
ATOM     96  O   UNL A   1      43.867  26.318  27.144  1.00  0.00    -0.237 OA
ATOM     97  O   UNL A   1      42.059  25.360  28.536  1.00  0.00    -0.237 OA
ATOM     98  O   UNL A   1      41.855  27.649  27.647  1.00  0.00    -0.744 OA
ENDBRANCH  91  95
ENDBRANCH  65  88
ENDBRANCH  39  40
ENDBRANCH  32  34
ENDBRANCH  31  32
ENDBRANCH  30  31
ENDBRANCH  29  30
ENDBRANCH  28  29
ENDBRANCH  27  28
ENDBRANCH   1  27
TORSDOF 23
ENDMDL
MODEL 3
REMARK VINA RESULT:      -8.3      4.329      9.219
REMARK SMILES O=C(C[C@H]1S/C(=[NH+]/N=C/c2cccc(Cl)c2)NC1=O)OCCOCCOCCOC(=O)c1ccc(-c2c3nc(c(-c4cc(S(=O)(=O)[O-])ccc4F)c4ccc([nH]4)c(-c4cc(S(=O)(=O)[O-])ccc4F)c4nc(c(-c5cc(S(=O)(=O)[O-])ccc5F)c5ccc2[nH]5)C=C4)C=C3)cc1
REMARK SMILES IDX 24 1 23 2 22 3 21 4 20 5 2 6 1 7 3 8 4 9 5 10 18 11 6 12
REMARK SMILES IDX 17 13 19 14 7 15 8 18 9 19 10 20 11 21 16 22 12 23 14 24
REMARK SMILES IDX 13 25 15 26 25 27 26 28 27 29 28 30 29 31 30 32 31 33 32 34
REMARK SMILES IDX 33 35 94 36 34 37 93 38 35 39 36 40 37 41 87 42 38 43 92 44
REMARK SMILES IDX 86 45 88 46 39 47 91 48 85 49 84 50 40 52 72 53 52 54 71 55
REMARK SMILES IDX 53 56 56 57 70 58 89 59 54 60 55 61 69 63 90 64 57 65 41 66
REMARK SMILES IDX 42 67 50 68 43 69 49 70 51 71 48 72 44 73 45 74 46 75 47 76
REMARK SMILES IDX 73 77 74 78 82 79 75 80 81 81 83 82 80 83 76 84 77 85 78 86
REMARK SMILES IDX 79 87 58 88 59 89 67 90 60 91 66 92 68 93 65 94 61 95 62 96
REMARK SMILES IDX 63 97 64 98
REMARK H PARENT 17 16 7 17 88 51 56 62
REMARK Flexibility Score: inf
ROOT
ATOM      1  C   UNL A   1      39.608  26.711  28.405  1.00  0.00     0.188 C 
ENDROOT
BRANCH   1   2
ATOM      2  O   UNL A   1      38.998  27.889  28.892  1.00  0.00    -0.376 OA
BRANCH   2   3
ATOM      3  C   UNL A   1      39.605  29.145  28.671  1.00  0.00     0.202 C 
BRANCH   3   4
ATOM      4  C   UNL A   1      40.102  29.898  29.900  1.00  0.00     0.261 C 
BRANCH   4   5
ATOM      5  O   UNL A   1      40.090  31.343  29.877  1.00  0.00    -0.463 OA
BRANCH   5   6
ATOM      6  C   UNL A   1      39.147  32.221  30.257  1.00  0.00     0.307 C 
ATOM      7  O   UNL A   1      39.333  32.917  31.255  1.00  0.00    -0.252 OA
BRANCH   6   8
ATOM      8  C   UNL A   1      37.832  32.307  29.521  1.00  0.00     0.150 C 
BRANCH   8   9
ATOM      9  C   UNL A   1      36.603  31.962  30.344  1.00  0.00     0.184 C 
ATOM     10  S   UNL A   1      35.186  32.924  29.686  1.00  0.00    -0.020 SA
ATOM     11  C   UNL A   1      36.194  30.523  30.140  1.00  0.00     0.322 C 
ATOM     12  C   UNL A   1      34.727  31.586  28.687  1.00  0.00     0.337 C 
ATOM     13  N   UNL A   1      35.325  30.443  29.108  1.00  0.00    -0.202 N 
ATOM     14  O   UNL A   1      36.638  29.570  30.760  1.00  0.00    -0.246 OA
ATOM     15  N   UNL A   1      33.908  31.623  27.694  1.00  0.00    -0.142 N 
ATOM     16  H   UNL A   1      35.131  29.581  28.674  1.00  0.00     0.316 HD
ATOM     17  H   UNL A   1      33.484  32.431  27.325  1.00  0.00     0.343 HD
BRANCH  15  18
ATOM     18  N   UNL A   1      33.727  30.327  27.234  1.00  0.00    -0.093 NA
ATOM     19  C   UNL A   1      32.813  30.195  26.337  1.00  0.00     0.166 C 
BRANCH  19  20
ATOM     20  C   UNL A   1      32.526  28.830  25.871  1.00  0.00    -0.002 A 
ATOM     21  C   UNL A   1      33.437  27.802  26.169  1.00  0.00     0.010 A 
ATOM     22  C   UNL A   1      31.370  28.569  25.145  1.00  0.00     0.030 A 
ATOM     23  C   UNL A   1      33.190  26.502  25.744  1.00  0.00     0.002 A 
ATOM     24  C   UNL A   1      31.136  27.263  24.717  1.00  0.00     0.041 A 
ATOM     25  C   UNL A   1      32.034  26.233  25.016  1.00  0.00     0.020 A 
ATOM     26  Cl  UNL A   1      29.723  26.910  23.803  1.00  0.00    -0.084 Cl
ENDBRANCH  19  20
ENDBRANCH  15  18
ENDBRANCH   8   9
ENDBRANCH   6   8
ENDBRANCH   5   6
ENDBRANCH   4   5
ENDBRANCH   3   4
ENDBRANCH   2   3
ENDBRANCH   1   2
BRANCH   1  27
ATOM     27  C   UNL A   1      40.354  26.857  27.072  1.00  0.00     0.188 C 
BRANCH  27  28
ATOM     28  O   UNL A   1      40.435  25.739  26.205  1.00  0.00    -0.376 OA
BRANCH  28  29
ATOM     29  C   UNL A   1      40.006  24.470  26.684  1.00  0.00     0.202 C 
BRANCH  29  30
ATOM     30  C   UNL A   1      40.998  23.291  26.762  1.00  0.00     0.261 C 
BRANCH  30  31
ATOM     31  O   UNL A   1      42.403  23.620  26.711  1.00  0.00    -0.460 OA
BRANCH  31  32
ATOM     32  C   UNL A   1      43.060  23.248  25.581  1.00  0.00     0.338 C 
ATOM     33  O   UNL A   1      42.632  22.527  24.699  1.00  0.00    -0.246 OA
BRANCH  32  34
ATOM     34  C   UNL A   1      44.350  23.971  25.459  1.00  0.00     0.060 A 
ATOM     35  C   UNL A   1      45.502  23.249  25.107  1.00  0.00     0.016 A 
ATOM     36  C   UNL A   1      44.449  25.321  25.793  1.00  0.00     0.016 A 
ATOM     37  C   UNL A   1      46.757  23.863  25.114  1.00  0.00     0.010 A 
ATOM     38  C   UNL A   1      45.713  25.928  25.831  1.00  0.00     0.010 A 
ATOM     39  C   UNL A   1      46.878  25.195  25.529  1.00  0.00    -0.014 A 
BRANCH  39  40
ATOM     40  C   UNL A   1      48.213  25.755  25.881  1.00  0.00     0.031 A 
ATOM     41  C   UNL A   1      49.034  26.371  24.778  1.00  0.00     0.074 A 
ATOM     42  C   UNL A   1      48.698  25.722  27.136  1.00  0.00     0.049 A 
ATOM     43  N   UNL A   1      50.269  26.801  24.794  1.00  0.00    -0.248 NA
ATOM     44  C   UNL A   1      48.364  26.507  23.475  1.00  0.00     0.031 C 
ATOM     45  C   UNL A   1      47.983  25.223  28.307  1.00  0.00     0.029 A 
ATOM     46  N   UNL A   1      49.924  26.105  27.627  1.00  0.00    -0.354 N 
ATOM     47  C   UNL A   1      50.533  27.240  23.500  1.00  0.00     0.074 A 
ATOM     48  C   UNL A   1      49.337  26.992  22.721  1.00  0.00     0.031 C 
ATOM     49  C   UNL A   1      48.791  25.310  29.380  1.00  0.00     0.029 A 
ATOM     50  C   UNL A   1      50.097  25.823  28.964  1.00  0.00     0.049 A 
ATOM     51  H   UNL A   1      50.614  26.541  27.075  1.00  0.00     0.167 HD
ATOM     52  C   UNL A   1      51.665  27.802  23.006  1.00  0.00     0.034 A 
ATOM     53  C   UNL A   1      51.191  25.930  29.748  1.00  0.00     0.034 A 
ATOM     54  C   UNL A   1      52.854  28.030  23.791  1.00  0.00     0.049 A 
ATOM     55  C   UNL A   1      52.480  26.457  29.155  1.00  0.00     0.074 A 
ATOM     56  C   UNL A   1      54.052  28.598  23.392  1.00  0.00     0.029 A 
ATOM     57  N   UNL A   1      53.005  27.687  25.128  1.00  0.00    -0.354 N 
ATOM     58  N   UNL A   1      52.724  26.857  27.928  1.00  0.00    -0.248 NA
ATOM     59  C   UNL A   1      53.639  26.547  30.054  1.00  0.00     0.031 C 
ATOM     60  C   UNL A   1      54.952  28.519  24.460  1.00  0.00     0.029 A 
ATOM     61  C   UNL A   1      54.288  27.996  25.557  1.00  0.00     0.049 A 
ATOM     62  H   UNL A   1      52.304  27.284  25.690  1.00  0.00     0.167 HD
ATOM     63  C   UNL A   1      54.052  27.288  27.923  1.00  0.00     0.074 A 
ATOM     64  C   UNL A   1      54.552  27.099  29.267  1.00  0.00     0.031 C 
ATOM     65  C   UNL A   1      54.784  27.802  26.901  1.00  0.00     0.034 A 
BRANCH  52  66
ATOM     66  C   UNL A   1      51.683  28.143  21.534  1.00  0.00     0.023 A 
ATOM     67  C   UNL A   1      51.740  27.150  20.541  1.00  0.00     0.031 A 
ATOM     68  C   UNL A   1      51.687  29.486  21.119  1.00  0.00     0.131 A 
ATOM     69  C   UNL A   1      51.884  27.514  19.194  1.00  0.00     0.055 A 
ATOM     70  C   UNL A   1      51.737  29.842  19.769  1.00  0.00     0.041 A 
ATOM     71  F   UNL A   1      51.661  30.481  22.019  1.00  0.00    -0.206 F 
ATOM     72  C   UNL A   1      51.854  28.853  18.798  1.00  0.00     0.022 A 
BRANCH  69  73
ATOM     73  S   UNL A   1      52.282  26.220  17.985  1.00  0.00     0.124 S 
ATOM     74  O   UNL A   1      53.437  25.579  18.610  1.00  0.00    -0.237 OA
ATOM     75  O   UNL A   1      51.055  25.433  17.951  1.00  0.00    -0.237 OA
ATOM     76  O   UNL A   1      52.579  26.969  16.767  1.00  0.00    -0.744 OA
ENDBRANCH  69  73
ENDBRANCH  52  66
BRANCH  53  77
ATOM     77  C   UNL A   1      51.146  25.483  31.173  1.00  0.00     0.023 A 
ATOM     78  C   UNL A   1      51.412  24.151  31.529  1.00  0.00     0.031 A 
ATOM     79  C   UNL A   1      50.777  26.374  32.197  1.00  0.00     0.131 A 
ATOM     80  C   UNL A   1      51.264  23.739  32.864  1.00  0.00     0.055 A 
ATOM     81  C   UNL A   1      50.689  25.974  33.532  1.00  0.00     0.041 A 
ATOM     82  F   UNL A   1      50.501  27.658  31.914  1.00  0.00    -0.206 F 
ATOM     83  C   UNL A   1      50.921  24.645  33.870  1.00  0.00     0.022 A 
BRANCH  80  84
ATOM     84  S   UNL A   1      51.434  21.975  33.254  1.00  0.00     0.124 S 
ATOM     85  O   UNL A   1      50.050  21.590  33.497  1.00  0.00    -0.237 OA
ATOM     86  O   UNL A   1      52.043  21.452  32.036  1.00  0.00    -0.237 OA
ATOM     87  O   UNL A   1      52.301  21.970  34.432  1.00  0.00    -0.744 OA
ENDBRANCH  80  84
ENDBRANCH  53  77
BRANCH  65  88
ATOM     88  C   UNL A   1      56.191  28.265  27.211  1.00  0.00     0.023 A 
ATOM     89  C   UNL A   1      56.461  29.532  27.758  1.00  0.00     0.031 A 
ATOM     90  C   UNL A   1      57.281  27.410  26.961  1.00  0.00     0.131 A 
ATOM     91  C   UNL A   1      57.790  29.926  27.986  1.00  0.00     0.055 A 
ATOM     92  C   UNL A   1      58.594  27.782  27.253  1.00  0.00     0.041 A 
ATOM     93  F   UNL A   1      57.086  26.190  26.435  1.00  0.00    -0.206 F 
ATOM     94  C   UNL A   1      58.856  29.052  27.757  1.00  0.00     0.022 A 
BRANCH  91  95
ATOM     95  S   UNL A   1      58.120  31.636  28.496  1.00  0.00     0.124 S 
ATOM     96  O   UNL A   1      56.786  32.111  28.845  1.00  0.00    -0.237 OA
ATOM     97  O   UNL A   1      59.045  31.457  29.611  1.00  0.00    -0.237 OA
ATOM     98  O   UNL A   1      58.702  32.245  27.301  1.00  0.00    -0.744 OA
ENDBRANCH  91  95
ENDBRANCH  65  88
ENDBRANCH  39  40
ENDBRANCH  32  34
ENDBRANCH  31  32
ENDBRANCH  30  31
ENDBRANCH  29  30
ENDBRANCH  28  29
ENDBRANCH  27  28
ENDBRANCH   1  27
TORSDOF 23
ENDMDL
