MODEL 1
REMARK VINA RESULT:     -10.8      0.000      0.000
REMARK SMILES C[C@H]1C[C@@H]1c1nc(-c2ccccc2)c(CC(=O)OCCOCCOCCOC(=O)c2ccc(-c3c4nc(c(-c5cc(S(=O)(=O)[O-])ccc5F)c5ccc([nH]5)c(-c5cc(S(=O)(=O)[O-])ccc5F)c5nc(c(-c6cc(S(=O)(=O)[O-])ccc6F)c6ccc3[nH]6)C=C5)C=C4)cc2)s1
REMARK SMILES IDX 23 1 22 2 21 3 20 4 19 5 18 6 16 7 17 8 15 9 14 10 5 11 6 12
REMARK SMILES IDX 93 13 7 14 4 15 1 16 2 17 3 18 8 19 9 20 13 21 10 22 12 23
REMARK SMILES IDX 11 24 24 25 25 26 26 27 27 28 28 29 29 30 30 31 31 32 92 33
REMARK SMILES IDX 32 34 91 35 33 36 34 37 35 38 85 39 36 40 90 41 84 42 86 43
REMARK SMILES IDX 37 44 89 45 83 46 82 47 38 49 70 50 50 51 69 52 51 53 54 54
REMARK SMILES IDX 68 55 87 56 52 57 53 58 67 60 88 61 55 62 39 63 40 64 48 65
REMARK SMILES IDX 41 66 47 67 49 68 46 69 42 70 43 71 44 72 45 73 71 74 72 75
REMARK SMILES IDX 80 76 73 77 79 78 81 79 78 80 74 81 75 82 76 83 77 84 56 85
REMARK SMILES IDX 57 86 65 87 58 88 64 89 66 90 63 91 59 92 60 93 61 94 62 95
REMARK H PARENT 86 48 54 59
REMARK Flexibility Score: inf
ROOT
ATOM      1  C   UNL A   1      37.071  22.182  24.667  1.00  0.00     0.188 C 
ENDROOT
BRANCH   1   2
ATOM      2  C   UNL A   1      36.093  23.169  25.325  1.00  0.00     0.188 C 
BRANCH   2   3
ATOM      3  O   UNL A   1      35.364  22.747  26.475  1.00  0.00    -0.376 OA
BRANCH   3   4
ATOM      4  C   UNL A   1      34.232  23.506  26.887  1.00  0.00     0.202 C 
BRANCH   4   5
ATOM      5  C   UNL A   1      32.986  22.730  27.359  1.00  0.00     0.261 C 
BRANCH   5   6
ATOM      6  O   UNL A   1      31.791  23.537  27.493  1.00  0.00    -0.463 OA
BRANCH   6   7
ATOM      7  C   UNL A   1      30.628  23.021  27.013  1.00  0.00     0.311 C 
ATOM      8  O   UNL A   1      29.525  23.346  27.447  1.00  0.00    -0.252 OA
BRANCH   7   9
ATOM      9  C   UNL A   1      30.761  22.163  25.753  1.00  0.00     0.171 C 
BRANCH   9  10
ATOM     10  C   UNL A   1      31.551  22.720  24.595  1.00  0.00     0.044 A 
ATOM     11  C   UNL A   1      32.483  24.197  22.889  1.00  0.00     0.097 A 
ATOM     12  N   UNL A   1      33.229  23.116  23.004  1.00  0.00    -0.241 NA
ATOM     13  S   UNL A   1      31.010  24.144  23.764  1.00  0.00    -0.122 S 
ATOM     14  C   UNL A   1      32.577  22.197  23.822  1.00  0.00     0.085 A 
BRANCH  11  15
ATOM     15  C   UNL A   1      32.930  25.393  22.023  1.00  0.00     0.052 C 
ATOM     16  C   UNL A   1      33.744  27.914  22.145  1.00  0.00     0.008 C 
ATOM     17  C   UNL A   1      32.780  26.832  22.498  1.00  0.00    -0.004 C 
ATOM     18  C   UNL A   1      31.872  26.296  21.429  1.00  0.00     0.015 C 
ENDBRANCH  11  15
BRANCH  14  19
ATOM     19  C   UNL A   1      32.893  20.781  23.808  1.00  0.00     0.001 A 
ATOM     20  C   UNL A   1      32.201  19.942  22.917  1.00  0.00     0.010 A 
ATOM     21  C   UNL A   1      33.876  20.237  24.632  1.00  0.00     0.010 A 
ATOM     22  C   UNL A   1      32.414  18.566  22.916  1.00  0.00     0.001 A 
ATOM     23  C   UNL A   1      34.102  18.857  24.620  1.00  0.00     0.001 A 
ATOM     24  C   UNL A   1      33.359  18.022  23.780  1.00  0.00     0.000 A 
ENDBRANCH  14  19
ENDBRANCH   9  10
ENDBRANCH   7   9
ENDBRANCH   6   7
ENDBRANCH   5   6
ENDBRANCH   4   5
ENDBRANCH   3   4
ENDBRANCH   2   3
ENDBRANCH   1   2
BRANCH   1  25
ATOM     25  O   UNL A   1      37.264  20.997  25.410  1.00  0.00    -0.376 OA
BRANCH  25  26
ATOM     26  C   UNL A   1      37.862  19.918  24.727  1.00  0.00     0.202 C 
BRANCH  26  27
ATOM     27  C   UNL A   1      38.995  19.237  25.507  1.00  0.00     0.261 C 
BRANCH  27  28
ATOM     28  O   UNL A   1      39.471  19.937  26.675  1.00  0.00    -0.460 OA
BRANCH  28  29
ATOM     29  C   UNL A   1      40.790  20.234  26.708  1.00  0.00     0.338 C 
ATOM     30  O   UNL A   1      41.697  19.508  26.328  1.00  0.00    -0.246 OA
BRANCH  29  31
ATOM     31  C   UNL A   1      40.942  21.663  27.064  1.00  0.00     0.060 A 
ATOM     32  C   UNL A   1      40.286  22.641  26.302  1.00  0.00     0.016 A 
ATOM     33  C   UNL A   1      41.733  22.040  28.148  1.00  0.00     0.016 A 
ATOM     34  C   UNL A   1      40.424  23.997  26.611  1.00  0.00     0.010 A 
ATOM     35  C   UNL A   1      41.895  23.398  28.441  1.00  0.00     0.010 A 
ATOM     36  C   UNL A   1      41.263  24.385  27.662  1.00  0.00    -0.014 A 
BRANCH  36  37
ATOM     37  C   UNL A   1      41.651  25.810  27.831  1.00  0.00     0.031 A 
ATOM     38  C   UNL A   1      42.987  26.247  27.296  1.00  0.00     0.074 A 
ATOM     39  C   UNL A   1      40.855  26.697  28.456  1.00  0.00     0.049 A 
ATOM     40  N   UNL A   1      43.619  27.380  27.450  1.00  0.00    -0.248 NA
ATOM     41  C   UNL A   1      43.710  25.256  26.486  1.00  0.00     0.031 C 
ATOM     42  C   UNL A   1      39.512  26.418  28.958  1.00  0.00     0.029 A 
ATOM     43  N   UNL A   1      41.075  28.010  28.791  1.00  0.00    -0.354 N 
ATOM     44  C   UNL A   1      44.828  27.232  26.777  1.00  0.00     0.074 A 
ATOM     45  C   UNL A   1      44.848  25.886  26.244  1.00  0.00     0.031 C 
ATOM     46  C   UNL A   1      39.036  27.522  29.559  1.00  0.00     0.029 A 
ATOM     47  C   UNL A   1      40.060  28.568  29.533  1.00  0.00     0.049 A 
ATOM     48  H   UNL A   1      41.884  28.506  28.526  1.00  0.00     0.167 HD
ATOM     49  C   UNL A   1      45.827  28.136  26.618  1.00  0.00     0.034 A 
ATOM     50  C   UNL A   1      39.984  29.763  30.155  1.00  0.00     0.034 A 
ATOM     51  C   UNL A   1      45.794  29.468  27.170  1.00  0.00     0.049 A 
ATOM     52  C   UNL A   1      41.150  30.720  30.059  1.00  0.00     0.074 A 
ATOM     53  C   UNL A   1      46.743  30.469  27.061  1.00  0.00     0.029 A 
ATOM     54  N   UNL A   1      44.767  29.981  27.952  1.00  0.00    -0.354 N 
ATOM     55  N   UNL A   1      42.295  30.570  29.431  1.00  0.00    -0.248 NA
ATOM     56  C   UNL A   1      41.013  32.008  30.753  1.00  0.00     0.031 C 
ATOM     57  C   UNL A   1      46.332  31.550  27.848  1.00  0.00     0.029 A 
ATOM     58  C   UNL A   1      45.079  31.267  28.367  1.00  0.00     0.049 A 
ATOM     59  H   UNL A   1      43.937  29.502  28.180  1.00  0.00     0.167 HD
ATOM     60  C   UNL A   1      42.997  31.760  29.625  1.00  0.00     0.074 A 
ATOM     61  C   UNL A   1      42.144  32.615  30.425  1.00  0.00     0.031 C 
ATOM     62  C   UNL A   1      44.227  32.115  29.171  1.00  0.00     0.034 A 
BRANCH  49  63
ATOM     63  C   UNL A   1      47.063  27.676  25.879  1.00  0.00     0.023 A 
ATOM     64  C   UNL A   1      47.298  28.020  24.537  1.00  0.00     0.031 A 
ATOM     65  C   UNL A   1      47.992  26.830  26.511  1.00  0.00     0.131 A 
ATOM     66  C   UNL A   1      48.377  27.449  23.846  1.00  0.00     0.055 A 
ATOM     67  C   UNL A   1      49.118  26.342  25.845  1.00  0.00     0.041 A 
ATOM     68  F   UNL A   1      47.810  26.442  27.783  1.00  0.00    -0.206 F 
ATOM     69  C   UNL A   1      49.306  26.634  24.499  1.00  0.00     0.022 A 
BRANCH  66  70
ATOM     70  S   UNL A   1      48.442  27.633  22.042  1.00  0.00     0.124 S 
ATOM     71  O   UNL A   1      47.122  28.188  21.753  1.00  0.00    -0.237 OA
ATOM     72  O   UNL A   1      49.570  28.539  21.859  1.00  0.00    -0.237 OA
ATOM     73  O   UNL A   1      48.653  26.268  21.565  1.00  0.00    -0.744 OA
ENDBRANCH  66  70
ENDBRANCH  49  63
BRANCH  50  74
ATOM     74  C   UNL A   1      38.784  30.107  30.975  1.00  0.00     0.023 A 
ATOM     75  C   UNL A   1      37.785  30.962  30.483  1.00  0.00     0.031 A 
ATOM     76  C   UNL A   1      38.640  29.612  32.284  1.00  0.00     0.131 A 
ATOM     77  C   UNL A   1      36.704  31.321  31.304  1.00  0.00     0.055 A 
ATOM     78  C   UNL A   1      37.536  29.927  33.077  1.00  0.00     0.041 A 
ATOM     79  F   UNL A   1      39.571  28.798  32.809  1.00  0.00    -0.206 F 
ATOM     80  C   UNL A   1      36.564  30.795  32.591  1.00  0.00     0.022 A 
BRANCH  77  81
ATOM     81  S   UNL A   1      35.517  32.549  30.694  1.00  0.00     0.124 S 
ATOM     82  O   UNL A   1      35.355  32.139  29.304  1.00  0.00    -0.237 OA
ATOM     83  O   UNL A   1      34.370  32.323  31.568  1.00  0.00    -0.237 OA
ATOM     84  O   UNL A   1      36.208  33.821  30.895  1.00  0.00    -0.744 OA
ENDBRANCH  77  81
ENDBRANCH  50  74
BRANCH  62  85
ATOM     85  C   UNL A   1      44.706  33.517  29.474  1.00  0.00     0.023 A 
ATOM     86  C   UNL A   1      44.251  34.638  28.760  1.00  0.00     0.031 A 
ATOM     87  C   UNL A   1      45.632  33.730  30.514  1.00  0.00     0.131 A 
ATOM     88  C   UNL A   1      44.756  35.913  29.062  1.00  0.00     0.055 A 
ATOM     89  C   UNL A   1      46.079  35.007  30.853  1.00  0.00     0.041 A 
ATOM     90  F   UNL A   1      46.108  32.697  31.228  1.00  0.00    -0.206 F 
ATOM     91  C   UNL A   1      45.650  36.107  30.119  1.00  0.00     0.022 A 
BRANCH  88  92
ATOM     92  S   UNL A   1      44.300  37.310  27.997  1.00  0.00     0.124 S 
ATOM     93  O   UNL A   1      45.350  38.277  28.302  1.00  0.00    -0.237 OA
ATOM     94  O   UNL A   1      44.345  36.716  26.665  1.00  0.00    -0.237 OA
ATOM     95  O   UNL A   1      42.966  37.678  28.466  1.00  0.00    -0.744 OA
ENDBRANCH  88  92
ENDBRANCH  62  85
ENDBRANCH  36  37
ENDBRANCH  29  31
ENDBRANCH  28  29
ENDBRANCH  27  28
ENDBRANCH  26  27
ENDBRANCH  25  26
ENDBRANCH   1  25
TORSDOF 23
ENDMDL
MODEL 2
REMARK VINA RESULT:     -10.2      2.126      3.852
REMARK SMILES C[C@H]1C[C@@H]1c1nc(-c2ccccc2)c(CC(=O)OCCOCCOCCOC(=O)c2ccc(-c3c4nc(c(-c5cc(S(=O)(=O)[O-])ccc5F)c5ccc([nH]5)c(-c5cc(S(=O)(=O)[O-])ccc5F)c5nc(c(-c6cc(S(=O)(=O)[O-])ccc6F)c6ccc3[nH]6)C=C5)C=C4)cc2)s1
REMARK SMILES IDX 23 1 22 2 21 3 20 4 19 5 18 6 16 7 17 8 15 9 14 10 5 11 6 12
REMARK SMILES IDX 93 13 7 14 4 15 1 16 2 17 3 18 8 19 9 20 13 21 10 22 12 23
REMARK SMILES IDX 11 24 24 25 25 26 26 27 27 28 28 29 29 30 30 31 31 32 92 33
REMARK SMILES IDX 32 34 91 35 33 36 34 37 35 38 85 39 36 40 90 41 84 42 86 43
REMARK SMILES IDX 37 44 89 45 83 46 82 47 38 49 70 50 50 51 69 52 51 53 54 54
REMARK SMILES IDX 68 55 87 56 52 57 53 58 67 60 88 61 55 62 39 63 40 64 48 65
REMARK SMILES IDX 41 66 47 67 49 68 46 69 42 70 43 71 44 72 45 73 71 74 72 75
REMARK SMILES IDX 80 76 73 77 79 78 81 79 78 80 74 81 75 82 76 83 77 84 56 85
REMARK SMILES IDX 57 86 65 87 58 88 64 89 66 90 63 91 59 92 60 93 61 94 62 95
REMARK H PARENT 86 48 54 59
REMARK Flexibility Score: inf
ROOT
ATOM      1  C   UNL A   1      34.943  22.148  25.469  1.00  0.00     0.188 C 
ENDROOT
BRANCH   1   2
ATOM      2  C   UNL A   1      33.477  21.827  25.800  1.00  0.00     0.188 C 
BRANCH   2   3
ATOM      3  O   UNL A   1      32.630  21.344  24.760  1.00  0.00    -0.376 OA
BRANCH   3   4
ATOM      4  C   UNL A   1      32.401  22.168  23.622  1.00  0.00     0.202 C 
BRANCH   4   5
ATOM      5  C   UNL A   1      31.844  23.584  23.867  1.00  0.00     0.261 C 
BRANCH   5   6
ATOM      6  O   UNL A   1      31.633  24.364  22.665  1.00  0.00    -0.463 OA
BRANCH   6   7
ATOM      7  C   UNL A   1      32.559  25.311  22.362  1.00  0.00     0.311 C 
ATOM      8  O   UNL A   1      33.717  25.037  22.052  1.00  0.00    -0.252 OA
BRANCH   7   9
ATOM      9  C   UNL A   1      32.020  26.738  22.224  1.00  0.00     0.171 C 
BRANCH   9  10
ATOM     10  C   UNL A   1      32.008  27.613  23.451  1.00  0.00     0.044 A 
ATOM     11  C   UNL A   1      32.548  28.652  25.594  1.00  0.00     0.097 A 
ATOM     12  N   UNL A   1      31.713  29.419  24.919  1.00  0.00    -0.241 NA
ATOM     13  S   UNL A   1      32.813  27.106  24.902  1.00  0.00    -0.122 S 
ATOM     14  C   UNL A   1      31.256  28.724  23.804  1.00  0.00     0.085 A 
BRANCH  11  15
ATOM     15  C   UNL A   1      33.209  29.139  26.900  1.00  0.00     0.052 C 
ATOM     16  C   UNL A   1      34.521  31.172  27.984  1.00  0.00     0.008 C 
ATOM     17  C   UNL A   1      34.333  30.166  26.899  1.00  0.00    -0.004 C 
ATOM     18  C   UNL A   1      34.635  28.724  27.191  1.00  0.00     0.015 C 
ENDBRANCH  11  15
BRANCH  14  19
ATOM     19  C   UNL A   1      30.035  29.086  23.107  1.00  0.00     0.001 A 
ATOM     20  C   UNL A   1      30.104  30.036  22.072  1.00  0.00     0.010 A 
ATOM     21  C   UNL A   1      28.809  28.503  23.417  1.00  0.00     0.010 A 
ATOM     22  C   UNL A   1      28.953  30.471  21.422  1.00  0.00     0.001 A 
ATOM     23  C   UNL A   1      27.653  28.929  22.753  1.00  0.00     0.001 A 
ATOM     24  C   UNL A   1      27.723  29.925  21.774  1.00  0.00     0.000 A 
ENDBRANCH  14  19
ENDBRANCH   9  10
ENDBRANCH   7   9
ENDBRANCH   6   7
ENDBRANCH   5   6
ENDBRANCH   4   5
ENDBRANCH   3   4
ENDBRANCH   2   3
ENDBRANCH   1   2
BRANCH   1  25
ATOM     25  O   UNL A   1      35.574  21.163  24.678  1.00  0.00    -0.376 OA
BRANCH  25  26
ATOM     26  C   UNL A   1      36.917  21.407  24.322  1.00  0.00     0.202 C 
BRANCH  26  27
ATOM     27  C   UNL A   1      37.923  20.477  25.012  1.00  0.00     0.261 C 
BRANCH  27  28
ATOM     28  O   UNL A   1      38.406  20.908  26.300  1.00  0.00    -0.460 OA
BRANCH  28  29
ATOM     29  C   UNL A   1      39.747  20.989  26.450  1.00  0.00     0.338 C 
ATOM     30  O   UNL A   1      40.557  20.134  26.123  1.00  0.00    -0.246 OA
BRANCH  29  31
ATOM     31  C   UNL A   1      40.093  22.369  26.860  1.00  0.00     0.060 A 
ATOM     32  C   UNL A   1      39.372  23.450  26.333  1.00  0.00     0.016 A 
ATOM     33  C   UNL A   1      41.128  22.598  27.765  1.00  0.00     0.016 A 
ATOM     34  C   UNL A   1      39.687  24.763  26.697  1.00  0.00     0.010 A 
ATOM     35  C   UNL A   1      41.463  23.912  28.107  1.00  0.00     0.010 A 
ATOM     36  C   UNL A   1      40.762  25.003  27.558  1.00  0.00    -0.014 A 
BRANCH  36  37
ATOM     37  C   UNL A   1      41.297  26.379  27.735  1.00  0.00     0.031 A 
ATOM     38  C   UNL A   1      42.644  26.695  27.148  1.00  0.00     0.074 A 
ATOM     39  C   UNL A   1      40.620  27.325  28.410  1.00  0.00     0.049 A 
ATOM     40  N   UNL A   1      43.392  27.757  27.293  1.00  0.00    -0.248 NA
ATOM     41  C   UNL A   1      43.231  25.655  26.289  1.00  0.00     0.031 C 
ATOM     42  C   UNL A   1      39.278  27.168  28.968  1.00  0.00     0.029 A 
ATOM     43  N   UNL A   1      40.983  28.603  28.758  1.00  0.00    -0.354 N 
ATOM     44  C   UNL A   1      44.550  27.506  26.563  1.00  0.00     0.074 A 
ATOM     45  C   UNL A   1      44.414  26.176  26.007  1.00  0.00     0.031 C 
ATOM     46  C   UNL A   1      38.940  28.301  29.609  1.00  0.00     0.029 A 
ATOM     47  C   UNL A   1      40.060  29.241  29.555  1.00  0.00     0.049 A 
ATOM     48  H   UNL A   1      41.824  29.024  28.465  1.00  0.00     0.167 HD
ATOM     49  C   UNL A   1      45.625  28.311  26.375  1.00  0.00     0.034 A 
ATOM     50  C   UNL A   1      40.129  30.424  30.201  1.00  0.00     0.034 A 
ATOM     51  C   UNL A   1      45.748  29.628  26.951  1.00  0.00     0.049 A 
ATOM     52  C   UNL A   1      41.380  31.265  30.068  1.00  0.00     0.074 A 
ATOM     53  C   UNL A   1      46.785  30.533  26.817  1.00  0.00     0.029 A 
ATOM     54  N   UNL A   1      44.811  30.221  27.788  1.00  0.00    -0.354 N 
ATOM     55  N   UNL A   1      42.475  31.017  29.387  1.00  0.00    -0.248 NA
ATOM     56  C   UNL A   1      41.400  32.544  30.791  1.00  0.00     0.031 C 
ATOM     57  C   UNL A   1      46.517  31.631  27.640  1.00  0.00     0.029 A 
ATOM     58  C   UNL A   1      45.266  31.461  28.210  1.00  0.00     0.049 A 
ATOM     59  H   UNL A   1      43.949  29.821  28.044  1.00  0.00     0.167 HD
ATOM     60  C   UNL A   1      43.299  32.128  29.569  1.00  0.00     0.074 A 
ATOM     61  C   UNL A   1      42.571  33.045  30.422  1.00  0.00     0.031 C 
ATOM     62  C   UNL A   1      44.537  32.371  29.067  1.00  0.00     0.034 A 
BRANCH  49  63
ATOM     63  C   UNL A   1      46.776  27.748  25.573  1.00  0.00     0.023 A 
ATOM     64  C   UNL A   1      47.041  28.167  24.257  1.00  0.00     0.031 A 
ATOM     65  C   UNL A   1      47.587  26.734  26.113  1.00  0.00     0.131 A 
ATOM     66  C   UNL A   1      48.021  27.512  23.497  1.00  0.00     0.055 A 
ATOM     67  C   UNL A   1      48.626  26.153  25.384  1.00  0.00     0.041 A 
ATOM     68  F   UNL A   1      47.368  26.271  27.353  1.00  0.00    -0.206 F 
ATOM     69  C   UNL A   1      48.836  26.527  24.061  1.00  0.00     0.022 A 
BRANCH  66  70
ATOM     70  S   UNL A   1      48.090  27.834  21.713  1.00  0.00     0.124 S 
ATOM     71  O   UNL A   1      49.208  28.771  21.625  1.00  0.00    -0.237 OA
ATOM     72  O   UNL A   1      48.326  26.505  21.163  1.00  0.00    -0.237 OA
ATOM     73  O   UNL A   1      46.780  28.409  21.417  1.00  0.00    -0.744 OA
ENDBRANCH  66  70
ENDBRANCH  49  63
BRANCH  50  74
ATOM     74  C   UNL A   1      39.007  30.866  31.080  1.00  0.00     0.023 A 
ATOM     75  C   UNL A   1      38.007  31.732  30.608  1.00  0.00     0.031 A 
ATOM     76  C   UNL A   1      38.939  30.455  32.424  1.00  0.00     0.131 A 
ATOM     77  C   UNL A   1      37.003  32.183  31.479  1.00  0.00     0.055 A 
ATOM     78  C   UNL A   1      37.908  30.862  33.271  1.00  0.00     0.041 A 
ATOM     79  F   UNL A   1      39.875  29.635  32.931  1.00  0.00    -0.206 F 
ATOM     80  C   UNL A   1      36.937  31.740  32.803  1.00  0.00     0.022 A 
BRANCH  77  81
ATOM     81  S   UNL A   1      35.822  33.422  30.880  1.00  0.00     0.124 S 
ATOM     82  O   UNL A   1      35.947  34.465  31.891  1.00  0.00    -0.237 OA
ATOM     83  O   UNL A   1      36.358  33.740  29.560  1.00  0.00    -0.237 OA
ATOM     84  O   UNL A   1      34.549  32.705  30.874  1.00  0.00    -0.744 OA
ENDBRANCH  77  81
ENDBRANCH  50  74
BRANCH  62  85
ATOM     85  C   UNL A   1      45.166  33.712  29.372  1.00  0.00     0.023 A 
ATOM     86  C   UNL A   1      44.891  34.861  28.611  1.00  0.00     0.031 A 
ATOM     87  C   UNL A   1      46.049  33.839  30.461  1.00  0.00     0.131 A 
ATOM     88  C   UNL A   1      45.529  36.074  28.920  1.00  0.00     0.055 A 
ATOM     89  C   UNL A   1      46.628  35.061  30.804  1.00  0.00     0.041 A 
ATOM     90  F   UNL A   1      46.355  32.775  31.221  1.00  0.00    -0.206 F 
ATOM     91  C   UNL A   1      46.378  36.186  30.025  1.00  0.00     0.022 A 
BRANCH  88  92
ATOM     92  S   UNL A   1      45.308  37.487  27.805  1.00  0.00     0.124 S 
ATOM     93  O   UNL A   1      44.191  38.192  28.427  1.00  0.00    -0.237 OA
ATOM     94  O   UNL A   1      46.604  38.153  27.881  1.00  0.00    -0.237 OA
ATOM     95  O   UNL A   1      45.006  36.865  26.517  1.00  0.00    -0.744 OA
ENDBRANCH  88  92
ENDBRANCH  62  85
ENDBRANCH  36  37
ENDBRANCH  29  31
ENDBRANCH  28  29
ENDBRANCH  27  28
ENDBRANCH  26  27
ENDBRANCH  25  26
ENDBRANCH   1  25
TORSDOF 23
ENDMDL
MODEL 3
REMARK VINA RESULT:     -10.1      3.362      8.725
REMARK SMILES C[C@H]1C[C@@H]1c1nc(-c2ccccc2)c(CC(=O)OCCOCCOCCOC(=O)c2ccc(-c3c4nc(c(-c5cc(S(=O)(=O)[O-])ccc5F)c5ccc([nH]5)c(-c5cc(S(=O)(=O)[O-])ccc5F)c5nc(c(-c6cc(S(=O)(=O)[O-])ccc6F)c6ccc3[nH]6)C=C5)C=C4)cc2)s1
REMARK SMILES IDX 23 1 22 2 21 3 20 4 19 5 18 6 16 7 17 8 15 9 14 10 5 11 6 12
REMARK SMILES IDX 93 13 7 14 4 15 1 16 2 17 3 18 8 19 9 20 13 21 10 22 12 23
REMARK SMILES IDX 11 24 24 25 25 26 26 27 27 28 28 29 29 30 30 31 31 32 92 33
REMARK SMILES IDX 32 34 91 35 33 36 34 37 35 38 85 39 36 40 90 41 84 42 86 43
REMARK SMILES IDX 37 44 89 45 83 46 82 47 38 49 70 50 50 51 69 52 51 53 54 54
REMARK SMILES IDX 68 55 87 56 52 57 53 58 67 60 88 61 55 62 39 63 40 64 48 65
REMARK SMILES IDX 41 66 47 67 49 68 46 69 42 70 43 71 44 72 45 73 71 74 72 75
REMARK SMILES IDX 80 76 73 77 79 78 81 79 78 80 74 81 75 82 76 83 77 84 56 85
REMARK SMILES IDX 57 86 65 87 58 88 64 89 66 90 63 91 59 92 60 93 61 94 62 95
REMARK H PARENT 86 48 54 59
REMARK Flexibility Score: inf
ROOT
ATOM      1  C   UNL A   1      35.847  21.142  24.850  1.00  0.00     0.188 C 
ENDROOT
BRANCH   1   2
ATOM      2  C   UNL A   1      35.712  22.552  24.255  1.00  0.00     0.188 C 
BRANCH   2   3
ATOM      3  O   UNL A   1      34.407  23.060  23.985  1.00  0.00    -0.376 OA
BRANCH   3   4
ATOM      4  C   UNL A   1      34.022  23.277  22.631  1.00  0.00     0.202 C 
BRANCH   4   5
ATOM      5  C   UNL A   1      32.831  24.220  22.370  1.00  0.00     0.261 C 
BRANCH   5   6
ATOM      6  O   UNL A   1      33.124  25.327  21.484  1.00  0.00    -0.463 OA
BRANCH   6   7
ATOM      7  C   UNL A   1      33.073  26.580  22.008  1.00  0.00     0.311 C 
ATOM      8  O   UNL A   1      33.887  27.456  21.721  1.00  0.00    -0.252 OA
BRANCH   7   9
ATOM      9  C   UNL A   1      31.816  26.903  22.819  1.00  0.00     0.171 C 
BRANCH   9  10
ATOM     10  C   UNL A   1      31.955  27.821  24.007  1.00  0.00     0.044 A 
ATOM     11  C   UNL A   1      32.724  28.899  26.058  1.00  0.00     0.097 A 
ATOM     12  N   UNL A   1      31.888  29.694  25.419  1.00  0.00    -0.241 NA
ATOM     13  S   UNL A   1      32.838  27.315  25.412  1.00  0.00    -0.122 S 
ATOM     14  C   UNL A   1      31.303  28.990  24.370  1.00  0.00     0.085 A 
BRANCH  11  15
ATOM     15  C   UNL A   1      33.515  29.388  27.290  1.00  0.00     0.052 C 
ATOM     16  C   UNL A   1      34.622  31.535  28.384  1.00  0.00     0.008 C 
ATOM     17  C   UNL A   1      34.421  30.610  27.231  1.00  0.00    -0.004 C 
ATOM     18  C   UNL A   1      35.020  29.234  27.295  1.00  0.00     0.015 C 
ENDBRANCH  11  15
BRANCH  14  19
ATOM     19  C   UNL A   1      30.056  29.406  23.754  1.00  0.00     0.001 A 
ATOM     20  C   UNL A   1      29.634  30.737  23.914  1.00  0.00     0.010 A 
ATOM     21  C   UNL A   1      29.283  28.532  22.992  1.00  0.00     0.010 A 
ATOM     22  C   UNL A   1      28.412  31.167  23.405  1.00  0.00     0.001 A 
ATOM     23  C   UNL A   1      28.062  28.968  22.467  1.00  0.00     0.001 A 
ATOM     24  C   UNL A   1      27.619  30.275  22.691  1.00  0.00     0.000 A 
ENDBRANCH  14  19
ENDBRANCH   9  10
ENDBRANCH   7   9
ENDBRANCH   6   7
ENDBRANCH   5   6
ENDBRANCH   4   5
ENDBRANCH   3   4
ENDBRANCH   2   3
ENDBRANCH   1   2
BRANCH   1  25
ATOM     25  O   UNL A   1      37.166  20.810  25.226  1.00  0.00    -0.376 OA
BRANCH  25  26
ATOM     26  C   UNL A   1      37.952  21.857  25.753  1.00  0.00     0.202 C 
BRANCH  26  27
ATOM     27  C   UNL A   1      39.462  21.591  25.699  1.00  0.00     0.261 C 
BRANCH  27  28
ATOM     28  O   UNL A   1      39.912  20.363  26.303  1.00  0.00    -0.460 OA
BRANCH  28  29
ATOM     29  C   UNL A   1      41.217  20.047  26.137  1.00  0.00     0.338 C 
ATOM     30  O   UNL A   1      41.647  19.035  25.603  1.00  0.00    -0.246 OA
BRANCH  29  31
ATOM     31  C   UNL A   1      42.036  21.227  26.498  1.00  0.00     0.060 A 
ATOM     32  C   UNL A   1      42.251  21.534  27.849  1.00  0.00     0.016 A 
ATOM     33  C   UNL A   1      42.593  22.031  25.505  1.00  0.00     0.016 A 
ATOM     34  C   UNL A   1      43.011  22.649  28.215  1.00  0.00     0.010 A 
ATOM     35  C   UNL A   1      43.329  23.162  25.869  1.00  0.00     0.010 A 
ATOM     36  C   UNL A   1      43.523  23.493  27.224  1.00  0.00    -0.014 A 
BRANCH  36  37
ATOM     37  C   UNL A   1      44.082  24.824  27.579  1.00  0.00     0.031 A 
ATOM     38  C   UNL A   1      43.136  25.875  28.088  1.00  0.00     0.074 A 
ATOM     39  C   UNL A   1      45.390  25.107  27.442  1.00  0.00     0.049 A 
ATOM     40  N   UNL A   1      43.341  27.146  28.317  1.00  0.00    -0.248 NA
ATOM     41  C   UNL A   1      41.763  25.426  28.362  1.00  0.00     0.031 C 
ATOM     42  C   UNL A   1      46.421  24.158  27.025  1.00  0.00     0.029 A 
ATOM     43  N   UNL A   1      46.070  26.287  27.621  1.00  0.00    -0.354 N 
ATOM     44  C   UNL A   1      42.117  27.656  28.739  1.00  0.00     0.074 A 
ATOM     45  C   UNL A   1      41.172  26.560  28.701  1.00  0.00     0.031 C 
ATOM     46  C   UNL A   1      47.599  24.801  26.958  1.00  0.00     0.029 A 
ATOM     47  C   UNL A   1      47.399  26.216  27.273  1.00  0.00     0.049 A 
ATOM     48  H   UNL A   1      45.646  27.106  27.966  1.00  0.00     0.167 HD
ATOM     49  C   UNL A   1      41.813  28.920  29.123  1.00  0.00     0.034 A 
ATOM     50  C   UNL A   1      48.333  27.186  27.177  1.00  0.00     0.034 A 
ATOM     51  C   UNL A   1      42.767  30.002  29.140  1.00  0.00     0.049 A 
ATOM     52  C   UNL A   1      47.951  28.612  27.507  1.00  0.00     0.074 A 
ATOM     53  C   UNL A   1      42.571  31.317  29.522  1.00  0.00     0.029 A 
ATOM     54  N   UNL A   1      44.093  29.900  28.739  1.00  0.00    -0.354 N 
ATOM     55  N   UNL A   1      46.790  29.090  27.893  1.00  0.00    -0.248 NA
ATOM     56  C   UNL A   1      49.007  29.627  27.387  1.00  0.00     0.031 C 
ATOM     57  C   UNL A   1      43.749  32.027  29.269  1.00  0.00     0.029 A 
ATOM     58  C   UNL A   1      44.714  31.137  28.825  1.00  0.00     0.049 A 
ATOM     59  H   UNL A   1      44.530  29.071  28.438  1.00  0.00     0.167 HD
ATOM     60  C   UNL A   1      46.988  30.455  28.100  1.00  0.00     0.074 A 
ATOM     61  C   UNL A   1      48.379  30.720  27.797  1.00  0.00     0.031 C 
ATOM     62  C   UNL A   1      46.103  31.398  28.514  1.00  0.00     0.034 A 
BRANCH  49  63
ATOM     63  C   UNL A   1      40.372  29.204  29.482  1.00  0.00     0.023 A 
ATOM     64  C   UNL A   1      39.923  29.205  30.814  1.00  0.00     0.031 A 
ATOM     65  C   UNL A   1      39.420  29.421  28.469  1.00  0.00     0.131 A 
ATOM     66  C   UNL A   1      38.553  29.322  31.091  1.00  0.00     0.055 A 
ATOM     67  C   UNL A   1      38.071  29.635  28.758  1.00  0.00     0.041 A 
ATOM     68  F   UNL A   1      39.780  29.405  27.177  1.00  0.00    -0.206 F 
ATOM     69  C   UNL A   1      37.626  29.566  30.074  1.00  0.00     0.022 A 
BRANCH  66  70
ATOM     70  S   UNL A   1      37.978  28.964  32.775  1.00  0.00     0.124 S 
ATOM     71  O   UNL A   1      36.682  29.638  32.794  1.00  0.00    -0.237 OA
ATOM     72  O   UNL A   1      37.940  27.507  32.790  1.00  0.00    -0.237 OA
ATOM     73  O   UNL A   1      39.001  29.572  33.623  1.00  0.00    -0.744 OA
ENDBRANCH  66  70
ENDBRANCH  49  63
BRANCH  50  74
ATOM     74  C   UNL A   1      49.708  26.859  26.696  1.00  0.00     0.023 A 
ATOM     75  C   UNL A   1      50.791  26.774  27.585  1.00  0.00     0.031 A 
ATOM     76  C   UNL A   1      49.964  26.664  25.327  1.00  0.00     0.131 A 
ATOM     77  C   UNL A   1      52.083  26.532  27.093  1.00  0.00     0.055 A 
ATOM     78  C   UNL A   1      51.242  26.370  24.848  1.00  0.00     0.041 A 
ATOM     79  F   UNL A   1      48.967  26.744  24.430  1.00  0.00    -0.206 F 
ATOM     80  C   UNL A   1      52.313  26.312  25.732  1.00  0.00     0.022 A 
BRANCH  77  81
ATOM     81  S   UNL A   1      53.480  26.585  28.249  1.00  0.00     0.124 S 
ATOM     82  O   UNL A   1      54.356  25.555  27.703  1.00  0.00    -0.237 OA
ATOM     83  O   UNL A   1      53.941  27.962  28.107  1.00  0.00    -0.237 OA
ATOM     84  O   UNL A   1      52.868  26.267  29.538  1.00  0.00    -0.744 OA
ENDBRANCH  77  81
ENDBRANCH  50  74
BRANCH  62  85
ATOM     85  C   UNL A   1      46.624  32.801  28.729  1.00  0.00     0.023 A 
ATOM     86  C   UNL A   1      46.645  33.760  27.702  1.00  0.00     0.031 A 
ATOM     87  C   UNL A   1      47.097  33.186  29.998  1.00  0.00     0.131 A 
ATOM     88  C   UNL A   1      47.172  35.039  27.949  1.00  0.00     0.055 A 
ATOM     89  C   UNL A   1      47.557  34.477  30.255  1.00  0.00     0.041 A 
ATOM     90  F   UNL A   1      47.108  32.311  31.017  1.00  0.00    -0.206 F 
ATOM     91  C   UNL A   1      47.607  35.410  29.224  1.00  0.00     0.022 A 
BRANCH  88  92
ATOM     92  S   UNL A   1      47.368  36.188  26.559  1.00  0.00     0.124 S 
ATOM     93  O   UNL A   1      46.989  37.462  27.163  1.00  0.00    -0.237 OA
ATOM     94  O   UNL A   1      48.780  36.036  26.223  1.00  0.00    -0.237 OA
ATOM     95  O   UNL A   1      46.435  35.677  25.557  1.00  0.00    -0.744 OA
ENDBRANCH  88  92
ENDBRANCH  62  85
ENDBRANCH  36  37
ENDBRANCH  29  31
ENDBRANCH  28  29
ENDBRANCH  27  28
ENDBRANCH  26  27
ENDBRANCH  25  26
ENDBRANCH   1  25
TORSDOF 23
ENDMDL
