MODEL 1
REMARK VINA RESULT:     -11.4      0.000      0.000
REMARK SMILES O=C(OCCOCCOCCOC(=O)[C@H]1C[C@](O)(c2ccccc2Cl)[C@@H](c2ccccc2Cl)O1)c1ccc(-c2c3nc(c(-c4cc(S(=O)(=O)[O-])ccc4F)c4ccc([nH]4)c(-c4cc(S(=O)(=O)[O-])ccc4F)c4nc(c(-c5cc(S(=O)(=O)[O-])ccc5F)c5ccc2[nH]5)C=C4)C=C3)cc1
REMARK SMILES IDX 7 1 6 2 5 3 4 4 3 5 2 6 1 7 35 8 36 9 97 10 37 11 96 12
REMARK SMILES IDX 38 13 39 14 40 15 90 16 41 17 95 18 89 19 91 20 42 21 94 22
REMARK SMILES IDX 88 23 87 24 43 26 75 27 55 28 74 29 56 30 59 31 73 32 92 33
REMARK SMILES IDX 57 34 58 35 72 37 93 38 60 39 44 40 45 41 53 42 46 43 52 44
REMARK SMILES IDX 54 45 51 46 47 47 48 48 49 49 50 50 76 51 77 52 85 53 78 54
REMARK SMILES IDX 84 55 86 56 83 57 79 58 80 59 81 60 82 61 61 62 62 63 70 64
REMARK SMILES IDX 63 65 69 66 71 67 68 68 64 69 65 70 66 71 67 72 8 73 9 74
REMARK SMILES IDX 10 75 11 76 12 77 13 78 14 79 15 80 16 81 34 82 17 83 26 84
REMARK SMILES IDX 19 85 20 86 24 87 21 88 23 89 25 90 22 91 18 92 27 94 28 95
REMARK SMILES IDX 32 96 29 97 31 98 33 99 30 100
REMARK H PARENT 91 25 59 36 18 93
REMARK Flexibility Score: inf
ROOT
ATOM      1  C   UNL A   1      32.982  20.846  25.117  1.00  0.00     0.188 C 
ENDROOT
BRANCH   1   2
ATOM      2  O   UNL A   1      34.291  20.286  25.250  1.00  0.00    -0.376 OA
BRANCH   2   3
ATOM      3  C   UNL A   1      35.335  21.122  24.744  1.00  0.00     0.202 C 
BRANCH   3   4
ATOM      4  C   UNL A   1      36.457  21.446  25.744  1.00  0.00     0.261 C 
BRANCH   4   5
ATOM      5  O   UNL A   1      37.741  20.956  25.319  1.00  0.00    -0.460 OA
BRANCH   5   6
ATOM      6  C   UNL A   1      38.935  21.107  25.952  1.00  0.00     0.338 C 
ATOM      7  O   UNL A   1      39.620  20.108  26.167  1.00  0.00    -0.246 OA
BRANCH   6   8
ATOM      8  C   UNL A   1      39.471  22.436  26.379  1.00  0.00     0.060 A 
ATOM      9  C   UNL A   1      38.945  23.659  25.968  1.00  0.00     0.016 A 
ATOM     10  C   UNL A   1      40.544  22.457  27.288  1.00  0.00     0.016 A 
ATOM     11  C   UNL A   1      39.551  24.858  26.309  1.00  0.00     0.010 A 
ATOM     12  C   UNL A   1      41.109  23.671  27.708  1.00  0.00     0.010 A 
ATOM     13  C   UNL A   1      40.640  24.877  27.177  1.00  0.00    -0.014 A 
BRANCH  13  14
ATOM     14  C   UNL A   1      41.307  26.180  27.397  1.00  0.00     0.031 A 
ATOM     15  C   UNL A   1      40.641  27.189  28.286  1.00  0.00     0.074 A 
ATOM     16  C   UNL A   1      42.575  26.349  26.972  1.00  0.00     0.049 A 
ATOM     17  N   UNL A   1      41.074  28.354  28.686  1.00  0.00    -0.248 NA
ATOM     18  C   UNL A   1      39.314  26.826  28.813  1.00  0.00     0.031 C 
ATOM     19  C   UNL A   1      43.333  25.365  26.193  1.00  0.00     0.029 A 
ATOM     20  N   UNL A   1      43.467  27.367  27.175  1.00  0.00    -0.354 N 
ATOM     21  C   UNL A   1      40.076  28.863  29.510  1.00  0.00     0.074 A 
ATOM     22  C   UNL A   1      39.001  27.896  29.525  1.00  0.00     0.031 C 
ATOM     23  C   UNL A   1      44.590  25.805  26.031  1.00  0.00     0.029 A 
ATOM     24  C   UNL A   1      44.706  27.135  26.621  1.00  0.00     0.049 A 
ATOM     25  H   UNL A   1      43.245  28.188  27.671  1.00  0.00     0.167 HD
ATOM     26  C   UNL A   1      40.065  30.032  30.196  1.00  0.00     0.034 A 
ATOM     27  C   UNL A   1      45.799  27.923  26.573  1.00  0.00     0.034 A 
ATOM     28  C   UNL A   1      41.141  30.989  30.133  1.00  0.00     0.049 A 
ATOM     29  C   UNL A   1      45.718  29.268  27.253  1.00  0.00     0.074 A 
ATOM     30  C   UNL A   1      41.207  32.261  30.670  1.00  0.00     0.029 A 
ATOM     31  N   UNL A   1      42.351  30.768  29.483  1.00  0.00    -0.354 N 
ATOM     32  N   UNL A   1      44.729  29.778  27.955  1.00  0.00    -0.248 NA
ATOM     33  C   UNL A   1      46.888  30.143  27.134  1.00  0.00     0.031 C 
ATOM     34  C   UNL A   1      42.435  32.826  30.301  1.00  0.00     0.029 A 
ATOM     35  C   UNL A   1      43.163  31.883  29.591  1.00  0.00     0.049 A 
ATOM     36  H   UNL A   1      42.594  29.937  29.013  1.00  0.00     0.167 HD
ATOM     37  C   UNL A   1      45.162  31.035  28.363  1.00  0.00     0.074 A 
ATOM     38  C   UNL A   1      46.518  31.182  27.868  1.00  0.00     0.031 C 
ATOM     39  C   UNL A   1      44.505  31.993  29.067  1.00  0.00     0.034 A 
BRANCH  26  40
ATOM     40  C   UNL A   1      38.816  30.346  30.981  1.00  0.00     0.023 A 
ATOM     41  C   UNL A   1      37.821  31.203  30.476  1.00  0.00     0.031 A 
ATOM     42  C   UNL A   1      38.665  29.861  32.292  1.00  0.00     0.131 A 
ATOM     43  C   UNL A   1      36.762  31.609  31.304  1.00  0.00     0.055 A 
ATOM     44  C   UNL A   1      37.569  30.210  33.085  1.00  0.00     0.041 A 
ATOM     45  F   UNL A   1      39.599  29.066  32.838  1.00  0.00    -0.206 F 
ATOM     46  C   UNL A   1      36.619  31.102  32.598  1.00  0.00     0.022 A 
BRANCH  43  47
ATOM     47  S   UNL A   1      35.656  32.925  30.720  1.00  0.00     0.124 S 
ATOM     48  O   UNL A   1      34.383  32.525  31.316  1.00  0.00    -0.237 OA
ATOM     49  O   UNL A   1      36.271  34.126  31.275  1.00  0.00    -0.237 OA
ATOM     50  O   UNL A   1      35.720  32.807  29.265  1.00  0.00    -0.744 OA
ENDBRANCH  43  47
ENDBRANCH  26  40
BRANCH  27  51
ATOM     51  C   UNL A   1      47.012  27.512  25.801  1.00  0.00     0.023 A 
ATOM     52  C   UNL A   1      47.198  27.878  24.458  1.00  0.00     0.031 A 
ATOM     53  C   UNL A   1      47.983  26.675  26.387  1.00  0.00     0.131 A 
ATOM     54  C   UNL A   1      48.293  27.371  23.736  1.00  0.00     0.055 A 
ATOM     55  C   UNL A   1      49.102  26.227  25.685  1.00  0.00     0.041 A 
ATOM     56  F   UNL A   1      47.860  26.279  27.665  1.00  0.00    -0.206 F 
ATOM     57  C   UNL A   1      49.253  26.561  24.345  1.00  0.00     0.022 A 
BRANCH  54  58
ATOM     58  S   UNL A   1      48.383  27.685  21.950  1.00  0.00     0.124 S 
ATOM     59  O   UNL A   1      47.080  28.283  21.685  1.00  0.00    -0.237 OA
ATOM     60  O   UNL A   1      49.531  28.581  21.859  1.00  0.00    -0.237 OA
ATOM     61  O   UNL A   1      48.587  26.354  21.381  1.00  0.00    -0.744 OA
ENDBRANCH  54  58
ENDBRANCH  27  51
BRANCH  39  62
ATOM     62  C   UNL A   1      45.270  33.262  29.341  1.00  0.00     0.023 A 
ATOM     63  C   UNL A   1      45.201  34.358  28.463  1.00  0.00     0.031 A 
ATOM     64  C   UNL A   1      46.095  33.364  30.473  1.00  0.00     0.131 A 
ATOM     65  C   UNL A   1      46.003  35.485  28.695  1.00  0.00     0.055 A 
ATOM     66  C   UNL A   1      46.841  34.515  30.732  1.00  0.00     0.041 A 
ATOM     67  F   UNL A   1      46.193  32.347  31.343  1.00  0.00    -0.206 F 
ATOM     68  C   UNL A   1      46.809  35.576  29.831  1.00  0.00     0.022 A 
BRANCH  65  69
ATOM     69  S   UNL A   1      46.054  36.783  27.431  1.00  0.00     0.124 S 
ATOM     70  O   UNL A   1      45.874  36.019  26.201  1.00  0.00    -0.237 OA
ATOM     71  O   UNL A   1      44.938  37.641  27.818  1.00  0.00    -0.237 OA
ATOM     72  O   UNL A   1      47.379  37.376  27.604  1.00  0.00    -0.744 OA
ENDBRANCH  65  69
ENDBRANCH  39  62
ENDBRANCH  13  14
ENDBRANCH   6   8
ENDBRANCH   5   6
ENDBRANCH   4   5
ENDBRANCH   3   4
ENDBRANCH   2   3
ENDBRANCH   1   2
BRANCH   1  73
ATOM     73  C   UNL A   1      32.336  20.476  23.779  1.00  0.00     0.188 C 
BRANCH  73  74
ATOM     74  O   UNL A   1      32.435  21.469  22.751  1.00  0.00    -0.376 OA
BRANCH  74  75
ATOM     75  C   UNL A   1      32.403  22.833  23.177  1.00  0.00     0.202 C 
BRANCH  75  76
ATOM     76  C   UNL A   1      33.322  23.803  22.420  1.00  0.00     0.261 C 
BRANCH  76  77
ATOM     77  O   UNL A   1      34.122  24.597  23.306  1.00  0.00    -0.461 OA
BRANCH  77  78
ATOM     78  C   UNL A   1      33.447  25.580  23.973  1.00  0.00     0.335 C 
ATOM     79  O   UNL A   1      33.259  25.588  25.183  1.00  0.00    -0.249 OA
BRANCH  78  80
ATOM     80  C   UNL A   1      33.005  26.678  22.993  1.00  0.00     0.232 C 
ATOM     81  C   UNL A   1      31.507  26.862  22.904  1.00  0.00     0.087 C 
ATOM     82  O   UNL A   1      33.551  27.959  23.290  1.00  0.00    -0.355 OA
ATOM     83  C   UNL A   1      31.158  28.073  23.793  1.00  0.00     0.124 C 
ATOM     84  C   UNL A   1      32.546  28.801  23.919  1.00  0.00     0.187 C 
BRANCH  83  85
ATOM     85  C   UNL A   1      29.873  28.691  23.196  1.00  0.00     0.005 A 
ATOM     86  C   UNL A   1      30.046  29.975  22.597  1.00  0.00     0.008 A 
ATOM     87  C   UNL A   1      28.549  28.222  23.248  1.00  0.00     0.047 A 
ATOM     88  C   UNL A   1      28.986  30.744  22.111  1.00  0.00     0.001 A 
ATOM     89  C   UNL A   1      27.483  28.998  22.744  1.00  0.00     0.021 A 
ATOM     90  Cl  UNL A   1      28.040  26.725  23.923  1.00  0.00    -0.084 Cl
ATOM     91  C   UNL A   1      27.696  30.254  22.189  1.00  0.00     0.002 A 
ENDBRANCH  83  85
BRANCH  83  92
ATOM     92  O   UNL A   1      30.767  27.557  25.081  1.00  0.00    -0.382 OA
ATOM     93  H   UNL A   1      29.814  27.373  25.080  1.00  0.00     0.212 HD
ENDBRANCH  83  92
BRANCH  84  94
ATOM     94  C   UNL A   1      33.119  29.138  25.300  1.00  0.00     0.003 A 
ATOM     95  C   UNL A   1      34.302  28.510  25.746  1.00  0.00     0.008 A 
ATOM     96  C   UNL A   1      32.613  30.169  26.114  1.00  0.00     0.046 A 
ATOM     97  C   UNL A   1      34.985  28.926  26.893  1.00  0.00     0.000 A 
ATOM     98  C   UNL A   1      33.293  30.580  27.274  1.00  0.00     0.021 A 
ATOM     99  Cl  UNL A   1      31.152  31.020  25.761  1.00  0.00    -0.084 Cl
ATOM    100  C   UNL A   1      34.488  29.974  27.652  1.00  0.00     0.002 A 
ENDBRANCH  84  94
ENDBRANCH  78  80
ENDBRANCH  77  78
ENDBRANCH  76  77
ENDBRANCH  75  76
ENDBRANCH  74  75
ENDBRANCH  73  74
ENDBRANCH   1  73
TORSDOF 23
ENDMDL
MODEL 2
REMARK VINA RESULT:     -11.3      5.003      8.050
REMARK SMILES O=C(OCCOCCOCCOC(=O)[C@H]1C[C@](O)(c2ccccc2Cl)[C@@H](c2ccccc2Cl)O1)c1ccc(-c2c3nc(c(-c4cc(S(=O)(=O)[O-])ccc4F)c4ccc([nH]4)c(-c4cc(S(=O)(=O)[O-])ccc4F)c4nc(c(-c5cc(S(=O)(=O)[O-])ccc5F)c5ccc2[nH]5)C=C4)C=C3)cc1
REMARK SMILES IDX 7 1 6 2 5 3 4 4 3 5 2 6 1 7 35 8 36 9 97 10 37 11 96 12
REMARK SMILES IDX 38 13 39 14 40 15 90 16 41 17 95 18 89 19 91 20 42 21 94 22
REMARK SMILES IDX 88 23 87 24 43 26 75 27 55 28 74 29 56 30 59 31 73 32 92 33
REMARK SMILES IDX 57 34 58 35 72 37 93 38 60 39 44 40 45 41 53 42 46 43 52 44
REMARK SMILES IDX 54 45 51 46 47 47 48 48 49 49 50 50 76 51 77 52 85 53 78 54
REMARK SMILES IDX 84 55 86 56 83 57 79 58 80 59 81 60 82 61 61 62 62 63 70 64
REMARK SMILES IDX 63 65 69 66 71 67 68 68 64 69 65 70 66 71 67 72 8 73 9 74
REMARK SMILES IDX 10 75 11 76 12 77 13 78 14 79 15 80 16 81 34 82 17 83 26 84
REMARK SMILES IDX 19 85 20 86 24 87 21 88 23 89 25 90 22 91 18 92 27 94 28 95
REMARK SMILES IDX 32 96 29 97 31 98 33 99 30 100
REMARK H PARENT 91 25 59 36 18 93
REMARK Flexibility Score: inf
ROOT
ATOM      1  C   UNL A   1      33.809  28.622  23.763  1.00  0.00     0.188 C 
ENDROOT
BRANCH   1   2
ATOM      2  O   UNL A   1      33.454  29.083  25.070  1.00  0.00    -0.376 OA
BRANCH   2   3
ATOM      3  C   UNL A   1      32.115  29.573  25.170  1.00  0.00     0.202 C 
BRANCH   3   4
ATOM      4  C   UNL A   1      31.891  30.655  26.239  1.00  0.00     0.261 C 
BRANCH   4   5
ATOM      5  O   UNL A   1      32.809  30.547  27.341  1.00  0.00    -0.460 OA
BRANCH   5   6
ATOM      6  C   UNL A   1      33.822  31.396  27.662  1.00  0.00     0.338 C 
ATOM      7  O   UNL A   1      33.597  32.604  27.679  1.00  0.00    -0.246 OA
BRANCH   6   8
ATOM      8  C   UNL A   1      35.197  30.928  28.020  1.00  0.00     0.060 A 
ATOM      9  C   UNL A   1      35.552  29.590  28.171  1.00  0.00     0.016 A 
ATOM     10  C   UNL A   1      36.207  31.895  28.170  1.00  0.00     0.016 A 
ATOM     11  C   UNL A   1      36.814  29.222  28.611  1.00  0.00     0.010 A 
ATOM     12  C   UNL A   1      37.512  31.524  28.531  1.00  0.00     0.010 A 
ATOM     13  C   UNL A   1      37.804  30.182  28.799  1.00  0.00    -0.014 A 
BRANCH  13  14
ATOM     14  C   UNL A   1      39.085  29.728  29.385  1.00  0.00     0.031 A 
ATOM     15  C   UNL A   1      39.472  30.227  30.746  1.00  0.00     0.074 A 
ATOM     16  C   UNL A   1      39.765  28.730  28.785  1.00  0.00     0.049 A 
ATOM     17  N   UNL A   1      40.498  29.904  31.486  1.00  0.00    -0.248 NA
ATOM     18  C   UNL A   1      38.568  31.211  31.366  1.00  0.00     0.031 C 
ATOM     19  C   UNL A   1      39.389  28.112  27.509  1.00  0.00     0.029 A 
ATOM     20  N   UNL A   1      40.866  28.021  29.182  1.00  0.00    -0.354 N 
ATOM     21  C   UNL A   1      40.364  30.641  32.658  1.00  0.00     0.074 A 
ATOM     22  C   UNL A   1      39.176  31.454  32.515  1.00  0.00     0.031 C 
ATOM     23  C   UNL A   1      40.214  27.085  27.257  1.00  0.00     0.029 A 
ATOM     24  C   UNL A   1      41.226  27.020  28.307  1.00  0.00     0.049 A 
ATOM     25  H   UNL A   1      41.356  28.208  30.016  1.00  0.00     0.167 HD
ATOM     26  C   UNL A   1      41.160  30.632  33.754  1.00  0.00     0.034 A 
ATOM     27  C   UNL A   1      42.270  26.169  28.341  1.00  0.00     0.034 A 
ATOM     28  C   UNL A   1      42.355  29.833  33.850  1.00  0.00     0.049 A 
ATOM     29  C   UNL A   1      43.204  26.259  29.524  1.00  0.00     0.074 A 
ATOM     30  C   UNL A   1      43.317  29.821  34.841  1.00  0.00     0.029 A 
ATOM     31  N   UNL A   1      42.748  28.893  32.902  1.00  0.00    -0.354 N 
ATOM     32  N   UNL A   1      43.115  27.029  30.587  1.00  0.00    -0.248 NA
ATOM     33  C   UNL A   1      44.374  25.376  29.514  1.00  0.00     0.031 C 
ATOM     34  C   UNL A   1      44.316  28.912  34.468  1.00  0.00     0.029 A 
ATOM     35  C   UNL A   1      43.945  28.308  33.277  1.00  0.00     0.049 A 
ATOM     36  H   UNL A   1      42.247  28.676  32.083  1.00  0.00     0.167 HD
ATOM     37  C   UNL A   1      44.220  26.720  31.373  1.00  0.00     0.074 A 
ATOM     38  C   UNL A   1      44.931  25.659  30.682  1.00  0.00     0.031 C 
ATOM     39  C   UNL A   1      44.629  27.264  32.549  1.00  0.00     0.034 A 
BRANCH  26  40
ATOM     40  C   UNL A   1      40.790  31.579  34.868  1.00  0.00     0.023 A 
ATOM     41  C   UNL A   1      39.771  31.273  35.790  1.00  0.00     0.031 A 
ATOM     42  C   UNL A   1      41.393  32.846  34.950  1.00  0.00     0.131 A 
ATOM     43  C   UNL A   1      39.336  32.249  36.701  1.00  0.00     0.055 A 
ATOM     44  C   UNL A   1      41.005  33.786  35.908  1.00  0.00     0.041 A 
ATOM     45  F   UNL A   1      42.347  33.205  34.077  1.00  0.00    -0.206 F 
ATOM     46  C   UNL A   1      39.960  33.496  36.779  1.00  0.00     0.022 A 
BRANCH  43  47
ATOM     47  S   UNL A   1      37.843  31.921  37.681  1.00  0.00     0.124 S 
ATOM     48  O   UNL A   1      37.559  30.532  37.329  1.00  0.00    -0.237 OA
ATOM     49  O   UNL A   1      38.301  32.154  39.045  1.00  0.00    -0.237 OA
ATOM     50  O   UNL A   1      36.878  32.895  37.173  1.00  0.00    -0.744 OA
ENDBRANCH  43  47
ENDBRANCH  26  40
BRANCH  27  51
ATOM     51  C   UNL A   1      42.539  25.233  27.206  1.00  0.00     0.023 A 
ATOM     52  C   UNL A   1      42.158  23.882  27.251  1.00  0.00     0.031 A 
ATOM     53  C   UNL A   1      43.255  25.670  26.073  1.00  0.00     0.131 A 
ATOM     54  C   UNL A   1      42.536  23.011  26.213  1.00  0.00     0.055 A 
ATOM     55  C   UNL A   1      43.571  24.816  25.017  1.00  0.00     0.041 A 
ATOM     56  F   UNL A   1      43.658  26.948  25.973  1.00  0.00    -0.206 F 
ATOM     57  C   UNL A   1      43.226  23.472  25.091  1.00  0.00     0.022 A 
BRANCH  54  58
ATOM     58  S   UNL A   1      42.219  21.234  26.406  1.00  0.00     0.124 S 
ATOM     59  O   UNL A   1      40.802  21.144  26.074  1.00  0.00    -0.237 OA
ATOM     60  O   UNL A   1      43.143  20.656  25.437  1.00  0.00    -0.237 OA
ATOM     61  O   UNL A   1      42.549  20.980  27.807  1.00  0.00    -0.744 OA
ENDBRANCH  54  58
ENDBRANCH  27  51
BRANCH  39  62
ATOM     62  C   UNL A   1      45.890  26.695  33.145  1.00  0.00     0.023 A 
ATOM     63  C   UNL A   1      45.850  25.600  34.025  1.00  0.00     0.031 A 
ATOM     64  C   UNL A   1      47.137  27.271  32.852  1.00  0.00     0.131 A 
ATOM     65  C   UNL A   1      47.031  25.159  34.640  1.00  0.00     0.055 A 
ATOM     66  C   UNL A   1      48.317  26.786  33.417  1.00  0.00     0.041 A 
ATOM     67  F   UNL A   1      47.228  28.317  32.016  1.00  0.00    -0.206 F 
ATOM     68  C   UNL A   1      48.265  25.734  34.329  1.00  0.00     0.022 A 
BRANCH  65  69
ATOM     69  S   UNL A   1      46.913  23.892  35.931  1.00  0.00     0.124 S 
ATOM     70  O   UNL A   1      48.145  23.136  35.730  1.00  0.00    -0.237 OA
ATOM     71  O   UNL A   1      46.847  24.692  37.149  1.00  0.00    -0.237 OA
ATOM     72  O   UNL A   1      45.684  23.174  35.593  1.00  0.00    -0.744 OA
ENDBRANCH  65  69
ENDBRANCH  39  62
ENDBRANCH  13  14
ENDBRANCH   6   8
ENDBRANCH   5   6
ENDBRANCH   4   5
ENDBRANCH   3   4
ENDBRANCH   2   3
ENDBRANCH   1   2
BRANCH   1  73
ATOM     73  C   UNL A   1      32.609  28.022  23.025  1.00  0.00     0.188 C 
BRANCH  73  74
ATOM     74  O   UNL A   1      32.925  27.031  22.040  1.00  0.00    -0.376 OA
BRANCH  74  75
ATOM     75  C   UNL A   1      32.875  25.668  22.468  1.00  0.00     0.202 C 
BRANCH  75  76
ATOM     76  C   UNL A   1      31.986  25.369  23.684  1.00  0.00     0.261 C 
BRANCH  76  77
ATOM     77  O   UNL A   1      32.305  24.112  24.294  1.00  0.00    -0.461 OA
BRANCH  77  78
ATOM     78  C   UNL A   1      32.178  24.078  25.654  1.00  0.00     0.335 C 
ATOM     79  O   UNL A   1      32.063  25.071  26.361  1.00  0.00    -0.249 OA
BRANCH  78  80
ATOM     80  C   UNL A   1      32.161  22.622  26.148  1.00  0.00     0.232 C 
ATOM     81  C   UNL A   1      31.940  21.601  25.054  1.00  0.00     0.087 C 
ATOM     82  O   UNL A   1      33.353  22.237  26.824  1.00  0.00    -0.355 OA
ATOM     83  C   UNL A   1      33.329  21.039  24.688  1.00  0.00     0.124 C 
ATOM     84  C   UNL A   1      34.182  21.415  25.955  1.00  0.00     0.187 C 
BRANCH  83  85
ATOM     85  C   UNL A   1      33.090  19.606  24.162  1.00  0.00     0.005 A 
ATOM     86  C   UNL A   1      33.631  18.568  24.980  1.00  0.00     0.008 A 
ATOM     87  C   UNL A   1      32.513  19.183  22.952  1.00  0.00     0.047 A 
ATOM     88  C   UNL A   1      33.622  17.219  24.614  1.00  0.00     0.001 A 
ATOM     89  C   UNL A   1      32.496  17.818  22.594  1.00  0.00     0.021 A 
ATOM     90  Cl  UNL A   1      31.803  20.206  21.767  1.00  0.00    -0.084 Cl
ATOM     91  C   UNL A   1      33.054  16.843  23.412  1.00  0.00     0.002 A 
ENDBRANCH  83  85
BRANCH  83  92
ATOM     92  O   UNL A   1      33.803  21.786  23.550  1.00  0.00    -0.382 OA
ATOM     93  H   UNL A   1      34.625  21.389  23.221  1.00  0.00     0.212 HD
ENDBRANCH  83  92
BRANCH  84  94
ATOM     94  C   UNL A   1      35.491  22.198  25.800  1.00  0.00     0.003 A 
ATOM     95  C   UNL A   1      35.539  23.568  26.139  1.00  0.00     0.008 A 
ATOM     96  C   UNL A   1      36.718  21.590  25.476  1.00  0.00     0.046 A 
ATOM     97  C   UNL A   1      36.740  24.277  26.222  1.00  0.00     0.000 A 
ATOM     98  C   UNL A   1      37.926  22.306  25.549  1.00  0.00     0.021 A 
ATOM     99  Cl  UNL A   1      36.855  19.939  24.990  1.00  0.00    -0.084 Cl
ATOM    100  C   UNL A   1      37.940  23.642  25.941  1.00  0.00     0.002 A 
ENDBRANCH  84  94
ENDBRANCH  78  80
ENDBRANCH  77  78
ENDBRANCH  76  77
ENDBRANCH  75  76
ENDBRANCH  74  75
ENDBRANCH  73  74
ENDBRANCH   1  73
TORSDOF 23
ENDMDL
MODEL 3
REMARK VINA RESULT:     -11.1      0.948      7.281
REMARK SMILES O=C(OCCOCCOCCOC(=O)[C@H]1C[C@](O)(c2ccccc2Cl)[C@@H](c2ccccc2Cl)O1)c1ccc(-c2c3nc(c(-c4cc(S(=O)(=O)[O-])ccc4F)c4ccc([nH]4)c(-c4cc(S(=O)(=O)[O-])ccc4F)c4nc(c(-c5cc(S(=O)(=O)[O-])ccc5F)c5ccc2[nH]5)C=C4)C=C3)cc1
REMARK SMILES IDX 7 1 6 2 5 3 4 4 3 5 2 6 1 7 35 8 36 9 97 10 37 11 96 12
REMARK SMILES IDX 38 13 39 14 40 15 90 16 41 17 95 18 89 19 91 20 42 21 94 22
REMARK SMILES IDX 88 23 87 24 43 26 75 27 55 28 74 29 56 30 59 31 73 32 92 33
REMARK SMILES IDX 57 34 58 35 72 37 93 38 60 39 44 40 45 41 53 42 46 43 52 44
REMARK SMILES IDX 54 45 51 46 47 47 48 48 49 49 50 50 76 51 77 52 85 53 78 54
REMARK SMILES IDX 84 55 86 56 83 57 79 58 80 59 81 60 82 61 61 62 62 63 70 64
REMARK SMILES IDX 63 65 69 66 71 67 68 68 64 69 65 70 66 71 67 72 8 73 9 74
REMARK SMILES IDX 10 75 11 76 12 77 13 78 14 79 15 80 16 81 34 82 17 83 26 84
REMARK SMILES IDX 19 85 20 86 24 87 21 88 23 89 25 90 22 91 18 92 27 94 28 95
REMARK SMILES IDX 32 96 29 97 31 98 33 99 30 100
REMARK H PARENT 91 25 59 36 18 93
REMARK Flexibility Score: inf
ROOT
ATOM      1  C   UNL A   1      34.482  21.255  24.633  1.00  0.00     0.188 C 
ENDROOT
BRANCH   1   2
ATOM      2  O   UNL A   1      35.685  20.972  25.354  1.00  0.00    -0.376 OA
BRANCH   2   3
ATOM      3  C   UNL A   1      36.361  19.791  24.916  1.00  0.00     0.202 C 
BRANCH   3   4
ATOM      4  C   UNL A   1      37.894  19.895  24.866  1.00  0.00     0.261 C 
BRANCH   4   5
ATOM      5  O   UNL A   1      38.391  21.096  25.483  1.00  0.00    -0.460 OA
BRANCH   5   6
ATOM      6  C   UNL A   1      39.561  21.257  26.158  1.00  0.00     0.338 C 
ATOM      7  O   UNL A   1      40.325  20.298  26.252  1.00  0.00    -0.246 OA
BRANCH   6   8
ATOM      8  C   UNL A   1      39.977  22.555  26.773  1.00  0.00     0.060 A 
ATOM      9  C   UNL A   1      39.442  23.792  26.424  1.00  0.00     0.016 A 
ATOM     10  C   UNL A   1      40.938  22.523  27.801  1.00  0.00     0.016 A 
ATOM     11  C   UNL A   1      39.944  24.972  26.951  1.00  0.00     0.010 A 
ATOM     12  C   UNL A   1      41.390  23.708  28.401  1.00  0.00     0.010 A 
ATOM     13  C   UNL A   1      40.924  24.943  27.940  1.00  0.00    -0.014 A 
BRANCH  13  14
ATOM     14  C   UNL A   1      41.496  26.241  28.363  1.00  0.00     0.031 A 
ATOM     15  C   UNL A   1      42.886  26.594  27.922  1.00  0.00     0.074 A 
ATOM     16  C   UNL A   1      40.694  27.152  28.950  1.00  0.00     0.049 A 
ATOM     17  N   UNL A   1      43.556  27.700  28.101  1.00  0.00    -0.248 NA
ATOM     18  C   UNL A   1      43.612  25.567  27.157  1.00  0.00     0.031 C 
ATOM     19  C   UNL A   1      39.292  26.921  29.312  1.00  0.00     0.029 A 
ATOM     20  N   UNL A   1      40.911  28.460  29.292  1.00  0.00    -0.354 N 
ATOM     21  C   UNL A   1      44.781  27.505  27.472  1.00  0.00     0.074 A 
ATOM     22  C   UNL A   1      44.774  26.161  26.937  1.00  0.00     0.031 C 
ATOM     23  C   UNL A   1      38.762  28.063  29.775  1.00  0.00     0.029 A 
ATOM     24  C   UNL A   1      39.804  29.085  29.821  1.00  0.00     0.049 A 
ATOM     25  H   UNL A   1      41.777  28.912  29.170  1.00  0.00     0.167 HD
ATOM     26  C   UNL A   1      45.813  28.374  27.350  1.00  0.00     0.034 A 
ATOM     27  C   UNL A   1      39.661  30.332  30.312  1.00  0.00     0.034 A 
ATOM     28  C   UNL A   1      45.799  29.695  27.924  1.00  0.00     0.049 A 
ATOM     29  C   UNL A   1      40.864  31.242  30.261  1.00  0.00     0.074 A 
ATOM     30  C   UNL A   1      46.816  30.629  27.987  1.00  0.00     0.029 A 
ATOM     31  N   UNL A   1      44.692  30.271  28.541  1.00  0.00    -0.354 N 
ATOM     32  N   UNL A   1      42.051  31.011  29.743  1.00  0.00    -0.248 NA
ATOM     33  C   UNL A   1      40.715  32.572  30.861  1.00  0.00     0.031 C 
ATOM     34  C   UNL A   1      46.340  31.746  28.686  1.00  0.00     0.029 A 
ATOM     35  C   UNL A   1      45.006  31.538  29.001  1.00  0.00     0.049 A 
ATOM     36  H   UNL A   1      43.813  29.839  28.637  1.00  0.00     0.167 HD
ATOM     37  C   UNL A   1      42.790  32.171  29.954  1.00  0.00     0.074 A 
ATOM     38  C   UNL A   1      41.896  33.113  30.604  1.00  0.00     0.031 C 
ATOM     39  C   UNL A   1      44.088  32.439  29.659  1.00  0.00     0.034 A 
BRANCH  26  40
ATOM     40  C   UNL A   1      47.047  27.866  26.646  1.00  0.00     0.023 A 
ATOM     41  C   UNL A   1      47.264  28.100  25.276  1.00  0.00     0.031 A 
ATOM     42  C   UNL A   1      47.968  27.054  27.330  1.00  0.00     0.131 A 
ATOM     43  C   UNL A   1      48.330  27.465  24.618  1.00  0.00     0.055 A 
ATOM     44  C   UNL A   1      49.069  26.485  26.686  1.00  0.00     0.041 A 
ATOM     45  F   UNL A   1      47.793  26.770  28.631  1.00  0.00    -0.206 F 
ATOM     46  C   UNL A   1      49.245  26.676  25.319  1.00  0.00     0.022 A 
BRANCH  43  47
ATOM     47  S   UNL A   1      48.419  27.562  22.807  1.00  0.00     0.124 S 
ATOM     48  O   UNL A   1      48.479  26.149  22.440  1.00  0.00    -0.237 OA
ATOM     49  O   UNL A   1      47.184  28.258  22.466  1.00  0.00    -0.237 OA
ATOM     50  O   UNL A   1      49.647  28.315  22.563  1.00  0.00    -0.744 OA
ENDBRANCH  43  47
ENDBRANCH  26  40
BRANCH  27  51
ATOM     51  C   UNL A   1      38.384  30.764  30.958  1.00  0.00     0.023 A 
ATOM     52  C   UNL A   1      37.425  31.527  30.273  1.00  0.00     0.031 A 
ATOM     53  C   UNL A   1      38.135  30.472  32.315  1.00  0.00     0.131 A 
ATOM     54  C   UNL A   1      36.294  32.012  30.955  1.00  0.00     0.055 A 
ATOM     55  C   UNL A   1      36.980  30.901  32.970  1.00  0.00     0.041 A 
ATOM     56  F   UNL A   1      39.017  29.755  33.030  1.00  0.00    -0.206 F 
ATOM     57  C   UNL A   1      36.059  31.691  32.293  1.00  0.00     0.022 A 
BRANCH  54  58
ATOM     58  S   UNL A   1      35.191  33.174  30.102  1.00  0.00     0.124 S 
ATOM     59  O   UNL A   1      36.135  34.152  29.574  1.00  0.00    -0.237 OA
ATOM     60  O   UNL A   1      34.545  32.311  29.120  1.00  0.00    -0.237 OA
ATOM     61  O   UNL A   1      34.320  33.662  31.169  1.00  0.00    -0.744 OA
ENDBRANCH  54  58
ENDBRANCH  27  51
BRANCH  39  62
ATOM     62  C   UNL A   1      44.587  33.811  30.030  1.00  0.00     0.023 A 
ATOM     63  C   UNL A   1      44.576  34.866  29.101  1.00  0.00     0.031 A 
ATOM     64  C   UNL A   1      45.104  34.057  31.313  1.00  0.00     0.131 A 
ATOM     65  C   UNL A   1      45.140  36.103  29.447  1.00  0.00     0.055 A 
ATOM     66  C   UNL A   1      45.605  35.309  31.671  1.00  0.00     0.041 A 
ATOM     67  F   UNL A   1      45.134  33.083  32.235  1.00  0.00    -0.206 F 
ATOM     68  C   UNL A   1      45.639  36.335  30.731  1.00  0.00     0.022 A 
BRANCH  65  69
ATOM     69  S   UNL A   1      45.306  37.368  28.159  1.00  0.00     0.124 S 
ATOM     70  O   UNL A   1      46.753  37.537  28.084  1.00  0.00    -0.237 OA
ATOM     71  O   UNL A   1      44.678  36.726  27.008  1.00  0.00    -0.237 OA
ATOM     72  O   UNL A   1      44.576  38.510  28.707  1.00  0.00    -0.744 OA
ENDBRANCH  65  69
ENDBRANCH  39  62
ENDBRANCH  13  14
ENDBRANCH   6   8
ENDBRANCH   5   6
ENDBRANCH   4   5
ENDBRANCH   3   4
ENDBRANCH   2   3
ENDBRANCH   1   2
BRANCH   1  73
ATOM     73  C   UNL A   1      33.310  20.399  25.121  1.00  0.00     0.188 C 
BRANCH  73  74
ATOM     74  O   UNL A   1      32.008  20.868  24.750  1.00  0.00    -0.376 OA
BRANCH  74  75
ATOM     75  C   UNL A   1      31.646  22.174  25.206  1.00  0.00     0.202 C 
BRANCH  75  76
ATOM     76  C   UNL A   1      31.355  23.216  24.117  1.00  0.00     0.261 C 
BRANCH  76  77
ATOM     77  O   UNL A   1      31.721  24.542  24.523  1.00  0.00    -0.461 OA
BRANCH  77  78
ATOM     78  C   UNL A   1      32.876  25.020  23.971  1.00  0.00     0.335 C 
ATOM     79  O   UNL A   1      33.994  24.600  24.242  1.00  0.00    -0.249 OA
BRANCH  78  80
ATOM     80  C   UNL A   1      32.558  26.119  22.945  1.00  0.00     0.232 C 
ATOM     81  C   UNL A   1      31.091  26.474  22.854  1.00  0.00     0.087 C 
ATOM     82  O   UNL A   1      33.253  27.338  23.184  1.00  0.00    -0.355 OA
ATOM     83  C   UNL A   1      30.894  27.755  23.690  1.00  0.00     0.124 C 
ATOM     84  C   UNL A   1      32.360  28.319  23.779  1.00  0.00     0.187 C 
BRANCH  83  85
ATOM     85  C   UNL A   1      29.686  28.494  23.071  1.00  0.00     0.005 A 
ATOM     86  C   UNL A   1      30.006  29.713  22.400  1.00  0.00     0.008 A 
ATOM     87  C   UNL A   1      28.316  28.195  23.161  1.00  0.00     0.047 A 
ATOM     88  C   UNL A   1      29.041  30.579  21.882  1.00  0.00     0.001 A 
ATOM     89  C   UNL A   1      27.345  29.069  22.625  1.00  0.00     0.021 A 
ATOM     90  Cl  UNL A   1      27.637  26.812  23.923  1.00  0.00    -0.084 Cl
ATOM     91  C   UNL A   1      27.702  30.257  21.999  1.00  0.00     0.002 A 
ENDBRANCH  83  85
BRANCH  83  92
ATOM     92  O   UNL A   1      30.457  27.345  25.001  1.00  0.00    -0.382 OA
ATOM     93  H   UNL A   1      30.353  28.126  25.567  1.00  0.00     0.212 HD
ENDBRANCH  83  92
BRANCH  84  94
ATOM     94  C   UNL A   1      32.980  28.646  25.142  1.00  0.00     0.003 A 
ATOM     95  C   UNL A   1      34.082  27.899  25.613  1.00  0.00     0.008 A 
ATOM     96  C   UNL A   1      32.610  29.766  25.909  1.00  0.00     0.046 A 
ATOM     97  C   UNL A   1      34.820  28.279  26.738  1.00  0.00     0.000 A 
ATOM     98  C   UNL A   1      33.345  30.143  27.047  1.00  0.00     0.021 A 
ATOM     99  Cl  UNL A   1      31.261  30.772  25.521  1.00  0.00    -0.084 Cl
ATOM    100  C   UNL A   1      34.460  29.414  27.449  1.00  0.00     0.002 A 
ENDBRANCH  84  94
ENDBRANCH  78  80
ENDBRANCH  77  78
ENDBRANCH  76  77
ENDBRANCH  75  76
ENDBRANCH  74  75
ENDBRANCH  73  74
ENDBRANCH   1  73
TORSDOF 23
ENDMDL
