MODEL 1
REMARK VINA RESULT:     -11.1      0.000      0.000
REMARK SMILES Cc1ccc(S(=O)(=O)Nc2cc3c(cc2C(=O)OCCOCCOCCOC(=O)c2ccc(-c4c5nc(c(-c6cc(S(=O)(=O)[O-])ccc6F)c6ccc([nH]6)c(-c6cc(S(=O)(=O)[O-])ccc6F)c6nc(c(-c7cc(S(=O)(=O)[O-])ccc7F)c7ccc4[nH]7)C=C6)C=C5)cc2)OCCO3)s1
REMARK SMILES IDX 22 1 21 2 20 3 19 4 18 5 16 6 17 7 15 8 10 9 11 10 12 11
REMARK SMILES IDX 14 12 13 13 96 14 93 15 95 16 94 17 9 18 6 20 7 21 8 22 5 23
REMARK SMILES IDX 1 24 2 25 3 26 97 27 4 28 23 29 24 30 25 31 26 32 27 33
REMARK SMILES IDX 28 34 29 35 30 36 31 37 92 38 32 39 91 40 33 41 34 42 35 43
REMARK SMILES IDX 85 44 36 45 90 46 84 47 86 48 37 49 89 50 83 51 82 52 38 54
REMARK SMILES IDX 70 55 50 56 69 57 51 58 54 59 68 60 87 61 52 62 53 63 67 65
REMARK SMILES IDX 88 66 55 67 39 68 40 69 48 70 41 71 47 72 49 73 46 74 42 75
REMARK SMILES IDX 43 76 44 77 45 78 71 79 72 80 80 81 73 82 79 83 81 84 78 85
REMARK SMILES IDX 74 86 75 87 76 88 77 89 56 90 57 91 65 92 58 93 64 94 66 95
REMARK SMILES IDX 63 96 59 97 60 98 61 99 62 100
REMARK H PARENT 9 19 86 53 54 64
REMARK Flexibility Score: inf
ROOT
ATOM      1  C   UNL A   1      31.360  26.622  21.612  1.00  0.00     0.188 C 
ENDROOT
BRANCH   1   2
ATOM      2  O   UNL A   1      32.766  26.409  21.672  1.00  0.00    -0.376 OA
BRANCH   2   3
ATOM      3  C   UNL A   1      33.223  25.353  22.507  1.00  0.00     0.202 C 
BRANCH   3   4
ATOM      4  C   UNL A   1      33.225  23.961  21.868  1.00  0.00     0.261 C 
BRANCH   4   5
ATOM      5  O   UNL A   1      33.335  22.875  22.814  1.00  0.00    -0.460 OA
BRANCH   5   6
ATOM      6  C   UNL A   1      32.143  22.422  23.284  1.00  0.00     0.340 C 
ATOM      7  O   UNL A   1      31.091  23.043  23.306  1.00  0.00    -0.246 OA
BRANCH   6   8
ATOM      8  C   UNL A   1      32.253  21.090  23.921  1.00  0.00     0.088 A 
ATOM      9  C   UNL A   1      32.170  20.992  25.320  1.00  0.00     0.067 A 
ATOM     10  C   UNL A   1      32.637  19.854  25.981  1.00  0.00     0.078 A 
ATOM     11  C   UNL A   1      33.025  18.749  25.233  1.00  0.00     0.163 A 
ATOM     12  C   UNL A   1      32.647  19.977  23.171  1.00  0.00     0.068 A 
ATOM     13  C   UNL A   1      32.970  18.790  23.833  1.00  0.00     0.162 A 
ATOM     14  O   UNL A   1      33.343  17.626  25.948  1.00  0.00    -0.486 OA
ATOM     15  O   UNL A   1      33.216  17.687  23.056  1.00  0.00    -0.486 OA
ATOM     16  C   UNL A   1      33.855  16.582  25.118  1.00  0.00     0.271 C 
ATOM     17  C   UNL A   1      33.063  16.484  23.825  1.00  0.00     0.271 C 
BRANCH   9  18
ATOM     18  N   UNL A   1      31.355  21.920  26.044  1.00  0.00    -0.278 N 
ATOM     19  H   UNL A   1      30.382  21.990  25.914  1.00  0.00     0.180 HD
BRANCH  18  20
ATOM     20  S   UNL A   1      32.218  22.899  27.161  1.00  0.00     0.271 S 
ATOM     21  O   UNL A   1      32.596  22.041  28.253  1.00  0.00    -0.200 OA
ATOM     22  O   UNL A   1      31.420  24.094  27.359  1.00  0.00    -0.200 OA
BRANCH  20  23
ATOM     23  C   UNL A   1      33.733  23.517  26.418  1.00  0.00     0.140 A 
ATOM     24  C   UNL A   1      37.611  23.379  25.814  1.00  0.00     0.056 C 
ATOM     25  C   UNL A   1      36.145  23.649  25.835  1.00  0.00     0.003 A 
ATOM     26  C   UNL A   1      35.427  24.692  25.293  1.00  0.00     0.016 A 
ATOM     27  S   UNL A   1      35.117  22.572  26.642  1.00  0.00    -0.127 S 
ATOM     28  C   UNL A   1      34.046  24.642  25.673  1.00  0.00     0.034 A 
ENDBRANCH  20  23
ENDBRANCH  18  20
ENDBRANCH   9  18
ENDBRANCH   6   8
ENDBRANCH   5   6
ENDBRANCH   4   5
ENDBRANCH   3   4
ENDBRANCH   2   3
ENDBRANCH   1   2
BRANCH   1  29
ATOM     29  C   UNL A   1      30.788  27.638  22.599  1.00  0.00     0.188 C 
BRANCH  29  30
ATOM     30  O   UNL A   1      31.698  28.657  23.016  1.00  0.00    -0.376 OA
BRANCH  30  31
ATOM     31  C   UNL A   1      31.430  29.052  24.375  1.00  0.00     0.202 C 
BRANCH  31  32
ATOM     32  C   UNL A   1      32.654  29.671  25.064  1.00  0.00     0.261 C 
BRANCH  32  33
ATOM     33  O   UNL A   1      32.453  29.948  26.463  1.00  0.00    -0.460 OA
BRANCH  33  34
ATOM     34  C   UNL A   1      32.863  31.144  26.953  1.00  0.00     0.338 C 
ATOM     35  O   UNL A   1      32.256  32.199  26.892  1.00  0.00    -0.246 OA
BRANCH  34  36
ATOM     36  C   UNL A   1      34.174  30.945  27.630  1.00  0.00     0.060 A 
ATOM     37  C   UNL A   1      34.630  29.653  27.919  1.00  0.00     0.016 A 
ATOM     38  C   UNL A   1      34.962  32.049  27.973  1.00  0.00     0.016 A 
ATOM     39  C   UNL A   1      35.909  29.466  28.467  1.00  0.00     0.010 A 
ATOM     40  C   UNL A   1      36.211  31.861  28.573  1.00  0.00     0.010 A 
ATOM     41  C   UNL A   1      36.705  30.570  28.814  1.00  0.00    -0.014 A 
BRANCH  41  42
ATOM     42  C   UNL A   1      37.981  30.408  29.567  1.00  0.00     0.031 A 
ATOM     43  C   UNL A   1      39.053  29.523  28.990  1.00  0.00     0.074 A 
ATOM     44  C   UNL A   1      38.164  30.972  30.777  1.00  0.00     0.049 A 
ATOM     45  N   UNL A   1      40.195  29.152  29.509  1.00  0.00    -0.248 NA
ATOM     46  C   UNL A   1      38.795  28.978  27.649  1.00  0.00     0.031 C 
ATOM     47  C   UNL A   1      37.227  31.877  31.438  1.00  0.00     0.029 A 
ATOM     48  N   UNL A   1      39.198  30.850  31.680  1.00  0.00    -0.354 N 
ATOM     49  C   UNL A   1      40.802  28.350  28.552  1.00  0.00     0.074 A 
ATOM     50  C   UNL A   1      39.893  28.275  27.427  1.00  0.00     0.031 C 
ATOM     51  C   UNL A   1      37.718  32.218  32.642  1.00  0.00     0.029 A 
ATOM     52  C   UNL A   1      38.982  31.517  32.866  1.00  0.00     0.049 A 
ATOM     53  H   UNL A   1      40.014  30.333  31.494  1.00  0.00     0.167 HD
ATOM     54  C   UNL A   1      41.999  27.715  28.604  1.00  0.00     0.034 A 
ATOM     55  C   UNL A   1      39.697  31.527  34.012  1.00  0.00     0.034 A 
ATOM     56  C   UNL A   1      42.854  27.701  29.762  1.00  0.00     0.049 A 
ATOM     57  C   UNL A   1      40.956  30.690  34.099  1.00  0.00     0.074 A 
ATOM     58  C   UNL A   1      44.061  27.047  29.937  1.00  0.00     0.029 A 
ATOM     59  N   UNL A   1      42.573  28.341  30.963  1.00  0.00    -0.354 N 
ATOM     60  N   UNL A   1      41.526  29.948  33.178  1.00  0.00    -0.248 NA
ATOM     61  C   UNL A   1      41.660  30.681  35.391  1.00  0.00     0.031 C 
ATOM     62  C   UNL A   1      44.469  27.226  31.263  1.00  0.00     0.029 A 
ATOM     63  C   UNL A   1      43.561  28.061  31.895  1.00  0.00     0.049 A 
ATOM     64  H   UNL A   1      41.788  28.910  31.128  1.00  0.00     0.167 HD
ATOM     65  C   UNL A   1      42.666  29.409  33.773  1.00  0.00     0.074 A 
ATOM     66  C   UNL A   1      42.713  29.922  35.125  1.00  0.00     0.031 C 
ATOM     67  C   UNL A   1      43.593  28.567  33.247  1.00  0.00     0.034 A 
BRANCH  54  68
ATOM     68  C   UNL A   1      42.385  26.909  27.391  1.00  0.00     0.023 A 
ATOM     69  C   UNL A   1      42.104  25.533  27.307  1.00  0.00     0.031 A 
ATOM     70  C   UNL A   1      43.112  27.502  26.345  1.00  0.00     0.131 A 
ATOM     71  C   UNL A   1      42.617  24.780  26.239  1.00  0.00     0.055 A 
ATOM     72  C   UNL A   1      43.553  26.763  25.247  1.00  0.00     0.041 A 
ATOM     73  F   UNL A   1      43.433  28.804  26.389  1.00  0.00    -0.206 F 
ATOM     74  C   UNL A   1      43.321  25.391  25.197  1.00  0.00     0.022 A 
BRANCH  71  75
ATOM     75  S   UNL A   1      42.489  22.973  26.311  1.00  0.00     0.124 S 
ATOM     76  O   UNL A   1      43.500  22.642  27.313  1.00  0.00    -0.237 OA
ATOM     77  O   UNL A   1      41.102  22.769  26.714  1.00  0.00    -0.237 OA
ATOM     78  O   UNL A   1      42.811  22.551  24.950  1.00  0.00    -0.744 OA
ENDBRANCH  71  75
ENDBRANCH  54  68
BRANCH  55  79
ATOM     79  C   UNL A   1      39.224  32.286  35.211  1.00  0.00     0.023 A 
ATOM     80  C   UNL A   1      39.644  33.607  35.449  1.00  0.00     0.031 A 
ATOM     81  C   UNL A   1      38.425  31.668  36.190  1.00  0.00     0.131 A 
ATOM     82  C   UNL A   1      39.309  34.244  36.656  1.00  0.00     0.055 A 
ATOM     83  C   UNL A   1      38.045  32.327  37.361  1.00  0.00     0.041 A 
ATOM     84  F   UNL A   1      38.008  30.402  36.026  1.00  0.00    -0.206 F 
ATOM     85  C   UNL A   1      38.500  33.618  37.606  1.00  0.00     0.022 A 
BRANCH  82  86
ATOM     86  S   UNL A   1      40.029  35.871  37.014  1.00  0.00     0.124 S 
ATOM     87  O   UNL A   1      39.669  36.625  35.818  1.00  0.00    -0.237 OA
ATOM     88  O   UNL A   1      39.337  36.248  38.242  1.00  0.00    -0.237 OA
ATOM     89  O   UNL A   1      41.455  35.589  37.167  1.00  0.00    -0.744 OA
ENDBRANCH  82  86
ENDBRANCH  55  79
BRANCH  67  90
ATOM     90  C   UNL A   1      44.759  28.180  34.125  1.00  0.00     0.023 A 
ATOM     91  C   UNL A   1      44.750  27.010  34.906  1.00  0.00     0.031 A 
ATOM     92  C   UNL A   1      45.906  28.994  34.169  1.00  0.00     0.131 A 
ATOM     93  C   UNL A   1      45.848  26.708  35.728  1.00  0.00     0.055 A 
ATOM     94  C   UNL A   1      47.017  28.661  34.946  1.00  0.00     0.041 A 
ATOM     95  F   UNL A   1      45.971  30.124  33.447  1.00  0.00    -0.206 F 
ATOM     96  C   UNL A   1      46.988  27.517  35.738  1.00  0.00     0.022 A 
BRANCH  93  97
ATOM     97  S   UNL A   1      45.745  25.278  36.839  1.00  0.00     0.124 S 
ATOM     98  O   UNL A   1      46.033  25.879  38.137  1.00  0.00    -0.237 OA
ATOM     99  O   UNL A   1      44.373  24.823  36.637  1.00  0.00    -0.237 OA
ATOM    100  O   UNL A   1      46.777  24.374  36.332  1.00  0.00    -0.744 OA
ENDBRANCH  93  97
ENDBRANCH  67  90
ENDBRANCH  41  42
ENDBRANCH  34  36
ENDBRANCH  33  34
ENDBRANCH  32  33
ENDBRANCH  31  32
ENDBRANCH  30  31
ENDBRANCH  29  30
ENDBRANCH   1  29
TORSDOF 23
ENDMDL
MODEL 2
REMARK VINA RESULT:     -10.8      5.393      9.118
REMARK SMILES Cc1ccc(S(=O)(=O)Nc2cc3c(cc2C(=O)OCCOCCOCCOC(=O)c2ccc(-c4c5nc(c(-c6cc(S(=O)(=O)[O-])ccc6F)c6ccc([nH]6)c(-c6cc(S(=O)(=O)[O-])ccc6F)c6nc(c(-c7cc(S(=O)(=O)[O-])ccc7F)c7ccc4[nH]7)C=C6)C=C5)cc2)OCCO3)s1
REMARK SMILES IDX 22 1 21 2 20 3 19 4 18 5 16 6 17 7 15 8 10 9 11 10 12 11
REMARK SMILES IDX 14 12 13 13 96 14 93 15 95 16 94 17 9 18 6 20 7 21 8 22 5 23
REMARK SMILES IDX 1 24 2 25 3 26 97 27 4 28 23 29 24 30 25 31 26 32 27 33
REMARK SMILES IDX 28 34 29 35 30 36 31 37 92 38 32 39 91 40 33 41 34 42 35 43
REMARK SMILES IDX 85 44 36 45 90 46 84 47 86 48 37 49 89 50 83 51 82 52 38 54
REMARK SMILES IDX 70 55 50 56 69 57 51 58 54 59 68 60 87 61 52 62 53 63 67 65
REMARK SMILES IDX 88 66 55 67 39 68 40 69 48 70 41 71 47 72 49 73 46 74 42 75
REMARK SMILES IDX 43 76 44 77 45 78 71 79 72 80 80 81 73 82 79 83 81 84 78 85
REMARK SMILES IDX 74 86 75 87 76 88 77 89 56 90 57 91 65 92 58 93 64 94 66 95
REMARK SMILES IDX 63 96 59 97 60 98 61 99 62 100
REMARK H PARENT 9 19 86 53 54 64
REMARK Flexibility Score: inf
ROOT
ATOM      1  C   UNL A   1      40.148  21.942  26.646  1.00  0.00     0.188 C 
ENDROOT
BRANCH   1   2
ATOM      2  O   UNL A   1      38.893  22.255  26.051  1.00  0.00    -0.376 OA
BRANCH   2   3
ATOM      3  C   UNL A   1      38.391  23.568  26.260  1.00  0.00     0.202 C 
BRANCH   3   4
ATOM      4  C   UNL A   1      36.870  23.716  26.153  1.00  0.00     0.261 C 
BRANCH   4   5
ATOM      5  O   UNL A   1      36.170  22.477  25.908  1.00  0.00    -0.460 OA
BRANCH   5   6
ATOM      6  C   UNL A   1      35.460  22.456  24.748  1.00  0.00     0.340 C 
ATOM      7  O   UNL A   1      35.440  23.333  23.897  1.00  0.00    -0.246 OA
BRANCH   6   8
ATOM      8  C   UNL A   1      34.564  21.282  24.653  1.00  0.00     0.088 A 
ATOM      9  C   UNL A   1      33.181  21.461  24.832  1.00  0.00     0.067 A 
ATOM     10  C   UNL A   1      32.358  20.372  25.127  1.00  0.00     0.078 A 
ATOM     11  C   UNL A   1      32.886  19.089  25.070  1.00  0.00     0.163 A 
ATOM     12  C   UNL A   1      35.094  19.989  24.599  1.00  0.00     0.068 A 
ATOM     13  C   UNL A   1      34.237  18.896  24.746  1.00  0.00     0.162 A 
ATOM     14  O   UNL A   1      31.992  18.067  25.238  1.00  0.00    -0.486 OA
ATOM     15  O   UNL A   1      34.774  17.648  24.549  1.00  0.00    -0.486 OA
ATOM     16  C   UNL A   1      32.633  16.790  25.298  1.00  0.00     0.271 C 
ATOM     17  C   UNL A   1      33.740  16.695  24.262  1.00  0.00     0.271 C 
BRANCH   9  18
ATOM     18  N   UNL A   1      32.573  22.694  24.434  1.00  0.00    -0.278 N 
ATOM     19  H   UNL A   1      32.419  22.934  23.493  1.00  0.00     0.180 HD
BRANCH  18  20
ATOM     20  S   UNL A   1      32.132  23.718  25.741  1.00  0.00     0.271 S 
ATOM     21  O   UNL A   1      32.869  23.261  26.889  1.00  0.00    -0.200 OA
ATOM     22  O   UNL A   1      30.682  23.790  25.733  1.00  0.00    -0.200 OA
BRANCH  20  23
ATOM     23  C   UNL A   1      32.644  25.410  25.416  1.00  0.00     0.140 A 
ATOM     24  C   UNL A   1      32.229  28.879  23.624  1.00  0.00     0.056 C 
ATOM     25  C   UNL A   1      32.605  27.703  24.458  1.00  0.00     0.003 A 
ATOM     26  C   UNL A   1      33.701  27.502  25.267  1.00  0.00     0.016 A 
ATOM     27  S   UNL A   1      31.600  26.339  24.466  1.00  0.00    -0.127 S 
ATOM     28  C   UNL A   1      33.748  26.163  25.777  1.00  0.00     0.034 A 
ENDBRANCH  20  23
ENDBRANCH  18  20
ENDBRANCH   9  18
ENDBRANCH   6   8
ENDBRANCH   5   6
ENDBRANCH   4   5
ENDBRANCH   3   4
ENDBRANCH   2   3
ENDBRANCH   1   2
BRANCH   1  29
ATOM     29  C   UNL A   1      40.584  20.480  26.574  1.00  0.00     0.188 C 
BRANCH  29  30
ATOM     30  O   UNL A   1      41.971  20.246  26.828  1.00  0.00    -0.376 OA
BRANCH  30  31
ATOM     31  C   UNL A   1      42.227  18.838  26.989  1.00  0.00     0.202 C 
BRANCH  31  32
ATOM     32  C   UNL A   1      43.179  18.284  25.920  1.00  0.00     0.261 C 
BRANCH  32  33
ATOM     33  O   UNL A   1      43.355  19.160  24.791  1.00  0.00    -0.460 OA
BRANCH  33  34
ATOM     34  C   UNL A   1      44.605  19.595  24.495  1.00  0.00     0.338 C 
ATOM     35  O   UNL A   1      45.501  18.939  23.991  1.00  0.00    -0.246 OA
BRANCH  34  36
ATOM     36  C   UNL A   1      44.692  21.038  24.849  1.00  0.00     0.060 A 
ATOM     37  C   UNL A   1      44.474  22.019  23.874  1.00  0.00     0.016 A 
ATOM     38  C   UNL A   1      44.984  21.423  26.162  1.00  0.00     0.016 A 
ATOM     39  C   UNL A   1      44.459  23.376  24.233  1.00  0.00     0.010 A 
ATOM     40  C   UNL A   1      45.026  22.778  26.505  1.00  0.00     0.010 A 
ATOM     41  C   UNL A   1      44.752  23.769  25.550  1.00  0.00    -0.014 A 
BRANCH  41  42
ATOM     42  C   UNL A   1      44.929  25.203  25.916  1.00  0.00     0.031 A 
ATOM     43  C   UNL A   1      46.314  25.790  25.887  1.00  0.00     0.074 A 
ATOM     44  C   UNL A   1      43.896  25.956  26.341  1.00  0.00     0.049 A 
ATOM     45  N   UNL A   1      46.723  26.975  26.260  1.00  0.00    -0.248 NA
ATOM     46  C   UNL A   1      47.381  24.918  25.373  1.00  0.00     0.031 C 
ATOM     47  C   UNL A   1      42.500  25.527  26.386  1.00  0.00     0.029 A 
ATOM     48  N   UNL A   1      43.862  27.241  26.836  1.00  0.00    -0.354 N 
ATOM     49  C   UNL A   1      48.089  27.000  26.007  1.00  0.00     0.074 A 
ATOM     50  C   UNL A   1      48.440  25.705  25.463  1.00  0.00     0.031 C 
ATOM     51  C   UNL A   1      41.749  26.521  26.893  1.00  0.00     0.029 A 
ATOM     52  C   UNL A   1      42.614  27.642  27.258  1.00  0.00     0.049 A 
ATOM     53  H   UNL A   1      44.658  27.818  26.884  1.00  0.00     0.167 HD
ATOM     54  C   UNL A   1      48.979  28.000  26.221  1.00  0.00     0.034 A 
ATOM     55  C   UNL A   1      42.222  28.763  27.902  1.00  0.00     0.034 A 
ATOM     56  C   UNL A   1      48.651  29.248  26.860  1.00  0.00     0.049 A 
ATOM     57  C   UNL A   1      43.260  29.803  28.266  1.00  0.00     0.074 A 
ATOM     58  C   UNL A   1      49.489  30.305  27.171  1.00  0.00     0.029 A 
ATOM     59  N   UNL A   1      47.388  29.593  27.325  1.00  0.00    -0.354 N 
ATOM     60  N   UNL A   1      44.547  29.819  28.004  1.00  0.00    -0.248 NA
ATOM     61  C   UNL A   1      42.792  30.972  29.027  1.00  0.00     0.031 C 
ATOM     62  C   UNL A   1      48.751  31.251  27.892  1.00  0.00     0.029 A 
ATOM     63  C   UNL A   1      47.434  30.826  27.958  1.00  0.00     0.049 A 
ATOM     64  H   UNL A   1      46.579  29.043  27.220  1.00  0.00     0.167 HD
ATOM     65  C   UNL A   1      45.033  31.008  28.546  1.00  0.00     0.074 A 
ATOM     66  C   UNL A   1      43.901  31.692  29.134  1.00  0.00     0.031 C 
ATOM     67  C   UNL A   1      46.301  31.494  28.554  1.00  0.00     0.034 A 
BRANCH  54  68
ATOM     68  C   UNL A   1      50.409  27.719  25.838  1.00  0.00     0.023 A 
ATOM     69  C   UNL A   1      50.854  27.868  24.511  1.00  0.00     0.031 A 
ATOM     70  C   UNL A   1      51.315  27.220  26.788  1.00  0.00     0.131 A 
ATOM     71  C   UNL A   1      52.144  27.447  24.157  1.00  0.00     0.055 A 
ATOM     72  C   UNL A   1      52.623  26.875  26.446  1.00  0.00     0.041 A 
ATOM     73  F   UNL A   1      50.935  27.030  28.062  1.00  0.00    -0.206 F 
ATOM     74  C   UNL A   1      53.039  26.971  25.120  1.00  0.00     0.022 A 
BRANCH  71  75
ATOM     75  S   UNL A   1      52.583  27.379  22.399  1.00  0.00     0.124 S 
ATOM     76  O   UNL A   1      51.294  27.074  21.782  1.00  0.00    -0.237 OA
ATOM     77  O   UNL A   1      53.109  28.717  22.152  1.00  0.00    -0.237 OA
ATOM     78  O   UNL A   1      53.567  26.300  22.332  1.00  0.00    -0.744 OA
ENDBRANCH  71  75
ENDBRANCH  54  68
BRANCH  55  79
ATOM     79  C   UNL A   1      40.799  28.953  28.326  1.00  0.00     0.023 A 
ATOM     80  C   UNL A   1      40.407  28.768  29.663  1.00  0.00     0.031 A 
ATOM     81  C   UNL A   1      39.793  29.225  27.381  1.00  0.00     0.131 A 
ATOM     82  C   UNL A   1      39.045  28.804  30.008  1.00  0.00     0.055 A 
ATOM     83  C   UNL A   1      38.447  29.319  27.739  1.00  0.00     0.041 A 
ATOM     84  F   UNL A   1      40.106  29.395  26.086  1.00  0.00    -0.206 F 
ATOM     85  C   UNL A   1      38.064  29.093  29.057  1.00  0.00     0.022 A 
BRANCH  82  86
ATOM     86  S   UNL A   1      38.560  28.368  31.702  1.00  0.00     0.124 S 
ATOM     87  O   UNL A   1      38.584  26.911  31.651  1.00  0.00    -0.237 OA
ATOM     88  O   UNL A   1      39.612  28.999  32.493  1.00  0.00    -0.237 OA
ATOM     89  O   UNL A   1      37.234  28.966  31.843  1.00  0.00    -0.744 OA
ENDBRANCH  82  86
ENDBRANCH  55  79
BRANCH  67  90
ATOM     90  C   UNL A   1      46.524  32.849  29.184  1.00  0.00     0.023 A 
ATOM     91  C   UNL A   1      46.380  34.043  28.457  1.00  0.00     0.031 A 
ATOM     92  C   UNL A   1      46.877  32.942  30.544  1.00  0.00     0.131 A 
ATOM     93  C   UNL A   1      46.625  35.277  29.081  1.00  0.00     0.055 A 
ATOM     94  C   UNL A   1      47.066  34.173  31.173  1.00  0.00     0.041 A 
ATOM     95  F   UNL A   1      47.031  31.834  31.287  1.00  0.00    -0.206 F 
ATOM     96  C   UNL A   1      46.950  35.349  30.438  1.00  0.00     0.022 A 
BRANCH  93  97
ATOM     97  S   UNL A   1      46.583  36.790  28.080  1.00  0.00     0.124 S 
ATOM     98  O   UNL A   1      46.842  36.276  26.739  1.00  0.00    -0.237 OA
ATOM     99  O   UNL A   1      45.233  37.288  28.323  1.00  0.00    -0.237 OA
ATOM    100  O   UNL A   1      47.655  37.607  28.648  1.00  0.00    -0.744 OA
ENDBRANCH  93  97
ENDBRANCH  67  90
ENDBRANCH  41  42
ENDBRANCH  34  36
ENDBRANCH  33  34
ENDBRANCH  32  33
ENDBRANCH  31  32
ENDBRANCH  30  31
ENDBRANCH  29  30
ENDBRANCH   1  29
TORSDOF 23
ENDMDL
MODEL 3
REMARK VINA RESULT:     -10.8      2.111      7.717
REMARK SMILES Cc1ccc(S(=O)(=O)Nc2cc3c(cc2C(=O)OCCOCCOCCOC(=O)c2ccc(-c4c5nc(c(-c6cc(S(=O)(=O)[O-])ccc6F)c6ccc([nH]6)c(-c6cc(S(=O)(=O)[O-])ccc6F)c6nc(c(-c7cc(S(=O)(=O)[O-])ccc7F)c7ccc4[nH]7)C=C6)C=C5)cc2)OCCO3)s1
REMARK SMILES IDX 22 1 21 2 20 3 19 4 18 5 16 6 17 7 15 8 10 9 11 10 12 11
REMARK SMILES IDX 14 12 13 13 96 14 93 15 95 16 94 17 9 18 6 20 7 21 8 22 5 23
REMARK SMILES IDX 1 24 2 25 3 26 97 27 4 28 23 29 24 30 25 31 26 32 27 33
REMARK SMILES IDX 28 34 29 35 30 36 31 37 92 38 32 39 91 40 33 41 34 42 35 43
REMARK SMILES IDX 85 44 36 45 90 46 84 47 86 48 37 49 89 50 83 51 82 52 38 54
REMARK SMILES IDX 70 55 50 56 69 57 51 58 54 59 68 60 87 61 52 62 53 63 67 65
REMARK SMILES IDX 88 66 55 67 39 68 40 69 48 70 41 71 47 72 49 73 46 74 42 75
REMARK SMILES IDX 43 76 44 77 45 78 71 79 72 80 80 81 73 82 79 83 81 84 78 85
REMARK SMILES IDX 74 86 75 87 76 88 77 89 56 90 57 91 65 92 58 93 64 94 66 95
REMARK SMILES IDX 63 96 59 97 60 98 61 99 62 100
REMARK H PARENT 9 19 86 53 54 64
REMARK Flexibility Score: inf
ROOT
ATOM      1  C   UNL A   1      33.652  27.568  21.993  1.00  0.00     0.188 C 
ENDROOT
BRANCH   1   2
ATOM      2  O   UNL A   1      33.751  26.183  22.311  1.00  0.00    -0.376 OA
BRANCH   2   3
ATOM      3  C   UNL A   1      32.619  25.374  22.025  1.00  0.00     0.202 C 
BRANCH   3   4
ATOM      4  C   UNL A   1      32.926  23.924  21.638  1.00  0.00     0.261 C 
BRANCH   4   5
ATOM      5  O   UNL A   1      33.127  23.040  22.762  1.00  0.00    -0.460 OA
BRANCH   5   6
ATOM      6  C   UNL A   1      31.978  22.578  23.322  1.00  0.00     0.340 C 
ATOM      7  O   UNL A   1      30.932  23.198  23.442  1.00  0.00    -0.246 OA
BRANCH   6   8
ATOM      8  C   UNL A   1      32.140  21.235  23.923  1.00  0.00     0.088 A 
ATOM      9  C   UNL A   1      32.094  21.101  25.321  1.00  0.00     0.067 A 
ATOM     10  C   UNL A   1      32.607  19.961  25.942  1.00  0.00     0.078 A 
ATOM     11  C   UNL A   1      33.005  18.885  25.159  1.00  0.00     0.163 A 
ATOM     12  C   UNL A   1      32.544  20.151  23.137  1.00  0.00     0.068 A 
ATOM     13  C   UNL A   1      32.915  18.958  23.761  1.00  0.00     0.162 A 
ATOM     14  O   UNL A   1      33.371  17.755  25.838  1.00  0.00    -0.486 OA
ATOM     15  O   UNL A   1      33.171  17.880  22.951  1.00  0.00    -0.486 OA
ATOM     16  C   UNL A   1      33.891  16.745  24.970  1.00  0.00     0.271 C 
ATOM     17  C   UNL A   1      33.069  16.656  23.695  1.00  0.00     0.271 C 
BRANCH   9  18
ATOM     18  N   UNL A   1      31.272  21.989  26.087  1.00  0.00    -0.278 N 
ATOM     19  H   UNL A   1      30.290  22.001  26.017  1.00  0.00     0.180 HD
BRANCH  18  20
ATOM     20  S   UNL A   1      32.144  23.029  27.138  1.00  0.00     0.271 S 
ATOM     21  O   UNL A   1      32.564  22.226  28.257  1.00  0.00    -0.200 OA
ATOM     22  O   UNL A   1      31.329  24.219  27.306  1.00  0.00    -0.200 OA
BRANCH  20  23
ATOM     23  C   UNL A   1      33.629  23.641  26.332  1.00  0.00     0.140 A 
ATOM     24  C   UNL A   1      37.495  23.554  25.651  1.00  0.00     0.056 C 
ATOM     25  C   UNL A   1      36.025  23.794  25.690  1.00  0.00     0.003 A 
ATOM     26  C   UNL A   1      35.273  24.793  25.113  1.00  0.00     0.016 A 
ATOM     27  S   UNL A   1      35.038  22.738  26.573  1.00  0.00    -0.127 S 
ATOM     28  C   UNL A   1      33.901  24.732  25.525  1.00  0.00     0.034 A 
ENDBRANCH  20  23
ENDBRANCH  18  20
ENDBRANCH   9  18
ENDBRANCH   6   8
ENDBRANCH   5   6
ENDBRANCH   4   5
ENDBRANCH   3   4
ENDBRANCH   2   3
ENDBRANCH   1   2
BRANCH   1  29
ATOM     29  C   UNL A   1      33.868  28.544  23.148  1.00  0.00     0.188 C 
BRANCH  29  30
ATOM     30  O   UNL A   1      33.438  28.074  24.427  1.00  0.00    -0.376 OA
BRANCH  30  31
ATOM     31  C   UNL A   1      33.195  29.179  25.318  1.00  0.00     0.202 C 
BRANCH  31  32
ATOM     32  C   UNL A   1      33.920  29.026  26.663  1.00  0.00     0.261 C 
BRANCH  32  33
ATOM     33  O   UNL A   1      33.587  30.049  27.620  1.00  0.00    -0.460 OA
BRANCH  33  34
ATOM     34  C   UNL A   1      34.468  31.059  27.824  1.00  0.00     0.338 C 
ATOM     35  O   UNL A   1      34.260  32.248  27.655  1.00  0.00    -0.246 OA
BRANCH  34  36
ATOM     36  C   UNL A   1      35.736  30.474  28.340  1.00  0.00     0.060 A 
ATOM     37  C   UNL A   1      36.929  30.631  27.626  1.00  0.00     0.016 A 
ATOM     38  C   UNL A   1      35.742  29.768  29.549  1.00  0.00     0.016 A 
ATOM     39  C   UNL A   1      38.138  30.162  28.165  1.00  0.00     0.010 A 
ATOM     40  C   UNL A   1      36.940  29.252  30.055  1.00  0.00     0.010 A 
ATOM     41  C   UNL A   1      38.152  29.453  29.377  1.00  0.00    -0.014 A 
BRANCH  41  42
ATOM     42  C   UNL A   1      39.386  28.784  29.877  1.00  0.00     0.031 A 
ATOM     43  C   UNL A   1      40.101  29.377  31.061  1.00  0.00     0.074 A 
ATOM     44  C   UNL A   1      39.911  27.712  29.252  1.00  0.00     0.049 A 
ATOM     45  N   UNL A   1      41.239  29.031  31.605  1.00  0.00    -0.248 NA
ATOM     46  C   UNL A   1      39.443  30.520  31.713  1.00  0.00     0.031 C 
ATOM     47  C   UNL A   1      39.307  27.016  28.118  1.00  0.00     0.029 A 
ATOM     48  N   UNL A   1      41.087  27.030  29.470  1.00  0.00    -0.354 N 
ATOM     49  C   UNL A   1      41.424  29.897  32.676  1.00  0.00     0.074 A 
ATOM     50  C   UNL A   1      40.288  30.794  32.693  1.00  0.00     0.031 C 
ATOM     51  C   UNL A   1      40.119  26.016  27.731  1.00  0.00     0.029 A 
ATOM     52  C   UNL A   1      41.328  26.029  28.554  1.00  0.00     0.049 A 
ATOM     53  H   UNL A   1      41.699  27.239  30.212  1.00  0.00     0.167 HD
ATOM     54  C   UNL A   1      42.453  29.957  33.557  1.00  0.00     0.034 A 
ATOM     55  C   UNL A   1      42.413  25.245  28.373  1.00  0.00     0.034 A 
ATOM     56  C   UNL A   1      43.633  29.136  33.476  1.00  0.00     0.049 A 
ATOM     57  C   UNL A   1      43.613  25.431  29.277  1.00  0.00     0.074 A 
ATOM     58  C   UNL A   1      44.754  29.153  34.287  1.00  0.00     0.029 A 
ATOM     59  N   UNL A   1      43.865  28.174  32.500  1.00  0.00    -0.354 N 
ATOM     60  N   UNL A   1      43.767  26.245  30.297  1.00  0.00    -0.248 NA
ATOM     61  C   UNL A   1      44.794  24.601  28.995  1.00  0.00     0.031 C 
ATOM     62  C   UNL A   1      45.693  28.261  33.756  1.00  0.00     0.029 A 
ATOM     63  C   UNL A   1      45.127  27.625  32.663  1.00  0.00     0.049 A 
ATOM     64  H   UNL A   1      43.226  27.921  31.795  1.00  0.00     0.167 HD
ATOM     65  C   UNL A   1      45.049  26.004  30.789  1.00  0.00     0.074 A 
ATOM     66  C   UNL A   1      45.621  24.958  29.967  1.00  0.00     0.031 C 
ATOM     67  C   UNL A   1      45.695  26.591  31.829  1.00  0.00     0.034 A 
BRANCH  54  68
ATOM     68  C   UNL A   1      42.364  31.021  34.620  1.00  0.00     0.023 A 
ATOM     69  C   UNL A   1      42.834  32.327  34.389  1.00  0.00     0.031 A 
ATOM     70  C   UNL A   1      41.883  30.707  35.902  1.00  0.00     0.131 A 
ATOM     71  C   UNL A   1      42.885  33.247  35.447  1.00  0.00     0.055 A 
ATOM     72  C   UNL A   1      41.864  31.650  36.930  1.00  0.00     0.041 A 
ATOM     73  F   UNL A   1      41.451  29.468  36.186  1.00  0.00    -0.206 F 
ATOM     74  C   UNL A   1      42.383  32.924  36.711  1.00  0.00     0.022 A 
BRANCH  71  75
ATOM     75  S   UNL A   1      43.761  34.815  35.192  1.00  0.00     0.124 S 
ATOM     76  O   UNL A   1      43.893  35.308  36.562  1.00  0.00    -0.237 OA
ATOM     77  O   UNL A   1      44.996  34.386  34.546  1.00  0.00    -0.237 OA
ATOM     78  O   UNL A   1      42.849  35.583  34.347  1.00  0.00    -0.744 OA
ENDBRANCH  71  75
ENDBRANCH  54  68
BRANCH  55  79
ATOM     79  C   UNL A   1      42.474  24.257  27.252  1.00  0.00     0.023 A 
ATOM     80  C   UNL A   1      41.887  22.985  27.369  1.00  0.00     0.031 A 
ATOM     81  C   UNL A   1      43.208  24.533  26.083  1.00  0.00     0.131 A 
ATOM     82  C   UNL A   1      42.087  22.023  26.365  1.00  0.00     0.055 A 
ATOM     83  C   UNL A   1      43.354  23.593  25.061  1.00  0.00     0.041 A 
ATOM     84  F   UNL A   1      43.805  25.725  25.922  1.00  0.00    -0.206 F 
ATOM     85  C   UNL A   1      42.804  22.323  25.204  1.00  0.00     0.022 A 
BRANCH  82  86
ATOM     86  S   UNL A   1      41.482  20.334  26.639  1.00  0.00     0.124 S 
ATOM     87  O   UNL A   1      40.053  20.558  26.828  1.00  0.00    -0.237 OA
ATOM     88  O   UNL A   1      41.867  19.666  25.401  1.00  0.00    -0.237 OA
ATOM     89  O   UNL A   1      42.208  19.899  27.831  1.00  0.00    -0.744 OA
ENDBRANCH  82  86
ENDBRANCH  55  79
BRANCH  67  90
ATOM     90  C   UNL A   1      47.079  26.088  32.163  1.00  0.00     0.023 A 
ATOM     91  C   UNL A   1      47.303  25.129  33.167  1.00  0.00     0.031 A 
ATOM     92  C   UNL A   1      48.193  26.572  31.452  1.00  0.00     0.131 A 
ATOM     93  C   UNL A   1      48.612  24.713  33.459  1.00  0.00     0.055 A 
ATOM     94  C   UNL A   1      49.486  26.115  31.709  1.00  0.00     0.041 A 
ATOM     95  F   UNL A   1      48.041  27.490  30.484  1.00  0.00    -0.206 F 
ATOM     96  C   UNL A   1      49.703  25.187  32.724  1.00  0.00     0.022 A 
BRANCH  93  97
ATOM     97  S   UNL A   1      48.885  23.593  34.860  1.00  0.00     0.124 S 
ATOM     98  O   UNL A   1      47.591  22.929  34.975  1.00  0.00    -0.237 OA
ATOM     99  O   UNL A   1      49.988  22.764  34.388  1.00  0.00    -0.237 OA
ATOM    100  O   UNL A   1      49.218  24.496  35.962  1.00  0.00    -0.744 OA
ENDBRANCH  93  97
ENDBRANCH  67  90
ENDBRANCH  41  42
ENDBRANCH  34  36
ENDBRANCH  33  34
ENDBRANCH  32  33
ENDBRANCH  31  32
ENDBRANCH  30  31
ENDBRANCH  29  30
ENDBRANCH   1  29
TORSDOF 23
ENDMDL
