MODEL 1
REMARK VINA RESULT:     -10.6      0.000      0.000
REMARK SMILES Cc1c(CC(=O)OCCOCCOCCOC(=O)c2ccc(-c3c4nc(c(-c5cc(S(=O)(=O)[O-])ccc5F)c5ccc([nH]5)c(-c5cc(S(=O)(=O)[O-])ccc5F)c5nc(c(-c6cc(S(=O)(=O)[O-])ccc6F)c6ccc3[nH]6)C=C5)C=C4)cc2)cc(-c2ccc(S(C)(=O)=O)cc2)n1-c1cccc(F)c1
REMARK SMILES IDX 11 1 10 2 9 3 8 4 7 5 5 6 6 7 4 8 3 9 1 10 2 11 94 12 82 13
REMARK SMILES IDX 83 14 95 15 96 16 101 17 97 18 99 19 98 20 100 21 84 22
REMARK SMILES IDX 85 23 93 24 86 25 92 26 87 27 88 28 89 29 90 30 91 31 12 32
REMARK SMILES IDX 13 33 14 34 15 35 16 36 17 37 18 38 19 39 20 40 81 41 21 42
REMARK SMILES IDX 80 43 22 44 23 45 24 46 74 47 25 48 79 49 73 50 75 51 26 52
REMARK SMILES IDX 78 53 72 54 71 55 27 57 59 58 39 59 58 60 40 61 43 62 57 63
REMARK SMILES IDX 76 64 41 65 42 66 56 68 77 69 44 70 28 71 29 72 37 73 30 74
REMARK SMILES IDX 36 75 38 76 35 77 31 78 32 79 33 80 34 81 60 82 61 83 69 84
REMARK SMILES IDX 62 85 68 86 70 87 67 88 63 89 64 90 65 91 66 92 45 93 46 94
REMARK SMILES IDX 54 95 47 96 53 97 55 98 52 99 48 100 49 101 50 102 51 103
REMARK H PARENT 75 56 43 67
REMARK Flexibility Score: inf
ROOT
ATOM      1  C   UNL A   1      33.300  24.912  25.286  1.00  0.00     0.188 C 
ENDROOT
BRANCH   1   2
ATOM      2  O   UNL A   1      33.242  24.085  26.437  1.00  0.00    -0.376 OA
BRANCH   2   3
ATOM      3  C   UNL A   1      33.175  22.675  26.284  1.00  0.00     0.202 C 
BRANCH   3   4
ATOM      4  C   UNL A   1      34.348  21.898  25.656  1.00  0.00     0.261 C 
BRANCH   4   5
ATOM      5  O   UNL A   1      35.660  22.159  26.211  1.00  0.00    -0.463 OA
BRANCH   5   6
ATOM      6  C   UNL A   1      36.411  23.083  25.558  1.00  0.00     0.310 C 
ATOM      7  O   UNL A   1      36.374  23.231  24.335  1.00  0.00    -0.252 OA
BRANCH   6   8
ATOM      8  C   UNL A   1      37.293  23.995  26.403  1.00  0.00     0.160 C 
BRANCH   8   9
ATOM      9  C   UNL A   1      38.767  23.731  26.612  1.00  0.00    -0.015 A 
ATOM     10  C   UNL A   1      39.735  26.017  27.533  1.00  0.00     0.065 C 
ATOM     11  C   UNL A   1      39.766  24.579  27.112  1.00  0.00     0.024 A 
ATOM     12  N   UNL A   1      40.951  23.856  27.176  1.00  0.00    -0.313 N 
ATOM     13  C   UNL A   1      39.469  22.601  26.094  1.00  0.00     0.033 A 
ATOM     14  C   UNL A   1      40.817  22.734  26.373  1.00  0.00     0.053 A 
BRANCH  12  15
ATOM     15  C   UNL A   1      42.093  24.169  27.957  1.00  0.00     0.049 A 
ATOM     16  C   UNL A   1      43.030  25.102  27.496  1.00  0.00     0.027 A 
ATOM     17  C   UNL A   1      42.359  23.397  29.094  1.00  0.00     0.065 A 
ATOM     18  C   UNL A   1      44.235  25.268  28.184  1.00  0.00     0.005 A 
ATOM     19  C   UNL A   1      43.572  23.561  29.752  1.00  0.00     0.125 A 
ATOM     20  C   UNL A   1      44.511  24.488  29.309  1.00  0.00     0.039 A 
ATOM     21  F   UNL A   1      43.864  22.778  30.800  1.00  0.00    -0.207 F 
ENDBRANCH  12  15
BRANCH  14  22
ATOM     22  C   UNL A   1      41.930  21.876  25.977  1.00  0.00    -0.001 A 
ATOM     23  C   UNL A   1      41.900  20.496  26.213  1.00  0.00     0.011 A 
ATOM     24  C   UNL A   1      43.067  22.456  25.401  1.00  0.00     0.011 A 
ATOM     25  C   UNL A   1      42.997  19.700  25.879  1.00  0.00     0.021 A 
ATOM     26  C   UNL A   1      44.167  21.667  25.064  1.00  0.00     0.021 A 
ATOM     27  C   UNL A   1      44.124  20.291  25.304  1.00  0.00     0.067 A 
BRANCH  27  28
ATOM     28  S   UNL A   1      45.486  19.273  24.795  1.00  0.00     0.175 S 
ATOM     29  C   UNL A   1      45.219  18.986  23.067  1.00  0.00     0.163 C 
ATOM     30  O   UNL A   1      46.692  20.097  24.932  1.00  0.00    -0.224 OA
ATOM     31  O   UNL A   1      45.384  18.008  25.473  1.00  0.00    -0.224 OA
ENDBRANCH  27  28
ENDBRANCH  14  22
ENDBRANCH   8   9
ENDBRANCH   6   8
ENDBRANCH   5   6
ENDBRANCH   4   5
ENDBRANCH   3   4
ENDBRANCH   2   3
ENDBRANCH   1   2
BRANCH   1  32
ATOM     32  C   UNL A   1      33.209  26.429  25.425  1.00  0.00     0.188 C 
BRANCH  32  33
ATOM     33  O   UNL A   1      31.945  27.012  25.507  1.00  0.00    -0.376 OA
BRANCH  33  34
ATOM     34  C   UNL A   1      31.614  27.639  26.727  1.00  0.00     0.202 C 
BRANCH  34  35
ATOM     35  C   UNL A   1      32.269  28.973  27.297  1.00  0.00     0.261 C 
BRANCH  35  36
ATOM     36  O   UNL A   1      33.089  30.014  26.569  1.00  0.00    -0.460 OA
BRANCH  36  37
ATOM     37  C   UNL A   1      33.854  30.941  27.320  1.00  0.00     0.338 C 
ATOM     38  O   UNL A   1      33.295  31.937  27.774  1.00  0.00    -0.246 OA
BRANCH  37  39
ATOM     39  C   UNL A   1      35.464  30.685  27.601  1.00  0.00     0.060 A 
ATOM     40  C   UNL A   1      36.078  29.428  27.603  1.00  0.00     0.016 A 
ATOM     41  C   UNL A   1      36.366  31.589  28.224  1.00  0.00     0.016 A 
ATOM     42  C   UNL A   1      37.555  29.175  27.999  1.00  0.00     0.010 A 
ATOM     43  C   UNL A   1      37.861  31.306  28.693  1.00  0.00     0.010 A 
ATOM     44  C   UNL A   1      38.599  30.097  28.528  1.00  0.00    -0.014 A 
BRANCH  44  45
ATOM     45  C   UNL A   1      40.168  29.471  29.252  1.00  0.00     0.031 A 
ATOM     46  C   UNL A   1      39.543  29.073  30.556  1.00  0.00     0.074 A 
ATOM     47  C   UNL A   1      41.692  29.330  29.270  1.00  0.00     0.049 A 
ATOM     48  N   UNL A   1      38.937  30.038  31.194  1.00  0.00    -0.248 NA
ATOM     49  C   UNL A   1      39.100  27.743  30.979  1.00  0.00     0.031 C 
ATOM     50  C   UNL A   1      42.742  29.943  28.377  1.00  0.00     0.029 A 
ATOM     51  N   UNL A   1      42.768  28.604  30.177  1.00  0.00    -0.354 N 
ATOM     52  C   UNL A   1      38.356  29.513  32.315  1.00  0.00     0.074 A 
ATOM     53  C   UNL A   1      38.307  28.079  32.014  1.00  0.00     0.031 C 
ATOM     54  C   UNL A   1      44.060  29.538  28.576  1.00  0.00     0.029 A 
ATOM     55  C   UNL A   1      44.286  28.592  29.699  1.00  0.00     0.049 A 
ATOM     56  H   UNL A   1      42.504  28.167  31.020  1.00  0.00     0.167 HD
ATOM     57  C   UNL A   1      38.811  30.141  33.441  1.00  0.00     0.034 A 
ATOM     58  C   UNL A   1      45.577  28.042  30.244  1.00  0.00     0.034 A 
ATOM     59  C   UNL A   1      40.043  29.543  33.886  1.00  0.00     0.049 A 
ATOM     60  C   UNL A   1      45.485  28.146  31.693  1.00  0.00     0.074 A 
ATOM     61  C   UNL A   1      40.432  28.217  33.963  1.00  0.00     0.029 A 
ATOM     62  N   UNL A   1      41.197  30.292  33.789  1.00  0.00    -0.354 N 
ATOM     63  N   UNL A   1      45.562  29.261  32.338  1.00  0.00    -0.248 NA
ATOM     64  C   UNL A   1      45.104  26.969  32.441  1.00  0.00     0.031 C 
ATOM     65  C   UNL A   1      41.668  28.213  33.301  1.00  0.00     0.029 A 
ATOM     66  C   UNL A   1      42.248  29.460  33.491  1.00  0.00     0.049 A 
ATOM     67  H   UNL A   1      41.257  31.267  33.912  1.00  0.00     0.167 HD
ATOM     68  C   UNL A   1      44.560  29.060  33.234  1.00  0.00     0.074 A 
ATOM     69  C   UNL A   1      44.469  27.608  33.419  1.00  0.00     0.031 C 
ATOM     70  C   UNL A   1      43.568  29.986  33.272  1.00  0.00     0.034 A 
BRANCH  57  71
ATOM     71  C   UNL A   1      38.580  31.636  33.382  1.00  0.00     0.023 A 
ATOM     72  C   UNL A   1      37.397  32.134  33.927  1.00  0.00     0.031 A 
ATOM     73  C   UNL A   1      39.416  32.546  32.682  1.00  0.00     0.131 A 
ATOM     74  C   UNL A   1      37.047  33.477  33.719  1.00  0.00     0.055 A 
ATOM     75  C   UNL A   1      39.042  33.866  32.440  1.00  0.00     0.041 A 
ATOM     76  F   UNL A   1      40.618  32.172  32.214  1.00  0.00    -0.206 F 
ATOM     77  C   UNL A   1      37.846  34.340  32.961  1.00  0.00     0.022 A 
BRANCH  74  78
ATOM     78  S   UNL A   1      35.502  34.070  34.446  1.00  0.00     0.124 S 
ATOM     79  O   UNL A   1      34.529  33.120  33.914  1.00  0.00    -0.237 OA
ATOM     80  O   UNL A   1      35.770  33.962  35.878  1.00  0.00    -0.237 OA
ATOM     81  O   UNL A   1      35.381  35.436  33.940  1.00  0.00    -0.744 OA
ENDBRANCH  74  78
ENDBRANCH  57  71
BRANCH  58  82
ATOM     82  C   UNL A   1      47.203  27.442  30.069  1.00  0.00     0.023 A 
ATOM     83  C   UNL A   1      48.166  26.887  31.121  1.00  0.00     0.031 A 
ATOM     84  C   UNL A   1      47.515  26.920  28.804  1.00  0.00     0.131 A 
ATOM     85  C   UNL A   1      49.277  25.949  30.821  1.00  0.00     0.055 A 
ATOM     86  C   UNL A   1      48.575  25.987  28.545  1.00  0.00     0.041 A 
ATOM     87  F   UNL A   1      46.719  27.202  27.767  1.00  0.00    -0.206 F 
ATOM     88  C   UNL A   1      49.440  25.497  29.523  1.00  0.00     0.022 A 
BRANCH  85  89
ATOM     89  S   UNL A   1      50.558  25.158  32.033  1.00  0.00     0.124 S 
ATOM     90  O   UNL A   1      51.673  26.096  32.020  1.00  0.00    -0.237 OA
ATOM     91  O   UNL A   1      49.819  25.033  33.284  1.00  0.00    -0.237 OA
ATOM     92  O   UNL A   1      50.876  23.863  31.414  1.00  0.00    -0.744 OA
ENDBRANCH  85  89
ENDBRANCH  58  82
BRANCH  70  93
ATOM     93  C   UNL A   1      43.922  31.441  32.989  1.00  0.00     0.023 A 
ATOM     94  C   UNL A   1      43.899  32.100  31.729  1.00  0.00     0.031 A 
ATOM     95  C   UNL A   1      44.397  32.190  34.076  1.00  0.00     0.131 A 
ATOM     96  C   UNL A   1      44.350  33.437  31.603  1.00  0.00     0.055 A 
ATOM     97  C   UNL A   1      44.812  33.515  33.959  1.00  0.00     0.041 A 
ATOM     98  F   UNL A   1      44.476  31.628  35.293  1.00  0.00    -0.206 F 
ATOM     99  C   UNL A   1      44.800  34.142  32.721  1.00  0.00     0.022 A 
BRANCH  96 100
ATOM    100  S   UNL A   1      44.432  34.265  29.974  1.00  0.00     0.124 S 
ATOM    101  O   UNL A   1      44.807  35.634  30.310  1.00  0.00    -0.237 OA
ATOM    102  O   UNL A   1      45.447  33.484  29.273  1.00  0.00    -0.237 OA
ATOM    103  O   UNL A   1      43.074  34.119  29.446  1.00  0.00    -0.744 OA
ENDBRANCH  96 100
ENDBRANCH  70  93
ENDBRANCH  44  45
ENDBRANCH  37  39
ENDBRANCH  36  37
ENDBRANCH  35  36
ENDBRANCH  34  35
ENDBRANCH  33  34
ENDBRANCH  32  33
ENDBRANCH   1  32
TORSDOF 24
ENDMDL
MODEL 2
REMARK VINA RESULT:     -10.6      3.857     11.019
REMARK SMILES Cc1c(CC(=O)OCCOCCOCCOC(=O)c2ccc(-c3c4nc(c(-c5cc(S(=O)(=O)[O-])ccc5F)c5ccc([nH]5)c(-c5cc(S(=O)(=O)[O-])ccc5F)c5nc(c(-c6cc(S(=O)(=O)[O-])ccc6F)c6ccc3[nH]6)C=C5)C=C4)cc2)cc(-c2ccc(S(C)(=O)=O)cc2)n1-c1cccc(F)c1
REMARK SMILES IDX 11 1 10 2 9 3 8 4 7 5 5 6 6 7 4 8 3 9 1 10 2 11 94 12 82 13
REMARK SMILES IDX 83 14 95 15 96 16 101 17 97 18 99 19 98 20 100 21 84 22
REMARK SMILES IDX 85 23 93 24 86 25 92 26 87 27 88 28 89 29 90 30 91 31 12 32
REMARK SMILES IDX 13 33 14 34 15 35 16 36 17 37 18 38 19 39 20 40 81 41 21 42
REMARK SMILES IDX 80 43 22 44 23 45 24 46 74 47 25 48 79 49 73 50 75 51 26 52
REMARK SMILES IDX 78 53 72 54 71 55 27 57 59 58 39 59 58 60 40 61 43 62 57 63
REMARK SMILES IDX 76 64 41 65 42 66 56 68 77 69 44 70 28 71 29 72 37 73 30 74
REMARK SMILES IDX 36 75 38 76 35 77 31 78 32 79 33 80 34 81 60 82 61 83 69 84
REMARK SMILES IDX 62 85 68 86 70 87 67 88 63 89 64 90 65 91 66 92 45 93 46 94
REMARK SMILES IDX 54 95 47 96 53 97 55 98 52 99 48 100 49 101 50 102 51 103
REMARK H PARENT 75 56 43 67
REMARK Flexibility Score: inf
ROOT
ATOM      1  C   UNL A   1      37.171  21.723  24.592  1.00  0.00     0.188 C 
ENDROOT
BRANCH   1   2
ATOM      2  O   UNL A   1      36.130  20.794  24.842  1.00  0.00    -0.376 OA
BRANCH   2   3
ATOM      3  C   UNL A   1      34.998  21.196  25.599  1.00  0.00     0.202 C 
BRANCH   3   4
ATOM      4  C   UNL A   1      33.575  20.823  25.141  1.00  0.00     0.261 C 
BRANCH   4   5
ATOM      5  O   UNL A   1      33.380  20.675  23.713  1.00  0.00    -0.463 OA
BRANCH   5   6
ATOM      6  C   UNL A   1      32.765  21.711  23.086  1.00  0.00     0.310 C 
ATOM      7  O   UNL A   1      31.595  21.661  22.702  1.00  0.00    -0.252 OA
BRANCH   6   8
ATOM      8  C   UNL A   1      33.566  22.996  22.904  1.00  0.00     0.160 C 
BRANCH   8   9
ATOM      9  C   UNL A   1      33.070  24.337  23.395  1.00  0.00    -0.015 A 
ATOM     10  C   UNL A   1      33.443  24.273  26.015  1.00  0.00     0.065 C 
ATOM     11  C   UNL A   1      33.053  24.864  24.695  1.00  0.00     0.024 A 
ATOM     12  N   UNL A   1      32.560  26.161  24.626  1.00  0.00    -0.313 N 
ATOM     13  C   UNL A   1      32.284  25.243  22.620  1.00  0.00     0.033 A 
ATOM     14  C   UNL A   1      31.908  26.313  23.413  1.00  0.00     0.053 A 
BRANCH  12  15
ATOM     15  C   UNL A   1      32.725  27.182  25.598  1.00  0.00     0.049 A 
ATOM     16  C   UNL A   1      33.982  27.761  25.806  1.00  0.00     0.027 A 
ATOM     17  C   UNL A   1      31.660  27.461  26.463  1.00  0.00     0.065 A 
ATOM     18  C   UNL A   1      34.171  28.632  26.884  1.00  0.00     0.005 A 
ATOM     19  C   UNL A   1      31.874  28.312  27.541  1.00  0.00     0.125 A 
ATOM     20  C   UNL A   1      33.116  28.900  27.759  1.00  0.00     0.039 A 
ATOM     21  F   UNL A   1      30.880  28.530  28.414  1.00  0.00    -0.207 F 
ENDBRANCH  12  15
BRANCH  14  22
ATOM     22  C   UNL A   1      31.040  27.442  23.088  1.00  0.00    -0.001 A 
ATOM     23  C   UNL A   1      31.564  28.630  22.562  1.00  0.00     0.011 A 
ATOM     24  C   UNL A   1      29.670  27.349  23.358  1.00  0.00     0.011 A 
ATOM     25  C   UNL A   1      30.727  29.718  22.310  1.00  0.00     0.021 A 
ATOM     26  C   UNL A   1      28.827  28.432  23.109  1.00  0.00     0.021 A 
ATOM     27  C   UNL A   1      29.362  29.611  22.584  1.00  0.00     0.067 A 
BRANCH  27  28
ATOM     28  S   UNL A   1      28.279  30.959  22.182  1.00  0.00     0.175 S 
ATOM     29  C   UNL A   1      27.983  30.803  20.442  1.00  0.00     0.163 C 
ATOM     30  O   UNL A   1      27.015  30.694  22.877  1.00  0.00    -0.224 OA
ATOM     31  O   UNL A   1      28.989  32.191  22.401  1.00  0.00    -0.224 OA
ENDBRANCH  27  28
ENDBRANCH  14  22
ENDBRANCH   8   9
ENDBRANCH   6   8
ENDBRANCH   5   6
ENDBRANCH   4   5
ENDBRANCH   3   4
ENDBRANCH   2   3
ENDBRANCH   1   2
BRANCH   1  32
ATOM     32  C   UNL A   1      38.197  22.037  25.677  1.00  0.00     0.188 C 
BRANCH  32  33
ATOM     33  O   UNL A   1      39.240  21.135  25.883  1.00  0.00    -0.376 OA
BRANCH  33  34
ATOM     34  C   UNL A   1      40.357  21.612  26.602  1.00  0.00     0.202 C 
BRANCH  34  35
ATOM     35  C   UNL A   1      41.822  21.820  26.016  1.00  0.00     0.261 C 
BRANCH  35  36
ATOM     36  O   UNL A   1      43.155  21.522  26.666  1.00  0.00    -0.460 OA
BRANCH  36  37
ATOM     37  C   UNL A   1      44.175  22.507  26.634  1.00  0.00     0.338 C 
ATOM     38  O   UNL A   1      45.279  22.198  26.191  1.00  0.00    -0.246 OA
BRANCH  37  39
ATOM     39  C   UNL A   1      43.887  24.047  27.163  1.00  0.00     0.060 A 
ATOM     40  C   UNL A   1      43.057  24.372  28.241  1.00  0.00     0.016 A 
ATOM     41  C   UNL A   1      44.108  25.245  26.433  1.00  0.00     0.016 A 
ATOM     42  C   UNL A   1      42.680  25.819  28.651  1.00  0.00     0.010 A 
ATOM     43  C   UNL A   1      43.659  26.722  26.824  1.00  0.00     0.010 A 
ATOM     44  C   UNL A   1      42.990  27.130  28.014  1.00  0.00    -0.014 A 
BRANCH  44  45
ATOM     45  C   UNL A   1      42.124  28.675  28.507  1.00  0.00     0.031 A 
ATOM     46  C   UNL A   1      43.256  29.574  28.107  1.00  0.00     0.074 A 
ATOM     47  C   UNL A   1      41.006  29.431  29.227  1.00  0.00     0.049 A 
ATOM     48  N   UNL A   1      44.396  29.319  28.690  1.00  0.00    -0.248 NA
ATOM     49  C   UNL A   1      43.408  30.341  26.869  1.00  0.00     0.031 C 
ATOM     50  C   UNL A   1      39.898  28.926  30.118  1.00  0.00     0.029 A 
ATOM     51  N   UNL A   1      40.573  30.944  29.407  1.00  0.00    -0.354 N 
ATOM     52  C   UNL A   1      45.341  30.161  28.173  1.00  0.00     0.074 A 
ATOM     53  C   UNL A   1      44.727  30.608  26.920  1.00  0.00     0.031 C 
ATOM     54  C   UNL A   1      38.954  29.856  30.547  1.00  0.00     0.029 A 
ATOM     55  C   UNL A   1      39.190  31.262  30.129  1.00  0.00     0.049 A 
ATOM     56  H   UNL A   1      41.147  31.674  29.078  1.00  0.00     0.167 HD
ATOM     57  C   UNL A   1      45.922  30.908  29.160  1.00  0.00     0.034 A 
ATOM     58  C   UNL A   1      38.436  32.511  30.495  1.00  0.00     0.034 A 
ATOM     59  C   UNL A   1      45.131  32.080  29.435  1.00  0.00     0.049 A 
ATOM     60  C   UNL A   1      39.439  33.513  30.823  1.00  0.00     0.074 A 
ATOM     61  C   UNL A   1      44.476  32.952  28.585  1.00  0.00     0.029 A 
ATOM     62  N   UNL A   1      44.490  32.154  30.654  1.00  0.00    -0.354 N 
ATOM     63  N   UNL A   1      40.146  33.494  31.902  1.00  0.00    -0.248 NA
ATOM     64  C   UNL A   1      39.799  34.479  29.809  1.00  0.00     0.031 C 
ATOM     65  C   UNL A   1      43.181  33.003  29.121  1.00  0.00     0.029 A 
ATOM     66  C   UNL A   1      43.289  32.799  30.491  1.00  0.00     0.049 A 
ATOM     67  H   UNL A   1      44.838  31.802  31.505  1.00  0.00     0.167 HD
ATOM     68  C   UNL A   1      41.354  33.823  31.373  1.00  0.00     0.074 A 
ATOM     69  C   UNL A   1      41.067  34.626  30.180  1.00  0.00     0.031 C 
ATOM     70  C   UNL A   1      42.381  32.963  31.593  1.00  0.00     0.034 A 
BRANCH  57  71
ATOM     71  C   UNL A   1      46.530  30.036  30.238  1.00  0.00     0.023 A 
ATOM     72  C   UNL A   1      46.252  28.671  30.205  1.00  0.00     0.031 A 
ATOM     73  C   UNL A   1      47.244  30.535  31.360  1.00  0.00     0.131 A 
ATOM     74  C   UNL A   1      46.624  27.859  31.287  1.00  0.00     0.055 A 
ATOM     75  C   UNL A   1      47.570  29.734  32.452  1.00  0.00     0.041 A 
ATOM     76  F   UNL A   1      47.641  31.817  31.422  1.00  0.00    -0.206 F 
ATOM     77  C   UNL A   1      47.258  28.382  32.420  1.00  0.00     0.022 A 
BRANCH  74  78
ATOM     78  S   UNL A   1      46.237  26.096  31.194  1.00  0.00     0.124 S 
ATOM     79  O   UNL A   1      44.781  26.096  31.306  1.00  0.00    -0.237 OA
ATOM     80  O   UNL A   1      46.768  25.729  29.884  1.00  0.00    -0.237 OA
ATOM     81  O   UNL A   1      46.950  25.522  32.334  1.00  0.00    -0.744 OA
ENDBRANCH  74  78
ENDBRANCH  57  71
BRANCH  58  82
ATOM     82  C   UNL A   1      36.976  33.391  30.858  1.00  0.00     0.023 A 
ATOM     83  C   UNL A   1      36.036  34.163  29.930  1.00  0.00     0.031 A 
ATOM     84  C   UNL A   1      36.281  32.952  31.995  1.00  0.00     0.131 A 
ATOM     85  C   UNL A   1      34.602  34.419  30.222  1.00  0.00     0.055 A 
ATOM     86  C   UNL A   1      34.884  33.183  32.238  1.00  0.00     0.041 A 
ATOM     87  F   UNL A   1      36.904  32.164  32.879  1.00  0.00    -0.206 F 
ATOM     88  C   UNL A   1      34.049  33.892  31.376  1.00  0.00     0.022 A 
BRANCH  85  89
ATOM     89  S   UNL A   1      33.295  35.359  29.152  1.00  0.00     0.124 S 
ATOM     90  O   UNL A   1      34.089  36.328  28.408  1.00  0.00    -0.237 OA
ATOM     91  O   UNL A   1      32.655  34.301  28.379  1.00  0.00    -0.237 OA
ATOM     92  O   UNL A   1      32.404  35.974  30.146  1.00  0.00    -0.744 OA
ENDBRANCH  85  89
ENDBRANCH  58  82
BRANCH  70  93
ATOM     93  C   UNL A   1      42.421  32.201  32.913  1.00  0.00     0.023 A 
ATOM     94  C   UNL A   1      41.928  30.890  33.162  1.00  0.00     0.031 A 
ATOM     95  C   UNL A   1      42.927  32.899  34.020  1.00  0.00     0.131 A 
ATOM     96  C   UNL A   1      41.946  30.347  34.470  1.00  0.00     0.055 A 
ATOM     97  C   UNL A   1      42.973  32.353  35.301  1.00  0.00     0.041 A 
ATOM     98  F   UNL A   1      43.385  34.152  33.871  1.00  0.00    -0.206 F 
ATOM     99  C   UNL A   1      42.474  31.079  35.535  1.00  0.00     0.022 A 
BRANCH  96 100
ATOM    100  S   UNL A   1      41.217  28.708  34.830  1.00  0.00     0.124 S 
ATOM    101  O   UNL A   1      40.610  28.891  36.143  1.00  0.00    -0.237 OA
ATOM    102  O   UNL A   1      40.286  28.526  33.721  1.00  0.00    -0.237 OA
ATOM    103  O   UNL A   1      42.372  27.809  34.814  1.00  0.00    -0.744 OA
ENDBRANCH  96 100
ENDBRANCH  70  93
ENDBRANCH  44  45
ENDBRANCH  37  39
ENDBRANCH  36  37
ENDBRANCH  35  36
ENDBRANCH  34  35
ENDBRANCH  33  34
ENDBRANCH  32  33
ENDBRANCH   1  32
TORSDOF 24
ENDMDL
MODEL 3
REMARK VINA RESULT:     -10.4      3.857     10.883
REMARK SMILES Cc1c(CC(=O)OCCOCCOCCOC(=O)c2ccc(-c3c4nc(c(-c5cc(S(=O)(=O)[O-])ccc5F)c5ccc([nH]5)c(-c5cc(S(=O)(=O)[O-])ccc5F)c5nc(c(-c6cc(S(=O)(=O)[O-])ccc6F)c6ccc3[nH]6)C=C5)C=C4)cc2)cc(-c2ccc(S(C)(=O)=O)cc2)n1-c1cccc(F)c1
REMARK SMILES IDX 11 1 10 2 9 3 8 4 7 5 5 6 6 7 4 8 3 9 1 10 2 11 94 12 82 13
REMARK SMILES IDX 83 14 95 15 96 16 101 17 97 18 99 19 98 20 100 21 84 22
REMARK SMILES IDX 85 23 93 24 86 25 92 26 87 27 88 28 89 29 90 30 91 31 12 32
REMARK SMILES IDX 13 33 14 34 15 35 16 36 17 37 18 38 19 39 20 40 81 41 21 42
REMARK SMILES IDX 80 43 22 44 23 45 24 46 74 47 25 48 79 49 73 50 75 51 26 52
REMARK SMILES IDX 78 53 72 54 71 55 27 57 59 58 39 59 58 60 40 61 43 62 57 63
REMARK SMILES IDX 76 64 41 65 42 66 56 68 77 69 44 70 28 71 29 72 37 73 30 74
REMARK SMILES IDX 36 75 38 76 35 77 31 78 32 79 33 80 34 81 60 82 61 83 69 84
REMARK SMILES IDX 62 85 68 86 70 87 67 88 63 89 64 90 65 91 66 92 45 93 46 94
REMARK SMILES IDX 54 95 47 96 53 97 55 98 52 99 48 100 49 101 50 102 51 103
REMARK H PARENT 75 56 43 67
REMARK Flexibility Score: inf
ROOT
ATOM      1  C   UNL A   1      37.200  21.862  24.542  1.00  0.00     0.188 C 
ENDROOT
BRANCH   1   2
ATOM      2  O   UNL A   1      36.234  20.844  24.742  1.00  0.00    -0.376 OA
BRANCH   2   3
ATOM      3  C   UNL A   1      35.102  21.101  25.559  1.00  0.00     0.202 C 
BRANCH   3   4
ATOM      4  C   UNL A   1      33.737  20.468  25.228  1.00  0.00     0.261 C 
BRANCH   4   5
ATOM      5  O   UNL A   1      33.403  20.364  23.823  1.00  0.00    -0.463 OA
BRANCH   5   6
ATOM      6  C   UNL A   1      32.816  21.454  23.267  1.00  0.00     0.310 C 
ATOM      7  O   UNL A   1      31.644  21.461  22.884  1.00  0.00    -0.252 OA
BRANCH   6   8
ATOM      8  C   UNL A   1      33.650  22.727  23.167  1.00  0.00     0.160 C 
BRANCH   8   9
ATOM      9  C   UNL A   1      33.121  24.078  23.593  1.00  0.00    -0.015 A 
ATOM     10  C   UNL A   1      33.538  24.170  26.206  1.00  0.00     0.065 C 
ATOM     11  C   UNL A   1      33.109  24.675  24.862  1.00  0.00     0.024 A 
ATOM     12  N   UNL A   1      32.576  25.952  24.731  1.00  0.00    -0.313 N 
ATOM     13  C   UNL A   1      32.295  24.916  22.784  1.00  0.00     0.033 A 
ATOM     14  C   UNL A   1      31.900  26.017  23.523  1.00  0.00     0.053 A 
BRANCH  12  15
ATOM     15  C   UNL A   1      32.726  27.030  25.642  1.00  0.00     0.049 A 
ATOM     16  C   UNL A   1      33.970  27.653  25.800  1.00  0.00     0.027 A 
ATOM     17  C   UNL A   1      31.666  27.328  26.505  1.00  0.00     0.065 A 
ATOM     18  C   UNL A   1      34.149  28.587  26.824  1.00  0.00     0.005 A 
ATOM     19  C   UNL A   1      31.870  28.243  27.531  1.00  0.00     0.125 A 
ATOM     20  C   UNL A   1      33.099  28.876  27.698  1.00  0.00     0.039 A 
ATOM     21  F   UNL A   1      30.882  28.484  28.405  1.00  0.00    -0.207 F 
ENDBRANCH  12  15
BRANCH  14  22
ATOM     22  C   UNL A   1      30.994  27.100  23.152  1.00  0.00    -0.001 A 
ATOM     23  C   UNL A   1      31.483  28.315  22.654  1.00  0.00     0.011 A 
ATOM     24  C   UNL A   1      29.618  26.935  23.349  1.00  0.00     0.011 A 
ATOM     25  C   UNL A   1      30.605  29.359  22.358  1.00  0.00     0.021 A 
ATOM     26  C   UNL A   1      28.734  27.974  23.055  1.00  0.00     0.021 A 
ATOM     27  C   UNL A   1      29.235  29.181  22.559  1.00  0.00     0.067 A 
BRANCH  27  28
ATOM     28  S   UNL A   1      28.106  30.471  22.099  1.00  0.00     0.175 S 
ATOM     29  C   UNL A   1      29.045  31.967  22.229  1.00  0.00     0.163 C 
ATOM     30  O   UNL A   1      27.791  30.260  20.682  1.00  0.00    -0.224 OA
ATOM     31  O   UNL A   1      27.055  30.524  23.081  1.00  0.00    -0.224 OA
ENDBRANCH  27  28
ENDBRANCH  14  22
ENDBRANCH   8   9
ENDBRANCH   6   8
ENDBRANCH   5   6
ENDBRANCH   4   5
ENDBRANCH   3   4
ENDBRANCH   2   3
ENDBRANCH   1   2
BRANCH   1  32
ATOM     32  C   UNL A   1      38.197  22.203  25.646  1.00  0.00     0.188 C 
BRANCH  32  33
ATOM     33  O   UNL A   1      39.222  21.297  25.916  1.00  0.00    -0.376 OA
BRANCH  33  34
ATOM     34  C   UNL A   1      40.261  21.747  26.758  1.00  0.00     0.202 C 
BRANCH  34  35
ATOM     35  C   UNL A   1      41.743  22.101  26.299  1.00  0.00     0.261 C 
BRANCH  35  36
ATOM     36  O   UNL A   1      43.048  21.823  27.011  1.00  0.00    -0.460 OA
BRANCH  36  37
ATOM     37  C   UNL A   1      43.993  22.871  27.157  1.00  0.00     0.338 C 
ATOM     38  O   UNL A   1      45.163  22.659  26.845  1.00  0.00    -0.246 OA
BRANCH  37  39
ATOM     39  C   UNL A   1      43.534  24.357  27.718  1.00  0.00     0.060 A 
ATOM     40  C   UNL A   1      42.372  24.601  28.458  1.00  0.00     0.016 A 
ATOM     41  C   UNL A   1      44.002  25.616  27.254  1.00  0.00     0.016 A 
ATOM     42  C   UNL A   1      41.873  26.010  28.867  1.00  0.00     0.010 A 
ATOM     43  C   UNL A   1      43.443  27.061  27.622  1.00  0.00     0.010 A 
ATOM     44  C   UNL A   1      42.390  27.367  28.534  1.00  0.00    -0.014 A 
BRANCH  44  45
ATOM     45  C   UNL A   1      41.405  28.886  28.855  1.00  0.00     0.031 A 
ATOM     46  C   UNL A   1      42.493  29.823  28.424  1.00  0.00     0.074 A 
ATOM     47  C   UNL A   1      40.209  29.622  29.462  1.00  0.00     0.049 A 
ATOM     48  N   UNL A   1      43.620  29.696  29.072  1.00  0.00    -0.248 NA
ATOM     49  C   UNL A   1      42.652  30.492  27.131  1.00  0.00     0.031 C 
ATOM     50  C   UNL A   1      39.096  29.119  30.348  1.00  0.00     0.029 A 
ATOM     51  N   UNL A   1      39.671  31.112  29.492  1.00  0.00    -0.354 N 
ATOM     52  C   UNL A   1      44.531  30.555  28.521  1.00  0.00     0.074 A 
ATOM     53  C   UNL A   1      43.947  30.852  27.211  1.00  0.00     0.031 C 
ATOM     54  C   UNL A   1      38.075  30.016  30.657  1.00  0.00     0.029 A 
ATOM     55  C   UNL A   1      38.240  31.394  30.127  1.00  0.00     0.049 A 
ATOM     56  H   UNL A   1      40.211  31.849  29.124  1.00  0.00     0.167 HD
ATOM     57  C   UNL A   1      45.018  31.420  29.462  1.00  0.00     0.034 A 
ATOM     58  C   UNL A   1      37.390  32.616  30.353  1.00  0.00     0.034 A 
ATOM     59  C   UNL A   1      44.141  32.554  29.603  1.00  0.00     0.049 A 
ATOM     60  C   UNL A   1      38.311  33.708  30.632  1.00  0.00     0.074 A 
ATOM     61  C   UNL A   1      43.470  33.305  28.654  1.00  0.00     0.029 A 
ATOM     62  N   UNL A   1      43.441  32.687  30.784  1.00  0.00    -0.354 N 
ATOM     63  N   UNL A   1      38.967  33.827  31.737  1.00  0.00    -0.248 NA
ATOM     64  C   UNL A   1      38.653  34.607  29.554  1.00  0.00     0.031 C 
ATOM     65  C   UNL A   1      42.152  33.312  29.132  1.00  0.00     0.029 A 
ATOM     66  C   UNL A   1      42.210  33.231  30.517  1.00  0.00     0.049 A 
ATOM     67  H   UNL A   1      43.772  32.431  31.676  1.00  0.00     0.167 HD
ATOM     68  C   UNL A   1      40.175  34.192  31.230  1.00  0.00     0.074 A 
ATOM     69  C   UNL A   1      39.891  34.871  29.961  1.00  0.00     0.031 C 
ATOM     70  C   UNL A   1      41.244  33.426  31.565  1.00  0.00     0.034 A 
BRANCH  57  71
ATOM     71  C   UNL A   1      45.631  30.685  30.635  1.00  0.00     0.023 A 
ATOM     72  C   UNL A   1      45.320  31.135  31.918  1.00  0.00     0.031 A 
ATOM     73  C   UNL A   1      46.611  29.665  30.514  1.00  0.00     0.131 A 
ATOM     74  C   UNL A   1      46.016  30.619  33.023  1.00  0.00     0.055 A 
ATOM     75  C   UNL A   1      47.331  29.190  31.609  1.00  0.00     0.041 A 
ATOM     76  F   UNL A   1      46.895  29.106  29.327  1.00  0.00    -0.206 F 
ATOM     77  C   UNL A   1      47.034  29.669  32.877  1.00  0.00     0.022 A 
BRANCH  74  78
ATOM     78  S   UNL A   1      45.577  31.238  34.663  1.00  0.00     0.124 S 
ATOM     79  O   UNL A   1      44.331  30.527  34.934  1.00  0.00    -0.237 OA
ATOM     80  O   UNL A   1      46.725  30.826  35.468  1.00  0.00    -0.237 OA
ATOM     81  O   UNL A   1      45.443  32.680  34.468  1.00  0.00    -0.744 OA
ENDBRANCH  74  78
ENDBRANCH  57  71
BRANCH  58  82
ATOM     82  C   UNL A   1      35.861  33.421  30.580  1.00  0.00     0.023 A 
ATOM     83  C   UNL A   1      35.421  34.408  31.663  1.00  0.00     0.031 A 
ATOM     84  C   UNL A   1      35.109  33.616  29.412  1.00  0.00     0.131 A 
ATOM     85  C   UNL A   1      34.335  35.406  31.488  1.00  0.00     0.055 A 
ATOM     86  C   UNL A   1      34.086  34.612  29.256  1.00  0.00     0.041 A 
ATOM     87  F   UNL A   1      35.418  32.920  28.312  1.00  0.00    -0.206 F 
ATOM     88  C   UNL A   1      33.702  35.500  30.260  1.00  0.00     0.022 A 
BRANCH  85  89
ATOM     89  S   UNL A   1      33.677  36.718  32.747  1.00  0.00     0.124 S 
ATOM     90  O   UNL A   1      32.230  36.561  32.686  1.00  0.00    -0.237 OA
ATOM     91  O   UNL A   1      34.326  36.349  34.000  1.00  0.00    -0.237 OA
ATOM     92  O   UNL A   1      34.151  37.998  32.202  1.00  0.00    -0.744 OA
ENDBRANCH  85  89
ENDBRANCH  58  82
BRANCH  70  93
ATOM     93  C   UNL A   1      41.273  32.782  32.946  1.00  0.00     0.023 A 
ATOM     94  C   UNL A   1      40.661  31.559  33.335  1.00  0.00     0.031 A 
ATOM     95  C   UNL A   1      41.904  33.515  33.962  1.00  0.00     0.131 A 
ATOM     96  C   UNL A   1      40.690  31.133  34.685  1.00  0.00     0.055 A 
ATOM     97  C   UNL A   1      41.960  33.081  35.285  1.00  0.00     0.041 A 
ATOM     98  F   UNL A   1      42.480  34.694  33.680  1.00  0.00    -0.206 F 
ATOM     99  C   UNL A   1      41.344  31.893  35.656  1.00  0.00     0.022 A 
BRANCH  96 100
ATOM    100  S   UNL A   1      39.815  29.619  35.226  1.00  0.00     0.124 S 
ATOM    101  O   UNL A   1      39.042  30.069  36.377  1.00  0.00    -0.237 OA
ATOM    102  O   UNL A   1      39.039  29.263  34.041  1.00  0.00    -0.237 OA
ATOM    103  O   UNL A   1      40.902  28.692  35.547  1.00  0.00    -0.744 OA
ENDBRANCH  96 100
ENDBRANCH  70  93
ENDBRANCH  44  45
ENDBRANCH  37  39
ENDBRANCH  36  37
ENDBRANCH  35  36
ENDBRANCH  34  35
ENDBRANCH  33  34
ENDBRANCH  32  33
ENDBRANCH   1  32
TORSDOF 24
ENDMDL
