MODEL 1
REMARK VINA RESULT:      -9.2      0.000      0.000
REMARK SMILES Cn1c(=O)c(=O)n(C)c2cc(S(=O)(=O)N3CCC[C@H]3C(=O)OCCOCCOCCOC(=O)c3ccc(-c4c5nc(c(-c6cc(S(=O)(=O)[O-])ccc6F)c6ccc([nH]6)c(-c6cc(S(=O)(=O)[O-])ccc6F)c6nc(c(-c7cc(S(=O)(=O)[O-])ccc7F)c7ccc4[nH]7)C=C6)C=C5)cc3)ccc21
REMARK SMILES IDX 27 1 26 2 25 3 24 4 23 5 22 6 20 7 21 8 19 9 15 10 16 11
REMARK SMILES IDX 17 12 18 13 12 14 13 15 14 16 11 17 1 18 2 19 3 20 99 21
REMARK SMILES IDX 4 22 5 23 9 24 98 25 6 26 7 27 10 28 97 29 8 30 28 31 29 32
REMARK SMILES IDX 30 33 31 34 32 35 33 36 34 37 35 38 96 39 36 40 95 41 37 42
REMARK SMILES IDX 38 43 39 44 89 45 40 46 94 47 88 48 90 49 41 50 93 51 87 52
REMARK SMILES IDX 86 53 42 55 74 56 54 57 73 58 55 59 58 60 72 61 91 62 56 63
REMARK SMILES IDX 57 64 71 66 92 67 59 68 43 69 44 70 52 71 45 72 51 73 53 74
REMARK SMILES IDX 50 75 46 76 47 77 48 78 49 79 75 80 76 81 84 82 77 83 83 84
REMARK SMILES IDX 85 85 82 86 78 87 79 88 80 89 81 90 60 91 61 92 69 93 62 94
REMARK SMILES IDX 68 95 70 96 67 97 63 98 64 99 65 100 66 101
REMARK H PARENT 90 54 58 65
REMARK Flexibility Score: inf
ROOT
ATOM      1  C   UNL A   1      37.766  32.869  39.824  1.00  0.00     0.188 C 
ENDROOT
BRANCH   1   2
ATOM      2  C   UNL A   1      37.429  32.250  38.456  1.00  0.00     0.188 C 
BRANCH   2   3
ATOM      3  O   UNL A   1      36.820  33.012  37.415  1.00  0.00    -0.376 OA
BRANCH   3   4
ATOM      4  C   UNL A   1      37.383  33.014  36.118  1.00  0.00     0.202 C 
BRANCH   4   5
ATOM      5  C   UNL A   1      37.913  31.661  35.636  1.00  0.00     0.261 C 
BRANCH   5   6
ATOM      6  O   UNL A   1      38.527  31.669  34.331  1.00  0.00    -0.462 OA
BRANCH   6   7
ATOM      7  C   UNL A   1      39.045  30.478  33.936  1.00  0.00     0.324 C 
ATOM      8  O   UNL A   1      39.693  29.734  34.669  1.00  0.00    -0.250 OA
BRANCH   7   9
ATOM      9  C   UNL A   1      38.819  30.126  32.474  1.00  0.00     0.183 C 
ATOM     10  N   UNL A   1      38.221  31.099  31.517  1.00  0.00    -0.184 NA
ATOM     11  C   UNL A   1      39.304  31.742  30.759  1.00  0.00     0.103 C 
ATOM     12  C   UNL A   1      40.356  30.662  30.628  1.00  0.00     0.019 C 
ATOM     13  C   UNL A   1      40.212  29.818  31.885  1.00  0.00     0.034 C 
BRANCH  10  14
ATOM     14  S   UNL A   1      36.752  30.763  30.732  1.00  0.00     0.243 S 
ATOM     15  O   UNL A   1      36.008  29.885  31.612  1.00  0.00    -0.207 OA
ATOM     16  O   UNL A   1      37.053  30.385  29.370  1.00  0.00    -0.207 OA
BRANCH  14  17
ATOM     17  C   UNL A   1      35.785  32.264  30.598  1.00  0.00     0.084 A 
ATOM     18  C   UNL A   1      32.881  36.178  29.055  1.00  0.00     0.154 C 
ATOM     19  N   UNL A   1      33.483  35.815  30.331  1.00  0.00    -0.305 N 
ATOM     20  C   UNL A   1      33.348  36.704  31.393  1.00  0.00     0.316 A 
ATOM     21  C   UNL A   1      34.211  34.603  30.461  1.00  0.00     0.068 A 
ATOM     22  O   UNL A   1      32.790  37.794  31.302  1.00  0.00    -0.263 OA
ATOM     23  C   UNL A   1      33.939  36.290  32.746  1.00  0.00     0.316 A 
ATOM     24  C   UNL A   1      34.891  34.294  31.653  1.00  0.00     0.069 A 
ATOM     25  C   UNL A   1      34.259  33.691  29.397  1.00  0.00     0.030 A 
ATOM     26  O   UNL A   1      33.731  37.012  33.719  1.00  0.00    -0.263 OA
ATOM     27  N   UNL A   1      34.707  35.123  32.797  1.00  0.00    -0.305 N 
ATOM     28  C   UNL A   1      35.711  33.142  31.695  1.00  0.00     0.050 A 
ATOM     29  C   UNL A   1      35.009  32.521  29.479  1.00  0.00     0.024 A 
ATOM     30  C   UNL A   1      35.225  34.718  34.094  1.00  0.00     0.154 C 
ENDBRANCH  14  17
ENDBRANCH  10  14
ENDBRANCH   7   9
ENDBRANCH   6   7
ENDBRANCH   5   6
ENDBRANCH   4   5
ENDBRANCH   3   4
ENDBRANCH   2   3
ENDBRANCH   1   2
BRANCH   1  31
ATOM     31  O   UNL A   1      38.510  34.079  39.736  1.00  0.00    -0.376 OA
BRANCH  31  32
ATOM     32  C   UNL A   1      39.581  34.182  40.663  1.00  0.00     0.202 C 
BRANCH  32  33
ATOM     33  C   UNL A   1      40.911  34.380  39.937  1.00  0.00     0.261 C 
BRANCH  33  34
ATOM     34  O   UNL A   1      41.257  35.755  39.702  1.00  0.00    -0.460 OA
BRANCH  34  35
ATOM     35  C   UNL A   1      40.698  36.352  38.617  1.00  0.00     0.338 C 
ATOM     36  O   UNL A   1      40.034  37.360  38.607  1.00  0.00    -0.246 OA
BRANCH  35  37
ATOM     37  C   UNL A   1      41.189  35.627  37.417  1.00  0.00     0.060 A 
ATOM     38  C   UNL A   1      42.561  35.517  37.173  1.00  0.00     0.016 A 
ATOM     39  C   UNL A   1      40.268  35.070  36.522  1.00  0.00     0.016 A 
ATOM     40  C   UNL A   1      43.011  34.835  36.042  1.00  0.00     0.010 A 
ATOM     41  C   UNL A   1      40.723  34.382  35.388  1.00  0.00     0.010 A 
ATOM     42  C   UNL A   1      42.099  34.247  35.147  1.00  0.00    -0.014 A 
BRANCH  42  43
ATOM     43  C   UNL A   1      42.617  33.366  34.067  1.00  0.00     0.031 A 
ATOM     44  C   UNL A   1      42.817  31.893  34.263  1.00  0.00     0.074 A 
ATOM     45  C   UNL A   1      42.866  33.923  32.865  1.00  0.00     0.049 A 
ATOM     46  N   UNL A   1      43.099  30.982  33.367  1.00  0.00    -0.248 NA
ATOM     47  C   UNL A   1      42.691  31.376  35.631  1.00  0.00     0.031 C 
ATOM     48  C   UNL A   1      42.734  35.351  32.570  1.00  0.00     0.029 A 
ATOM     49  N   UNL A   1      43.253  33.368  31.671  1.00  0.00    -0.354 N 
ATOM     50  C   UNL A   1      43.155  29.774  34.051  1.00  0.00     0.074 A 
ATOM     51  C   UNL A   1      42.935  30.081  35.451  1.00  0.00     0.031 C 
ATOM     52  C   UNL A   1      42.996  35.554  31.271  1.00  0.00     0.029 A 
ATOM     53  C   UNL A   1      43.333  34.278  30.643  1.00  0.00     0.049 A 
ATOM     54  H   UNL A   1      43.454  32.410  31.562  1.00  0.00     0.167 HD
ATOM     55  C   UNL A   1      43.345  28.528  33.550  1.00  0.00     0.034 A 
ATOM     56  C   UNL A   1      43.620  34.109  29.335  1.00  0.00     0.034 A 
ATOM     57  C   UNL A   1      43.578  28.244  32.153  1.00  0.00     0.049 A 
ATOM     58  C   UNL A   1      43.846  32.715  28.808  1.00  0.00     0.074 A 
ATOM     59  C   UNL A   1      43.755  27.008  31.551  1.00  0.00     0.029 A 
ATOM     60  N   UNL A   1      43.669  29.191  31.143  1.00  0.00    -0.354 N 
ATOM     61  N   UNL A   1      43.792  31.572  29.450  1.00  0.00    -0.248 NA
ATOM     62  C   UNL A   1      44.149  32.581  27.377  1.00  0.00     0.031 C 
ATOM     63  C   UNL A   1      44.016  27.212  30.195  1.00  0.00     0.029 A 
ATOM     64  C   UNL A   1      43.923  28.568  29.929  1.00  0.00     0.049 A 
ATOM     65  H   UNL A   1      43.569  30.162  31.268  1.00  0.00     0.167 HD
ATOM     66  C   UNL A   1      44.010  30.583  28.493  1.00  0.00     0.074 A 
ATOM     67  C   UNL A   1      44.180  31.264  27.227  1.00  0.00     0.031 C 
ATOM     68  C   UNL A   1      44.065  29.237  28.657  1.00  0.00     0.034 A 
BRANCH  55  69
ATOM     69  C   UNL A   1      43.275  27.347  34.490  1.00  0.00     0.023 A 
ATOM     70  C   UNL A   1      44.451  26.805  35.045  1.00  0.00     0.031 A 
ATOM     71  C   UNL A   1      42.065  26.659  34.696  1.00  0.00     0.131 A 
ATOM     72  C   UNL A   1      44.396  25.590  35.742  1.00  0.00     0.055 A 
ATOM     73  C   UNL A   1      42.011  25.470  35.425  1.00  0.00     0.041 A 
ATOM     74  F   UNL A   1      40.918  27.130  34.181  1.00  0.00    -0.206 F 
ATOM     75  C   UNL A   1      43.183  24.923  35.938  1.00  0.00     0.022 A 
BRANCH  72  76
ATOM     76  S   UNL A   1      45.904  24.790  36.357  1.00  0.00     0.124 S 
ATOM     77  O   UNL A   1      45.546  24.505  37.745  1.00  0.00    -0.237 OA
ATOM     78  O   UNL A   1      46.010  23.622  35.488  1.00  0.00    -0.237 OA
ATOM     79  O   UNL A   1      46.937  25.805  36.181  1.00  0.00    -0.744 OA
ENDBRANCH  72  76
ENDBRANCH  55  69
BRANCH  56  80
ATOM     80  C   UNL A   1      43.601  35.296  28.431  1.00  0.00     0.023 A 
ATOM     81  C   UNL A   1      44.780  36.005  28.139  1.00  0.00     0.031 A 
ATOM     82  C   UNL A   1      42.387  35.797  27.931  1.00  0.00     0.131 A 
ATOM     83  C   UNL A   1      44.710  37.207  27.423  1.00  0.00     0.055 A 
ATOM     84  C   UNL A   1      42.330  36.956  27.158  1.00  0.00     0.041 A 
ATOM     85  F   UNL A   1      41.234  35.165  28.199  1.00  0.00    -0.206 F 
ATOM     86  C   UNL A   1      43.495  37.677  26.915  1.00  0.00     0.022 A 
BRANCH  83  87
ATOM     87  S   UNL A   1      46.171  38.267  27.242  1.00  0.00     0.124 S 
ATOM     88  O   UNL A   1      45.665  39.560  27.693  1.00  0.00    -0.237 OA
ATOM     89  O   UNL A   1      47.124  37.615  28.137  1.00  0.00    -0.237 OA
ATOM     90  O   UNL A   1      46.491  38.173  25.823  1.00  0.00    -0.744 OA
ENDBRANCH  83  87
ENDBRANCH  56  80
BRANCH  68  91
ATOM     91  C   UNL A   1      44.294  28.363  27.443  1.00  0.00     0.023 A 
ATOM     92  C   UNL A   1      45.608  28.044  27.046  1.00  0.00     0.031 A 
ATOM     93  C   UNL A   1      43.236  27.973  26.603  1.00  0.00     0.131 A 
ATOM     94  C   UNL A   1      45.832  27.390  25.827  1.00  0.00     0.055 A 
ATOM     95  C   UNL A   1      43.461  27.277  25.414  1.00  0.00     0.041 A 
ATOM     96  F   UNL A   1      41.965  28.265  26.926  1.00  0.00    -0.206 F 
ATOM     97  C   UNL A   1      44.764  26.996  25.014  1.00  0.00     0.022 A 
BRANCH  94  98
ATOM     98  S   UNL A   1      47.514  27.111  25.205  1.00  0.00     0.124 S 
ATOM     99  O   UNL A   1      48.231  26.754  26.427  1.00  0.00    -0.237 OA
ATOM    100  O   UNL A   1      47.314  26.017  24.257  1.00  0.00    -0.237 OA
ATOM    101  O   UNL A   1      47.889  28.391  24.616  1.00  0.00    -0.744 OA
ENDBRANCH  94  98
ENDBRANCH  68  91
ENDBRANCH  42  43
ENDBRANCH  35  37
ENDBRANCH  34  35
ENDBRANCH  33  34
ENDBRANCH  32  33
ENDBRANCH  31  32
ENDBRANCH   1  31
TORSDOF 22
ENDMDL
MODEL 2
REMARK VINA RESULT:      -9.2      6.152     11.452
REMARK SMILES Cn1c(=O)c(=O)n(C)c2cc(S(=O)(=O)N3CCC[C@H]3C(=O)OCCOCCOCCOC(=O)c3ccc(-c4c5nc(c(-c6cc(S(=O)(=O)[O-])ccc6F)c6ccc([nH]6)c(-c6cc(S(=O)(=O)[O-])ccc6F)c6nc(c(-c7cc(S(=O)(=O)[O-])ccc7F)c7ccc4[nH]7)C=C6)C=C5)cc3)ccc21
REMARK SMILES IDX 27 1 26 2 25 3 24 4 23 5 22 6 20 7 21 8 19 9 15 10 16 11
REMARK SMILES IDX 17 12 18 13 12 14 13 15 14 16 11 17 1 18 2 19 3 20 99 21
REMARK SMILES IDX 4 22 5 23 9 24 98 25 6 26 7 27 10 28 97 29 8 30 28 31 29 32
REMARK SMILES IDX 30 33 31 34 32 35 33 36 34 37 35 38 96 39 36 40 95 41 37 42
REMARK SMILES IDX 38 43 39 44 89 45 40 46 94 47 88 48 90 49 41 50 93 51 87 52
REMARK SMILES IDX 86 53 42 55 74 56 54 57 73 58 55 59 58 60 72 61 91 62 56 63
REMARK SMILES IDX 57 64 71 66 92 67 59 68 43 69 44 70 52 71 45 72 51 73 53 74
REMARK SMILES IDX 50 75 46 76 47 77 48 78 49 79 75 80 76 81 84 82 77 83 83 84
REMARK SMILES IDX 85 85 82 86 78 87 79 88 80 89 81 90 60 91 61 92 69 93 62 94
REMARK SMILES IDX 68 95 70 96 67 97 63 98 64 99 65 100 66 101
REMARK H PARENT 90 54 58 65
REMARK Flexibility Score: inf
ROOT
ATOM      1  C   UNL A   1      35.818  21.088  24.839  1.00  0.00     0.188 C 
ENDROOT
BRANCH   1   2
ATOM      2  C   UNL A   1      35.671  21.886  26.146  1.00  0.00     0.188 C 
BRANCH   2   3
ATOM      3  O   UNL A   1      34.548  21.717  27.008  1.00  0.00    -0.376 OA
BRANCH   3   4
ATOM      4  C   UNL A   1      33.319  22.347  26.702  1.00  0.00     0.202 C 
BRANCH   4   5
ATOM      5  C   UNL A   1      32.353  21.512  25.855  1.00  0.00     0.261 C 
BRANCH   5   6
ATOM      6  O   UNL A   1      31.068  22.119  25.610  1.00  0.00    -0.462 OA
BRANCH   6   7
ATOM      7  C   UNL A   1      31.116  23.408  25.187  1.00  0.00     0.324 C 
ATOM      8  O   UNL A   1      30.929  24.378  25.919  1.00  0.00    -0.250 OA
BRANCH   7   9
ATOM      9  C   UNL A   1      31.372  23.593  23.700  1.00  0.00     0.183 C 
ATOM     10  N   UNL A   1      32.655  24.152  23.189  1.00  0.00    -0.184 NA
ATOM     11  C   UNL A   1      33.520  23.039  22.770  1.00  0.00     0.103 C 
ATOM     12  C   UNL A   1      32.556  21.994  22.251  1.00  0.00     0.019 C 
ATOM     13  C   UNL A   1      31.290  22.186  23.071  1.00  0.00     0.034 C 
BRANCH  10  14
ATOM     14  S   UNL A   1      32.686  25.599  22.299  1.00  0.00     0.243 S 
ATOM     15  O   UNL A   1      31.464  25.628  21.521  1.00  0.00    -0.207 OA
ATOM     16  O   UNL A   1      33.982  25.706  21.669  1.00  0.00    -0.207 OA
BRANCH  14  17
ATOM     17  C   UNL A   1      32.593  26.994  23.418  1.00  0.00     0.084 A 
ATOM     18  C   UNL A   1      33.320  30.455  27.109  1.00  0.00     0.154 C 
ATOM     19  N   UNL A   1      32.350  30.326  26.029  1.00  0.00    -0.305 N 
ATOM     20  C   UNL A   1      31.326  31.264  25.955  1.00  0.00     0.316 A 
ATOM     21  C   UNL A   1      32.445  29.250  25.106  1.00  0.00     0.068 A 
ATOM     22  O   UNL A   1      31.168  32.166  26.774  1.00  0.00    -0.263 OA
ATOM     23  C   UNL A   1      30.343  31.153  24.785  1.00  0.00     0.316 A 
ATOM     24  C   UNL A   1      31.453  29.050  24.129  1.00  0.00     0.069 A 
ATOM     25  C   UNL A   1      33.534  28.370  25.158  1.00  0.00     0.030 A 
ATOM     26  O   UNL A   1      29.502  32.038  24.642  1.00  0.00    -0.263 OA
ATOM     27  N   UNL A   1      30.439  30.034  23.952  1.00  0.00    -0.305 N 
ATOM     28  C   UNL A   1      31.515  27.893  23.317  1.00  0.00     0.050 A 
ATOM     29  C   UNL A   1      33.622  27.276  24.301  1.00  0.00     0.024 A 
ATOM     30  C   UNL A   1      29.529  29.962  22.819  1.00  0.00     0.154 C 
ENDBRANCH  14  17
ENDBRANCH  10  14
ENDBRANCH   7   9
ENDBRANCH   6   7
ENDBRANCH   5   6
ENDBRANCH   4   5
ENDBRANCH   3   4
ENDBRANCH   2   3
ENDBRANCH   1   2
BRANCH   1  31
ATOM     31  O   UNL A   1      36.424  19.813  25.014  1.00  0.00    -0.376 OA
BRANCH  31  32
ATOM     32  C   UNL A   1      37.820  19.781  24.750  1.00  0.00     0.202 C 
BRANCH  32  33
ATOM     33  C   UNL A   1      38.598  20.495  25.855  1.00  0.00     0.261 C 
BRANCH  33  34
ATOM     34  O   UNL A   1      39.990  20.144  25.918  1.00  0.00    -0.460 OA
BRANCH  34  35
ATOM     35  C   UNL A   1      40.610  20.297  27.118  1.00  0.00     0.338 C 
ATOM     36  O   UNL A   1      41.008  19.418  27.843  1.00  0.00    -0.246 OA
BRANCH  35  37
ATOM     37  C   UNL A   1      40.854  21.750  27.304  1.00  0.00     0.060 A 
ATOM     38  C   UNL A   1      41.674  22.198  28.342  1.00  0.00     0.016 A 
ATOM     39  C   UNL A   1      40.241  22.668  26.443  1.00  0.00     0.016 A 
ATOM     40  C   UNL A   1      41.895  23.567  28.509  1.00  0.00     0.010 A 
ATOM     41  C   UNL A   1      40.467  24.041  26.610  1.00  0.00     0.010 A 
ATOM     42  C   UNL A   1      41.308  24.501  27.636  1.00  0.00    -0.014 A 
BRANCH  42  43
ATOM     43  C   UNL A   1      41.722  25.926  27.724  1.00  0.00     0.031 A 
ATOM     44  C   UNL A   1      40.919  26.947  28.473  1.00  0.00     0.074 A 
ATOM     45  C   UNL A   1      42.884  26.281  27.143  1.00  0.00     0.049 A 
ATOM     46  N   UNL A   1      41.243  28.180  28.773  1.00  0.00    -0.248 NA
ATOM     47  C   UNL A   1      39.586  26.543  28.939  1.00  0.00     0.031 C 
ATOM     48  C   UNL A   1      43.732  25.377  26.364  1.00  0.00     0.029 A 
ATOM     49  N   UNL A   1      43.566  27.473  27.131  1.00  0.00    -0.354 N 
ATOM     50  C   UNL A   1      40.171  28.694  29.493  1.00  0.00     0.074 A 
ATOM     51  C   UNL A   1      39.161  27.655  29.530  1.00  0.00     0.031 C 
ATOM     52  C   UNL A   1      44.838  26.033  25.985  1.00  0.00     0.029 A 
ATOM     53  C   UNL A   1      44.773  27.409  26.474  1.00  0.00     0.049 A 
ATOM     54  H   UNL A   1      43.223  28.294  27.553  1.00  0.00     0.167 HD
ATOM     55  C   UNL A   1      40.057  29.909  30.084  1.00  0.00     0.034 A 
ATOM     56  C   UNL A   1      45.734  28.340  26.302  1.00  0.00     0.034 A 
ATOM     57  C   UNL A   1      41.069  30.938  30.022  1.00  0.00     0.049 A 
ATOM     58  C   UNL A   1      45.574  29.689  26.955  1.00  0.00     0.074 A 
ATOM     59  C   UNL A   1      41.052  32.191  30.615  1.00  0.00     0.029 A 
ATOM     60  N   UNL A   1      42.272  30.845  29.335  1.00  0.00    -0.354 N 
ATOM     61  N   UNL A   1      44.601  30.125  27.720  1.00  0.00    -0.248 NA
ATOM     62  C   UNL A   1      46.650  30.667  26.744  1.00  0.00     0.031 C 
ATOM     63  C   UNL A   1      42.207  32.876  30.233  1.00  0.00     0.029 A 
ATOM     64  C   UNL A   1      42.988  32.026  29.469  1.00  0.00     0.049 A 
ATOM     65  H   UNL A   1      42.571  30.058  28.825  1.00  0.00     0.167 HD
ATOM     66  C   UNL A   1      44.968  31.408  28.117  1.00  0.00     0.074 A 
ATOM     67  C   UNL A   1      46.261  31.671  27.519  1.00  0.00     0.031 C 
ATOM     68  C   UNL A   1      44.291  32.285  28.901  1.00  0.00     0.034 A 
BRANCH  55  69
ATOM     69  C   UNL A   1      38.819  30.210  30.896  1.00  0.00     0.023 A 
ATOM     70  C   UNL A   1      37.824  31.070  30.389  1.00  0.00     0.031 A 
ATOM     71  C   UNL A   1      38.711  29.785  32.233  1.00  0.00     0.131 A 
ATOM     72  C   UNL A   1      36.789  31.507  31.226  1.00  0.00     0.055 A 
ATOM     73  C   UNL A   1      37.655  30.193  33.050  1.00  0.00     0.041 A 
ATOM     74  F   UNL A   1      39.637  28.973  32.766  1.00  0.00    -0.206 F 
ATOM     75  C   UNL A   1      36.697  31.071  32.551  1.00  0.00     0.022 A 
BRANCH  72  76
ATOM     76  S   UNL A   1      35.564  32.717  30.654  1.00  0.00     0.124 S 
ATOM     77  O   UNL A   1      34.456  32.481  31.579  1.00  0.00    -0.237 OA
ATOM     78  O   UNL A   1      36.270  33.981  30.836  1.00  0.00    -0.237 OA
ATOM     79  O   UNL A   1      35.307  32.329  29.271  1.00  0.00    -0.744 OA
ENDBRANCH  72  76
ENDBRANCH  55  69
BRANCH  56  80
ATOM     80  C   UNL A   1      46.974  27.971  25.559  1.00  0.00     0.023 A 
ATOM     81  C   UNL A   1      47.096  28.221  24.180  1.00  0.00     0.031 A 
ATOM     82  C   UNL A   1      48.011  27.269  26.198  1.00  0.00     0.131 A 
ATOM     83  C   UNL A   1      48.198  27.718  23.477  1.00  0.00     0.055 A 
ATOM     84  C   UNL A   1      49.141  26.833  25.507  1.00  0.00     0.041 A 
ATOM     85  F   UNL A   1      47.931  26.992  27.509  1.00  0.00    -0.206 F 
ATOM     86  C   UNL A   1      49.230  27.043  24.134  1.00  0.00     0.022 A 
BRANCH  83  87
ATOM     87  S   UNL A   1      48.263  27.808  21.666  1.00  0.00     0.124 S 
ATOM     88  O   UNL A   1      49.328  28.782  21.448  1.00  0.00    -0.237 OA
ATOM     89  O   UNL A   1      48.587  26.429  21.310  1.00  0.00    -0.237 OA
ATOM     90  O   UNL A   1      46.922  28.244  21.294  1.00  0.00    -0.744 OA
ENDBRANCH  83  87
ENDBRANCH  56  80
BRANCH  68  91
ATOM     91  C   UNL A   1      44.920  33.626  29.209  1.00  0.00     0.023 A 
ATOM     92  C   UNL A   1      44.501  34.775  28.508  1.00  0.00     0.031 A 
ATOM     93  C   UNL A   1      46.021  33.744  30.076  1.00  0.00     0.131 A 
ATOM     94  C   UNL A   1      45.201  35.980  28.658  1.00  0.00     0.055 A 
ATOM     95  C   UNL A   1      46.683  34.960  30.260  1.00  0.00     0.041 A 
ATOM     96  F   UNL A   1      46.472  32.678  30.757  1.00  0.00    -0.206 F 
ATOM     97  C   UNL A   1      46.283  36.081  29.538  1.00  0.00     0.022 A 
BRANCH  94  98
ATOM     98  S   UNL A   1      44.795  37.433  27.650  1.00  0.00     0.124 S 
ATOM     99  O   UNL A   1      45.718  37.288  26.527  1.00  0.00    -0.237 OA
ATOM    100  O   UNL A   1      43.387  37.203  27.332  1.00  0.00    -0.237 OA
ATOM    101  O   UNL A   1      45.062  38.562  28.534  1.00  0.00    -0.744 OA
ENDBRANCH  94  98
ENDBRANCH  68  91
ENDBRANCH  42  43
ENDBRANCH  35  37
ENDBRANCH  34  35
ENDBRANCH  33  34
ENDBRANCH  32  33
ENDBRANCH  31  32
ENDBRANCH   1  31
TORSDOF 22
ENDMDL
MODEL 3
REMARK VINA RESULT:      -8.8      6.064     11.267
REMARK SMILES Cn1c(=O)c(=O)n(C)c2cc(S(=O)(=O)N3CCC[C@H]3C(=O)OCCOCCOCCOC(=O)c3ccc(-c4c5nc(c(-c6cc(S(=O)(=O)[O-])ccc6F)c6ccc([nH]6)c(-c6cc(S(=O)(=O)[O-])ccc6F)c6nc(c(-c7cc(S(=O)(=O)[O-])ccc7F)c7ccc4[nH]7)C=C6)C=C5)cc3)ccc21
REMARK SMILES IDX 27 1 26 2 25 3 24 4 23 5 22 6 20 7 21 8 19 9 15 10 16 11
REMARK SMILES IDX 17 12 18 13 12 14 13 15 14 16 11 17 1 18 2 19 3 20 99 21
REMARK SMILES IDX 4 22 5 23 9 24 98 25 6 26 7 27 10 28 97 29 8 30 28 31 29 32
REMARK SMILES IDX 30 33 31 34 32 35 33 36 34 37 35 38 96 39 36 40 95 41 37 42
REMARK SMILES IDX 38 43 39 44 89 45 40 46 94 47 88 48 90 49 41 50 93 51 87 52
REMARK SMILES IDX 86 53 42 55 74 56 54 57 73 58 55 59 58 60 72 61 91 62 56 63
REMARK SMILES IDX 57 64 71 66 92 67 59 68 43 69 44 70 52 71 45 72 51 73 53 74
REMARK SMILES IDX 50 75 46 76 47 77 48 78 49 79 75 80 76 81 84 82 77 83 83 84
REMARK SMILES IDX 85 85 82 86 78 87 79 88 80 89 81 90 60 91 61 92 69 93 62 94
REMARK SMILES IDX 68 95 70 96 67 97 63 98 64 99 65 100 66 101
REMARK H PARENT 90 54 58 65
REMARK Flexibility Score: inf
ROOT
ATOM      1  C   UNL A   1      35.306  21.634  25.582  1.00  0.00     0.188 C 
ENDROOT
BRANCH   1   2
ATOM      2  C   UNL A   1      34.856  21.863  27.035  1.00  0.00     0.188 C 
BRANCH   2   3
ATOM      3  O   UNL A   1      33.548  21.509  27.481  1.00  0.00    -0.376 OA
BRANCH   3   4
ATOM      4  C   UNL A   1      32.452  22.362  27.210  1.00  0.00     0.202 C 
BRANCH   4   5
ATOM      5  C   UNL A   1      31.625  21.986  25.976  1.00  0.00     0.261 C 
BRANCH   5   6
ATOM      6  O   UNL A   1      30.664  22.974  25.556  1.00  0.00    -0.462 OA
BRANCH   6   7
ATOM      7  C   UNL A   1      31.201  24.132  25.091  1.00  0.00     0.324 C 
ATOM      8  O   UNL A   1      31.449  25.106  25.798  1.00  0.00    -0.250 OA
BRANCH   7   9
ATOM      9  C   UNL A   1      31.438  24.178  23.590  1.00  0.00     0.183 C 
ATOM     10  N   UNL A   1      32.710  24.696  23.013  1.00  0.00    -0.184 NA
ATOM     11  C   UNL A   1      33.581  23.557  22.691  1.00  0.00     0.103 C 
ATOM     12  C   UNL A   1      32.621  22.460  22.284  1.00  0.00     0.019 C 
ATOM     13  C   UNL A   1      31.363  22.717  23.097  1.00  0.00     0.034 C 
BRANCH  10  14
ATOM     14  S   UNL A   1      32.718  26.053  21.992  1.00  0.00     0.243 S 
ATOM     15  O   UNL A   1      31.729  25.799  20.964  1.00  0.00    -0.207 OA
ATOM     16  O   UNL A   1      34.092  26.350  21.656  1.00  0.00    -0.207 OA
BRANCH  14  17
ATOM     17  C   UNL A   1      32.138  27.487  22.893  1.00  0.00     0.084 A 
ATOM     18  C   UNL A   1      29.616  31.595  24.596  1.00  0.00     0.154 C 
ATOM     19  N   UNL A   1      30.782  30.863  25.072  1.00  0.00    -0.305 N 
ATOM     20  C   UNL A   1      31.457  31.360  26.182  1.00  0.00     0.316 A 
ATOM     21  C   UNL A   1      31.222  29.696  24.393  1.00  0.00     0.068 A 
ATOM     22  O   UNL A   1      31.153  32.405  26.753  1.00  0.00    -0.263 OA
ATOM     23  C   UNL A   1      32.650  30.555  26.708  1.00  0.00     0.316 A 
ATOM     24  C   UNL A   1      32.409  29.044  24.773  1.00  0.00     0.069 A 
ATOM     25  C   UNL A   1      30.473  29.175  23.329  1.00  0.00     0.030 A 
ATOM     26  O   UNL A   1      33.186  30.920  27.752  1.00  0.00    -0.263 OA
ATOM     27  N   UNL A   1      33.083  29.457  25.958  1.00  0.00    -0.305 N 
ATOM     28  C   UNL A   1      32.880  27.965  23.989  1.00  0.00     0.050 A 
ATOM     29  C   UNL A   1      30.909  28.064  22.611  1.00  0.00     0.024 A 
ATOM     30  C   UNL A   1      34.187  28.675  26.491  1.00  0.00     0.154 C 
ENDBRANCH  14  17
ENDBRANCH  10  14
ENDBRANCH   7   9
ENDBRANCH   6   7
ENDBRANCH   5   6
ENDBRANCH   4   5
ENDBRANCH   3   4
ENDBRANCH   2   3
ENDBRANCH   1   2
BRANCH   1  31
ATOM     31  O   UNL A   1      36.293  20.618  25.444  1.00  0.00    -0.376 OA
BRANCH  31  32
ATOM     32  C   UNL A   1      37.491  21.041  24.807  1.00  0.00     0.202 C 
BRANCH  32  33
ATOM     33  C   UNL A   1      38.505  21.540  25.836  1.00  0.00     0.261 C 
BRANCH  33  34
ATOM     34  O   UNL A   1      39.688  20.731  25.938  1.00  0.00    -0.460 OA
BRANCH  34  35
ATOM     35  C   UNL A   1      40.406  20.833  27.088  1.00  0.00     0.338 C 
ATOM     36  O   UNL A   1      40.794  19.925  27.782  1.00  0.00    -0.246 OA
BRANCH  35  37
ATOM     37  C   UNL A   1      40.766  22.265  27.254  1.00  0.00     0.060 A 
ATOM     38  C   UNL A   1      41.559  22.670  28.330  1.00  0.00     0.016 A 
ATOM     39  C   UNL A   1      40.290  23.207  26.335  1.00  0.00     0.016 A 
ATOM     40  C   UNL A   1      41.890  24.019  28.477  1.00  0.00     0.010 A 
ATOM     41  C   UNL A   1      40.626  24.560  26.482  1.00  0.00     0.010 A 
ATOM     42  C   UNL A   1      41.441  24.974  27.547  1.00  0.00    -0.014 A 
BRANCH  42  43
ATOM     43  C   UNL A   1      41.974  26.360  27.627  1.00  0.00     0.031 A 
ATOM     44  C   UNL A   1      41.271  27.445  28.387  1.00  0.00     0.074 A 
ATOM     45  C   UNL A   1      43.152  26.618  27.025  1.00  0.00     0.049 A 
ATOM     46  N   UNL A   1      41.701  28.646  28.680  1.00  0.00    -0.248 NA
ATOM     47  C   UNL A   1      39.917  27.152  28.876  1.00  0.00     0.031 C 
ATOM     48  C   UNL A   1      43.908  25.646  26.234  1.00  0.00     0.029 A 
ATOM     49  N   UNL A   1      43.930  27.748  27.001  1.00  0.00    -0.354 N 
ATOM     50  C   UNL A   1      40.688  29.248  29.416  1.00  0.00     0.074 A 
ATOM     51  C   UNL A   1      39.595  28.296  29.472  1.00  0.00     0.031 C 
ATOM     52  C   UNL A   1      45.058  26.208  25.836  1.00  0.00     0.029 A 
ATOM     53  C   UNL A   1      45.116  27.584  26.324  1.00  0.00     0.049 A 
ATOM     54  H   UNL A   1      43.663  28.595  27.427  1.00  0.00     0.167 HD
ATOM     55  C   UNL A   1      40.685  30.468  30.008  1.00  0.00     0.034 A 
ATOM     56  C   UNL A   1      46.148  28.432  26.135  1.00  0.00     0.034 A 
ATOM     57  C   UNL A   1      41.778  31.409  29.928  1.00  0.00     0.049 A 
ATOM     58  C   UNL A   1      46.112  29.790  26.789  1.00  0.00     0.074 A 
ATOM     59  C   UNL A   1      41.875  32.659  30.519  1.00  0.00     0.029 A 
ATOM     60  N   UNL A   1      42.957  31.217  29.221  1.00  0.00    -0.354 N 
ATOM     61  N   UNL A   1      45.191  30.305  27.569  1.00  0.00    -0.248 NA
ATOM     62  C   UNL A   1      47.262  30.675  26.559  1.00  0.00     0.031 C 
ATOM     63  C   UNL A   1      43.076  33.245  30.117  1.00  0.00     0.029 A 
ATOM     64  C   UNL A   1      43.772  32.333  29.342  1.00  0.00     0.049 A 
ATOM     65  H   UNL A   1      43.182  30.407  28.708  1.00  0.00     0.167 HD
ATOM     66  C   UNL A   1      45.671  31.554  27.958  1.00  0.00     0.074 A 
ATOM     67  C   UNL A   1      46.971  31.708  27.339  1.00  0.00     0.031 C 
ATOM     68  C   UNL A   1      45.082  32.483  28.752  1.00  0.00     0.034 A 
BRANCH  55  69
ATOM     69  C   UNL A   1      39.490  30.871  30.839  1.00  0.00     0.023 A 
ATOM     70  C   UNL A   1      38.462  31.655  30.279  1.00  0.00     0.031 A 
ATOM     71  C   UNL A   1      39.458  30.624  32.224  1.00  0.00     0.131 A 
ATOM     72  C   UNL A   1      37.470  32.197  31.107  1.00  0.00     0.055 A 
ATOM     73  C   UNL A   1      38.444  31.135  33.038  1.00  0.00     0.041 A 
ATOM     74  F   UNL A   1      40.418  29.891  32.808  1.00  0.00    -0.206 F 
ATOM     75  C   UNL A   1      37.453  31.938  32.481  1.00  0.00     0.022 A 
BRANCH  72  76
ATOM     76  S   UNL A   1      36.205  33.319  30.449  1.00  0.00     0.124 S 
ATOM     77  O   UNL A   1      36.997  34.182  29.574  1.00  0.00    -0.237 OA
ATOM     78  O   UNL A   1      35.302  32.399  29.766  1.00  0.00    -0.237 OA
ATOM     79  O   UNL A   1      35.664  33.973  31.636  1.00  0.00    -0.744 OA
ENDBRANCH  72  76
ENDBRANCH  55  69
BRANCH  56  80
ATOM     80  C   UNL A   1      47.341  27.961  25.372  1.00  0.00     0.023 A 
ATOM     81  C   UNL A   1      47.421  28.123  23.977  1.00  0.00     0.031 A 
ATOM     82  C   UNL A   1      48.369  27.250  26.015  1.00  0.00     0.131 A 
ATOM     83  C   UNL A   1      48.472  27.528  23.267  1.00  0.00     0.055 A 
ATOM     84  C   UNL A   1      49.451  26.720  25.312  1.00  0.00     0.041 A 
ATOM     85  F   UNL A   1      48.327  27.054  27.343  1.00  0.00    -0.206 F 
ATOM     86  C   UNL A   1      49.496  26.844  23.927  1.00  0.00     0.022 A 
BRANCH  83  87
ATOM     87  S   UNL A   1      48.472  27.508  21.452  1.00  0.00     0.124 S 
ATOM     88  O   UNL A   1      47.156  28.060  21.143  1.00  0.00    -0.237 OA
ATOM     89  O   UNL A   1      49.608  28.373  21.145  1.00  0.00    -0.237 OA
ATOM     90  O   UNL A   1      48.660  26.099  21.124  1.00  0.00    -0.744 OA
ENDBRANCH  83  87
ENDBRANCH  56  80
BRANCH  68  91
ATOM     91  C   UNL A   1      45.826  33.767  29.047  1.00  0.00     0.023 A 
ATOM     92  C   UNL A   1      46.605  33.875  30.217  1.00  0.00     0.031 A 
ATOM     93  C   UNL A   1      45.650  34.920  28.262  1.00  0.00     0.131 A 
ATOM     94  C   UNL A   1      47.146  35.113  30.586  1.00  0.00     0.055 A 
ATOM     95  C   UNL A   1      46.233  36.140  28.608  1.00  0.00     0.041 A 
ATOM     96  F   UNL A   1      44.905  34.878  27.145  1.00  0.00    -0.206 F 
ATOM     97  C   UNL A   1      46.973  36.244  29.782  1.00  0.00     0.022 A 
BRANCH  94  98
ATOM     98  S   UNL A   1      48.012  35.326  32.167  1.00  0.00     0.124 S 
ATOM     99  O   UNL A   1      49.358  35.685  31.727  1.00  0.00    -0.237 OA
ATOM    100  O   UNL A   1      47.251  36.406  32.791  1.00  0.00    -0.237 OA
ATOM    101  O   UNL A   1      47.895  34.023  32.811  1.00  0.00    -0.744 OA
ENDBRANCH  94  98
ENDBRANCH  68  91
ENDBRANCH  42  43
ENDBRANCH  35  37
ENDBRANCH  34  35
ENDBRANCH  33  34
ENDBRANCH  32  33
ENDBRANCH  31  32
ENDBRANCH   1  31
TORSDOF 22
ENDMDL
