MODEL 1
REMARK VINA RESULT:     -11.7      0.000      0.000
REMARK SMILES COC(=O)c1sc(SCC(=O)OCCOCCOCCOC(=O)c2ccc(-c3c4nc(c(-c5cc(S(=O)(=O)[O-])ccc5F)c5ccc([nH]5)c(-c5cc(S(=O)(=O)[O-])ccc5F)c5nc(c(-c6cc(S(=O)(=O)[O-])ccc6F)c6ccc3[nH]6)C=C5)C=C4)cc2)c(NC(=O)c2ccccc2)c1O
REMARK SMILES IDX 16 1 15 2 14 3 13 4 12 5 10 6 11 7 9 8 8 9 7 10 5 11 6 12
REMARK SMILES IDX 97 13 87 14 3 15 4 16 2 17 1 18 98 19 88 21 89 22 90 24
REMARK SMILES IDX 91 25 92 26 96 27 93 28 95 29 94 30 17 31 18 32 19 33 20 34
REMARK SMILES IDX 21 35 22 36 23 37 24 38 25 39 86 40 26 41 85 42 27 43 28 44
REMARK SMILES IDX 29 45 79 46 30 47 84 48 78 49 80 50 31 51 83 52 77 53 76 54
REMARK SMILES IDX 32 56 64 57 44 58 63 59 45 60 48 61 62 62 81 63 46 64 47 65
REMARK SMILES IDX 61 67 82 68 49 69 33 70 34 71 42 72 35 73 41 74 43 75 40 76
REMARK SMILES IDX 36 77 37 78 38 79 39 80 65 81 66 82 74 83 67 84 73 85 75 86
REMARK SMILES IDX 72 87 68 88 69 89 70 90 71 91 50 92 51 93 59 94 52 95 58 96
REMARK SMILES IDX 60 97 57 98 53 99 54 100 55 101 56 102
REMARK H PARENT 98 20 88 23 80 55 48 66
REMARK Flexibility Score: inf
ROOT
ATOM      1  C   UNL A   1      37.368  21.071  25.384  1.00  0.00     0.188 C 
ENDROOT
BRANCH   1   2
ATOM      2  O   UNL A   1      36.047  20.656  25.018  1.00  0.00    -0.376 OA
BRANCH   2   3
ATOM      3  C   UNL A   1      35.098  21.708  24.817  1.00  0.00     0.202 C 
BRANCH   3   4
ATOM      4  C   UNL A   1      33.810  21.247  24.130  1.00  0.00     0.261 C 
BRANCH   4   5
ATOM      5  O   UNL A   1      33.043  22.369  23.642  1.00  0.00    -0.463 OA
BRANCH   5   6
ATOM      6  C   UNL A   1      31.850  22.624  24.277  1.00  0.00     0.316 C 
ATOM      7  O   UNL A   1      31.422  21.963  25.218  1.00  0.00    -0.251 OA
BRANCH   6   8
ATOM      8  C   UNL A   1      30.936  23.706  23.377  1.00  0.00     0.198 C 
BRANCH   8   9
ATOM      9  S   UNL A   1      29.466  25.708  24.073  1.00  0.00    -0.101 SA
BRANCH   9  10
ATOM     10  C   UNL A   1      29.590  27.285  23.199  1.00  0.00     0.089 A 
ATOM     11  C   UNL A   1      29.164  29.632  22.475  1.00  0.00     0.157 A 
ATOM     12  S   UNL A   1      28.340  28.449  23.407  1.00  0.00    -0.116 S 
ATOM     13  C   UNL A   1      30.433  29.185  22.166  1.00  0.00     0.166 A 
ATOM     14  C   UNL A   1      30.629  27.795  22.433  1.00  0.00     0.109 A 
BRANCH  11  15
ATOM     15  C   UNL A   1      28.474  30.863  22.127  1.00  0.00     0.352 C 
ATOM     16  O   UNL A   1      27.338  30.942  21.677  1.00  0.00    -0.245 OA
BRANCH  15  17
ATOM     17  O   UNL A   1      29.315  31.920  22.330  1.00  0.00    -0.465 OA
ATOM     18  C   UNL A   1      28.708  33.177  22.681  1.00  0.00     0.282 C 
ENDBRANCH  15  17
ENDBRANCH  11  15
BRANCH  13  19
ATOM     19  O   UNL A   1      31.377  29.944  21.563  1.00  0.00    -0.504 OA
ATOM     20  H   UNL A   1      31.159  30.798  21.246  1.00  0.00     0.293 HD
ENDBRANCH  13  19
BRANCH  14  21
ATOM     21  N   UNL A   1      31.738  27.114  21.934  1.00  0.00    -0.317 N 
ATOM     22  C   UNL A   1      32.928  26.897  22.579  1.00  0.00     0.255 C 
ATOM     23  H   UNL A   1      31.658  26.750  21.023  1.00  0.00     0.170 HD
ATOM     24  O   UNL A   1      33.875  26.314  22.071  1.00  0.00    -0.269 OA
BRANCH  22  25
ATOM     25  C   UNL A   1      33.029  27.405  23.956  1.00  0.00     0.040 A 
ATOM     26  C   UNL A   1      33.215  29.184  24.178  1.00  0.00     0.014 A 
ATOM     27  C   UNL A   1      32.435  26.376  25.338  1.00  0.00     0.014 A 
ATOM     28  C   UNL A   1      32.697  29.957  25.721  1.00  0.00     0.001 A 
ATOM     29  C   UNL A   1      31.890  27.152  26.868  1.00  0.00     0.001 A 
ATOM     30  C   UNL A   1      32.056  28.939  27.061  1.00  0.00     0.000 A 
ENDBRANCH  22  25
ENDBRANCH  14  21
ENDBRANCH   9  10
ENDBRANCH   8   9
ENDBRANCH   6   8
ENDBRANCH   5   6
ENDBRANCH   4   5
ENDBRANCH   3   4
ENDBRANCH   2   3
ENDBRANCH   1   2
BRANCH   1  31
ATOM     31  C   UNL A   1      37.524  22.593  25.425  1.00  0.00     0.188 C 
BRANCH  31  32
ATOM     32  O   UNL A   1      38.603  22.941  26.293  1.00  0.00    -0.376 OA
BRANCH  32  33
ATOM     33  C   UNL A   1      39.586  21.931  26.506  1.00  0.00     0.202 C 
BRANCH  33  34
ATOM     34  C   UNL A   1      41.034  22.415  26.350  1.00  0.00     0.261 C 
BRANCH  34  35
ATOM     35  O   UNL A   1      41.122  23.772  25.887  1.00  0.00    -0.460 OA
BRANCH  35  36
ATOM     36  C   UNL A   1      41.779  24.602  26.728  1.00  0.00     0.338 C 
ATOM     37  O   UNL A   1      42.982  24.602  26.947  1.00  0.00    -0.246 OA
BRANCH  36  38
ATOM     38  C   UNL A   1      40.866  25.615  27.280  1.00  0.00     0.060 A 
ATOM     39  C   UNL A   1      40.986  26.905  26.761  1.00  0.00     0.016 A 
ATOM     40  C   UNL A   1      40.030  25.368  28.368  1.00  0.00     0.016 A 
ATOM     41  C   UNL A   1      40.439  27.987  27.432  1.00  0.00     0.010 A 
ATOM     42  C   UNL A   1      39.457  26.453  29.034  1.00  0.00     0.010 A 
ATOM     43  C   UNL A   1      39.777  27.767  28.640  1.00  0.00    -0.014 A 
BRANCH  43  44
ATOM     44  C   UNL A   1      39.743  28.895  29.590  1.00  0.00     0.031 A 
ATOM     45  C   UNL A   1      38.581  29.827  29.660  1.00  0.00     0.074 A 
ATOM     46  C   UNL A   1      40.785  29.113  30.425  1.00  0.00     0.049 A 
ATOM     47  N   UNL A   1      38.617  31.126  29.699  1.00  0.00    -0.248 NA
ATOM     48  C   UNL A   1      37.226  29.267  29.733  1.00  0.00     0.031 C 
ATOM     49  C   UNL A   1      41.949  28.241  30.616  1.00  0.00     0.029 A 
ATOM     50  N   UNL A   1      40.965  30.090  31.370  1.00  0.00    -0.354 N 
ATOM     51  C   UNL A   1      37.325  31.545  30.002  1.00  0.00     0.074 A 
ATOM     52  C   UNL A   1      36.496  30.365  29.942  1.00  0.00     0.031 C 
ATOM     53  C   UNL A   1      42.554  28.563  31.773  1.00  0.00     0.029 A 
ATOM     54  C   UNL A   1      41.904  29.737  32.327  1.00  0.00     0.049 A 
ATOM     55  H   UNL A   1      40.482  30.947  31.370  1.00  0.00     0.167 HD
ATOM     56  C   UNL A   1      37.033  32.804  30.435  1.00  0.00     0.034 A 
ATOM     57  C   UNL A   1      42.117  30.287  33.543  1.00  0.00     0.034 A 
ATOM     58  C   UNL A   1      38.048  33.770  30.113  1.00  0.00     0.049 A 
ATOM     59  C   UNL A   1      41.684  31.697  33.524  1.00  0.00     0.074 A 
ATOM     60  C   UNL A   1      38.596  34.262  28.945  1.00  0.00     0.029 A 
ATOM     61  N   UNL A   1      38.811  34.282  31.132  1.00  0.00    -0.354 N 
ATOM     62  N   UNL A   1      42.281  32.636  32.846  1.00  0.00    -0.248 NA
ATOM     63  C   UNL A   1      40.396  32.068  34.096  1.00  0.00     0.031 C 
ATOM     64  C   UNL A   1      39.884  34.759  29.288  1.00  0.00     0.029 A 
ATOM     65  C   UNL A   1      40.077  34.505  30.645  1.00  0.00     0.049 A 
ATOM     66  H   UNL A   1      38.506  34.459  32.051  1.00  0.00     0.167 HD
ATOM     67  C   UNL A   1      41.290  33.555  32.570  1.00  0.00     0.074 A 
ATOM     68  C   UNL A   1      40.219  33.250  33.504  1.00  0.00     0.031 C 
ATOM     69  C   UNL A   1      41.290  34.250  31.397  1.00  0.00     0.034 A 
BRANCH  56  70
ATOM     70  C   UNL A   1      35.875  33.138  31.343  1.00  0.00     0.023 A 
ATOM     71  C   UNL A   1      34.923  34.101  30.949  1.00  0.00     0.031 A 
ATOM     72  C   UNL A   1      35.807  32.710  32.687  1.00  0.00     0.131 A 
ATOM     73  C   UNL A   1      33.956  34.572  31.858  1.00  0.00     0.055 A 
ATOM     74  C   UNL A   1      34.811  33.137  33.571  1.00  0.00     0.041 A 
ATOM     75  F   UNL A   1      36.751  31.923  33.224  1.00  0.00    -0.206 F 
ATOM     76  C   UNL A   1      33.881  34.079  33.160  1.00  0.00     0.022 A 
BRANCH  73  77
ATOM     77  S   UNL A   1      32.879  35.954  31.377  1.00  0.00     0.124 S 
ATOM     78  O   UNL A   1      31.629  35.623  32.053  1.00  0.00    -0.237 OA
ATOM     79  O   UNL A   1      33.611  37.102  31.901  1.00  0.00    -0.237 OA
ATOM     80  O   UNL A   1      32.836  35.858  29.919  1.00  0.00    -0.744 OA
ENDBRANCH  73  77
ENDBRANCH  56  70
BRANCH  57  81
ATOM     81  C   UNL A   1      42.542  29.561  34.761  1.00  0.00     0.023 A 
ATOM     82  C   UNL A   1      41.835  28.448  35.243  1.00  0.00     0.031 A 
ATOM     83  C   UNL A   1      43.789  29.841  35.368  1.00  0.00     0.131 A 
ATOM     84  C   UNL A   1      42.364  27.683  36.302  1.00  0.00     0.055 A 
ATOM     85  C   UNL A   1      44.290  29.105  36.441  1.00  0.00     0.041 A 
ATOM     86  F   UNL A   1      44.604  30.793  34.886  1.00  0.00    -0.206 F 
ATOM     87  C   UNL A   1      43.579  28.015  36.910  1.00  0.00     0.022 A 
BRANCH  84  88
ATOM     88  S   UNL A   1      41.544  26.142  36.802  1.00  0.00     0.124 S 
ATOM     89  O   UNL A   1      42.655  25.364  37.339  1.00  0.00    -0.237 OA
ATOM     90  O   UNL A   1      40.552  26.607  37.764  1.00  0.00    -0.237 OA
ATOM     91  O   UNL A   1      40.986  25.639  35.546  1.00  0.00    -0.744 OA
ENDBRANCH  84  88
ENDBRANCH  57  81
BRANCH  69  92
ATOM     92  C   UNL A   1      42.607  34.435  30.686  1.00  0.00     0.023 A 
ATOM     93  C   UNL A   1      43.473  35.522  30.918  1.00  0.00     0.031 A 
ATOM     94  C   UNL A   1      43.044  33.417  29.822  1.00  0.00     0.131 A 
ATOM     95  C   UNL A   1      44.725  35.573  30.281  1.00  0.00     0.055 A 
ATOM     96  C   UNL A   1      44.290  33.466  29.194  1.00  0.00     0.041 A 
ATOM     97  F   UNL A   1      42.276  32.337  29.597  1.00  0.00    -0.206 F 
ATOM     98  C   UNL A   1      45.134  34.549  29.419  1.00  0.00     0.022 A 
BRANCH  95  99
ATOM     99  S   UNL A   1      45.843  36.975  30.589  1.00  0.00     0.124 S 
ATOM    100  O   UNL A   1      45.264  38.052  29.792  1.00  0.00    -0.237 OA
ATOM    101  O   UNL A   1      45.761  37.138  32.040  1.00  0.00    -0.237 OA
ATOM    102  O   UNL A   1      47.138  36.491  30.108  1.00  0.00    -0.744 OA
ENDBRANCH  95  99
ENDBRANCH  69  92
ENDBRANCH  43  44
ENDBRANCH  36  38
ENDBRANCH  35  36
ENDBRANCH  34  35
ENDBRANCH  33  34
ENDBRANCH  32  33
ENDBRANCH  31  32
ENDBRANCH   1  31
TORSDOF 27
ENDMDL
MODEL 2
REMARK VINA RESULT:     -10.8      1.589      1.840
REMARK SMILES COC(=O)c1sc(SCC(=O)OCCOCCOCCOC(=O)c2ccc(-c3c4nc(c(-c5cc(S(=O)(=O)[O-])ccc5F)c5ccc([nH]5)c(-c5cc(S(=O)(=O)[O-])ccc5F)c5nc(c(-c6cc(S(=O)(=O)[O-])ccc6F)c6ccc3[nH]6)C=C5)C=C4)cc2)c(NC(=O)c2ccccc2)c1O
REMARK SMILES IDX 16 1 15 2 14 3 13 4 12 5 10 6 11 7 9 8 8 9 7 10 5 11 6 12
REMARK SMILES IDX 97 13 87 14 3 15 4 16 2 17 1 18 98 19 88 21 89 22 90 24
REMARK SMILES IDX 91 25 92 26 96 27 93 28 95 29 94 30 17 31 18 32 19 33 20 34
REMARK SMILES IDX 21 35 22 36 23 37 24 38 25 39 86 40 26 41 85 42 27 43 28 44
REMARK SMILES IDX 29 45 79 46 30 47 84 48 78 49 80 50 31 51 83 52 77 53 76 54
REMARK SMILES IDX 32 56 64 57 44 58 63 59 45 60 48 61 62 62 81 63 46 64 47 65
REMARK SMILES IDX 61 67 82 68 49 69 33 70 34 71 42 72 35 73 41 74 43 75 40 76
REMARK SMILES IDX 36 77 37 78 38 79 39 80 65 81 66 82 74 83 67 84 73 85 75 86
REMARK SMILES IDX 72 87 68 88 69 89 70 90 71 91 50 92 51 93 59 94 52 95 58 96
REMARK SMILES IDX 60 97 57 98 53 99 54 100 55 101 56 102
REMARK H PARENT 98 20 88 23 80 55 48 66
REMARK Flexibility Score: inf
ROOT
ATOM      1  C   UNL A   1      37.220  21.156  25.062  1.00  0.00     0.188 C 
ENDROOT
BRANCH   1   2
ATOM      2  O   UNL A   1      35.977  20.940  24.386  1.00  0.00    -0.376 OA
BRANCH   2   3
ATOM      3  C   UNL A   1      34.799  21.277  25.127  1.00  0.00     0.202 C 
BRANCH   3   4
ATOM      4  C   UNL A   1      33.528  21.311  24.274  1.00  0.00     0.261 C 
BRANCH   4   5
ATOM      5  O   UNL A   1      33.003  22.652  24.166  1.00  0.00    -0.463 OA
BRANCH   5   6
ATOM      6  C   UNL A   1      31.740  22.861  24.668  1.00  0.00     0.316 C 
ATOM      7  O   UNL A   1      31.257  22.218  25.595  1.00  0.00    -0.251 OA
BRANCH   6   8
ATOM      8  C   UNL A   1      30.861  23.843  23.629  1.00  0.00     0.198 C 
BRANCH   8   9
ATOM      9  S   UNL A   1      29.294  25.844  24.069  1.00  0.00    -0.101 SA
BRANCH   9  10
ATOM     10  C   UNL A   1      29.532  27.406  23.191  1.00  0.00     0.089 A 
ATOM     11  C   UNL A   1      29.233  29.755  22.412  1.00  0.00     0.157 A 
ATOM     12  S   UNL A   1      28.305  28.608  23.290  1.00  0.00    -0.116 S 
ATOM     13  C   UNL A   1      30.508  29.267  22.205  1.00  0.00     0.166 A 
ATOM     14  C   UNL A   1      30.641  27.875  22.501  1.00  0.00     0.109 A 
BRANCH  11  15
ATOM     15  C   UNL A   1      28.609  31.000  22.000  1.00  0.00     0.352 C 
ATOM     16  O   UNL A   1      28.233  31.270  20.866  1.00  0.00    -0.245 OA
BRANCH  15  17
ATOM     17  O   UNL A   1      28.557  31.850  23.068  1.00  0.00    -0.465 OA
ATOM     18  C   UNL A   1      28.982  33.207  22.844  1.00  0.00     0.282 C 
ENDBRANCH  15  17
ENDBRANCH  11  15
BRANCH  13  19
ATOM     19  O   UNL A   1      31.517  29.990  21.669  1.00  0.00    -0.504 OA
ATOM     20  H   UNL A   1      31.794  30.785  22.080  1.00  0.00     0.293 HD
ENDBRANCH  13  19
BRANCH  14  21
ATOM     21  N   UNL A   1      31.764  27.156  22.096  1.00  0.00    -0.317 N 
ATOM     22  C   UNL A   1      32.904  26.932  22.824  1.00  0.00     0.255 C 
ATOM     23  H   UNL A   1      31.735  26.767  21.192  1.00  0.00     0.170 HD
ATOM     24  O   UNL A   1      33.868  26.313  22.395  1.00  0.00    -0.269 OA
BRANCH  22  25
ATOM     25  C   UNL A   1      32.926  27.476  24.190  1.00  0.00     0.040 A 
ATOM     26  C   UNL A   1      33.158  29.254  24.375  1.00  0.00     0.014 A 
ATOM     27  C   UNL A   1      32.201  26.509  25.555  1.00  0.00     0.014 A 
ATOM     28  C   UNL A   1      32.561  30.090  25.856  1.00  0.00     0.001 A 
ATOM     29  C   UNL A   1      31.579  27.349  27.019  1.00  0.00     0.001 A 
ATOM     30  C   UNL A   1      31.794  29.134  27.175  1.00  0.00     0.000 A 
ENDBRANCH  22  25
ENDBRANCH  14  21
ENDBRANCH   9  10
ENDBRANCH   8   9
ENDBRANCH   6   8
ENDBRANCH   5   6
ENDBRANCH   4   5
ENDBRANCH   3   4
ENDBRANCH   2   3
ENDBRANCH   1   2
BRANCH   1  31
ATOM     31  C   UNL A   1      37.345  22.567  25.643  1.00  0.00     0.188 C 
BRANCH  31  32
ATOM     32  O   UNL A   1      38.548  22.667  26.405  1.00  0.00    -0.376 OA
BRANCH  32  33
ATOM     33  C   UNL A   1      39.526  21.657  26.167  1.00  0.00     0.202 C 
BRANCH  33  34
ATOM     34  C   UNL A   1      40.976  22.155  26.226  1.00  0.00     0.261 C 
BRANCH  34  35
ATOM     35  O   UNL A   1      41.072  23.584  26.350  1.00  0.00    -0.460 OA
BRANCH  35  36
ATOM     36  C   UNL A   1      41.362  24.013  27.598  1.00  0.00     0.338 C 
ATOM     37  O   UNL A   1      42.107  23.460  28.395  1.00  0.00    -0.246 OA
BRANCH  36  38
ATOM     38  C   UNL A   1      40.748  25.325  27.855  1.00  0.00     0.060 A 
ATOM     39  C   UNL A   1      41.449  26.438  27.387  1.00  0.00     0.016 A 
ATOM     40  C   UNL A   1      39.617  25.488  28.653  1.00  0.00     0.016 A 
ATOM     41  C   UNL A   1      41.155  27.706  27.864  1.00  0.00     0.010 A 
ATOM     42  C   UNL A   1      39.303  26.767  29.117  1.00  0.00     0.010 A 
ATOM     43  C   UNL A   1      40.156  27.850  28.827  1.00  0.00    -0.014 A 
BRANCH  43  44
ATOM     44  C   UNL A   1      40.263  29.019  29.720  1.00  0.00     0.031 A 
ATOM     45  C   UNL A   1      39.103  29.920  29.975  1.00  0.00     0.074 A 
ATOM     46  C   UNL A   1      41.437  29.304  30.330  1.00  0.00     0.049 A 
ATOM     47  N   UNL A   1      39.098  31.219  29.954  1.00  0.00    -0.248 NA
ATOM     48  C   UNL A   1      37.808  29.326  30.329  1.00  0.00     0.031 C 
ATOM     49  C   UNL A   1      42.647  28.475  30.329  1.00  0.00     0.029 A 
ATOM     50  N   UNL A   1      41.759  30.328  31.183  1.00  0.00    -0.354 N 
ATOM     51  C   UNL A   1      37.874  31.616  30.483  1.00  0.00     0.074 A 
ATOM     52  C   UNL A   1      37.091  30.411  30.630  1.00  0.00     0.031 C 
ATOM     53  C   UNL A   1      43.450  28.867  31.333  1.00  0.00     0.029 A 
ATOM     54  C   UNL A   1      42.875  30.046  31.955  1.00  0.00     0.049 A 
ATOM     55  H   UNL A   1      41.253  31.171  31.241  1.00  0.00     0.167 HD
ATOM     56  C   UNL A   1      37.624  32.885  30.913  1.00  0.00     0.034 A 
ATOM     57  C   UNL A   1      43.296  30.658  33.084  1.00  0.00     0.034 A 
ATOM     58  C   UNL A   1      38.523  33.863  30.364  1.00  0.00     0.049 A 
ATOM     59  C   UNL A   1      42.816  32.052  33.093  1.00  0.00     0.074 A 
ATOM     60  C   UNL A   1      38.819  34.315  29.094  1.00  0.00     0.029 A 
ATOM     61  N   UNL A   1      39.447  34.442  31.196  1.00  0.00    -0.354 N 
ATOM     62  N   UNL A   1      43.238  32.975  32.276  1.00  0.00    -0.248 NA
ATOM     63  C   UNL A   1      41.648  32.413  33.886  1.00  0.00     0.031 C 
ATOM     64  C   UNL A   1      40.130  34.864  29.163  1.00  0.00     0.029 A 
ATOM     65  C   UNL A   1      40.588  34.679  30.466  1.00  0.00     0.049 A 
ATOM     66  H   UNL A   1      39.317  34.653  32.149  1.00  0.00     0.167 HD
ATOM     67  C   UNL A   1      42.179  33.852  32.159  1.00  0.00     0.074 A 
ATOM     68  C   UNL A   1      41.318  33.561  33.293  1.00  0.00     0.031 C 
ATOM     69  C   UNL A   1      41.930  34.492  30.981  1.00  0.00     0.034 A 
BRANCH  56  70
ATOM     70  C   UNL A   1      36.649  33.228  32.013  1.00  0.00     0.023 A 
ATOM     71  C   UNL A   1      35.529  34.038  31.737  1.00  0.00     0.031 A 
ATOM     72  C   UNL A   1      36.913  32.976  33.378  1.00  0.00     0.131 A 
ATOM     73  C   UNL A   1      34.723  34.534  32.780  1.00  0.00     0.055 A 
ATOM     74  C   UNL A   1      36.079  33.422  34.408  1.00  0.00     0.041 A 
ATOM     75  F   UNL A   1      38.035  32.357  33.774  1.00  0.00    -0.206 F 
ATOM     76  C   UNL A   1      34.980  34.212  34.112  1.00  0.00     0.022 A 
BRANCH  73  77
ATOM     77  S   UNL A   1      33.414  35.735  32.401  1.00  0.00     0.124 S 
ATOM     78  O   UNL A   1      32.204  34.931  32.546  1.00  0.00    -0.237 OA
ATOM     79  O   UNL A   1      33.636  36.754  33.422  1.00  0.00    -0.237 OA
ATOM     80  O   UNL A   1      33.719  36.149  31.033  1.00  0.00    -0.744 OA
ENDBRANCH  73  77
ENDBRANCH  56  70
BRANCH  57  81
ATOM     81  C   UNL A   1      43.971  30.001  34.227  1.00  0.00     0.023 A 
ATOM     82  C   UNL A   1      43.332  29.015  34.996  1.00  0.00     0.031 A 
ATOM     83  C   UNL A   1      45.353  30.199  34.457  1.00  0.00     0.131 A 
ATOM     84  C   UNL A   1      44.063  28.295  35.963  1.00  0.00     0.055 A 
ATOM     85  C   UNL A   1      46.062  29.512  35.440  1.00  0.00     0.041 A 
ATOM     86  F   UNL A   1      46.083  31.012  33.676  1.00  0.00    -0.206 F 
ATOM     87  C   UNL A   1      45.418  28.549  36.197  1.00  0.00     0.022 A 
BRANCH  84  88
ATOM     88  S   UNL A   1      43.286  26.900  36.828  1.00  0.00     0.124 S 
ATOM     89  O   UNL A   1      41.900  27.340  36.936  1.00  0.00    -0.237 OA
ATOM     90  O   UNL A   1      43.544  25.783  35.926  1.00  0.00    -0.237 OA
ATOM     91  O   UNL A   1      44.019  26.843  38.093  1.00  0.00    -0.744 OA
ENDBRANCH  84  88
ENDBRANCH  57  81
BRANCH  69  92
ATOM     92  C   UNL A   1      43.079  34.682  30.023  1.00  0.00     0.023 A 
ATOM     93  C   UNL A   1      43.369  33.795  28.966  1.00  0.00     0.031 A 
ATOM     94  C   UNL A   1      43.839  35.859  30.123  1.00  0.00     0.131 A 
ATOM     95  C   UNL A   1      44.403  34.093  28.061  1.00  0.00     0.055 A 
ATOM     96  C   UNL A   1      44.863  36.156  29.220  1.00  0.00     0.041 A 
ATOM     97  F   UNL A   1      43.579  36.760  31.086  1.00  0.00    -0.206 F 
ATOM     98  C   UNL A   1      45.151  35.269  28.187  1.00  0.00     0.022 A 
BRANCH  95  99
ATOM     99  S   UNL A   1      44.769  32.949  26.695  1.00  0.00     0.124 S 
ATOM    100  O   UNL A   1      46.091  33.371  26.245  1.00  0.00    -0.237 OA
ATOM    101  O   UNL A   1      44.703  31.641  27.345  1.00  0.00    -0.237 OA
ATOM    102  O   UNL A   1      43.690  33.203  25.739  1.00  0.00    -0.744 OA
ENDBRANCH  95  99
ENDBRANCH  69  92
ENDBRANCH  43  44
ENDBRANCH  36  38
ENDBRANCH  35  36
ENDBRANCH  34  35
ENDBRANCH  33  34
ENDBRANCH  32  33
ENDBRANCH  31  32
ENDBRANCH   1  31
TORSDOF 27
ENDMDL
MODEL 3
REMARK VINA RESULT:     -10.3      2.638      8.667
REMARK SMILES COC(=O)c1sc(SCC(=O)OCCOCCOCCOC(=O)c2ccc(-c3c4nc(c(-c5cc(S(=O)(=O)[O-])ccc5F)c5ccc([nH]5)c(-c5cc(S(=O)(=O)[O-])ccc5F)c5nc(c(-c6cc(S(=O)(=O)[O-])ccc6F)c6ccc3[nH]6)C=C5)C=C4)cc2)c(NC(=O)c2ccccc2)c1O
REMARK SMILES IDX 16 1 15 2 14 3 13 4 12 5 10 6 11 7 9 8 8 9 7 10 5 11 6 12
REMARK SMILES IDX 97 13 87 14 3 15 4 16 2 17 1 18 98 19 88 21 89 22 90 24
REMARK SMILES IDX 91 25 92 26 96 27 93 28 95 29 94 30 17 31 18 32 19 33 20 34
REMARK SMILES IDX 21 35 22 36 23 37 24 38 25 39 86 40 26 41 85 42 27 43 28 44
REMARK SMILES IDX 29 45 79 46 30 47 84 48 78 49 80 50 31 51 83 52 77 53 76 54
REMARK SMILES IDX 32 56 64 57 44 58 63 59 45 60 48 61 62 62 81 63 46 64 47 65
REMARK SMILES IDX 61 67 82 68 49 69 33 70 34 71 42 72 35 73 41 74 43 75 40 76
REMARK SMILES IDX 36 77 37 78 38 79 39 80 65 81 66 82 74 83 67 84 73 85 75 86
REMARK SMILES IDX 72 87 68 88 69 89 70 90 71 91 50 92 51 93 59 94 52 95 58 96
REMARK SMILES IDX 60 97 57 98 53 99 54 100 55 101 56 102
REMARK H PARENT 98 20 88 23 80 55 48 66
REMARK Flexibility Score: inf
ROOT
ATOM      1  C   UNL A   1      35.597  33.994  28.562  1.00  0.00     0.188 C 
ENDROOT
BRANCH   1   2
ATOM      2  O   UNL A   1      35.850  32.906  27.667  1.00  0.00    -0.376 OA
BRANCH   2   3
ATOM      3  C   UNL A   1      35.575  31.599  28.183  1.00  0.00     0.202 C 
BRANCH   3   4
ATOM      4  C   UNL A   1      34.611  30.789  27.312  1.00  0.00     0.261 C 
BRANCH   4   5
ATOM      5  O   UNL A   1      33.326  31.439  27.206  1.00  0.00    -0.463 OA
BRANCH   5   6
ATOM      6  C   UNL A   1      32.256  30.640  26.876  1.00  0.00     0.316 C 
ATOM      7  O   UNL A   1      31.151  31.070  26.563  1.00  0.00    -0.251 OA
BRANCH   6   8
ATOM      8  C   UNL A   1      32.575  29.046  27.296  1.00  0.00     0.198 C 
BRANCH   8   9
ATOM      9  S   UNL A   1      31.136  26.910  27.157  1.00  0.00    -0.101 SA
BRANCH   9  10
ATOM     10  C   UNL A   1      31.383  25.723  25.817  1.00  0.00     0.089 A 
ATOM     11  C   UNL A   1      32.307  23.858  24.445  1.00  0.00     0.157 A 
ATOM     12  S   UNL A   1      32.817  24.771  25.806  1.00  0.00    -0.116 S 
ATOM     13  C   UNL A   1      31.001  24.176  24.129  1.00  0.00     0.166 A 
ATOM     14  C   UNL A   1      30.521  25.344  24.798  1.00  0.00     0.109 A 
BRANCH  11  15
ATOM     15  C   UNL A   1      33.246  22.944  23.817  1.00  0.00     0.352 C 
ATOM     16  O   UNL A   1      33.066  22.347  22.764  1.00  0.00    -0.245 OA
BRANCH  15  17
ATOM     17  O   UNL A   1      34.345  22.811  24.618  1.00  0.00    -0.465 OA
ATOM     18  C   UNL A   1      35.010  21.535  24.606  1.00  0.00     0.282 C 
ENDBRANCH  15  17
ENDBRANCH  11  15
BRANCH  13  19
ATOM     19  O   UNL A   1      30.268  23.526  23.197  1.00  0.00    -0.504 OA
ATOM     20  H   UNL A   1      29.340  23.644  23.165  1.00  0.00     0.293 HD
ENDBRANCH  13  19
BRANCH  14  21
ATOM     21  N   UNL A   1      29.340  25.968  24.400  1.00  0.00    -0.317 N 
ATOM     22  C   UNL A   1      29.220  27.033  23.545  1.00  0.00     0.255 C 
ATOM     23  H   UNL A   1      28.504  25.606  24.772  1.00  0.00     0.170 HD
ATOM     24  O   UNL A   1      28.151  27.552  23.259  1.00  0.00    -0.269 OA
BRANCH  22  25
ATOM     25  C   UNL A   1      30.468  27.543  22.957  1.00  0.00     0.040 A 
ATOM     26  C   UNL A   1      31.318  28.873  23.828  1.00  0.00     0.014 A 
ATOM     27  C   UNL A   1      31.378  26.521  21.752  1.00  0.00     0.014 A 
ATOM     28  C   UNL A   1      33.090  29.109  23.600  1.00  0.00     0.001 A 
ATOM     29  C   UNL A   1      33.153  26.739  21.549  1.00  0.00     0.001 A 
ATOM     30  C   UNL A   1      33.993  28.056  22.452  1.00  0.00     0.000 A 
ENDBRANCH  22  25
ENDBRANCH  14  21
ENDBRANCH   9  10
ENDBRANCH   8   9
ENDBRANCH   6   8
ENDBRANCH   5   6
ENDBRANCH   4   5
ENDBRANCH   3   4
ENDBRANCH   2   3
ENDBRANCH   1   2
BRANCH   1  31
ATOM     31  C   UNL A   1      34.131  34.434  28.565  1.00  0.00     0.188 C 
BRANCH  31  32
ATOM     32  O   UNL A   1      34.055  35.851  28.721  1.00  0.00    -0.376 OA
BRANCH  32  33
ATOM     33  C   UNL A   1      32.854  36.353  29.300  1.00  0.00     0.202 C 
BRANCH  33  34
ATOM     34  C   UNL A   1      32.972  36.712  30.788  1.00  0.00     0.261 C 
BRANCH  34  35
ATOM     35  O   UNL A   1      33.984  35.950  31.468  1.00  0.00    -0.460 OA
BRANCH  35  36
ATOM     36  C   UNL A   1      33.497  35.023  32.323  1.00  0.00     0.338 C 
ATOM     37  O   UNL A   1      32.316  34.815  32.563  1.00  0.00    -0.246 OA
BRANCH  36  38
ATOM     38  C   UNL A   1      34.582  34.188  32.861  1.00  0.00     0.060 A 
ATOM     39  C   UNL A   1      35.560  34.848  33.607  1.00  0.00     0.016 A 
ATOM     40  C   UNL A   1      34.737  32.843  32.529  1.00  0.00     0.016 A 
ATOM     41  C   UNL A   1      36.781  34.243  33.859  1.00  0.00     0.010 A 
ATOM     42  C   UNL A   1      35.957  32.221  32.802  1.00  0.00     0.010 A 
ATOM     43  C   UNL A   1      37.021  32.968  33.345  1.00  0.00    -0.014 A 
BRANCH  43  44
ATOM     44  C   UNL A   1      38.430  32.609  33.100  1.00  0.00     0.031 A 
ATOM     45  C   UNL A   1      39.445  32.624  34.192  1.00  0.00     0.074 A 
ATOM     46  C   UNL A   1      38.836  32.259  31.858  1.00  0.00     0.049 A 
ATOM     47  N   UNL A   1      40.635  33.145  34.152  1.00  0.00    -0.248 NA
ATOM     48  C   UNL A   1      39.130  31.960  35.463  1.00  0.00     0.031 C 
ATOM     49  C   UNL A   1      37.981  32.042  30.686  1.00  0.00     0.029 A 
ATOM     50  N   UNL A   1      40.081  31.897  31.409  1.00  0.00    -0.354 N 
ATOM     51  C   UNL A   1      41.294  32.709  35.297  1.00  0.00     0.074 A 
ATOM     52  C   UNL A   1      40.298  32.041  36.103  1.00  0.00     0.031 C 
ATOM     53  C   UNL A   1      38.665  31.339  29.767  1.00  0.00     0.029 A 
ATOM     54  C   UNL A   1      40.032  31.175  30.228  1.00  0.00     0.049 A 
ATOM     55  H   UNL A   1      40.918  32.127  31.874  1.00  0.00     0.167 HD
ATOM     56  C   UNL A   1      42.646  32.783  35.452  1.00  0.00     0.034 A 
ATOM     57  C   UNL A   1      40.993  30.410  29.666  1.00  0.00     0.034 A 
ATOM     58  C   UNL A   1      43.271  33.741  34.582  1.00  0.00     0.049 A 
ATOM     59  C   UNL A   1      42.318  30.900  30.091  1.00  0.00     0.074 A 
ATOM     60  C   UNL A   1      43.182  35.107  34.407  1.00  0.00     0.029 A 
ATOM     61  N   UNL A   1      44.052  33.279  33.553  1.00  0.00    -0.354 N 
ATOM     62  N   UNL A   1      42.826  32.042  29.724  1.00  0.00    -0.248 NA
ATOM     63  C   UNL A   1      43.041  30.212  31.152  1.00  0.00     0.031 C 
ATOM     64  C   UNL A   1      43.615  35.368  33.077  1.00  0.00     0.029 A 
ATOM     65  C   UNL A   1      43.906  34.138  32.489  1.00  0.00     0.049 A 
ATOM     66  H   UNL A   1      44.619  32.474  33.572  1.00  0.00     0.167 HD
ATOM     67  C   UNL A   1      43.669  32.399  30.757  1.00  0.00     0.074 A 
ATOM     68  C   UNL A   1      43.898  31.172  31.502  1.00  0.00     0.031 C 
ATOM     69  C   UNL A   1      43.829  33.707  31.107  1.00  0.00     0.034 A 
BRANCH  56  70
ATOM     70  C   UNL A   1      43.454  31.822  36.290  1.00  0.00     0.023 A 
ATOM     71  C   UNL A   1      43.548  30.466  35.917  1.00  0.00     0.031 A 
ATOM     72  C   UNL A   1      43.943  32.148  37.574  1.00  0.00     0.131 A 
ATOM     73  C   UNL A   1      44.123  29.517  36.785  1.00  0.00     0.055 A 
ATOM     74  C   UNL A   1      44.565  31.216  38.410  1.00  0.00     0.041 A 
ATOM     75  F   UNL A   1      43.764  33.367  38.106  1.00  0.00    -0.206 F 
ATOM     76  C   UNL A   1      44.651  29.889  38.020  1.00  0.00     0.022 A 
BRANCH  73  77
ATOM     77  S   UNL A   1      44.043  27.753  36.356  1.00  0.00     0.124 S 
ATOM     78  O   UNL A   1      45.440  27.439  36.074  1.00  0.00    -0.237 OA
ATOM     79  O   UNL A   1      43.485  27.173  37.573  1.00  0.00    -0.237 OA
ATOM     80  O   UNL A   1      43.158  27.727  35.192  1.00  0.00    -0.744 OA
ENDBRANCH  73  77
ENDBRANCH  56  70
BRANCH  57  81
ATOM     81  C   UNL A   1      40.772  29.164  28.897  1.00  0.00     0.023 A 
ATOM     82  C   UNL A   1      41.413  28.928  27.670  1.00  0.00     0.031 A 
ATOM     83  C   UNL A   1      40.063  28.081  29.469  1.00  0.00     0.131 A 
ATOM     84  C   UNL A   1      41.310  27.665  27.054  1.00  0.00     0.055 A 
ATOM     85  C   UNL A   1      39.932  26.846  28.837  1.00  0.00     0.041 A 
ATOM     86  F   UNL A   1      39.540  28.161  30.703  1.00  0.00    -0.206 F 
ATOM     87  C   UNL A   1      40.562  26.630  27.625  1.00  0.00     0.022 A 
BRANCH  84  88
ATOM     88  S   UNL A   1      42.285  27.303  25.565  1.00  0.00     0.124 S 
ATOM     89  O   UNL A   1      42.207  28.563  24.835  1.00  0.00    -0.237 OA
ATOM     90  O   UNL A   1      43.588  26.951  26.116  1.00  0.00    -0.237 OA
ATOM     91  O   UNL A   1      41.560  26.187  24.955  1.00  0.00    -0.744 OA
ENDBRANCH  84  88
ENDBRANCH  57  81
BRANCH  69  92
ATOM     92  C   UNL A   1      43.553  34.757  30.061  1.00  0.00     0.023 A 
ATOM     93  C   UNL A   1      44.555  35.355  29.271  1.00  0.00     0.031 A 
ATOM     94  C   UNL A   1      42.214  35.082  29.784  1.00  0.00     0.131 A 
ATOM     95  C   UNL A   1      44.204  36.259  28.254  1.00  0.00     0.055 A 
ATOM     96  C   UNL A   1      41.866  35.976  28.770  1.00  0.00     0.041 A 
ATOM     97  F   UNL A   1      41.216  34.509  30.479  1.00  0.00    -0.206 F 
ATOM     98  C   UNL A   1      42.863  36.573  28.003  1.00  0.00     0.022 A 
BRANCH  95  99
ATOM     99  S   UNL A   1      45.501  37.024  27.232  1.00  0.00     0.124 S 
ATOM    100  O   UNL A   1      46.002  35.912  26.432  1.00  0.00    -0.237 OA
ATOM    101  O   UNL A   1      44.767  38.057  26.503  1.00  0.00    -0.237 OA
ATOM    102  O   UNL A   1      46.450  37.541  28.219  1.00  0.00    -0.744 OA
ENDBRANCH  95  99
ENDBRANCH  69  92
ENDBRANCH  43  44
ENDBRANCH  36  38
ENDBRANCH  35  36
ENDBRANCH  34  35
ENDBRANCH  33  34
ENDBRANCH  32  33
ENDBRANCH  31  32
ENDBRANCH   1  31
TORSDOF 27
ENDMDL
