MODEL 1
REMARK VINA RESULT:      -9.1      0.000      0.000
REMARK SMILES C[C@@H](C(=O)OCCOCCOCCOC(=O)c1ccc(-c2c3nc(c(-c4cc(S(=O)(=O)[O-])ccc4F)c4ccc([nH]4)c(-c4cc(S(=O)(=O)[O-])ccc4F)c4nc(c(-c5cc(S(=O)(=O)[O-])ccc5F)c5ccc2[nH]5)C=C4)C=C3)cc1)[C@H](C)[N@@H+]1C[C@H]2C[NH2+]C[C@@H]2[C@@H]1C
REMARK SMILES IDX 10 1 9 2 8 3 7 4 6 5 5 6 3 7 4 8 2 9 1 10 80 11 81 12 82 13
REMARK SMILES IDX 83 14 89 15 84 17 88 18 90 19 85 20 87 21 86 22 11 25 12 26
REMARK SMILES IDX 13 27 14 28 15 29 16 30 17 31 18 32 79 33 19 34 78 35 20 36
REMARK SMILES IDX 21 37 22 38 72 39 23 40 77 41 71 42 73 43 24 44 76 45 70 46
REMARK SMILES IDX 69 47 25 49 57 50 37 51 56 52 38 53 41 54 55 55 74 56 39 57
REMARK SMILES IDX 40 58 54 60 75 61 42 62 26 63 27 64 35 65 28 66 34 67 36 68
REMARK SMILES IDX 33 69 29 70 30 71 31 72 32 73 58 74 59 75 67 76 60 77 66 78
REMARK SMILES IDX 68 79 65 80 61 81 62 82 63 83 64 84 43 85 44 86 52 87 45 88
REMARK SMILES IDX 51 89 53 90 50 91 46 92 47 93 48 94 49 95
REMARK H PARENT 82 16 86 23 86 24 73 48 41 59
REMARK Flexibility Score: inf
ROOT
ATOM      1  C   UNL A   1      35.257  32.752  28.371  1.00  0.00     0.188 C 
ENDROOT
BRANCH   1   2
ATOM      2  C   UNL A   1      34.646  31.411  27.917  1.00  0.00     0.188 C 
BRANCH   2   3
ATOM      3  O   UNL A   1      33.318  31.401  27.401  1.00  0.00    -0.376 OA
BRANCH   3   4
ATOM      4  C   UNL A   1      32.689  30.143  27.171  1.00  0.00     0.202 C 
BRANCH   4   5
ATOM      5  C   UNL A   1      33.560  28.911  26.846  1.00  0.00     0.261 C 
BRANCH   5   6
ATOM      6  O   UNL A   1      32.817  27.683  26.704  1.00  0.00    -0.463 OA
BRANCH   6   7
ATOM      7  C   UNL A   1      32.341  27.382  25.468  1.00  0.00     0.314 C 
ATOM      8  O   UNL A   1      31.711  28.168  24.770  1.00  0.00    -0.252 OA
BRANCH   7   9
ATOM      9  C   UNL A   1      32.701  25.955  25.011  1.00  0.00     0.154 C 
ATOM     10  C   UNL A   1      33.464  26.039  23.676  1.00  0.00     0.026 C 
BRANCH   9  11
ATOM     11  C   UNL A   1      31.496  24.923  25.053  1.00  0.00     0.195 C 
ATOM     12  C   UNL A   1      30.348  25.495  25.914  1.00  0.00     0.076 C 
BRANCH  11  13
ATOM     13  N   UNL A   1      31.882  23.560  25.511  1.00  0.00    -0.329 N 
ATOM     14  C   UNL A   1      33.073  23.460  26.393  1.00  0.00     0.272 C 
ATOM     15  C   UNL A   1      31.877  22.361  24.586  1.00  0.00     0.190 C 
ATOM     16  H   UNL A   1      31.012  23.468  26.037  1.00  0.00     0.348 HD
ATOM     17  C   UNL A   1      33.924  22.423  25.721  1.00  0.00     0.114 C 
ATOM     18  C   UNL A   1      32.890  21.438  25.262  1.00  0.00     0.116 C 
ATOM     19  C   UNL A   1      32.185  22.565  23.102  1.00  0.00     0.076 C 
ATOM     20  C   UNL A   1      34.895  21.528  26.441  1.00  0.00     0.270 C 
ATOM     21  C   UNL A   1      33.787  20.398  24.628  1.00  0.00     0.271 C 
ATOM     22  N   UNL A   1      34.956  20.345  25.553  1.00  0.00    -0.345 N 
ATOM     23  H   UNL A   1      34.917  19.492  26.110  1.00  0.00     0.346 HD
ATOM     24  H   UNL A   1      35.826  20.348  25.021  1.00  0.00     0.346 HD
ENDBRANCH  11  13
ENDBRANCH   9  11
ENDBRANCH   7   9
ENDBRANCH   6   7
ENDBRANCH   5   6
ENDBRANCH   4   5
ENDBRANCH   3   4
ENDBRANCH   2   3
ENDBRANCH   1   2
BRANCH   1  25
ATOM     25  O   UNL A   1      34.772  33.875  27.673  1.00  0.00    -0.376 OA
BRANCH  25  26
ATOM     26  C   UNL A   1      34.397  35.025  28.407  1.00  0.00     0.202 C 
BRANCH  26  27
ATOM     27  C   UNL A   1      33.259  34.999  29.448  1.00  0.00     0.261 C 
BRANCH  27  28
ATOM     28  O   UNL A   1      33.292  35.967  30.507  1.00  0.00    -0.460 OA
BRANCH  28  29
ATOM     29  C   UNL A   1      32.940  35.540  31.743  1.00  0.00     0.338 C 
ATOM     30  O   UNL A   1      31.811  35.539  32.215  1.00  0.00    -0.246 OA
BRANCH  29  31
ATOM     31  C   UNL A   1      34.106  34.844  32.333  1.00  0.00     0.060 A 
ATOM     32  C   UNL A   1      35.388  35.383  32.143  1.00  0.00     0.016 A 
ATOM     33  C   UNL A   1      33.940  33.680  33.085  1.00  0.00     0.016 A 
ATOM     34  C   UNL A   1      36.505  34.749  32.691  1.00  0.00     0.010 A 
ATOM     35  C   UNL A   1      35.064  33.035  33.615  1.00  0.00     0.010 A 
ATOM     36  C   UNL A   1      36.355  33.554  33.405  1.00  0.00    -0.014 A 
BRANCH  36  37
ATOM     37  C   UNL A   1      37.550  32.744  33.756  1.00  0.00     0.031 A 
ATOM     38  C   UNL A   1      38.275  33.068  35.035  1.00  0.00     0.074 A 
ATOM     39  C   UNL A   1      37.984  31.737  32.974  1.00  0.00     0.049 A 
ATOM     40  N   UNL A   1      39.384  32.570  35.515  1.00  0.00    -0.248 NA
ATOM     41  C   UNL A   1      37.658  34.098  35.883  1.00  0.00     0.031 C 
ATOM     42  C   UNL A   1      37.337  31.281  31.747  1.00  0.00     0.029 A 
ATOM     43  N   UNL A   1      39.083  30.922  33.098  1.00  0.00    -0.354 N 
ATOM     44  C   UNL A   1      39.607  33.235  36.716  1.00  0.00     0.074 A 
ATOM     45  C   UNL A   1      38.532  34.192  36.872  1.00  0.00     0.031 C 
ATOM     46  C   UNL A   1      38.056  30.272  31.224  1.00  0.00     0.029 A 
ATOM     47  C   UNL A   1      39.242  30.044  32.050  1.00  0.00     0.049 A 
ATOM     48  H   UNL A   1      39.699  30.962  33.864  1.00  0.00     0.167 HD
ATOM     49  C   UNL A   1      40.614  33.063  37.607  1.00  0.00     0.034 A 
ATOM     50  C   UNL A   1      40.246  29.183  31.773  1.00  0.00     0.034 A 
ATOM     51  C   UNL A   1      41.690  32.117  37.430  1.00  0.00     0.049 A 
ATOM     52  C   UNL A   1      41.422  29.092  32.724  1.00  0.00     0.074 A 
ATOM     53  C   UNL A   1      42.754  31.858  38.276  1.00  0.00     0.029 A 
ATOM     54  N   UNL A   1      41.851  31.291  36.325  1.00  0.00    -0.354 N 
ATOM     55  N   UNL A   1      41.625  29.727  33.856  1.00  0.00    -0.248 NA
ATOM     56  C   UNL A   1      42.502  28.165  32.356  1.00  0.00     0.031 C 
ATOM     57  C   UNL A   1      43.603  30.944  37.644  1.00  0.00     0.029 A 
ATOM     58  C   UNL A   1      43.020  30.554  36.449  1.00  0.00     0.049 A 
ATOM     59  H   UNL A   1      41.227  31.235  35.566  1.00  0.00     0.167 HD
ATOM     60  C   UNL A   1      42.836  29.243  34.353  1.00  0.00     0.074 A 
ATOM     61  C   UNL A   1      43.310  28.260  33.402  1.00  0.00     0.031 C 
ATOM     62  C   UNL A   1      43.491  29.578  35.494  1.00  0.00     0.034 A 
BRANCH  49  63
ATOM     63  C   UNL A   1      40.632  33.969  38.815  1.00  0.00     0.023 A 
ATOM     64  C   UNL A   1      41.321  35.194  38.818  1.00  0.00     0.031 A 
ATOM     65  C   UNL A   1      39.974  33.581  39.997  1.00  0.00     0.131 A 
ATOM     66  C   UNL A   1      41.398  35.949  39.999  1.00  0.00     0.055 A 
ATOM     67  C   UNL A   1      39.983  34.379  41.141  1.00  0.00     0.041 A 
ATOM     68  F   UNL A   1      39.324  32.407  40.064  1.00  0.00    -0.206 F 
ATOM     69  C   UNL A   1      40.710  35.564  41.151  1.00  0.00     0.022 A 
BRANCH  66  70
ATOM     70  S   UNL A   1      42.540  37.358  40.053  1.00  0.00     0.124 S 
ATOM     71  O   UNL A   1      43.709  36.767  40.700  1.00  0.00    -0.237 OA
ATOM     72  O   UNL A   1      42.691  37.696  38.643  1.00  0.00    -0.237 OA
ATOM     73  O   UNL A   1      41.825  38.347  40.858  1.00  0.00    -0.744 OA
ENDBRANCH  66  70
ENDBRANCH  49  63
BRANCH  50  74
ATOM     74  C   UNL A   1      40.230  28.368  30.522  1.00  0.00     0.023 A 
ATOM     75  C   UNL A   1      41.036  28.707  29.423  1.00  0.00     0.031 A 
ATOM     76  C   UNL A   1      39.349  27.282  30.377  1.00  0.00     0.131 A 
ATOM     77  C   UNL A   1      40.907  28.004  28.215  1.00  0.00     0.055 A 
ATOM     78  C   UNL A   1      39.269  26.545  29.194  1.00  0.00     0.041 A 
ATOM     79  F   UNL A   1      38.544  26.919  31.390  1.00  0.00    -0.206 F 
ATOM     80  C   UNL A   1      40.042  26.915  28.097  1.00  0.00     0.022 A 
BRANCH  77  81
ATOM     81  S   UNL A   1      41.815  28.600  26.760  1.00  0.00     0.124 S 
ATOM     82  O   UNL A   1      42.536  27.401  26.350  1.00  0.00    -0.237 OA
ATOM     83  O   UNL A   1      40.732  29.030  25.883  1.00  0.00    -0.237 OA
ATOM     84  O   UNL A   1      42.645  29.676  27.295  1.00  0.00    -0.744 OA
ENDBRANCH  77  81
ENDBRANCH  50  74
BRANCH  62  85
ATOM     85  C   UNL A   1      44.765  28.825  35.814  1.00  0.00     0.023 A 
ATOM     86  C   UNL A   1      44.759  27.615  36.530  1.00  0.00     0.031 A 
ATOM     87  C   UNL A   1      46.008  29.332  35.390  1.00  0.00     0.131 A 
ATOM     88  C   UNL A   1      45.973  26.984  36.848  1.00  0.00     0.055 A 
ATOM     89  C   UNL A   1      47.205  28.665  35.649  1.00  0.00     0.041 A 
ATOM     90  F   UNL A   1      46.077  30.486  34.708  1.00  0.00    -0.206 F 
ATOM     91  C   UNL A   1      47.193  27.490  36.394  1.00  0.00     0.022 A 
BRANCH  88  92
ATOM     92  S   UNL A   1      45.947  25.544  37.952  1.00  0.00     0.124 S 
ATOM     93  O   UNL A   1      45.955  26.172  39.269  1.00  0.00    -0.237 OA
ATOM     94  O   UNL A   1      44.705  24.880  37.570  1.00  0.00    -0.237 OA
ATOM     95  O   UNL A   1      47.169  24.820  37.603  1.00  0.00    -0.744 OA
ENDBRANCH  88  92
ENDBRANCH  62  85
ENDBRANCH  36  37
ENDBRANCH  29  31
ENDBRANCH  28  29
ENDBRANCH  27  28
ENDBRANCH  26  27
ENDBRANCH  25  26
ENDBRANCH   1  25
TORSDOF 22
ENDMDL
MODEL 2
REMARK VINA RESULT:      -8.8      1.923      2.329
REMARK SMILES C[C@@H](C(=O)OCCOCCOCCOC(=O)c1ccc(-c2c3nc(c(-c4cc(S(=O)(=O)[O-])ccc4F)c4ccc([nH]4)c(-c4cc(S(=O)(=O)[O-])ccc4F)c4nc(c(-c5cc(S(=O)(=O)[O-])ccc5F)c5ccc2[nH]5)C=C4)C=C3)cc1)[C@H](C)[N@@H+]1C[C@H]2C[NH2+]C[C@@H]2[C@@H]1C
REMARK SMILES IDX 10 1 9 2 8 3 7 4 6 5 5 6 3 7 4 8 2 9 1 10 80 11 81 12 82 13
REMARK SMILES IDX 83 14 89 15 84 17 88 18 90 19 85 20 87 21 86 22 11 25 12 26
REMARK SMILES IDX 13 27 14 28 15 29 16 30 17 31 18 32 79 33 19 34 78 35 20 36
REMARK SMILES IDX 21 37 22 38 72 39 23 40 77 41 71 42 73 43 24 44 76 45 70 46
REMARK SMILES IDX 69 47 25 49 57 50 37 51 56 52 38 53 41 54 55 55 74 56 39 57
REMARK SMILES IDX 40 58 54 60 75 61 42 62 26 63 27 64 35 65 28 66 34 67 36 68
REMARK SMILES IDX 33 69 29 70 30 71 31 72 32 73 58 74 59 75 67 76 60 77 66 78
REMARK SMILES IDX 68 79 65 80 61 81 62 82 63 83 64 84 43 85 44 86 52 87 45 88
REMARK SMILES IDX 51 89 53 90 50 91 46 92 47 93 48 94 49 95
REMARK H PARENT 82 16 86 23 86 24 73 48 41 59
REMARK Flexibility Score: inf
ROOT
ATOM      1  C   UNL A   1      35.736  32.801  28.010  1.00  0.00     0.188 C 
ENDROOT
BRANCH   1   2
ATOM      2  C   UNL A   1      34.953  31.477  27.911  1.00  0.00     0.188 C 
BRANCH   2   3
ATOM      3  O   UNL A   1      33.609  31.507  27.440  1.00  0.00    -0.376 OA
BRANCH   3   4
ATOM      4  C   UNL A   1      32.911  30.272  27.299  1.00  0.00     0.202 C 
BRANCH   4   5
ATOM      5  C   UNL A   1      33.389  29.250  26.245  1.00  0.00     0.261 C 
BRANCH   5   6
ATOM      6  O   UNL A   1      33.362  27.881  26.696  1.00  0.00    -0.463 OA
BRANCH   6   7
ATOM      7  C   UNL A   1      32.518  27.031  26.056  1.00  0.00     0.314 C 
ATOM      8  O   UNL A   1      31.319  27.241  25.912  1.00  0.00    -0.252 OA
BRANCH   7   9
ATOM      9  C   UNL A   1      33.225  25.780  25.498  1.00  0.00     0.154 C 
ATOM     10  C   UNL A   1      33.906  26.149  24.168  1.00  0.00     0.026 C 
BRANCH   9  11
ATOM     11  C   UNL A   1      32.330  24.469  25.476  1.00  0.00     0.195 C 
ATOM     12  C   UNL A   1      31.962  24.063  26.920  1.00  0.00     0.076 C 
BRANCH  11  13
ATOM     13  N   UNL A   1      32.944  23.331  24.737  1.00  0.00    -0.329 N 
ATOM     14  C   UNL A   1      32.109  22.115  24.564  1.00  0.00     0.272 C 
ATOM     15  C   UNL A   1      34.375  22.893  24.965  1.00  0.00     0.190 C 
ATOM     16  H   UNL A   1      32.989  23.885  23.882  1.00  0.00     0.348 HD
ATOM     17  C   UNL A   1      32.991  21.007  25.060  1.00  0.00     0.114 C 
ATOM     18  C   UNL A   1      34.329  21.429  24.530  1.00  0.00     0.116 C 
ATOM     19  C   UNL A   1      34.994  23.062  26.353  1.00  0.00     0.076 C 
ATOM     20  C   UNL A   1      32.912  19.583  24.583  1.00  0.00     0.270 C 
ATOM     21  C   UNL A   1      35.177  20.274  25.017  1.00  0.00     0.271 C 
ATOM     22  N   UNL A   1      34.289  19.093  24.819  1.00  0.00    -0.345 N 
ATOM     23  H   UNL A   1      34.607  18.553  24.014  1.00  0.00     0.346 HD
ATOM     24  H   UNL A   1      34.313  18.492  25.643  1.00  0.00     0.346 HD
ENDBRANCH  11  13
ENDBRANCH   9  11
ENDBRANCH   7   9
ENDBRANCH   6   7
ENDBRANCH   5   6
ENDBRANCH   4   5
ENDBRANCH   3   4
ENDBRANCH   2   3
ENDBRANCH   1   2
BRANCH   1  25
ATOM     25  O   UNL A   1      35.052  33.918  27.491  1.00  0.00    -0.376 OA
BRANCH  25  26
ATOM     26  C   UNL A   1      34.698  34.969  28.370  1.00  0.00     0.202 C 
BRANCH  26  27
ATOM     27  C   UNL A   1      33.579  34.819  29.420  1.00  0.00     0.261 C 
BRANCH  27  28
ATOM     28  O   UNL A   1      33.489  35.808  30.455  1.00  0.00    -0.460 OA
BRANCH  28  29
ATOM     29  C   UNL A   1      33.146  35.376  31.692  1.00  0.00     0.338 C 
ATOM     30  O   UNL A   1      32.025  35.398  32.183  1.00  0.00    -0.246 OA
BRANCH  29  31
ATOM     31  C   UNL A   1      34.304  34.644  32.256  1.00  0.00     0.060 A 
ATOM     32  C   UNL A   1      35.582  35.214  32.158  1.00  0.00     0.016 A 
ATOM     33  C   UNL A   1      34.131  33.414  32.894  1.00  0.00     0.016 A 
ATOM     34  C   UNL A   1      36.691  34.547  32.683  1.00  0.00     0.010 A 
ATOM     35  C   UNL A   1      35.247  32.738  33.400  1.00  0.00     0.010 A 
ATOM     36  C   UNL A   1      36.537  33.290  33.280  1.00  0.00    -0.014 A 
BRANCH  36  37
ATOM     37  C   UNL A   1      37.732  32.467  33.597  1.00  0.00     0.031 A 
ATOM     38  C   UNL A   1      38.505  32.790  34.847  1.00  0.00     0.074 A 
ATOM     39  C   UNL A   1      38.124  31.448  32.809  1.00  0.00     0.049 A 
ATOM     40  N   UNL A   1      39.624  32.281  35.292  1.00  0.00    -0.248 NA
ATOM     41  C   UNL A   1      37.932  33.837  35.707  1.00  0.00     0.031 C 
ATOM     42  C   UNL A   1      37.428  30.990  31.609  1.00  0.00     0.029 A 
ATOM     43  N   UNL A   1      39.216  30.618  32.901  1.00  0.00    -0.354 N 
ATOM     44  C   UNL A   1      39.897  32.953  36.479  1.00  0.00     0.074 A 
ATOM     45  C   UNL A   1      38.842  33.925  36.664  1.00  0.00     0.031 C 
ATOM     46  C   UNL A   1      38.115  29.967  31.070  1.00  0.00     0.029 A 
ATOM     47  C   UNL A   1      39.326  29.729  31.855  1.00  0.00     0.049 A 
ATOM     48  H   UNL A   1      39.859  30.656  33.645  1.00  0.00     0.167 HD
ATOM     49  C   UNL A   1      40.933  32.774  37.336  1.00  0.00     0.034 A 
ATOM     50  C   UNL A   1      40.308  28.853  31.552  1.00  0.00     0.034 A 
ATOM     51  C   UNL A   1      41.989  31.812  37.129  1.00  0.00     0.049 A 
ATOM     52  C   UNL A   1      41.515  28.753  32.461  1.00  0.00     0.074 A 
ATOM     53  C   UNL A   1      43.079  31.545  37.939  1.00  0.00     0.029 A 
ATOM     54  N   UNL A   1      42.100  30.975  36.026  1.00  0.00    -0.354 N 
ATOM     55  N   UNL A   1      41.766  29.394  33.580  1.00  0.00    -0.248 NA
ATOM     56  C   UNL A   1      42.569  27.809  32.064  1.00  0.00     0.031 C 
ATOM     57  C   UNL A   1      43.892  30.614  37.286  1.00  0.00     0.029 A 
ATOM     58  C   UNL A   1      43.263  30.222  36.116  1.00  0.00     0.049 A 
ATOM     59  H   UNL A   1      41.450  30.921  35.290  1.00  0.00     0.167 HD
ATOM     60  C   UNL A   1      42.988  28.898  34.038  1.00  0.00     0.074 A 
ATOM     61  C   UNL A   1      43.414  27.900  33.080  1.00  0.00     0.031 C 
ATOM     62  C   UNL A   1      43.687  29.232  35.153  1.00  0.00     0.034 A 
BRANCH  49  63
ATOM     63  C   UNL A   1      41.006  33.689  38.534  1.00  0.00     0.023 A 
ATOM     64  C   UNL A   1      40.407  33.358  39.762  1.00  0.00     0.031 A 
ATOM     65  C   UNL A   1      41.659  34.932  38.434  1.00  0.00     0.131 A 
ATOM     66  C   UNL A   1      40.409  34.289  40.813  1.00  0.00     0.055 A 
ATOM     67  C   UNL A   1      41.732  35.815  39.511  1.00  0.00     0.041 A 
ATOM     68  F   UNL A   1      42.224  35.315  37.278  1.00  0.00    -0.206 F 
ATOM     69  C   UNL A   1      41.091  35.502  40.706  1.00  0.00     0.022 A 
BRANCH  66  70
ATOM     70  S   UNL A   1      39.373  33.958  42.265  1.00  0.00     0.124 S 
ATOM     71  O   UNL A   1      38.380  33.038  41.716  1.00  0.00    -0.237 OA
ATOM     72  O   UNL A   1      40.324  33.384  43.209  1.00  0.00    -0.237 OA
ATOM     73  O   UNL A   1      38.856  35.278  42.625  1.00  0.00    -0.744 OA
ENDBRANCH  66  70
ENDBRANCH  49  63
BRANCH  50  74
ATOM     74  C   UNL A   1      40.237  28.028  30.308  1.00  0.00     0.023 A 
ATOM     75  C   UNL A   1      41.079  28.287  29.215  1.00  0.00     0.031 A 
ATOM     76  C   UNL A   1      39.270  27.017  30.165  1.00  0.00     0.131 A 
ATOM     77  C   UNL A   1      40.905  27.583  28.013  1.00  0.00     0.055 A 
ATOM     78  C   UNL A   1      39.141  26.276  28.989  1.00  0.00     0.041 A 
ATOM     79  F   UNL A   1      38.429  26.733  31.173  1.00  0.00    -0.206 F 
ATOM     80  C   UNL A   1      39.953  26.569  27.897  1.00  0.00     0.022 A 
BRANCH  77  81
ATOM     81  S   UNL A   1      41.874  28.086  26.562  1.00  0.00     0.124 S 
ATOM     82  O   UNL A   1      41.403  29.450  26.351  1.00  0.00    -0.237 OA
ATOM     83  O   UNL A   1      43.242  27.946  27.049  1.00  0.00    -0.237 OA
ATOM     84  O   UNL A   1      41.478  27.123  25.538  1.00  0.00    -0.744 OA
ENDBRANCH  77  81
ENDBRANCH  50  74
BRANCH  62  85
ATOM     85  C   UNL A   1      44.960  28.465  35.435  1.00  0.00     0.023 A 
ATOM     86  C   UNL A   1      46.217  28.910  34.987  1.00  0.00     0.031 A 
ATOM     87  C   UNL A   1      44.912  27.265  36.169  1.00  0.00     0.131 A 
ATOM     88  C   UNL A   1      47.362  28.133  35.228  1.00  0.00     0.055 A 
ATOM     89  C   UNL A   1      46.062  26.533  36.465  1.00  0.00     0.041 A 
ATOM     90  F   UNL A   1      43.741  26.786  36.619  1.00  0.00    -0.206 F 
ATOM     91  C   UNL A   1      47.295  26.959  35.981  1.00  0.00     0.022 A 
BRANCH  88  92
ATOM     92  S   UNL A   1      48.930  28.623  34.455  1.00  0.00     0.124 S 
ATOM     93  O   UNL A   1      49.744  27.428  34.640  1.00  0.00    -0.237 OA
ATOM     94  O   UNL A   1      48.525  28.913  33.083  1.00  0.00    -0.237 OA
ATOM     95  O   UNL A   1      49.349  29.786  35.236  1.00  0.00    -0.744 OA
ENDBRANCH  88  92
ENDBRANCH  62  85
ENDBRANCH  36  37
ENDBRANCH  29  31
ENDBRANCH  28  29
ENDBRANCH  27  28
ENDBRANCH  26  27
ENDBRANCH  25  26
ENDBRANCH   1  25
TORSDOF 22
ENDMDL
MODEL 3
REMARK VINA RESULT:      -8.8      3.485      5.066
REMARK SMILES C[C@@H](C(=O)OCCOCCOCCOC(=O)c1ccc(-c2c3nc(c(-c4cc(S(=O)(=O)[O-])ccc4F)c4ccc([nH]4)c(-c4cc(S(=O)(=O)[O-])ccc4F)c4nc(c(-c5cc(S(=O)(=O)[O-])ccc5F)c5ccc2[nH]5)C=C4)C=C3)cc1)[C@H](C)[N@@H+]1C[C@H]2C[NH2+]C[C@@H]2[C@@H]1C
REMARK SMILES IDX 10 1 9 2 8 3 7 4 6 5 5 6 3 7 4 8 2 9 1 10 80 11 81 12 82 13
REMARK SMILES IDX 83 14 89 15 84 17 88 18 90 19 85 20 87 21 86 22 11 25 12 26
REMARK SMILES IDX 13 27 14 28 15 29 16 30 17 31 18 32 79 33 19 34 78 35 20 36
REMARK SMILES IDX 21 37 22 38 72 39 23 40 77 41 71 42 73 43 24 44 76 45 70 46
REMARK SMILES IDX 69 47 25 49 57 50 37 51 56 52 38 53 41 54 55 55 74 56 39 57
REMARK SMILES IDX 40 58 54 60 75 61 42 62 26 63 27 64 35 65 28 66 34 67 36 68
REMARK SMILES IDX 33 69 29 70 30 71 31 72 32 73 58 74 59 75 67 76 60 77 66 78
REMARK SMILES IDX 68 79 65 80 61 81 62 82 63 83 64 84 43 85 44 86 52 87 45 88
REMARK SMILES IDX 51 89 53 90 50 91 46 92 47 93 48 94 49 95
REMARK H PARENT 82 16 86 23 86 24 73 48 41 59
REMARK Flexibility Score: inf
ROOT
ATOM      1  C   UNL A   1      32.019  33.110  26.761  1.00  0.00     0.188 C 
ENDROOT
BRANCH   1   2
ATOM      2  C   UNL A   1      31.453  31.679  26.864  1.00  0.00     0.188 C 
BRANCH   2   3
ATOM      3  O   UNL A   1      31.294  30.915  25.671  1.00  0.00    -0.376 OA
BRANCH   3   4
ATOM      4  C   UNL A   1      32.080  29.737  25.511  1.00  0.00     0.202 C 
BRANCH   4   5
ATOM      5  C   UNL A   1      31.407  28.355  25.652  1.00  0.00     0.261 C 
BRANCH   5   6
ATOM      6  O   UNL A   1      32.144  27.275  25.045  1.00  0.00    -0.463 OA
BRANCH   6   7
ATOM      7  C   UNL A   1      31.872  26.987  23.745  1.00  0.00     0.314 C 
ATOM      8  O   UNL A   1      30.937  27.476  23.120  1.00  0.00    -0.252 OA
BRANCH   7   9
ATOM      9  C   UNL A   1      32.879  26.003  23.119  1.00  0.00     0.154 C 
ATOM     10  C   UNL A   1      33.388  26.593  21.791  1.00  0.00     0.026 C 
BRANCH   9  11
ATOM     11  C   UNL A   1      32.382  24.497  23.060  1.00  0.00     0.195 C 
ATOM     12  C   UNL A   1      31.336  24.247  24.168  1.00  0.00     0.076 C 
BRANCH  11  13
ATOM     13  N   UNL A   1      33.482  23.495  23.125  1.00  0.00    -0.329 N 
ATOM     14  C   UNL A   1      33.090  22.081  23.349  1.00  0.00     0.272 C 
ATOM     15  C   UNL A   1      34.772  23.752  23.875  1.00  0.00     0.190 C 
ATOM     16  H   UNL A   1      33.726  23.670  22.149  1.00  0.00     0.348 HD
ATOM     17  C   UNL A   1      33.942  21.657  24.510  1.00  0.00     0.114 C 
ATOM     18  C   UNL A   1      35.242  22.333  24.190  1.00  0.00     0.116 C 
ATOM     19  C   UNL A   1      34.744  24.639  25.121  1.00  0.00     0.076 C 
ATOM     20  C   UNL A   1      34.389  20.243  24.761  1.00  0.00     0.270 C 
ATOM     21  C   UNL A   1      36.077  21.853  25.356  1.00  0.00     0.271 C 
ATOM     22  N   UNL A   1      35.639  20.439  25.531  1.00  0.00    -0.345 N 
ATOM     23  H   UNL A   1      36.361  19.808  25.183  1.00  0.00     0.346 HD
ATOM     24  H   UNL A   1      35.480  20.238  26.518  1.00  0.00     0.346 HD
ENDBRANCH  11  13
ENDBRANCH   9  11
ENDBRANCH   7   9
ENDBRANCH   6   7
ENDBRANCH   5   6
ENDBRANCH   4   5
ENDBRANCH   3   4
ENDBRANCH   2   3
ENDBRANCH   1   2
BRANCH   1  25
ATOM     25  O   UNL A   1      32.253  33.729  28.004  1.00  0.00    -0.376 OA
BRANCH  25  26
ATOM     26  C   UNL A   1      33.548  34.230  28.283  1.00  0.00     0.202 C 
BRANCH  26  27
ATOM     27  C   UNL A   1      34.554  33.457  29.160  1.00  0.00     0.261 C 
BRANCH  27  28
ATOM     28  O   UNL A   1      34.379  32.040  29.298  1.00  0.00    -0.460 OA
BRANCH  28  29
ATOM     29  C   UNL A   1      34.964  31.253  28.364  1.00  0.00     0.338 C 
ATOM     30  O   UNL A   1      34.619  31.137  27.195  1.00  0.00    -0.246 OA
BRANCH  29  31
ATOM     31  C   UNL A   1      36.238  30.750  28.926  1.00  0.00     0.060 A 
ATOM     32  C   UNL A   1      37.448  31.180  28.360  1.00  0.00     0.016 A 
ATOM     33  C   UNL A   1      36.245  29.876  30.015  1.00  0.00     0.016 A 
ATOM     34  C   UNL A   1      38.664  30.723  28.872  1.00  0.00     0.010 A 
ATOM     35  C   UNL A   1      37.465  29.403  30.512  1.00  0.00     0.010 A 
ATOM     36  C   UNL A   1      38.682  29.807  29.932  1.00  0.00    -0.014 A 
BRANCH  36  37
ATOM     37  C   UNL A   1      39.947  29.122  30.300  1.00  0.00     0.031 A 
ATOM     38  C   UNL A   1      40.680  29.597  31.525  1.00  0.00     0.074 A 
ATOM     39  C   UNL A   1      40.437  28.095  29.580  1.00  0.00     0.049 A 
ATOM     40  N   UNL A   1      41.840  29.225  32.001  1.00  0.00    -0.248 NA
ATOM     41  C   UNL A   1      40.008  30.639  32.315  1.00  0.00     0.031 C 
ATOM     42  C   UNL A   1      39.792  27.496  28.414  1.00  0.00     0.029 A 
ATOM     43  N   UNL A   1      41.600  27.378  29.725  1.00  0.00    -0.354 N 
ATOM     44  C   UNL A   1      42.044  29.996  33.141  1.00  0.00     0.074 A 
ATOM     45  C   UNL A   1      40.901  30.876  33.264  1.00  0.00     0.031 C 
ATOM     46  C   UNL A   1      40.574  26.509  27.942  1.00  0.00     0.029 A 
ATOM     47  C   UNL A   1      41.798  26.437  28.740  1.00  0.00     0.049 A 
ATOM     48  H   UNL A   1      42.234  27.525  30.464  1.00  0.00     0.167 HD
ATOM     49  C   UNL A   1      43.088  29.971  34.007  1.00  0.00     0.034 A 
ATOM     50  C   UNL A   1      42.859  25.639  28.493  1.00  0.00     0.034 A 
ATOM     51  C   UNL A   1      44.230  29.101  33.862  1.00  0.00     0.049 A 
ATOM     52  C   UNL A   1      44.066  25.711  29.405  1.00  0.00     0.074 A 
ATOM     53  C   UNL A   1      45.335  28.990  34.686  1.00  0.00     0.029 A 
ATOM     54  N   UNL A   1      44.424  28.207  32.817  1.00  0.00    -0.354 N 
ATOM     55  N   UNL A   1      44.251  26.445  30.479  1.00  0.00    -0.248 NA
ATOM     56  C   UNL A   1      45.205  24.846  29.070  1.00  0.00     0.031 C 
ATOM     57  C   UNL A   1      46.236  28.099  34.095  1.00  0.00     0.029 A 
ATOM     58  C   UNL A   1      45.651  27.574  32.953  1.00  0.00     0.049 A 
ATOM     59  H   UNL A   1      43.784  28.045  32.086  1.00  0.00     0.167 HD
ATOM     60  C   UNL A   1      45.511  26.097  30.968  1.00  0.00     0.074 A 
ATOM     61  C   UNL A   1      46.033  25.082  30.077  1.00  0.00     0.031 C 
ATOM     62  C   UNL A   1      46.170  26.567  32.058  1.00  0.00     0.034 A 
BRANCH  49  63
ATOM     63  C   UNL A   1      43.068  30.965  35.142  1.00  0.00     0.023 A 
ATOM     64  C   UNL A   1      43.665  32.233  35.033  1.00  0.00     0.031 A 
ATOM     65  C   UNL A   1      42.470  30.623  36.369  1.00  0.00     0.131 A 
ATOM     66  C   UNL A   1      43.716  33.080  36.152  1.00  0.00     0.055 A 
ATOM     67  C   UNL A   1      42.447  31.505  37.450  1.00  0.00     0.041 A 
ATOM     68  F   UNL A   1      41.909  29.415  36.542  1.00  0.00    -0.206 F 
ATOM     69  C   UNL A   1      43.086  32.736  37.350  1.00  0.00     0.022 A 
BRANCH  66  70
ATOM     70  S   UNL A   1      44.753  34.566  36.067  1.00  0.00     0.124 S 
ATOM     71  O   UNL A   1      45.824  34.130  35.176  1.00  0.00    -0.237 OA
ATOM     72  O   UNL A   1      43.835  35.561  35.525  1.00  0.00    -0.237 OA
ATOM     73  O   UNL A   1      45.157  34.782  37.456  1.00  0.00    -0.744 OA
ENDBRANCH  66  70
ENDBRANCH  49  63
BRANCH  50  74
ATOM     74  C   UNL A   1      42.872  24.731  27.307  1.00  0.00     0.023 A 
ATOM     75  C   UNL A   1      42.277  23.460  27.358  1.00  0.00     0.031 A 
ATOM     76  C   UNL A   1      43.550  25.089  26.128  1.00  0.00     0.131 A 
ATOM     77  C   UNL A   1      42.416  22.576  26.276  1.00  0.00     0.055 A 
ATOM     78  C   UNL A   1      43.632  24.231  25.030  1.00  0.00     0.041 A 
ATOM     79  F   UNL A   1      44.148  26.287  26.026  1.00  0.00    -0.206 F 
ATOM     80  C   UNL A   1      43.074  22.958  25.106  1.00  0.00     0.022 A 
BRANCH  77  81
ATOM     81  S   UNL A   1      41.811  20.874  26.460  1.00  0.00     0.124 S 
ATOM     82  O   UNL A   1      42.628  20.163  25.485  1.00  0.00    -0.237 OA
ATOM     83  O   UNL A   1      42.101  20.600  27.864  1.00  0.00    -0.237 OA
ATOM     84  O   UNL A   1      40.392  20.980  26.129  1.00  0.00    -0.744 OA
ENDBRANCH  77  81
ENDBRANCH  50  74
BRANCH  62  85
ATOM     85  C   UNL A   1      47.508  25.942  32.387  1.00  0.00     0.023 A 
ATOM     86  C   UNL A   1      47.641  24.915  33.338  1.00  0.00     0.031 A 
ATOM     87  C   UNL A   1      48.673  26.385  31.733  1.00  0.00     0.131 A 
ATOM     88  C   UNL A   1      48.913  24.406  33.647  1.00  0.00     0.055 A 
ATOM     89  C   UNL A   1      49.925  25.828  31.993  1.00  0.00     0.041 A 
ATOM     90  F   UNL A   1      48.611  27.367  30.819  1.00  0.00    -0.206 F 
ATOM     91  C   UNL A   1      50.052  24.841  32.966  1.00  0.00     0.022 A 
BRANCH  88  92
ATOM     92  S   UNL A   1      49.076  23.237  35.026  1.00  0.00     0.124 S 
ATOM     93  O   UNL A   1      48.936  24.113  36.183  1.00  0.00    -0.237 OA
ATOM     94  O   UNL A   1      47.971  22.315  34.787  1.00  0.00    -0.237 OA
ATOM     95  O   UNL A   1      50.410  22.667  34.837  1.00  0.00    -0.744 OA
ENDBRANCH  88  92
ENDBRANCH  62  85
ENDBRANCH  36  37
ENDBRANCH  29  31
ENDBRANCH  28  29
ENDBRANCH  27  28
ENDBRANCH  26  27
ENDBRANCH  25  26
ENDBRANCH   1  25
TORSDOF 22
ENDMDL
