MODEL 1
REMARK VINA RESULT:      -9.9      0.000      0.000
REMARK SMILES CC(C)(C)OC(=O)N1CCC2(CC1)C[C@@H](C(=O)OCCOCCOCCOC(=O)c1ccc(-c3c4nc(c(-c5cc(S(=O)(=O)[O-])ccc5F)c5ccc([nH]5)c(-c5cc(S(=O)(=O)[O-])ccc5F)c5nc(c(-c6cc(S(=O)(=O)[O-])ccc6F)c6ccc3[nH]6)C=C5)C=C4)cc1)CO2
REMARK SMILES IDX 23 1 22 2 21 3 20 4 19 5 18 6 16 7 17 8 15 9 6 10 7 11 8 12
REMARK SMILES IDX 9 13 13 14 10 15 12 16 11 17 14 18 94 19 93 20 5 21 2 22
REMARK SMILES IDX 1 23 3 24 4 25 24 26 25 27 26 28 27 29 28 30 29 31 30 32
REMARK SMILES IDX 31 33 92 34 32 35 91 36 33 37 34 38 35 39 85 40 36 41 90 42
REMARK SMILES IDX 84 43 86 44 37 45 89 46 83 47 82 48 38 50 70 51 50 52 69 53
REMARK SMILES IDX 51 54 54 55 68 56 87 57 52 58 53 59 67 61 88 62 55 63 39 64
REMARK SMILES IDX 40 65 48 66 41 67 47 68 49 69 46 70 42 71 43 72 44 73 45 74
REMARK SMILES IDX 71 75 72 76 80 77 73 78 79 79 81 80 78 81 74 82 75 83 76 84
REMARK SMILES IDX 77 85 56 86 57 87 65 88 58 89 64 90 66 91 63 92 59 93 60 94
REMARK SMILES IDX 61 95 62 96
REMARK H PARENT 86 49 54 60
REMARK Flexibility Score: inf
ROOT
ATOM      1  C   UNL A   1      34.530  33.388  29.161  1.00  0.00     0.188 C 
ENDROOT
BRANCH   1   2
ATOM      2  C   UNL A   1      34.388  31.925  28.731  1.00  0.00     0.188 C 
BRANCH   2   3
ATOM      3  O   UNL A   1      35.037  31.506  27.537  1.00  0.00    -0.376 OA
BRANCH   3   4
ATOM      4  C   UNL A   1      35.363  30.123  27.390  1.00  0.00     0.202 C 
BRANCH   4   5
ATOM      5  C   UNL A   1      34.252  29.170  26.927  1.00  0.00     0.261 C 
BRANCH   5   6
ATOM      6  O   UNL A   1      33.161  29.853  26.279  1.00  0.00    -0.463 OA
BRANCH   6   7
ATOM      7  C   UNL A   1      32.775  29.365  25.073  1.00  0.00     0.311 C 
ATOM      8  O   UNL A   1      33.474  29.397  24.066  1.00  0.00    -0.252 OA
BRANCH   7   9
ATOM      9  C   UNL A   1      31.424  28.669  25.104  1.00  0.00     0.128 C 
ATOM     10  C   UNL A   1      32.930  22.698  23.146  1.00  0.00     0.410 C 
ATOM     11  O   UNL A   1      32.219  21.708  23.016  1.00  0.00    -0.224 OA
ATOM     12  N   UNL A   1      32.454  23.985  23.103  1.00  0.00    -0.308 N 
ATOM     13  C   UNL A   1      31.044  24.234  23.345  1.00  0.00     0.126 C 
ATOM     14  C   UNL A   1      33.298  25.166  22.946  1.00  0.00     0.126 C 
ATOM     15  C   UNL A   1      30.904  25.070  24.618  1.00  0.00     0.057 C 
ATOM     16  C   UNL A   1      33.185  26.074  24.166  1.00  0.00     0.057 C 
ATOM     17  C   UNL A   1      31.709  26.368  24.485  1.00  0.00     0.073 C 
ATOM     18  C   UNL A   1      31.544  27.279  25.703  1.00  0.00     0.053 C 
ATOM     19  O   UNL A   1      31.168  27.076  23.362  1.00  0.00    -0.374 OA
ATOM     20  C   UNL A   1      30.764  28.374  23.772  1.00  0.00     0.176 C 
BRANCH  10  21
ATOM     21  O   UNL A   1      34.255  22.665  23.423  1.00  0.00    -0.444 OA
BRANCH  21  22
ATOM     22  C   UNL A   1      34.723  22.377  24.760  1.00  0.00     0.106 C 
ATOM     23  C   UNL A   1      35.957  23.273  24.938  1.00  0.00     0.056 C 
ATOM     24  C   UNL A   1      35.141  20.908  24.832  1.00  0.00     0.056 C 
ATOM     25  C   UNL A   1      33.709  22.748  25.851  1.00  0.00     0.056 C 
ENDBRANCH  21  22
ENDBRANCH  10  21
ENDBRANCH   7   9
ENDBRANCH   6   7
ENDBRANCH   5   6
ENDBRANCH   4   5
ENDBRANCH   3   4
ENDBRANCH   2   3
ENDBRANCH   1   2
BRANCH   1  26
ATOM     26  O   UNL A   1      33.310  34.076  29.356  1.00  0.00    -0.376 OA
BRANCH  26  27
ATOM     27  C   UNL A   1      33.286  35.461  29.029  1.00  0.00     0.202 C 
BRANCH  27  28
ATOM     28  C   UNL A   1      32.683  36.384  30.104  1.00  0.00     0.261 C 
BRANCH  28  29
ATOM     29  O   UNL A   1      32.197  35.719  31.286  1.00  0.00    -0.460 OA
BRANCH  29  30
ATOM     30  C   UNL A   1      32.796  36.040  32.462  1.00  0.00     0.338 C 
ATOM     31  O   UNL A   1      32.327  36.730  33.349  1.00  0.00    -0.246 OA
BRANCH  30  32
ATOM     32  C   UNL A   1      33.984  35.161  32.608  1.00  0.00     0.060 A 
ATOM     33  C   UNL A   1      33.793  33.829  33.013  1.00  0.00     0.016 A 
ATOM     34  C   UNL A   1      35.259  35.619  32.276  1.00  0.00     0.016 A 
ATOM     35  C   UNL A   1      34.885  32.964  33.115  1.00  0.00     0.010 A 
ATOM     36  C   UNL A   1      36.353  34.760  32.405  1.00  0.00     0.010 A 
ATOM     37  C   UNL A   1      36.176  33.437  32.854  1.00  0.00    -0.014 A 
BRANCH  37  38
ATOM     38  C   UNL A   1      37.360  32.649  33.280  1.00  0.00     0.031 A 
ATOM     39  C   UNL A   1      37.985  32.995  34.605  1.00  0.00     0.074 A 
ATOM     40  C   UNL A   1      37.876  31.662  32.526  1.00  0.00     0.049 A 
ATOM     41  N   UNL A   1      39.078  32.539  35.157  1.00  0.00    -0.248 NA
ATOM     42  C   UNL A   1      37.278  34.005  35.407  1.00  0.00     0.031 C 
ATOM     43  C   UNL A   1      37.331  31.192  31.254  1.00  0.00     0.029 A 
ATOM     44  N   UNL A   1      38.991  30.883  32.722  1.00  0.00    -0.354 N 
ATOM     45  C   UNL A   1      39.194  33.211  36.369  1.00  0.00     0.074 A 
ATOM     46  C   UNL A   1      38.080  34.130  36.452  1.00  0.00     0.031 C 
ATOM     47  C   UNL A   1      38.123  30.216  30.775  1.00  0.00     0.029 A 
ATOM     48  C   UNL A   1      39.255  30.021  31.682  1.00  0.00     0.049 A 
ATOM     49  H   UNL A   1      39.549  30.937  33.531  1.00  0.00     0.167 HD
ATOM     50  C   UNL A   1      40.141  33.073  37.329  1.00  0.00     0.034 A 
ATOM     51  C   UNL A   1      40.306  29.198  31.475  1.00  0.00     0.034 A 
ATOM     52  C   UNL A   1      41.259  32.170  37.226  1.00  0.00     0.049 A 
ATOM     53  C   UNL A   1      41.409  29.137  32.510  1.00  0.00     0.074 A 
ATOM     54  C   UNL A   1      42.277  31.951  38.138  1.00  0.00     0.029 A 
ATOM     55  N   UNL A   1      41.518  31.348  36.137  1.00  0.00    -0.354 N 
ATOM     56  N   UNL A   1      41.512  29.779  33.651  1.00  0.00    -0.248 NA
ATOM     57  C   UNL A   1      42.536  28.237  32.227  1.00  0.00     0.031 C 
ATOM     58  C   UNL A   1      43.187  31.054  37.571  1.00  0.00     0.029 A 
ATOM     59  C   UNL A   1      42.696  30.646  36.340  1.00  0.00     0.049 A 
ATOM     60  H   UNL A   1      40.948  31.274  35.338  1.00  0.00     0.167 HD
ATOM     61  C   UNL A   1      42.695  29.330  34.236  1.00  0.00     0.074 A 
ATOM     62  C   UNL A   1      43.265  28.359  33.326  1.00  0.00     0.031 C 
ATOM     63  C   UNL A   1      43.257  29.682  35.422  1.00  0.00     0.034 A 
BRANCH  50  64
ATOM     64  C   UNL A   1      40.030  33.969  38.538  1.00  0.00     0.023 A 
ATOM     65  C   UNL A   1      39.293  33.591  39.674  1.00  0.00     0.031 A 
ATOM     66  C   UNL A   1      40.630  35.240  38.534  1.00  0.00     0.131 A 
ATOM     67  C   UNL A   1      39.113  34.503  40.726  1.00  0.00     0.055 A 
ATOM     68  C   UNL A   1      40.517  36.110  39.620  1.00  0.00     0.041 A 
ATOM     69  F   UNL A   1      41.323  35.666  37.466  1.00  0.00    -0.206 F 
ATOM     70  C   UNL A   1      39.742  35.750  40.718  1.00  0.00     0.022 A 
BRANCH  67  71
ATOM     71  S   UNL A   1      37.922  34.094  42.030  1.00  0.00     0.124 S 
ATOM     72  O   UNL A   1      37.743  35.387  42.684  1.00  0.00    -0.237 OA
ATOM     73  O   UNL A   1      36.780  33.598  41.270  1.00  0.00    -0.237 OA
ATOM     74  O   UNL A   1      38.622  33.091  42.831  1.00  0.00    -0.744 OA
ENDBRANCH  67  71
ENDBRANCH  50  64
BRANCH  51  75
ATOM     75  C   UNL A   1      40.410  28.396  30.220  1.00  0.00     0.023 A 
ATOM     76  C   UNL A   1      41.332  28.735  29.215  1.00  0.00     0.031 A 
ATOM     77  C   UNL A   1      39.536  27.322  29.974  1.00  0.00     0.131 A 
ATOM     78  C   UNL A   1      41.324  28.042  27.994  1.00  0.00     0.055 A 
ATOM     79  C   UNL A   1      39.571  26.599  28.780  1.00  0.00     0.041 A 
ATOM     80  F   UNL A   1      38.630  26.959  30.896  1.00  0.00    -0.206 F 
ATOM     81  C   UNL A   1      40.459  26.967  27.775  1.00  0.00     0.022 A 
BRANCH  78  82
ATOM     82  S   UNL A   1      42.403  28.624  26.656  1.00  0.00     0.124 S 
ATOM     83  O   UNL A   1      43.430  27.588  26.632  1.00  0.00    -0.237 OA
ATOM     84  O   UNL A   1      41.488  28.648  25.519  1.00  0.00    -0.237 OA
ATOM     85  O   UNL A   1      42.848  29.935  27.123  1.00  0.00    -0.744 OA
ENDBRANCH  78  82
ENDBRANCH  51  75
BRANCH  63  86
ATOM     86  C   UNL A   1      44.523  28.966  35.830  1.00  0.00     0.023 A 
ATOM     87  C   UNL A   1      45.798  29.459  35.503  1.00  0.00     0.031 A 
ATOM     88  C   UNL A   1      44.447  27.769  36.566  1.00  0.00     0.131 A 
ATOM     89  C   UNL A   1      46.943  28.731  35.866  1.00  0.00     0.055 A 
ATOM     90  C   UNL A   1      45.590  27.082  36.976  1.00  0.00     0.041 A 
ATOM     91  F   UNL A   1      43.256  27.250  36.906  1.00  0.00    -0.206 F 
ATOM     92  C   UNL A   1      46.848  27.556  36.615  1.00  0.00     0.022 A 
BRANCH  89  93
ATOM     93  S   UNL A   1      48.561  29.295  35.269  1.00  0.00     0.124 S 
ATOM     94  O   UNL A   1      48.201  30.022  34.056  1.00  0.00    -0.237 OA
ATOM     95  O   UNL A   1      49.038  30.109  36.383  1.00  0.00    -0.237 OA
ATOM     96  O   UNL A   1      49.299  28.052  35.051  1.00  0.00    -0.744 OA
ENDBRANCH  89  93
ENDBRANCH  63  86
ENDBRANCH  37  38
ENDBRANCH  30  32
ENDBRANCH  29  30
ENDBRANCH  28  29
ENDBRANCH  27  28
ENDBRANCH  26  27
ENDBRANCH   1  26
TORSDOF 22
ENDMDL
MODEL 2
REMARK VINA RESULT:      -9.9      1.939      2.265
REMARK SMILES CC(C)(C)OC(=O)N1CCC2(CC1)C[C@@H](C(=O)OCCOCCOCCOC(=O)c1ccc(-c3c4nc(c(-c5cc(S(=O)(=O)[O-])ccc5F)c5ccc([nH]5)c(-c5cc(S(=O)(=O)[O-])ccc5F)c5nc(c(-c6cc(S(=O)(=O)[O-])ccc6F)c6ccc3[nH]6)C=C5)C=C4)cc1)CO2
REMARK SMILES IDX 23 1 22 2 21 3 20 4 19 5 18 6 16 7 17 8 15 9 6 10 7 11 8 12
REMARK SMILES IDX 9 13 13 14 10 15 12 16 11 17 14 18 94 19 93 20 5 21 2 22
REMARK SMILES IDX 1 23 3 24 4 25 24 26 25 27 26 28 27 29 28 30 29 31 30 32
REMARK SMILES IDX 31 33 92 34 32 35 91 36 33 37 34 38 35 39 85 40 36 41 90 42
REMARK SMILES IDX 84 43 86 44 37 45 89 46 83 47 82 48 38 50 70 51 50 52 69 53
REMARK SMILES IDX 51 54 54 55 68 56 87 57 52 58 53 59 67 61 88 62 55 63 39 64
REMARK SMILES IDX 40 65 48 66 41 67 47 68 49 69 46 70 42 71 43 72 44 73 45 74
REMARK SMILES IDX 71 75 72 76 80 77 73 78 79 79 81 80 78 81 74 82 75 83 76 84
REMARK SMILES IDX 77 85 56 86 57 87 65 88 58 89 64 90 66 91 63 92 59 93 60 94
REMARK SMILES IDX 61 95 62 96
REMARK H PARENT 86 49 54 60
REMARK Flexibility Score: inf
ROOT
ATOM      1  C   UNL A   1      34.447  33.398  29.238  1.00  0.00     0.188 C 
ENDROOT
BRANCH   1   2
ATOM      2  C   UNL A   1      34.267  31.989  28.661  1.00  0.00     0.188 C 
BRANCH   2   3
ATOM      3  O   UNL A   1      35.426  31.274  28.252  1.00  0.00    -0.376 OA
BRANCH   3   4
ATOM      4  C   UNL A   1      35.334  29.856  28.109  1.00  0.00     0.202 C 
BRANCH   4   5
ATOM      5  C   UNL A   1      34.748  29.305  26.801  1.00  0.00     0.261 C 
BRANCH   5   6
ATOM      6  O   UNL A   1      33.318  29.459  26.717  1.00  0.00    -0.463 OA
BRANCH   6   7
ATOM      7  C   UNL A   1      32.733  29.047  25.565  1.00  0.00     0.311 C 
ATOM      8  O   UNL A   1      33.151  29.327  24.446  1.00  0.00    -0.252 OA
BRANCH   7   9
ATOM      9  C   UNL A   1      31.561  28.103  25.783  1.00  0.00     0.128 C 
ATOM     10  C   UNL A   1      34.043  22.413  23.991  1.00  0.00     0.410 C 
ATOM     11  O   UNL A   1      33.538  21.297  23.994  1.00  0.00    -0.224 OA
ATOM     12  N   UNL A   1      33.315  23.576  23.932  1.00  0.00    -0.308 N 
ATOM     13  C   UNL A   1      31.915  23.562  24.316  1.00  0.00     0.126 C 
ATOM     14  C   UNL A   1      33.882  24.884  23.619  1.00  0.00     0.126 C 
ATOM     15  C   UNL A   1      31.735  24.446  25.550  1.00  0.00     0.057 C 
ATOM     16  C   UNL A   1      33.709  25.841  24.794  1.00  0.00     0.057 C 
ATOM     17  C   UNL A   1      32.243  25.863  25.260  1.00  0.00     0.073 C 
ATOM     18  C   UNL A   1      32.018  26.813  26.439  1.00  0.00     0.053 C 
ATOM     19  O   UNL A   1      31.462  26.366  24.167  1.00  0.00    -0.374 OA
ATOM     20  C   UNL A   1      30.846  27.587  24.551  1.00  0.00     0.176 C 
BRANCH  10  21
ATOM     21  O   UNL A   1      35.369  22.661  24.119  1.00  0.00    -0.444 OA
BRANCH  21  22
ATOM     22  C   UNL A   1      36.012  22.584  25.412  1.00  0.00     0.106 C 
ATOM     23  C   UNL A   1      36.786  21.259  25.379  1.00  0.00     0.056 C 
ATOM     24  C   UNL A   1      34.937  22.525  26.497  1.00  0.00     0.056 C 
ATOM     25  C   UNL A   1      37.023  23.715  25.654  1.00  0.00     0.056 C 
ENDBRANCH  21  22
ENDBRANCH  10  21
ENDBRANCH   7   9
ENDBRANCH   6   7
ENDBRANCH   5   6
ENDBRANCH   4   5
ENDBRANCH   3   4
ENDBRANCH   2   3
ENDBRANCH   1   2
BRANCH   1  26
ATOM     26  O   UNL A   1      33.271  34.183  29.276  1.00  0.00    -0.376 OA
BRANCH  26  27
ATOM     27  C   UNL A   1      33.421  35.586  29.089  1.00  0.00     0.202 C 
BRANCH  27  28
ATOM     28  C   UNL A   1      32.635  36.472  30.073  1.00  0.00     0.261 C 
BRANCH  28  29
ATOM     29  O   UNL A   1      32.169  35.808  31.264  1.00  0.00    -0.460 OA
BRANCH  29  30
ATOM     30  C   UNL A   1      32.773  36.146  32.432  1.00  0.00     0.338 C 
ATOM     31  O   UNL A   1      32.316  36.864  33.303  1.00  0.00    -0.246 OA
BRANCH  30  32
ATOM     32  C   UNL A   1      33.947  35.252  32.598  1.00  0.00     0.060 A 
ATOM     33  C   UNL A   1      33.729  33.907  32.939  1.00  0.00     0.016 A 
ATOM     34  C   UNL A   1      35.240  35.713  32.345  1.00  0.00     0.016 A 
ATOM     35  C   UNL A   1      34.809  33.029  33.057  1.00  0.00     0.010 A 
ATOM     36  C   UNL A   1      36.321  34.840  32.490  1.00  0.00     0.010 A 
ATOM     37  C   UNL A   1      36.115  33.502  32.875  1.00  0.00    -0.014 A 
BRANCH  37  38
ATOM     38  C   UNL A   1      37.272  32.687  33.324  1.00  0.00     0.031 A 
ATOM     39  C   UNL A   1      37.913  33.054  34.636  1.00  0.00     0.074 A 
ATOM     40  C   UNL A   1      37.751  31.659  32.601  1.00  0.00     0.049 A 
ATOM     41  N   UNL A   1      38.991  32.578  35.199  1.00  0.00    -0.248 NA
ATOM     42  C   UNL A   1      37.244  34.113  35.406  1.00  0.00     0.031 C 
ATOM     43  C   UNL A   1      37.185  31.167  31.346  1.00  0.00     0.029 A 
ATOM     44  N   UNL A   1      38.839  30.848  32.820  1.00  0.00    -0.354 N 
ATOM     45  C   UNL A   1      39.135  33.285  36.389  1.00  0.00     0.074 A 
ATOM     46  C   UNL A   1      38.054  34.244  36.444  1.00  0.00     0.031 C 
ATOM     47  C   UNL A   1      37.941  30.149  30.898  1.00  0.00     0.029 A 
ATOM     48  C   UNL A   1      39.068  29.944  31.808  1.00  0.00     0.049 A 
ATOM     49  H   UNL A   1      39.401  30.909  33.625  1.00  0.00     0.167 HD
ATOM     50  C   UNL A   1      40.080  33.146  37.351  1.00  0.00     0.034 A 
ATOM     51  C   UNL A   1      40.090  29.079  31.625  1.00  0.00     0.034 A 
ATOM     52  C   UNL A   1      41.166  32.201  37.274  1.00  0.00     0.049 A 
ATOM     53  C   UNL A   1      41.194  29.013  32.658  1.00  0.00     0.074 A 
ATOM     54  C   UNL A   1      42.179  31.976  38.190  1.00  0.00     0.029 A 
ATOM     55  N   UNL A   1      41.393  31.336  36.211  1.00  0.00    -0.354 N 
ATOM     56  N   UNL A   1      41.323  29.688  33.778  1.00  0.00    -0.248 NA
ATOM     57  C   UNL A   1      42.288  28.066  32.402  1.00  0.00     0.031 C 
ATOM     58  C   UNL A   1      43.055  31.030  37.650  1.00  0.00     0.029 A 
ATOM     59  C   UNL A   1      42.546  30.600  36.434  1.00  0.00     0.049 A 
ATOM     60  H   UNL A   1      40.818  31.255  35.417  1.00  0.00     0.167 HD
ATOM     61  C   UNL A   1      42.492  29.218  34.374  1.00  0.00     0.074 A 
ATOM     62  C   UNL A   1      43.025  28.199  33.495  1.00  0.00     0.031 C 
ATOM     63  C   UNL A   1      43.070  29.588  35.547  1.00  0.00     0.034 A 
BRANCH  50  64
ATOM     64  C   UNL A   1      40.005  34.083  38.530  1.00  0.00     0.023 A 
ATOM     65  C   UNL A   1      40.733  35.286  38.567  1.00  0.00     0.031 A 
ATOM     66  C   UNL A   1      39.232  33.745  39.654  1.00  0.00     0.131 A 
ATOM     67  C   UNL A   1      40.731  36.068  39.732  1.00  0.00     0.055 A 
ATOM     68  C   UNL A   1      39.168  34.571  40.778  1.00  0.00     0.041 A 
ATOM     69  F   UNL A   1      38.539  32.596  39.687  1.00  0.00    -0.206 F 
ATOM     70  C   UNL A   1      39.933  35.733  40.828  1.00  0.00     0.022 A 
BRANCH  67  71
ATOM     71  S   UNL A   1      41.904  37.447  39.849  1.00  0.00     0.124 S 
ATOM     72  O   UNL A   1      42.830  36.960  40.868  1.00  0.00    -0.237 OA
ATOM     73  O   UNL A   1      42.431  37.529  38.492  1.00  0.00    -0.237 OA
ATOM     74  O   UNL A   1      41.069  38.573  40.264  1.00  0.00    -0.744 OA
ENDBRANCH  67  71
ENDBRANCH  50  64
BRANCH  51  75
ATOM     75  C   UNL A   1      40.162  28.234  30.397  1.00  0.00     0.023 A 
ATOM     76  C   UNL A   1      41.011  28.573  29.329  1.00  0.00     0.031 A 
ATOM     77  C   UNL A   1      39.325  27.114  30.240  1.00  0.00     0.131 A 
ATOM     78  C   UNL A   1      40.968  27.832  28.137  1.00  0.00     0.055 A 
ATOM     79  C   UNL A   1      39.327  26.347  29.073  1.00  0.00     0.041 A 
ATOM     80  F   UNL A   1      38.488  26.749  31.224  1.00  0.00    -0.206 F 
ATOM     81  C   UNL A   1      40.142  26.713  28.007  1.00  0.00     0.022 A 
BRANCH  78  82
ATOM     82  S   UNL A   1      41.945  28.408  26.720  1.00  0.00     0.124 S 
ATOM     83  O   UNL A   1      40.906  28.922  25.834  1.00  0.00    -0.237 OA
ATOM     84  O   UNL A   1      42.813  29.405  27.336  1.00  0.00    -0.237 OA
ATOM     85  O   UNL A   1      42.619  27.197  26.257  1.00  0.00    -0.744 OA
ENDBRANCH  78  82
ENDBRANCH  51  75
BRANCH  63  86
ATOM     86  C   UNL A   1      44.312  28.842  35.975  1.00  0.00     0.023 A 
ATOM     87  C   UNL A   1      44.262  27.757  36.867  1.00  0.00     0.031 A 
ATOM     88  C   UNL A   1      45.570  29.227  35.474  1.00  0.00     0.131 A 
ATOM     89  C   UNL A   1      45.451  27.128  37.269  1.00  0.00     0.055 A 
ATOM     90  C   UNL A   1      46.741  28.559  35.830  1.00  0.00     0.041 A 
ATOM     91  F   UNL A   1      45.679  30.258  34.620  1.00  0.00    -0.206 F 
ATOM     92  C   UNL A   1      46.687  27.510  36.743  1.00  0.00     0.022 A 
BRANCH  89  93
ATOM     93  S   UNL A   1      45.371  25.855  38.560  1.00  0.00     0.124 S 
ATOM     94  O   UNL A   1      46.767  25.754  38.973  1.00  0.00    -0.237 OA
ATOM     95  O   UNL A   1      44.459  26.451  39.530  1.00  0.00    -0.237 OA
ATOM     96  O   UNL A   1      44.847  24.685  37.856  1.00  0.00    -0.744 OA
ENDBRANCH  89  93
ENDBRANCH  63  86
ENDBRANCH  37  38
ENDBRANCH  30  32
ENDBRANCH  29  30
ENDBRANCH  28  29
ENDBRANCH  27  28
ENDBRANCH  26  27
ENDBRANCH   1  26
TORSDOF 22
ENDMDL
MODEL 3
REMARK VINA RESULT:      -9.8      1.757      2.163
REMARK SMILES CC(C)(C)OC(=O)N1CCC2(CC1)C[C@@H](C(=O)OCCOCCOCCOC(=O)c1ccc(-c3c4nc(c(-c5cc(S(=O)(=O)[O-])ccc5F)c5ccc([nH]5)c(-c5cc(S(=O)(=O)[O-])ccc5F)c5nc(c(-c6cc(S(=O)(=O)[O-])ccc6F)c6ccc3[nH]6)C=C5)C=C4)cc1)CO2
REMARK SMILES IDX 23 1 22 2 21 3 20 4 19 5 18 6 16 7 17 8 15 9 6 10 7 11 8 12
REMARK SMILES IDX 9 13 13 14 10 15 12 16 11 17 14 18 94 19 93 20 5 21 2 22
REMARK SMILES IDX 1 23 3 24 4 25 24 26 25 27 26 28 27 29 28 30 29 31 30 32
REMARK SMILES IDX 31 33 92 34 32 35 91 36 33 37 34 38 35 39 85 40 36 41 90 42
REMARK SMILES IDX 84 43 86 44 37 45 89 46 83 47 82 48 38 50 70 51 50 52 69 53
REMARK SMILES IDX 51 54 54 55 68 56 87 57 52 58 53 59 67 61 88 62 55 63 39 64
REMARK SMILES IDX 40 65 48 66 41 67 47 68 49 69 46 70 42 71 43 72 44 73 45 74
REMARK SMILES IDX 71 75 72 76 80 77 73 78 79 79 81 80 78 81 74 82 75 83 76 84
REMARK SMILES IDX 77 85 56 86 57 87 65 88 58 89 64 90 66 91 63 92 59 93 60 94
REMARK SMILES IDX 61 95 62 96
REMARK H PARENT 86 49 54 60
REMARK Flexibility Score: inf
ROOT
ATOM      1  C   UNL A   1      35.374  33.746  28.530  1.00  0.00     0.188 C 
ENDROOT
BRANCH   1   2
ATOM      2  C   UNL A   1      34.720  32.626  29.346  1.00  0.00     0.188 C 
BRANCH   2   3
ATOM      3  O   UNL A   1      34.982  31.278  28.974  1.00  0.00    -0.376 OA
BRANCH   3   4
ATOM      4  C   UNL A   1      35.070  30.963  27.583  1.00  0.00     0.202 C 
BRANCH   4   5
ATOM      5  C   UNL A   1      34.355  29.698  27.089  1.00  0.00     0.261 C 
BRANCH   5   6
ATOM      6  O   UNL A   1      33.336  29.977  26.107  1.00  0.00    -0.463 OA
BRANCH   6   7
ATOM      7  C   UNL A   1      32.156  29.327  26.262  1.00  0.00     0.311 C 
ATOM      8  O   UNL A   1      31.608  29.151  27.345  1.00  0.00    -0.252 OA
BRANCH   7   9
ATOM      9  C   UNL A   1      31.508  28.925  24.947  1.00  0.00     0.128 C 
ATOM     10  C   UNL A   1      33.841  22.966  24.050  1.00  0.00     0.410 C 
ATOM     11  O   UNL A   1      33.621  22.160  23.154  1.00  0.00    -0.224 OA
ATOM     12  N   UNL A   1      33.685  24.323  23.906  1.00  0.00    -0.308 N 
ATOM     13  C   UNL A   1      32.837  24.835  22.845  1.00  0.00     0.126 C 
ATOM     14  C   UNL A   1      34.224  25.313  24.833  1.00  0.00     0.126 C 
ATOM     15  C   UNL A   1      31.651  25.567  23.474  1.00  0.00     0.057 C 
ATOM     16  C   UNL A   1      33.099  26.115  25.479  1.00  0.00     0.057 C 
ATOM     17  C   UNL A   1      32.153  26.678  24.405  1.00  0.00     0.073 C 
ATOM     18  C   UNL A   1      31.006  27.493  25.006  1.00  0.00     0.053 C 
ATOM     19  O   UNL A   1      32.922  27.578  23.596  1.00  0.00    -0.374 OA
ATOM     20  C   UNL A   1      32.394  28.891  23.718  1.00  0.00     0.176 C 
BRANCH  10  21
ATOM     21  O   UNL A   1      34.192  22.636  25.316  1.00  0.00    -0.444 OA
BRANCH  21  22
ATOM     22  C   UNL A   1      33.292  21.880  26.158  1.00  0.00     0.106 C 
ATOM     23  C   UNL A   1      31.901  22.445  25.841  1.00  0.00     0.056 C 
ATOM     24  C   UNL A   1      33.637  22.154  27.621  1.00  0.00     0.056 C 
ATOM     25  C   UNL A   1      33.276  20.378  25.834  1.00  0.00     0.056 C 
ENDBRANCH  21  22
ENDBRANCH  10  21
ENDBRANCH   7   9
ENDBRANCH   6   7
ENDBRANCH   5   6
ENDBRANCH   4   5
ENDBRANCH   3   4
ENDBRANCH   2   3
ENDBRANCH   1   2
BRANCH   1  26
ATOM     26  O   UNL A   1      34.635  34.951  28.469  1.00  0.00    -0.376 OA
BRANCH  26  27
ATOM     27  C   UNL A   1      33.279  34.903  28.901  1.00  0.00     0.202 C 
BRANCH  27  28
ATOM     28  C   UNL A   1      32.930  35.824  30.085  1.00  0.00     0.261 C 
BRANCH  28  29
ATOM     29  O   UNL A   1      32.814  35.169  31.363  1.00  0.00    -0.460 OA
BRANCH  29  30
ATOM     30  C   UNL A   1      33.650  35.589  32.347  1.00  0.00     0.338 C 
ATOM     31  O   UNL A   1      33.405  36.423  33.200  1.00  0.00    -0.246 OA
BRANCH  30  32
ATOM     32  C   UNL A   1      34.795  34.644  32.389  1.00  0.00     0.060 A 
ATOM     33  C   UNL A   1      34.580  33.344  32.877  1.00  0.00     0.016 A 
ATOM     34  C   UNL A   1      36.043  35.007  31.883  1.00  0.00     0.016 A 
ATOM     35  C   UNL A   1      35.624  32.417  32.887  1.00  0.00     0.010 A 
ATOM     36  C   UNL A   1      37.094  34.087  31.919  1.00  0.00     0.010 A 
ATOM     37  C   UNL A   1      36.898  32.797  32.448  1.00  0.00    -0.014 A 
BRANCH  37  38
ATOM     38  C   UNL A   1      38.079  31.953  32.764  1.00  0.00     0.031 A 
ATOM     39  C   UNL A   1      38.819  32.245  34.042  1.00  0.00     0.074 A 
ATOM     40  C   UNL A   1      38.494  30.964  31.952  1.00  0.00     0.049 A 
ATOM     41  N   UNL A   1      39.932  31.734  34.497  1.00  0.00    -0.248 NA
ATOM     42  C   UNL A   1      38.218  33.263  34.917  1.00  0.00     0.031 C 
ATOM     43  C   UNL A   1      37.832  30.545  30.718  1.00  0.00     0.029 A 
ATOM     44  N   UNL A   1      39.588  30.138  32.044  1.00  0.00    -0.354 N 
ATOM     45  C   UNL A   1      40.170  32.374  35.709  1.00  0.00     0.074 A 
ATOM     46  C   UNL A   1      39.104  33.333  35.897  1.00  0.00     0.031 C 
ATOM     47  C   UNL A   1      38.544  29.549  30.160  1.00  0.00     0.029 A 
ATOM     48  C   UNL A   1      39.734  29.290  30.970  1.00  0.00     0.049 A 
ATOM     49  H   UNL A   1      40.209  30.152  32.808  1.00  0.00     0.167 HD
ATOM     50  C   UNL A   1      41.183  32.178  36.588  1.00  0.00     0.034 A 
ATOM     51  C   UNL A   1      40.731  28.431  30.665  1.00  0.00     0.034 A 
ATOM     52  C   UNL A   1      42.252  31.234  36.379  1.00  0.00     0.049 A 
ATOM     53  C   UNL A   1      41.908  28.304  31.608  1.00  0.00     0.074 A 
ATOM     54  C   UNL A   1      43.328  30.955  37.203  1.00  0.00     0.029 A 
ATOM     55  N   UNL A   1      42.391  30.427  35.257  1.00  0.00    -0.354 N 
ATOM     56  N   UNL A   1      42.126  28.916  32.750  1.00  0.00    -0.248 NA
ATOM     57  C   UNL A   1      42.972  27.368  31.220  1.00  0.00     0.031 C 
ATOM     58  C   UNL A   1      44.153  30.036  36.549  1.00  0.00     0.029 A 
ATOM     59  C   UNL A   1      43.552  29.675  35.353  1.00  0.00     0.049 A 
ATOM     60  H   UNL A   1      41.758  30.393  34.504  1.00  0.00     0.167 HD
ATOM     61  C   UNL A   1      43.332  28.409  33.230  1.00  0.00     0.074 A 
ATOM     62  C   UNL A   1      43.789  27.437  32.260  1.00  0.00     0.031 C 
ATOM     63  C   UNL A   1      43.999  28.711  34.375  1.00  0.00     0.034 A 
BRANCH  50  64
ATOM     64  C   UNL A   1      41.203  33.050  37.819  1.00  0.00     0.023 A 
ATOM     65  C   UNL A   1      40.496  32.702  38.984  1.00  0.00     0.031 A 
ATOM     66  C   UNL A   1      41.901  34.270  37.810  1.00  0.00     0.131 A 
ATOM     67  C   UNL A   1      40.441  33.599  40.061  1.00  0.00     0.055 A 
ATOM     68  C   UNL A   1      41.911  35.119  38.918  1.00  0.00     0.041 A 
ATOM     69  F   UNL A   1      42.571  34.667  36.717  1.00  0.00    -0.206 F 
ATOM     70  C   UNL A   1      41.166  34.793  40.047  1.00  0.00     0.022 A 
BRANCH  67  71
ATOM     71  S   UNL A   1      39.288  33.253  41.417  1.00  0.00     0.124 S 
ATOM     72  O   UNL A   1      39.265  31.793  41.420  1.00  0.00    -0.237 OA
ATOM     73  O   UNL A   1      39.942  33.884  42.558  1.00  0.00    -0.237 OA
ATOM     74  O   UNL A   1      38.045  33.887  40.980  1.00  0.00    -0.744 OA
ENDBRANCH  67  71
ENDBRANCH  50  64
BRANCH  51  75
ATOM     75  C   UNL A   1      40.704  27.655  29.390  1.00  0.00     0.023 A 
ATOM     76  C   UNL A   1      41.567  27.972  28.328  1.00  0.00     0.031 A 
ATOM     77  C   UNL A   1      39.761  26.631  29.188  1.00  0.00     0.131 A 
ATOM     78  C   UNL A   1      41.437  27.307  27.097  1.00  0.00     0.055 A 
ATOM     79  C   UNL A   1      39.673  25.936  27.980  1.00  0.00     0.041 A 
ATOM     80  F   UNL A   1      38.907  26.292  30.166  1.00  0.00    -0.206 F 
ATOM     81  C   UNL A   1      40.505  26.282  26.921  1.00  0.00     0.022 A 
BRANCH  78  82
ATOM     82  S   UNL A   1      42.445  27.867  25.695  1.00  0.00     0.124 S 
ATOM     83  O   UNL A   1      43.778  27.908  26.287  1.00  0.00    -0.237 OA
ATOM     84  O   UNL A   1      42.211  26.812  24.715  1.00  0.00    -0.237 OA
ATOM     85  O   UNL A   1      41.869  29.167  25.359  1.00  0.00    -0.744 OA
ENDBRANCH  78  82
ENDBRANCH  51  75
BRANCH  63  86
ATOM     86  C   UNL A   1      45.263  27.937  34.668  1.00  0.00     0.023 A 
ATOM     87  C   UNL A   1      45.250  26.725  35.380  1.00  0.00     0.031 A 
ATOM     88  C   UNL A   1      46.505  28.425  34.219  1.00  0.00     0.131 A 
ATOM     89  C   UNL A   1      46.458  26.070  35.666  1.00  0.00     0.055 A 
ATOM     90  C   UNL A   1      47.695  27.737  34.454  1.00  0.00     0.041 A 
ATOM     91  F   UNL A   1      46.579  29.579  33.535  1.00  0.00    -0.206 F 
ATOM     92  C   UNL A   1      47.678  26.558  35.192  1.00  0.00     0.022 A 
BRANCH  89  93
ATOM     93  S   UNL A   1      46.424  24.610  36.743  1.00  0.00     0.124 S 
ATOM     94  O   UNL A   1      47.845  24.369  36.972  1.00  0.00    -0.237 OA
ATOM     95  O   UNL A   1      45.664  25.087  37.893  1.00  0.00    -0.237 OA
ATOM     96  O   UNL A   1      45.748  23.600  35.930  1.00  0.00    -0.744 OA
ENDBRANCH  89  93
ENDBRANCH  63  86
ENDBRANCH  37  38
ENDBRANCH  30  32
ENDBRANCH  29  30
ENDBRANCH  28  29
ENDBRANCH  27  28
ENDBRANCH  26  27
ENDBRANCH   1  26
TORSDOF 22
ENDMDL
