MODEL 1
REMARK VINA RESULT:     -10.8      0.000      0.000
REMARK SMILES Cc1ccc([C@H](C)NC(=O)[C@H]2[C@@H]3CC[C@@H](C3)[C@@H]2C(=O)OCCOCCOCCOC(=O)c2ccc(-c3c4nc(c(-c5cc(S(=O)(=O)[O-])ccc5F)c5ccc([nH]5)c(-c5cc(S(=O)(=O)[O-])ccc5F)c5nc(c(-c6cc(S(=O)(=O)[O-])ccc6F)c6ccc3[nH]6)C=C5)C=C4)cc2)cc1
REMARK SMILES IDX 24 1 23 2 22 3 21 4 20 5 18 6 19 7 17 8 11 9 12 10 13 11
REMARK SMILES IDX 16 12 15 13 14 14 9 15 8 16 10 18 6 19 7 20 5 21 1 22 2 23
REMARK SMILES IDX 3 24 96 25 4 26 95 27 25 28 26 29 27 30 28 31 29 32 30 33
REMARK SMILES IDX 31 34 32 35 33 36 94 37 34 38 93 39 35 40 36 41 37 42 87 43
REMARK SMILES IDX 38 44 92 45 86 46 88 47 39 48 91 49 85 50 84 51 40 53 72 54
REMARK SMILES IDX 52 55 71 56 53 57 56 58 70 59 89 60 54 61 55 62 69 64 90 65
REMARK SMILES IDX 57 66 41 67 42 68 50 69 43 70 49 71 51 72 48 73 44 74 45 75
REMARK SMILES IDX 46 76 47 77 73 78 74 79 82 80 75 81 81 82 83 83 80 84 76 85
REMARK SMILES IDX 77 86 78 87 79 88 58 89 59 90 67 91 60 92 66 93 68 94 65 95
REMARK SMILES IDX 61 96 62 97 63 98 64 99
REMARK H PARENT 8 17 88 52 56 63
REMARK Flexibility Score: inf
ROOT
ATOM      1  C   UNL A   1      39.994  20.982  26.279  1.00  0.00     0.188 C 
ENDROOT
BRANCH   1   2
ATOM      2  O   UNL A   1      38.720  21.548  25.946  1.00  0.00    -0.376 OA
BRANCH   2   3
ATOM      3  C   UNL A   1      38.409  22.920  26.193  1.00  0.00     0.202 C 
BRANCH   3   4
ATOM      4  C   UNL A   1      37.013  23.609  25.818  1.00  0.00     0.261 C 
BRANCH   4   5
ATOM      5  O   UNL A   1      35.941  22.900  25.050  1.00  0.00    -0.463 OA
BRANCH   5   6
ATOM      6  C   UNL A   1      35.417  22.986  23.751  1.00  0.00     0.310 C 
ATOM      7  O   UNL A   1      36.139  22.864  22.769  1.00  0.00    -0.252 OA
BRANCH   6   8
ATOM      8  C   UNL A   1      33.625  23.123  23.634  1.00  0.00     0.115 C 
ATOM      9  C   UNL A   1      33.283  24.618  23.701  1.00  0.00     0.096 C 
ATOM     10  C   UNL A   1      31.948  24.680  24.484  1.00  0.00     0.002 C 
ATOM     11  C   UNL A   1      32.078  24.064  25.906  1.00  0.00     0.005 C 
ATOM     12  C   UNL A   1      31.167  23.582  23.811  1.00  0.00     0.009 C 
ATOM     13  C   UNL A   1      32.230  22.495  24.163  1.00  0.00     0.004 C 
ATOM     14  C   UNL A   1      31.926  22.568  25.649  1.00  0.00     0.005 C 
BRANCH   9  15
ATOM     15  C   UNL A   1      33.302  25.339  22.324  1.00  0.00     0.224 C 
ATOM     16  N   UNL A   1      33.419  26.677  22.069  1.00  0.00    -0.349 N 
ATOM     17  H   UNL A   1      33.114  26.898  21.159  1.00  0.00     0.164 HD
ATOM     18  O   UNL A   1      33.176  24.631  21.314  1.00  0.00    -0.275 OA
BRANCH  16  19
ATOM     19  C   UNL A   1      33.880  27.882  22.792  1.00  0.00     0.109 C 
ATOM     20  C   UNL A   1      33.496  29.135  21.985  1.00  0.00     0.036 C 
BRANCH  19  21
ATOM     21  C   UNL A   1      33.341  28.106  24.193  1.00  0.00    -0.026 A 
ATOM     22  C   UNL A   1      31.305  27.905  27.976  1.00  0.00     0.044 C 
ATOM     23  C   UNL A   1      32.023  28.048  26.673  1.00  0.00    -0.051 A 
ATOM     24  C   UNL A   1      31.353  28.527  25.547  1.00  0.00     0.004 A 
ATOM     25  C   UNL A   1      33.378  27.714  26.579  1.00  0.00     0.004 A 
ATOM     26  C   UNL A   1      32.005  28.552  24.319  1.00  0.00     0.006 A 
ATOM     27  C   UNL A   1      34.032  27.730  25.346  1.00  0.00     0.006 A 
ENDBRANCH  19  21
ENDBRANCH  16  19
ENDBRANCH   9  15
ENDBRANCH   6   8
ENDBRANCH   5   6
ENDBRANCH   4   5
ENDBRANCH   3   4
ENDBRANCH   2   3
ENDBRANCH   1   2
BRANCH   1  28
ATOM     28  C   UNL A   1      40.894  21.673  27.293  1.00  0.00     0.188 C 
BRANCH  28  29
ATOM     29  O   UNL A   1      41.573  22.717  26.607  1.00  0.00    -0.376 OA
BRANCH  29  30
ATOM     30  C   UNL A   1      42.751  22.356  25.923  1.00  0.00     0.202 C 
BRANCH  30  31
ATOM     31  C   UNL A   1      43.440  23.553  25.261  1.00  0.00     0.261 C 
BRANCH  31  32
ATOM     32  O   UNL A   1      43.514  24.714  26.121  1.00  0.00    -0.460 OA
BRANCH  32  33
ATOM     33  C   UNL A   1      42.708  25.799  25.815  1.00  0.00     0.338 C 
ATOM     34  O   UNL A   1      42.406  26.089  24.692  1.00  0.00    -0.246 OA
BRANCH  33  35
ATOM     35  C   UNL A   1      42.055  26.345  27.051  1.00  0.00     0.060 A 
ATOM     36  C   UNL A   1      40.703  26.497  27.343  1.00  0.00     0.016 A 
ATOM     37  C   UNL A   1      42.891  26.740  28.036  1.00  0.00     0.016 A 
ATOM     38  C   UNL A   1      40.235  27.232  28.526  1.00  0.00     0.010 A 
ATOM     39  C   UNL A   1      42.398  27.506  29.105  1.00  0.00     0.010 A 
ATOM     40  C   UNL A   1      41.077  27.909  29.442  1.00  0.00    -0.014 A 
BRANCH  40  41
ATOM     41  C   UNL A   1      40.560  29.167  30.467  1.00  0.00     0.031 A 
ATOM     42  C   UNL A   1      39.667  30.648  30.414  1.00  0.00     0.074 A 
ATOM     43  C   UNL A   1      40.582  28.752  31.761  1.00  0.00     0.049 A 
ATOM     44  N   UNL A   1      39.259  31.295  31.502  1.00  0.00    -0.248 NA
ATOM     45  C   UNL A   1      39.167  31.508  29.301  1.00  0.00     0.031 C 
ATOM     46  C   UNL A   1      39.681  29.110  32.857  1.00  0.00     0.029 A 
ATOM     47  N   UNL A   1      41.521  27.939  32.386  1.00  0.00    -0.354 N 
ATOM     48  C   UNL A   1      38.315  32.283  31.182  1.00  0.00     0.074 A 
ATOM     49  C   UNL A   1      38.431  32.480  29.808  1.00  0.00     0.031 C 
ATOM     50  C   UNL A   1      40.235  28.766  34.023  1.00  0.00     0.029 A 
ATOM     51  C   UNL A   1      41.568  28.304  33.732  1.00  0.00     0.049 A 
ATOM     52  H   UNL A   1      42.057  27.234  31.957  1.00  0.00     0.167 HD
ATOM     53  C   UNL A   1      37.414  32.846  32.033  1.00  0.00     0.034 A 
ATOM     54  C   UNL A   1      42.732  28.709  34.303  1.00  0.00     0.034 A 
ATOM     55  C   UNL A   1      37.824  32.617  33.393  1.00  0.00     0.049 A 
ATOM     56  C   UNL A   1      42.606  30.057  34.957  1.00  0.00     0.074 A 
ATOM     57  C   UNL A   1      37.350  31.852  34.435  1.00  0.00     0.029 A 
ATOM     58  N   UNL A   1      39.072  33.095  33.770  1.00  0.00    -0.354 N 
ATOM     59  N   UNL A   1      41.548  30.812  34.837  1.00  0.00    -0.248 NA
ATOM     60  C   UNL A   1      43.615  30.667  35.812  1.00  0.00     0.031 C 
ATOM     61  C   UNL A   1      38.388  31.783  35.408  1.00  0.00     0.029 A 
ATOM     62  C   UNL A   1      39.451  32.564  34.981  1.00  0.00     0.049 A 
ATOM     63  H   UNL A   1      39.612  33.726  33.242  1.00  0.00     0.167 HD
ATOM     64  C   UNL A   1      41.700  31.964  35.551  1.00  0.00     0.074 A 
ATOM     65  C   UNL A   1      43.007  31.816  36.166  1.00  0.00     0.031 C 
ATOM     66  C   UNL A   1      40.741  32.939  35.550  1.00  0.00     0.034 A 
BRANCH  53  67
ATOM     67  C   UNL A   1      36.121  33.590  31.629  1.00  0.00     0.023 A 
ATOM     68  C   UNL A   1      35.514  33.312  30.380  1.00  0.00     0.031 A 
ATOM     69  C   UNL A   1      35.505  34.658  32.339  1.00  0.00     0.131 A 
ATOM     70  C   UNL A   1      34.379  34.032  29.922  1.00  0.00     0.055 A 
ATOM     71  C   UNL A   1      34.327  35.306  31.926  1.00  0.00     0.041 A 
ATOM     72  F   UNL A   1      36.049  35.209  33.433  1.00  0.00    -0.206 F 
ATOM     73  C   UNL A   1      33.759  34.999  30.707  1.00  0.00     0.022 A 
BRANCH  70  74
ATOM     74  S   UNL A   1      33.770  33.780  28.226  1.00  0.00     0.124 S 
ATOM     75  O   UNL A   1      32.418  34.325  28.301  1.00  0.00    -0.237 OA
ATOM     76  O   UNL A   1      34.733  34.533  27.433  1.00  0.00    -0.237 OA
ATOM     77  O   UNL A   1      33.832  32.328  28.050  1.00  0.00    -0.744 OA
ENDBRANCH  70  74
ENDBRANCH  53  67
BRANCH  54  78
ATOM     78  C   UNL A   1      43.906  28.002  33.704  1.00  0.00     0.023 A 
ATOM     79  C   UNL A   1      44.097  26.676  34.173  1.00  0.00     0.031 A 
ATOM     80  C   UNL A   1      44.418  28.319  32.437  1.00  0.00     0.131 A 
ATOM     81  C   UNL A   1      44.599  25.678  33.325  1.00  0.00     0.055 A 
ATOM     82  C   UNL A   1      45.012  27.334  31.625  1.00  0.00     0.041 A 
ATOM     83  F   UNL A   1      44.210  29.530  31.898  1.00  0.00    -0.206 F 
ATOM     84  C   UNL A   1      45.063  25.999  32.049  1.00  0.00     0.022 A 
BRANCH  81  85
ATOM     85  S   UNL A   1      44.303  23.930  33.772  1.00  0.00     0.124 S 
ATOM     86  O   UNL A   1      44.340  23.270  32.474  1.00  0.00    -0.237 OA
ATOM     87  O   UNL A   1      45.408  23.629  34.679  1.00  0.00    -0.237 OA
ATOM     88  O   UNL A   1      42.998  23.966  34.422  1.00  0.00    -0.744 OA
ENDBRANCH  81  85
ENDBRANCH  54  78
BRANCH  66  89
ATOM     89  C   UNL A   1      40.934  34.354  36.046  1.00  0.00     0.023 A 
ATOM     90  C   UNL A   1      40.646  34.733  37.364  1.00  0.00     0.031 A 
ATOM     91  C   UNL A   1      41.603  35.326  35.260  1.00  0.00     0.131 A 
ATOM     92  C   UNL A   1      40.991  36.004  37.853  1.00  0.00     0.055 A 
ATOM     93  C   UNL A   1      42.013  36.563  35.770  1.00  0.00     0.041 A 
ATOM     94  F   UNL A   1      41.944  35.087  33.985  1.00  0.00    -0.206 F 
ATOM     95  C   UNL A   1      41.706  36.911  37.077  1.00  0.00     0.022 A 
BRANCH  92  96
ATOM     96  S   UNL A   1      40.529  36.404  39.556  1.00  0.00     0.124 S 
ATOM     97  O   UNL A   1      39.112  36.049  39.569  1.00  0.00    -0.237 OA
ATOM     98  O   UNL A   1      41.404  35.530  40.333  1.00  0.00    -0.237 OA
ATOM     99  O   UNL A   1      40.818  37.830  39.668  1.00  0.00    -0.744 OA
ENDBRANCH  92  96
ENDBRANCH  66  89
ENDBRANCH  40  41
ENDBRANCH  33  35
ENDBRANCH  32  33
ENDBRANCH  31  32
ENDBRANCH  30  31
ENDBRANCH  29  30
ENDBRANCH  28  29
ENDBRANCH   1  28
TORSDOF 23
ENDMDL
MODEL 2
REMARK VINA RESULT:     -10.3      1.865      2.256
REMARK SMILES Cc1ccc([C@H](C)NC(=O)[C@H]2[C@@H]3CC[C@@H](C3)[C@@H]2C(=O)OCCOCCOCCOC(=O)c2ccc(-c3c4nc(c(-c5cc(S(=O)(=O)[O-])ccc5F)c5ccc([nH]5)c(-c5cc(S(=O)(=O)[O-])ccc5F)c5nc(c(-c6cc(S(=O)(=O)[O-])ccc6F)c6ccc3[nH]6)C=C5)C=C4)cc2)cc1
REMARK SMILES IDX 24 1 23 2 22 3 21 4 20 5 18 6 19 7 17 8 11 9 12 10 13 11
REMARK SMILES IDX 16 12 15 13 14 14 9 15 8 16 10 18 6 19 7 20 5 21 1 22 2 23
REMARK SMILES IDX 3 24 96 25 4 26 95 27 25 28 26 29 27 30 28 31 29 32 30 33
REMARK SMILES IDX 31 34 32 35 33 36 94 37 34 38 93 39 35 40 36 41 37 42 87 43
REMARK SMILES IDX 38 44 92 45 86 46 88 47 39 48 91 49 85 50 84 51 40 53 72 54
REMARK SMILES IDX 52 55 71 56 53 57 56 58 70 59 89 60 54 61 55 62 69 64 90 65
REMARK SMILES IDX 57 66 41 67 42 68 50 69 43 70 49 71 51 72 48 73 44 74 45 75
REMARK SMILES IDX 46 76 47 77 73 78 74 79 82 80 75 81 81 82 83 83 80 84 76 85
REMARK SMILES IDX 77 86 78 87 79 88 58 89 59 90 67 91 60 92 66 93 68 94 65 95
REMARK SMILES IDX 61 96 62 97 63 98 64 99
REMARK H PARENT 8 17 88 52 56 63
REMARK Flexibility Score: inf
ROOT
ATOM      1  C   UNL A   1      39.977  21.106  26.246  1.00  0.00     0.188 C 
ENDROOT
BRANCH   1   2
ATOM      2  O   UNL A   1      38.706  21.585  25.789  1.00  0.00    -0.376 OA
BRANCH   2   3
ATOM      3  C   UNL A   1      38.201  22.871  26.152  1.00  0.00     0.202 C 
BRANCH   3   4
ATOM      4  C   UNL A   1      36.755  23.420  25.742  1.00  0.00     0.261 C 
BRANCH   4   5
ATOM      5  O   UNL A   1      35.840  22.678  24.818  1.00  0.00    -0.463 OA
BRANCH   5   6
ATOM      6  C   UNL A   1      35.433  22.821  23.482  1.00  0.00     0.310 C 
ATOM      7  O   UNL A   1      36.255  22.926  22.579  1.00  0.00    -0.252 OA
BRANCH   6   8
ATOM      8  C   UNL A   1      33.664  22.682  23.179  1.00  0.00     0.115 C 
ATOM      9  C   UNL A   1      33.060  24.077  23.387  1.00  0.00     0.096 C 
ATOM     10  C   UNL A   1      31.669  23.814  24.014  1.00  0.00     0.002 C 
ATOM     11  C   UNL A   1      31.774  23.037  25.357  1.00  0.00     0.005 C 
ATOM     12  C   UNL A   1      31.158  22.708  23.130  1.00  0.00     0.009 C 
ATOM     13  C   UNL A   1      32.358  21.769  23.467  1.00  0.00     0.004 C 
ATOM     14  C   UNL A   1      31.911  21.586  24.906  1.00  0.00     0.005 C 
BRANCH   9  15
ATOM     15  C   UNL A   1      33.079  24.975  22.117  1.00  0.00     0.224 C 
ATOM     16  N   UNL A   1      32.787  26.307  22.016  1.00  0.00    -0.349 N 
ATOM     17  H   UNL A   1      32.590  26.563  21.086  1.00  0.00     0.164 HD
ATOM     18  O   UNL A   1      33.374  24.429  21.044  1.00  0.00    -0.275 OA
BRANCH  16  19
ATOM     19  C   UNL A   1      32.688  27.467  22.928  1.00  0.00     0.109 C 
ATOM     20  C   UNL A   1      33.661  28.564  22.461  1.00  0.00     0.036 C 
BRANCH  19  21
ATOM     21  C   UNL A   1      31.333  28.139  23.059  1.00  0.00    -0.026 A 
ATOM     22  C   UNL A   1      27.364  29.701  22.506  1.00  0.00     0.044 C 
ATOM     23  C   UNL A   1      28.754  29.209  22.752  1.00  0.00    -0.051 A 
ATOM     24  C   UNL A   1      29.846  29.871  22.193  1.00  0.00     0.004 A 
ATOM     25  C   UNL A   1      28.968  28.086  23.559  1.00  0.00     0.004 A 
ATOM     26  C   UNL A   1      31.122  29.338  22.342  1.00  0.00     0.006 A 
ATOM     27  C   UNL A   1      30.245  27.545  23.704  1.00  0.00     0.006 A 
ENDBRANCH  19  21
ENDBRANCH  16  19
ENDBRANCH   9  15
ENDBRANCH   6   8
ENDBRANCH   5   6
ENDBRANCH   4   5
ENDBRANCH   3   4
ENDBRANCH   2   3
ENDBRANCH   1   2
BRANCH   1  28
ATOM     28  C   UNL A   1      40.831  21.967  27.166  1.00  0.00     0.188 C 
BRANCH  28  29
ATOM     29  O   UNL A   1      41.450  22.958  26.355  1.00  0.00    -0.376 OA
BRANCH  29  30
ATOM     30  C   UNL A   1      42.696  22.619  25.791  1.00  0.00     0.202 C 
BRANCH  30  31
ATOM     31  C   UNL A   1      43.394  23.815  25.138  1.00  0.00     0.261 C 
BRANCH  31  32
ATOM     32  O   UNL A   1      43.546  24.943  26.032  1.00  0.00    -0.460 OA
BRANCH  32  33
ATOM     33  C   UNL A   1      42.836  26.097  25.744  1.00  0.00     0.338 C 
ATOM     34  O   UNL A   1      42.635  26.477  24.625  1.00  0.00    -0.246 OA
BRANCH  33  35
ATOM     35  C   UNL A   1      42.132  26.608  26.967  1.00  0.00     0.060 A 
ATOM     36  C   UNL A   1      40.775  26.840  27.174  1.00  0.00     0.016 A 
ATOM     37  C   UNL A   1      42.916  26.875  28.034  1.00  0.00     0.016 A 
ATOM     38  C   UNL A   1      40.271  27.530  28.369  1.00  0.00     0.010 A 
ATOM     39  C   UNL A   1      42.399  27.604  29.117  1.00  0.00     0.010 A 
ATOM     40  C   UNL A   1      41.087  28.081  29.388  1.00  0.00    -0.014 A 
BRANCH  40  41
ATOM     41  C   UNL A   1      40.583  29.305  30.460  1.00  0.00     0.031 A 
ATOM     42  C   UNL A   1      39.687  30.784  30.467  1.00  0.00     0.074 A 
ATOM     43  C   UNL A   1      40.625  28.848  31.739  1.00  0.00     0.049 A 
ATOM     44  N   UNL A   1      39.294  31.395  31.582  1.00  0.00    -0.248 NA
ATOM     45  C   UNL A   1      39.169  31.678  29.390  1.00  0.00     0.031 C 
ATOM     46  C   UNL A   1      39.739  29.169  32.860  1.00  0.00     0.029 A 
ATOM     47  N   UNL A   1      41.575  28.018  32.324  1.00  0.00    -0.354 N 
ATOM     48  C   UNL A   1      38.344  32.391  31.308  1.00  0.00     0.074 A 
ATOM     49  C   UNL A   1      38.439  32.632  29.939  1.00  0.00     0.031 C 
ATOM     50  C   UNL A   1      40.311  28.790  34.006  1.00  0.00     0.029 A 
ATOM     51  C   UNL A   1      41.640  28.340  33.680  1.00  0.00     0.049 A 
ATOM     52  H   UNL A   1      42.105  27.328  31.865  1.00  0.00     0.167 HD
ATOM     53  C   UNL A   1      37.454  32.925  32.189  1.00  0.00     0.034 A 
ATOM     54  C   UNL A   1      42.812  28.729  34.248  1.00  0.00     0.034 A 
ATOM     55  C   UNL A   1      37.884  32.653  33.535  1.00  0.00     0.049 A 
ATOM     56  C   UNL A   1      42.693  30.055  34.946  1.00  0.00     0.074 A 
ATOM     57  C   UNL A   1      37.427  31.854  34.558  1.00  0.00     0.029 A 
ATOM     58  N   UNL A   1      39.137  33.121  33.908  1.00  0.00    -0.354 N 
ATOM     59  N   UNL A   1      41.632  30.811  34.866  1.00  0.00    -0.248 NA
ATOM     60  C   UNL A   1      43.714  30.639  35.805  1.00  0.00     0.031 C 
ATOM     61  C   UNL A   1      38.480  31.756  35.513  1.00  0.00     0.029 A 
ATOM     62  C   UNL A   1      39.535  32.553  35.096  1.00  0.00     0.049 A 
ATOM     63  H   UNL A   1      39.668  33.770  33.393  1.00  0.00     0.167 HD
ATOM     64  C   UNL A   1      41.792  31.940  35.614  1.00  0.00     0.074 A 
ATOM     65  C   UNL A   1      43.109  31.775  36.204  1.00  0.00     0.031 C 
ATOM     66  C   UNL A   1      40.832  32.912  35.658  1.00  0.00     0.034 A 
BRANCH  53  67
ATOM     67  C   UNL A   1      36.153  33.678  31.828  1.00  0.00     0.023 A 
ATOM     68  C   UNL A   1      35.554  33.473  30.561  1.00  0.00     0.031 A 
ATOM     69  C   UNL A   1      35.523  34.692  32.602  1.00  0.00     0.131 A 
ATOM     70  C   UNL A   1      34.412  34.208  30.145  1.00  0.00     0.055 A 
ATOM     71  C   UNL A   1      34.339  35.352  32.226  1.00  0.00     0.041 A 
ATOM     72  F   UNL A   1      36.058  35.178  33.730  1.00  0.00    -0.206 F 
ATOM     73  C   UNL A   1      33.779  35.116  30.988  1.00  0.00     0.022 A 
BRANCH  70  74
ATOM     74  S   UNL A   1      33.812  34.058  28.435  1.00  0.00     0.124 S 
ATOM     75  O   UNL A   1      33.812  32.612  28.236  1.00  0.00    -0.237 OA
ATOM     76  O   UNL A   1      32.509  34.706  28.502  1.00  0.00    -0.237 OA
ATOM     77  O   UNL A   1      34.817  34.780  27.652  1.00  0.00    -0.744 OA
ENDBRANCH  70  74
ENDBRANCH  53  67
BRANCH  54  78
ATOM     78  C   UNL A   1      43.978  28.044  33.608  1.00  0.00     0.023 A 
ATOM     79  C   UNL A   1      44.888  28.916  32.956  1.00  0.00     0.031 A 
ATOM     80  C   UNL A   1      44.474  26.811  34.056  1.00  0.00     0.131 A 
ATOM     81  C   UNL A   1      46.263  28.640  32.939  1.00  0.00     0.055 A 
ATOM     82  C   UNL A   1      45.842  26.494  33.948  1.00  0.00     0.041 A 
ATOM     83  F   UNL A   1      43.690  25.968  34.745  1.00  0.00    -0.206 F 
ATOM     84  C   UNL A   1      46.749  27.429  33.430  1.00  0.00     0.022 A 
BRANCH  81  85
ATOM     85  S   UNL A   1      47.421  30.016  32.606  1.00  0.00     0.124 S 
ATOM     86  O   UNL A   1      46.990  31.020  33.570  1.00  0.00    -0.237 OA
ATOM     87  O   UNL A   1      48.729  29.412  32.844  1.00  0.00    -0.237 OA
ATOM     88  O   UNL A   1      47.164  30.339  31.207  1.00  0.00    -0.744 OA
ENDBRANCH  81  85
ENDBRANCH  54  78
BRANCH  66  89
ATOM     89  C   UNL A   1      41.030  34.311  36.197  1.00  0.00     0.023 A 
ATOM     90  C   UNL A   1      40.585  34.696  37.468  1.00  0.00     0.031 A 
ATOM     91  C   UNL A   1      41.850  35.251  35.523  1.00  0.00     0.131 A 
ATOM     92  C   UNL A   1      40.926  35.942  38.018  1.00  0.00     0.055 A 
ATOM     93  C   UNL A   1      42.251  36.460  36.102  1.00  0.00     0.041 A 
ATOM     94  F   UNL A   1      42.350  35.003  34.302  1.00  0.00    -0.206 F 
ATOM     95  C   UNL A   1      41.788  36.815  37.360  1.00  0.00     0.022 A 
BRANCH  92  96
ATOM     96  S   UNL A   1      40.257  36.354  39.648  1.00  0.00     0.124 S 
ATOM     97  O   UNL A   1      40.416  37.806  39.674  1.00  0.00    -0.237 OA
ATOM     98  O   UNL A   1      38.882  35.872  39.554  1.00  0.00    -0.237 OA
ATOM     99  O   UNL A   1      41.113  35.614  40.571  1.00  0.00    -0.744 OA
ENDBRANCH  92  96
ENDBRANCH  66  89
ENDBRANCH  40  41
ENDBRANCH  33  35
ENDBRANCH  32  33
ENDBRANCH  31  32
ENDBRANCH  30  31
ENDBRANCH  29  30
ENDBRANCH  28  29
ENDBRANCH   1  28
TORSDOF 23
ENDMDL
MODEL 3
REMARK VINA RESULT:     -10.3      3.124      9.445
REMARK SMILES Cc1ccc([C@H](C)NC(=O)[C@H]2[C@@H]3CC[C@@H](C3)[C@@H]2C(=O)OCCOCCOCCOC(=O)c2ccc(-c3c4nc(c(-c5cc(S(=O)(=O)[O-])ccc5F)c5ccc([nH]5)c(-c5cc(S(=O)(=O)[O-])ccc5F)c5nc(c(-c6cc(S(=O)(=O)[O-])ccc6F)c6ccc3[nH]6)C=C5)C=C4)cc2)cc1
REMARK SMILES IDX 24 1 23 2 22 3 21 4 20 5 18 6 19 7 17 8 11 9 12 10 13 11
REMARK SMILES IDX 16 12 15 13 14 14 9 15 8 16 10 18 6 19 7 20 5 21 1 22 2 23
REMARK SMILES IDX 3 24 96 25 4 26 95 27 25 28 26 29 27 30 28 31 29 32 30 33
REMARK SMILES IDX 31 34 32 35 33 36 94 37 34 38 93 39 35 40 36 41 37 42 87 43
REMARK SMILES IDX 38 44 92 45 86 46 88 47 39 48 91 49 85 50 84 51 40 53 72 54
REMARK SMILES IDX 52 55 71 56 53 57 56 58 70 59 89 60 54 61 55 62 69 64 90 65
REMARK SMILES IDX 57 66 41 67 42 68 50 69 43 70 49 71 51 72 48 73 44 74 45 75
REMARK SMILES IDX 46 76 47 77 73 78 74 79 82 80 75 81 81 82 83 83 80 84 76 85
REMARK SMILES IDX 77 86 78 87 79 88 58 89 59 90 67 91 60 92 66 93 68 94 65 95
REMARK SMILES IDX 61 96 62 97 63 98 64 99
REMARK H PARENT 8 17 88 52 56 63
REMARK Flexibility Score: inf
ROOT
ATOM      1  C   UNL A   1      32.892  28.427  26.223  1.00  0.00     0.188 C 
ENDROOT
BRANCH   1   2
ATOM      2  O   UNL A   1      32.688  29.075  24.961  1.00  0.00    -0.376 OA
BRANCH   2   3
ATOM      3  C   UNL A   1      33.682  29.072  23.934  1.00  0.00     0.202 C 
BRANCH   3   4
ATOM      4  C   UNL A   1      33.676  28.080  22.678  1.00  0.00     0.261 C 
BRANCH   4   5
ATOM      5  O   UNL A   1      33.285  26.640  22.786  1.00  0.00    -0.463 OA
BRANCH   5   6
ATOM      6  C   UNL A   1      33.350  25.518  21.944  1.00  0.00     0.310 C 
ATOM      7  O   UNL A   1      33.285  25.638  20.726  1.00  0.00    -0.252 OA
BRANCH   6   8
ATOM      8  C   UNL A   1      33.687  23.946  22.753  1.00  0.00     0.115 C 
ATOM      9  C   UNL A   1      32.914  23.946  24.079  1.00  0.00     0.096 C 
ATOM     10  C   UNL A   1      33.830  23.184  25.068  1.00  0.00     0.002 C 
ATOM     11  C   UNL A   1      35.217  23.869  25.222  1.00  0.00     0.005 C 
ATOM     12  C   UNL A   1      34.233  21.998  24.234  1.00  0.00     0.009 C 
ATOM     13  C   UNL A   1      34.859  22.890  23.116  1.00  0.00     0.004 C 
ATOM     14  C   UNL A   1      35.992  23.353  24.014  1.00  0.00     0.005 C 
BRANCH   9  15
ATOM     15  C   UNL A   1      31.452  23.430  23.964  1.00  0.00     0.224 C 
ATOM     16  N   UNL A   1      30.326  23.933  24.552  1.00  0.00    -0.349 N 
ATOM     17  H   UNL A   1      29.596  23.272  24.561  1.00  0.00     0.164 HD
ATOM     18  O   UNL A   1      31.263  22.419  23.271  1.00  0.00    -0.275 OA
BRANCH  16  19
ATOM     19  C   UNL A   1      29.907  25.206  25.180  1.00  0.00     0.109 C 
ATOM     20  C   UNL A   1      31.087  25.791  25.976  1.00  0.00     0.036 C 
BRANCH  19  21
ATOM     21  C   UNL A   1      29.433  26.317  24.261  1.00  0.00    -0.026 A 
ATOM     22  C   UNL A   1      27.820  29.899  22.511  1.00  0.00     0.044 C 
ATOM     23  C   UNL A   1      28.372  28.620  23.053  1.00  0.00    -0.051 A 
ATOM     24  C   UNL A   1      27.514  27.603  23.472  1.00  0.00     0.004 A 
ATOM     25  C   UNL A   1      29.755  28.431  23.131  1.00  0.00     0.004 A 
ATOM     26  C   UNL A   1      28.041  26.465  24.073  1.00  0.00     0.006 A 
ATOM     27  C   UNL A   1      30.286  27.294  23.741  1.00  0.00     0.006 A 
ENDBRANCH  19  21
ENDBRANCH  16  19
ENDBRANCH   9  15
ENDBRANCH   6   8
ENDBRANCH   5   6
ENDBRANCH   4   5
ENDBRANCH   3   4
ENDBRANCH   2   3
ENDBRANCH   1   2
BRANCH   1  28
ATOM     28  C   UNL A   1      32.951  29.249  27.502  1.00  0.00     0.188 C 
BRANCH  28  29
ATOM     29  O   UNL A   1      31.872  30.176  27.454  1.00  0.00    -0.376 OA
BRANCH  29  30
ATOM     30  C   UNL A   1      32.206  31.513  27.162  1.00  0.00     0.202 C 
BRANCH  30  31
ATOM     31  C   UNL A   1      33.682  31.824  27.426  1.00  0.00     0.261 C 
BRANCH  31  32
ATOM     32  O   UNL A   1      33.943  32.226  28.792  1.00  0.00    -0.460 OA
BRANCH  32  33
ATOM     33  C   UNL A   1      35.208  32.704  29.095  1.00  0.00     0.338 C 
ATOM     34  O   UNL A   1      35.390  33.702  29.732  1.00  0.00    -0.246 OA
BRANCH  33  35
ATOM     35  C   UNL A   1      36.255  31.674  28.787  1.00  0.00     0.060 A 
ATOM     36  C   UNL A   1      36.108  30.319  28.506  1.00  0.00     0.016 A 
ATOM     37  C   UNL A   1      37.531  32.118  28.764  1.00  0.00     0.016 A 
ATOM     38  C   UNL A   1      37.257  29.407  28.419  1.00  0.00     0.010 A 
ATOM     39  C   UNL A   1      38.591  31.196  28.757  1.00  0.00     0.010 A 
ATOM     40  C   UNL A   1      38.602  29.777  28.669  1.00  0.00    -0.014 A 
BRANCH  40  41
ATOM     41  C   UNL A   1      39.833  28.678  29.090  1.00  0.00     0.031 A 
ATOM     42  C   UNL A   1      40.248  27.008  28.913  1.00  0.00     0.074 A 
ATOM     43  C   UNL A   1      40.976  29.352  29.385  1.00  0.00     0.049 A 
ATOM     44  N   UNL A   1      41.451  26.519  29.201  1.00  0.00    -0.248 NA
ATOM     45  C   UNL A   1      39.493  25.804  28.453  1.00  0.00     0.031 C 
ATOM     46  C   UNL A   1      42.365  28.958  29.142  1.00  0.00     0.029 A 
ATOM     47  N   UNL A   1      41.112  30.556  30.068  1.00  0.00    -0.354 N 
ATOM     48  C   UNL A   1      41.608  25.221  28.690  1.00  0.00     0.074 A 
ATOM     49  C   UNL A   1      40.321  24.776  28.396  1.00  0.00     0.031 C 
ATOM     50  C   UNL A   1      43.182  29.721  29.874  1.00  0.00     0.029 A 
ATOM     51  C   UNL A   1      42.347  30.537  30.717  1.00  0.00     0.049 A 
ATOM     52  H   UNL A   1      40.455  31.288  30.091  1.00  0.00     0.167 HD
ATOM     53  C   UNL A   1      42.787  24.586  28.445  1.00  0.00     0.034 A 
ATOM     54  C   UNL A   1      42.428  30.695  32.064  1.00  0.00     0.034 A 
ATOM     55  C   UNL A   1      43.847  25.238  29.168  1.00  0.00     0.049 A 
ATOM     56  C   UNL A   1      43.170  29.567  32.726  1.00  0.00     0.074 A 
ATOM     57  C   UNL A   1      44.935  26.003  28.814  1.00  0.00     0.029 A 
ATOM     58  N   UNL A   1      43.721  25.316  30.548  1.00  0.00    -0.354 N 
ATOM     59  N   UNL A   1      43.539  28.487  32.092  1.00  0.00    -0.248 NA
ATOM     60  C   UNL A   1      43.586  29.548  34.122  1.00  0.00     0.031 C 
ATOM     61  C   UNL A   1      45.400  26.640  30.001  1.00  0.00     0.029 A 
ATOM     62  C   UNL A   1      44.636  26.198  31.071  1.00  0.00     0.049 A 
ATOM     63  H   UNL A   1      43.066  24.809  31.079  1.00  0.00     0.167 HD
ATOM     64  C   UNL A   1      44.210  27.647  32.932  1.00  0.00     0.074 A 
ATOM     65  C   UNL A   1      44.233  28.369  34.191  1.00  0.00     0.031 C 
ATOM     66  C   UNL A   1      44.663  26.427  32.511  1.00  0.00     0.034 A 
BRANCH  53  67
ATOM     67  C   UNL A   1      42.991  23.372  27.510  1.00  0.00     0.023 A 
ATOM     68  C   UNL A   1      43.978  23.427  26.496  1.00  0.00     0.031 A 
ATOM     69  C   UNL A   1      42.186  22.200  27.463  1.00  0.00     0.131 A 
ATOM     70  C   UNL A   1      44.143  22.377  25.554  1.00  0.00     0.055 A 
ATOM     71  C   UNL A   1      42.412  21.122  26.588  1.00  0.00     0.041 A 
ATOM     72  F   UNL A   1      41.074  22.055  28.195  1.00  0.00    -0.206 F 
ATOM     73  C   UNL A   1      43.392  21.208  25.621  1.00  0.00     0.022 A 
BRANCH  70  74
ATOM     74  S   UNL A   1      45.280  22.591  24.150  1.00  0.00     0.124 S 
ATOM     75  O   UNL A   1      46.420  21.773  24.551  1.00  0.00    -0.237 OA
ATOM     76  O   UNL A   1      44.488  22.100  23.029  1.00  0.00    -0.237 OA
ATOM     77  O   UNL A   1      45.540  24.032  24.134  1.00  0.00    -0.744 OA
ENDBRANCH  70  74
ENDBRANCH  53  67
BRANCH  54  78
ATOM     78  C   UNL A   1      41.358  31.611  32.568  1.00  0.00     0.023 A 
ATOM     79  C   UNL A   1      40.425  31.000  33.446  1.00  0.00     0.031 A 
ATOM     80  C   UNL A   1      41.535  32.998  32.678  1.00  0.00     0.131 A 
ATOM     81  C   UNL A   1      39.856  31.721  34.507  1.00  0.00     0.055 A 
ATOM     82  C   UNL A   1      40.884  33.738  33.684  1.00  0.00     0.041 A 
ATOM     83  F   UNL A   1      42.453  33.632  31.932  1.00  0.00    -0.206 F 
ATOM     84  C   UNL A   1      40.078  33.093  34.631  1.00  0.00     0.022 A 
BRANCH  81  85
ATOM     85  S   UNL A   1      39.133  30.786  35.902  1.00  0.00     0.124 S 
ATOM     86  O   UNL A   1      38.956  31.825  36.908  1.00  0.00    -0.237 OA
ATOM     87  O   UNL A   1      37.910  30.230  35.328  1.00  0.00    -0.237 OA
ATOM     88  O   UNL A   1      40.153  29.788  36.201  1.00  0.00    -0.744 OA
ENDBRANCH  81  85
ENDBRANCH  54  78
BRANCH  66  89
ATOM     89  C   UNL A   1      45.137  25.313  33.417  1.00  0.00     0.023 A 
ATOM     90  C   UNL A   1      46.492  24.992  33.565  1.00  0.00     0.031 A 
ATOM     91  C   UNL A   1      44.250  24.665  34.314  1.00  0.00     0.131 A 
ATOM     92  C   UNL A   1      46.926  24.073  34.535  1.00  0.00     0.055 A 
ATOM     93  C   UNL A   1      44.691  23.807  35.329  1.00  0.00     0.041 A 
ATOM     94  F   UNL A   1      42.928  24.891  34.284  1.00  0.00    -0.206 F 
ATOM     95  C   UNL A   1      46.039  23.504  35.444  1.00  0.00     0.022 A 
BRANCH  92  96
ATOM     96  S   UNL A   1      48.694  23.697  34.607  1.00  0.00     0.124 S 
ATOM     97  O   UNL A   1      49.008  24.014  35.998  1.00  0.00    -0.237 OA
ATOM     98  O   UNL A   1      48.728  22.278  34.261  1.00  0.00    -0.237 OA
ATOM     99  O   UNL A   1      49.279  24.593  33.613  1.00  0.00    -0.744 OA
ENDBRANCH  92  96
ENDBRANCH  66  89
ENDBRANCH  40  41
ENDBRANCH  33  35
ENDBRANCH  32  33
ENDBRANCH  31  32
ENDBRANCH  30  31
ENDBRANCH  29  30
ENDBRANCH  28  29
ENDBRANCH   1  28
TORSDOF 23
ENDMDL
