MODEL 1
REMARK VINA RESULT:     -11.5      0.000      0.000
REMARK SMILES O=C(OCCOCCOCCOC(=O)c1ccc([C@H]2CCCN(C(=O)c3ccc4[nH]ccc4c3)C2)cc1)c1ccc(-c2c3nc(c(-c4cc(S(=O)(=O)[O-])ccc4F)c4ccc([nH]4)c(-c4cc(S(=O)(=O)[O-])ccc4F)c4nc(c(-c5cc(S(=O)(=O)[O-])ccc5F)c5ccc2[nH]5)C=C4)C=C3)cc1
REMARK SMILES IDX 7 1 6 2 5 3 4 4 3 5 2 6 1 7 38 8 39 9 100 10 40 11 99 12
REMARK SMILES IDX 41 13 42 14 43 15 93 16 44 17 98 18 92 19 94 20 45 21 97 22
REMARK SMILES IDX 91 23 90 24 46 26 78 27 58 28 77 29 59 30 62 31 76 32 95 33
REMARK SMILES IDX 60 34 61 35 75 37 96 38 63 39 47 40 48 41 56 42 49 43 55 44
REMARK SMILES IDX 57 45 54 46 50 47 51 48 52 49 53 50 79 51 80 52 88 53 81 54
REMARK SMILES IDX 87 55 89 56 86 57 82 58 83 59 84 60 85 61 64 62 65 63 73 64
REMARK SMILES IDX 66 65 72 66 74 67 71 68 67 69 68 70 69 71 70 72 8 73 9 74
REMARK SMILES IDX 10 75 11 76 12 77 13 78 14 79 15 80 16 81 37 82 17 83 36 84
REMARK SMILES IDX 18 85 19 86 20 87 35 88 21 89 23 90 22 91 24 92 25 93 26 94
REMARK SMILES IDX 27 95 34 96 28 97 33 98 29 99 32 100 30 101 31 102
REMARK H PARENT 94 25 62 36 30 103
REMARK Flexibility Score: inf
ROOT
ATOM      1  C   UNL A   1      32.730  35.910  32.050  1.00  0.00     0.188 C 
ENDROOT
BRANCH   1   2
ATOM      2  O   UNL A   1      33.610  35.726  33.156  1.00  0.00    -0.376 OA
BRANCH   2   3
ATOM      3  C   UNL A   1      34.881  35.147  32.842  1.00  0.00     0.202 C 
BRANCH   3   4
ATOM      4  C   UNL A   1      35.712  34.527  33.991  1.00  0.00     0.261 C 
BRANCH   4   5
ATOM      5  O   UNL A   1      36.990  33.981  33.618  1.00  0.00    -0.460 OA
BRANCH   5   6
ATOM      6  C   UNL A   1      37.401  32.688  33.642  1.00  0.00     0.338 C 
ATOM      7  O   UNL A   1      36.933  31.936  34.496  1.00  0.00    -0.246 OA
BRANCH   6   8
ATOM      8  C   UNL A   1      38.443  32.147  32.719  1.00  0.00     0.060 A 
ATOM      9  C   UNL A   1      39.737  31.820  33.109  1.00  0.00     0.016 A 
ATOM     10  C   UNL A   1      38.072  31.857  31.397  1.00  0.00     0.016 A 
ATOM     11  C   UNL A   1      40.680  31.346  32.208  1.00  0.00     0.010 A 
ATOM     12  C   UNL A   1      38.994  31.299  30.499  1.00  0.00     0.010 A 
ATOM     13  C   UNL A   1      40.319  31.068  30.895  1.00  0.00    -0.014 A 
BRANCH  13  14
ATOM     14  C   UNL A   1      41.365  30.654  29.928  1.00  0.00     0.031 A 
ATOM     15  C   UNL A   1      41.242  29.298  29.296  1.00  0.00     0.074 A 
ATOM     16  C   UNL A   1      42.320  31.512  29.513  1.00  0.00     0.049 A 
ATOM     17  N   UNL A   1      42.098  28.648  28.559  1.00  0.00    -0.248 NA
ATOM     18  C   UNL A   1      39.961  28.596  29.493  1.00  0.00     0.031 C 
ATOM     19  C   UNL A   1      42.395  32.929  29.872  1.00  0.00     0.029 A 
ATOM     20  N   UNL A   1      43.405  31.331  28.688  1.00  0.00    -0.354 N 
ATOM     21  C   UNL A   1      41.462  27.468  28.195  1.00  0.00     0.074 A 
ATOM     22  C   UNL A   1      40.161  27.469  28.826  1.00  0.00     0.031 C 
ATOM     23  C   UNL A   1      43.453  33.486  29.262  1.00  0.00     0.029 A 
ATOM     24  C   UNL A   1      44.223  32.441  28.604  1.00  0.00     0.049 A 
ATOM     25  H   UNL A   1      43.581  30.493  28.204  1.00  0.00     0.167 HD
ATOM     26  C   UNL A   1      41.927  26.486  27.388  1.00  0.00     0.034 A 
ATOM     27  C   UNL A   1      45.494  32.562  28.155  1.00  0.00     0.034 A 
ATOM     28  C   UNL A   1      43.230  26.530  26.780  1.00  0.00     0.049 A 
ATOM     29  C   UNL A   1      46.141  31.303  27.630  1.00  0.00     0.074 A 
ATOM     30  C   UNL A   1      43.829  25.612  25.938  1.00  0.00     0.029 A 
ATOM     31  N   UNL A   1      44.150  27.554  26.972  1.00  0.00    -0.354 N 
ATOM     32  N   UNL A   1      45.580  30.145  27.360  1.00  0.00    -0.248 NA
ATOM     33  C   UNL A   1      47.588  31.340  27.398  1.00  0.00     0.031 C 
ATOM     34  C   UNL A   1      45.138  26.044  25.687  1.00  0.00     0.029 A 
ATOM     35  C   UNL A   1      45.334  27.262  26.321  1.00  0.00     0.049 A 
ATOM     36  H   UNL A   1      43.982  28.370  27.497  1.00  0.00     0.167 HD
ATOM     37  C   UNL A   1      46.593  29.343  26.851  1.00  0.00     0.074 A 
ATOM     38  C   UNL A   1      47.806  30.135  26.892  1.00  0.00     0.031 C 
ATOM     39  C   UNL A   1      46.523  28.078  26.363  1.00  0.00     0.034 A 
BRANCH  26  40
ATOM     40  C   UNL A   1      41.054  25.276  27.192  1.00  0.00     0.023 A 
ATOM     41  C   UNL A   1      41.567  23.968  27.246  1.00  0.00     0.031 A 
ATOM     42  C   UNL A   1      39.688  25.440  26.906  1.00  0.00     0.131 A 
ATOM     43  C   UNL A   1      40.727  22.878  26.970  1.00  0.00     0.055 A 
ATOM     44  C   UNL A   1      38.845  24.350  26.692  1.00  0.00     0.041 A 
ATOM     45  F   UNL A   1      39.156  26.670  26.810  1.00  0.00    -0.206 F 
ATOM     46  C   UNL A   1      39.365  23.059  26.714  1.00  0.00     0.022 A 
BRANCH  43  47
ATOM     47  S   UNL A   1      41.458  21.221  26.842  1.00  0.00     0.124 S 
ATOM     48  O   UNL A   1      42.251  21.341  25.621  1.00  0.00    -0.237 OA
ATOM     49  O   UNL A   1      42.213  21.112  28.085  1.00  0.00    -0.237 OA
ATOM     50  O   UNL A   1      40.296  20.340  26.739  1.00  0.00    -0.744 OA
ENDBRANCH  43  47
ENDBRANCH  26  40
BRANCH  27  51
ATOM     51  C   UNL A   1      46.305  33.811  28.368  1.00  0.00     0.023 A 
ATOM     52  C   UNL A   1      46.534  34.768  27.370  1.00  0.00     0.031 A 
ATOM     53  C   UNL A   1      47.001  33.989  29.576  1.00  0.00     0.131 A 
ATOM     54  C   UNL A   1      47.452  35.818  27.592  1.00  0.00     0.055 A 
ATOM     55  C   UNL A   1      47.853  35.067  29.824  1.00  0.00     0.041 A 
ATOM     56  F   UNL A   1      46.876  33.079  30.546  1.00  0.00    -0.206 F 
ATOM     57  C   UNL A   1      48.096  35.982  28.818  1.00  0.00     0.022 A 
BRANCH  54  58
ATOM     58  S   UNL A   1      47.944  36.874  26.200  1.00  0.00     0.124 S 
ATOM     59  O   UNL A   1      48.594  35.915  25.314  1.00  0.00    -0.237 OA
ATOM     60  O   UNL A   1      46.658  37.396  25.755  1.00  0.00    -0.237 OA
ATOM     61  O   UNL A   1      48.838  37.852  26.817  1.00  0.00    -0.744 OA
ENDBRANCH  54  58
ENDBRANCH  27  51
BRANCH  39  62
ATOM     62  C   UNL A   1      47.771  27.543  25.722  1.00  0.00     0.023 A 
ATOM     63  C   UNL A   1      48.107  27.837  24.391  1.00  0.00     0.031 A 
ATOM     64  C   UNL A   1      48.614  26.689  26.455  1.00  0.00     0.131 A 
ATOM     65  C   UNL A   1      49.236  27.236  23.816  1.00  0.00     0.055 A 
ATOM     66  C   UNL A   1      49.768  26.144  25.896  1.00  0.00     0.041 A 
ATOM     67  F   UNL A   1      48.326  26.375  27.728  1.00  0.00    -0.206 F 
ATOM     68  C   UNL A   1      50.077  26.408  24.566  1.00  0.00     0.022 A 
BRANCH  65  69
ATOM     69  S   UNL A   1      49.550  27.488  22.049  1.00  0.00     0.124 S 
ATOM     70  O   UNL A   1      48.607  28.552  21.724  1.00  0.00    -0.237 OA
ATOM     71  O   UNL A   1      50.961  27.860  22.029  1.00  0.00    -0.237 OA
ATOM     72  O   UNL A   1      49.246  26.186  21.458  1.00  0.00    -0.744 OA
ENDBRANCH  65  69
ENDBRANCH  39  62
ENDBRANCH  13  14
ENDBRANCH   6   8
ENDBRANCH   5   6
ENDBRANCH   4   5
ENDBRANCH   3   4
ENDBRANCH   2   3
ENDBRANCH   1   2
BRANCH   1  73
ATOM     73  C   UNL A   1      33.206  36.945  31.025  1.00  0.00     0.188 C 
BRANCH  73  74
ATOM     74  O   UNL A   1      32.850  36.744  29.664  1.00  0.00    -0.376 OA
BRANCH  74  75
ATOM     75  C   UNL A   1      33.662  35.852  28.911  1.00  0.00     0.202 C 
BRANCH  75  76
ATOM     76  C   UNL A   1      33.121  34.457  28.548  1.00  0.00     0.261 C 
BRANCH  76  77
ATOM     77  O   UNL A   1      34.034  33.537  27.927  1.00  0.00    -0.460 OA
BRANCH  77  78
ATOM     78  C   UNL A   1      34.379  32.485  28.705  1.00  0.00     0.338 C 
ATOM     79  O   UNL A   1      34.849  32.536  29.842  1.00  0.00    -0.246 OA
BRANCH  78  80
ATOM     80  C   UNL A   1      34.256  31.214  27.976  1.00  0.00     0.060 A 
ATOM     81  C   UNL A   1      35.281  30.266  27.905  1.00  0.00     0.016 A 
ATOM     82  C   UNL A   1      33.095  31.030  27.234  1.00  0.00     0.016 A 
ATOM     83  C   UNL A   1      35.145  29.153  27.053  1.00  0.00     0.005 A 
ATOM     84  C   UNL A   1      32.965  29.917  26.404  1.00  0.00     0.005 A 
ATOM     85  C   UNL A   1      33.992  28.969  26.265  1.00  0.00    -0.043 A 
BRANCH  85  86
ATOM     86  C   UNL A   1      33.886  27.765  25.310  1.00  0.00     0.039 C 
ATOM     87  C   UNL A   1      33.648  26.459  26.079  1.00  0.00     0.012 C 
ATOM     88  C   UNL A   1      32.933  27.965  24.100  1.00  0.00     0.128 C 
ATOM     89  C   UNL A   1      33.346  25.303  25.136  1.00  0.00     0.022 C 
ATOM     90  N   UNL A   1      32.185  26.824  23.562  1.00  0.00    -0.338 N 
ATOM     91  C   UNL A   1      32.089  25.586  24.333  1.00  0.00     0.120 C 
BRANCH  90  92
ATOM     92  C   UNL A   1      31.336  27.119  22.486  1.00  0.00     0.253 C 
ATOM     93  O   UNL A   1      31.349  26.488  21.429  1.00  0.00    -0.269 OA
BRANCH  92  94
ATOM     94  C   UNL A   1      30.297  28.155  22.632  1.00  0.00     0.040 A 
ATOM     95  C   UNL A   1      29.080  27.738  23.178  1.00  0.00     0.016 A 
ATOM     96  C   UNL A   1      30.469  29.453  22.129  1.00  0.00     0.024 A 
ATOM     97  C   UNL A   1      28.000  28.614  23.272  1.00  0.00     0.027 A 
ATOM     98  C   UNL A   1      29.378  30.347  22.205  1.00  0.00     0.000 A 
ATOM     99  C   UNL A   1      28.180  29.911  22.778  1.00  0.00     0.045 A 
ATOM    100  C   UNL A   1      29.169  31.696  21.795  1.00  0.00     0.028 A 
ATOM    101  N   UNL A   1      27.300  30.969  22.738  1.00  0.00    -0.361 N 
ATOM    102  C   UNL A   1      27.880  32.045  22.130  1.00  0.00     0.083 A 
ATOM    103  H   UNL A   1      26.383  30.952  23.096  1.00  0.00     0.166 HD
ENDBRANCH  92  94
ENDBRANCH  90  92
ENDBRANCH  85  86
ENDBRANCH  78  80
ENDBRANCH  77  78
ENDBRANCH  76  77
ENDBRANCH  75  76
ENDBRANCH  74  75
ENDBRANCH  73  74
ENDBRANCH   1  73
TORSDOF 23
ENDMDL
MODEL 2
REMARK VINA RESULT:     -11.4      3.863      7.150
REMARK SMILES O=C(OCCOCCOCCOC(=O)c1ccc([C@H]2CCCN(C(=O)c3ccc4[nH]ccc4c3)C2)cc1)c1ccc(-c2c3nc(c(-c4cc(S(=O)(=O)[O-])ccc4F)c4ccc([nH]4)c(-c4cc(S(=O)(=O)[O-])ccc4F)c4nc(c(-c5cc(S(=O)(=O)[O-])ccc5F)c5ccc2[nH]5)C=C4)C=C3)cc1
REMARK SMILES IDX 7 1 6 2 5 3 4 4 3 5 2 6 1 7 38 8 39 9 100 10 40 11 99 12
REMARK SMILES IDX 41 13 42 14 43 15 93 16 44 17 98 18 92 19 94 20 45 21 97 22
REMARK SMILES IDX 91 23 90 24 46 26 78 27 58 28 77 29 59 30 62 31 76 32 95 33
REMARK SMILES IDX 60 34 61 35 75 37 96 38 63 39 47 40 48 41 56 42 49 43 55 44
REMARK SMILES IDX 57 45 54 46 50 47 51 48 52 49 53 50 79 51 80 52 88 53 81 54
REMARK SMILES IDX 87 55 89 56 86 57 82 58 83 59 84 60 85 61 64 62 65 63 73 64
REMARK SMILES IDX 66 65 72 66 74 67 71 68 67 69 68 70 69 71 70 72 8 73 9 74
REMARK SMILES IDX 10 75 11 76 12 77 13 78 14 79 15 80 16 81 37 82 17 83 36 84
REMARK SMILES IDX 18 85 19 86 20 87 35 88 21 89 23 90 22 91 24 92 25 93 26 94
REMARK SMILES IDX 27 95 34 96 28 97 33 98 29 99 32 100 30 101 31 102
REMARK H PARENT 94 25 62 36 30 103
REMARK Flexibility Score: inf
ROOT
ATOM      1  C   UNL A   1      39.229  30.475  33.550  1.00  0.00     0.188 C 
ENDROOT
BRANCH   1   2
ATOM      2  O   UNL A   1      39.187  31.822  34.015  1.00  0.00    -0.376 OA
BRANCH   2   3
ATOM      3  C   UNL A   1      38.045  32.164  34.809  1.00  0.00     0.202 C 
BRANCH   3   4
ATOM      4  C   UNL A   1      37.158  33.346  34.354  1.00  0.00     0.261 C 
BRANCH   4   5
ATOM      5  O   UNL A   1      37.809  34.347  33.550  1.00  0.00    -0.460 OA
BRANCH   5   6
ATOM      6  C   UNL A   1      37.842  34.462  32.198  1.00  0.00     0.338 C 
ATOM      7  O   UNL A   1      36.779  34.439  31.580  1.00  0.00    -0.246 OA
BRANCH   6   8
ATOM      8  C   UNL A   1      39.111  34.555  31.419  1.00  0.00     0.060 A 
ATOM      9  C   UNL A   1      40.379  34.415  31.972  1.00  0.00     0.016 A 
ATOM     10  C   UNL A   1      39.025  34.697  30.025  1.00  0.00     0.016 A 
ATOM     11  C   UNL A   1      41.533  34.538  31.211  1.00  0.00     0.010 A 
ATOM     12  C   UNL A   1      40.184  34.737  29.235  1.00  0.00     0.010 A 
ATOM     13  C   UNL A   1      41.452  34.688  29.832  1.00  0.00    -0.014 A 
BRANCH  13  14
ATOM     14  C   UNL A   1      42.694  34.913  29.053  1.00  0.00     0.031 A 
ATOM     15  C   UNL A   1      43.581  33.732  28.787  1.00  0.00     0.074 A 
ATOM     16  C   UNL A   1      42.956  36.103  28.474  1.00  0.00     0.049 A 
ATOM     17  N   UNL A   1      44.782  33.696  28.282  1.00  0.00    -0.248 NA
ATOM     18  C   UNL A   1      43.020  32.405  29.101  1.00  0.00     0.031 C 
ATOM     19  C   UNL A   1      42.050  37.253  28.458  1.00  0.00     0.029 A 
ATOM     20  N   UNL A   1      44.053  36.548  27.773  1.00  0.00    -0.354 N 
ATOM     21  C   UNL A   1      45.119  32.351  28.206  1.00  0.00     0.074 A 
ATOM     22  C   UNL A   1      44.013  31.600  28.757  1.00  0.00     0.031 C 
ATOM     23  C   UNL A   1      42.619  38.256  27.773  1.00  0.00     0.029 A 
ATOM     24  C   UNL A   1      43.988  37.887  27.442  1.00  0.00     0.049 A 
ATOM     25  H   UNL A   1      44.810  35.968  27.530  1.00  0.00     0.167 HD
ATOM     26  C   UNL A   1      46.249  31.802  27.702  1.00  0.00     0.034 A 
ATOM     27  C   UNL A   1      44.957  38.739  27.035  1.00  0.00     0.034 A 
ATOM     28  C   UNL A   1      47.324  32.592  27.163  1.00  0.00     0.049 A 
ATOM     29  C   UNL A   1      46.340  38.153  26.883  1.00  0.00     0.074 A 
ATOM     30  C   UNL A   1      48.521  32.172  26.614  1.00  0.00     0.029 A 
ATOM     31  N   UNL A   1      47.333  33.981  27.126  1.00  0.00    -0.354 N 
ATOM     32  N   UNL A   1      46.701  36.889  26.896  1.00  0.00    -0.248 NA
ATOM     33  C   UNL A   1      47.451  39.095  26.714  1.00  0.00     0.031 C 
ATOM     34  C   UNL A   1      49.284  33.310  26.319  1.00  0.00     0.029 A 
ATOM     35  C   UNL A   1      48.538  34.438  26.625  1.00  0.00     0.049 A 
ATOM     36  H   UNL A   1      46.587  34.556  27.414  1.00  0.00     0.167 HD
ATOM     37  C   UNL A   1      48.069  36.883  26.657  1.00  0.00     0.074 A 
ATOM     38  C   UNL A   1      48.475  38.270  26.547  1.00  0.00     0.031 C 
ATOM     39  C   UNL A   1      48.910  35.827  26.509  1.00  0.00     0.034 A 
BRANCH  26  40
ATOM     40  C   UNL A   1      46.393  30.307  27.785  1.00  0.00     0.023 A 
ATOM     41  C   UNL A   1      46.075  29.465  26.705  1.00  0.00     0.031 A 
ATOM     42  C   UNL A   1      46.820  29.712  28.985  1.00  0.00     0.131 A 
ATOM     43  C   UNL A   1      46.144  28.071  26.863  1.00  0.00     0.055 A 
ATOM     44  C   UNL A   1      46.945  28.329  29.116  1.00  0.00     0.041 A 
ATOM     45  F   UNL A   1      47.105  30.470  30.057  1.00  0.00    -0.206 F 
ATOM     46  C   UNL A   1      46.598  27.499  28.055  1.00  0.00     0.022 A 
BRANCH  43  47
ATOM     47  S   UNL A   1      45.532  27.008  25.526  1.00  0.00     0.124 S 
ATOM     48  O   UNL A   1      45.835  25.676  26.045  1.00  0.00    -0.237 OA
ATOM     49  O   UNL A   1      44.118  27.361  25.463  1.00  0.00    -0.237 OA
ATOM     50  O   UNL A   1      46.328  27.416  24.370  1.00  0.00    -0.744 OA
ENDBRANCH  43  47
ENDBRANCH  26  40
BRANCH  27  51
ATOM     51  C   UNL A   1      44.739  40.225  26.955  1.00  0.00     0.023 A 
ATOM     52  C   UNL A   1      44.325  40.888  25.790  1.00  0.00     0.031 A 
ATOM     53  C   UNL A   1      45.095  41.039  28.044  1.00  0.00     0.131 A 
ATOM     54  C   UNL A   1      44.318  42.299  25.744  1.00  0.00     0.055 A 
ATOM     55  C   UNL A   1      45.018  42.432  28.024  1.00  0.00     0.041 A 
ATOM     56  F   UNL A   1      45.557  40.473  29.163  1.00  0.00    -0.206 F 
ATOM     57  C   UNL A   1      44.643  43.072  26.858  1.00  0.00     0.022 A 
BRANCH  54  58
ATOM     58  S   UNL A   1      44.055  43.131  24.152  1.00  0.00     0.124 S 
ATOM     59  O   UNL A   1      42.645  42.857  23.902  1.00  0.00    -0.237 OA
ATOM     60  O   UNL A   1      44.397  44.510  24.478  1.00  0.00    -0.237 OA
ATOM     61  O   UNL A   1      44.987  42.450  23.255  1.00  0.00    -0.744 OA
ENDBRANCH  54  58
ENDBRANCH  27  51
BRANCH  39  62
ATOM     62  C   UNL A   1      50.314  36.150  26.084  1.00  0.00     0.023 A 
ATOM     63  C   UNL A   1      51.361  36.273  27.011  1.00  0.00     0.031 A 
ATOM     64  C   UNL A   1      50.591  36.376  24.724  1.00  0.00     0.131 A 
ATOM     65  C   UNL A   1      52.632  36.665  26.568  1.00  0.00     0.055 A 
ATOM     66  C   UNL A   1      51.870  36.706  24.283  1.00  0.00     0.041 A 
ATOM     67  F   UNL A   1      49.618  36.277  23.804  1.00  0.00    -0.206 F 
ATOM     68  C   UNL A   1      52.897  36.863  25.210  1.00  0.00     0.022 A 
BRANCH  65  69
ATOM     69  S   UNL A   1      53.920  36.991  27.801  1.00  0.00     0.124 S 
ATOM     70  O   UNL A   1      54.946  37.646  26.999  1.00  0.00    -0.237 OA
ATOM     71  O   UNL A   1      53.226  37.841  28.764  1.00  0.00    -0.237 OA
ATOM     72  O   UNL A   1      54.270  35.659  28.292  1.00  0.00    -0.744 OA
ENDBRANCH  65  69
ENDBRANCH  39  62
ENDBRANCH  13  14
ENDBRANCH   6   8
ENDBRANCH   5   6
ENDBRANCH   4   5
ENDBRANCH   3   4
ENDBRANCH   2   3
ENDBRANCH   1   2
BRANCH   1  73
ATOM     73  C   UNL A   1      37.978  30.027  32.788  1.00  0.00     0.188 C 
BRANCH  73  74
ATOM     74  O   UNL A   1      37.514  30.852  31.728  1.00  0.00    -0.376 OA
BRANCH  74  75
ATOM     75  C   UNL A   1      36.107  31.002  31.598  1.00  0.00     0.202 C 
BRANCH  75  76
ATOM     76  C   UNL A   1      35.521  31.556  30.285  1.00  0.00     0.261 C 
BRANCH  76  77
ATOM     77  O   UNL A   1      35.700  30.766  29.098  1.00  0.00    -0.460 OA
BRANCH  77  78
ATOM     78  C   UNL A   1      35.088  31.265  28.001  1.00  0.00     0.338 C 
ATOM     79  O   UNL A   1      35.076  32.442  27.638  1.00  0.00    -0.246 OA
BRANCH  78  80
ATOM     80  C   UNL A   1      34.284  30.239  27.319  1.00  0.00     0.060 A 
ATOM     81  C   UNL A   1      34.841  29.156  26.633  1.00  0.00     0.016 A 
ATOM     82  C   UNL A   1      32.911  30.450  27.275  1.00  0.00     0.016 A 
ATOM     83  C   UNL A   1      34.012  28.312  25.870  1.00  0.00     0.005 A 
ATOM     84  C   UNL A   1      32.097  29.599  26.527  1.00  0.00     0.005 A 
ATOM     85  C   UNL A   1      32.623  28.532  25.782  1.00  0.00    -0.043 A 
BRANCH  85  86
ATOM     86  C   UNL A   1      31.744  27.617  24.907  1.00  0.00     0.039 C 
ATOM     87  C   UNL A   1      30.735  28.429  24.086  1.00  0.00     0.012 C 
ATOM     88  C   UNL A   1      32.518  26.554  24.080  1.00  0.00     0.128 C 
ATOM     89  C   UNL A   1      30.003  27.553  23.078  1.00  0.00     0.022 C 
ATOM     90  N   UNL A   1      32.016  26.144  22.766  1.00  0.00    -0.338 N 
ATOM     91  C   UNL A   1      30.985  26.935  22.098  1.00  0.00     0.120 C 
BRANCH  90  92
ATOM     92  C   UNL A   1      32.803  25.196  22.094  1.00  0.00     0.253 C 
ATOM     93  O   UNL A   1      33.284  25.394  20.978  1.00  0.00    -0.269 OA
BRANCH  92  94
ATOM     94  C   UNL A   1      33.180  23.941  22.771  1.00  0.00     0.040 A 
ATOM     95  C   UNL A   1      32.129  23.100  23.143  1.00  0.00     0.016 A 
ATOM     96  C   UNL A   1      34.505  23.668  23.141  1.00  0.00     0.024 A 
ATOM     97  C   UNL A   1      32.368  21.935  23.871  1.00  0.00     0.027 A 
ATOM     98  C   UNL A   1      34.760  22.499  23.891  1.00  0.00     0.000 A 
ATOM     99  C   UNL A   1      33.693  21.662  24.229  1.00  0.00     0.045 A 
ATOM    100  C   UNL A   1      35.933  21.915  24.452  1.00  0.00     0.028 A 
ATOM    101  N   UNL A   1      34.214  20.604  24.939  1.00  0.00    -0.361 N 
ATOM    102  C   UNL A   1      35.562  20.756  25.095  1.00  0.00     0.083 A 
ATOM    103  H   UNL A   1      33.690  19.846  25.285  1.00  0.00     0.166 HD
ENDBRANCH  92  94
ENDBRANCH  90  92
ENDBRANCH  85  86
ENDBRANCH  78  80
ENDBRANCH  77  78
ENDBRANCH  76  77
ENDBRANCH  75  76
ENDBRANCH  74  75
ENDBRANCH  73  74
ENDBRANCH   1  73
TORSDOF 23
ENDMDL
MODEL 3
REMARK VINA RESULT:     -11.4      3.443      9.263
REMARK SMILES O=C(OCCOCCOCCOC(=O)c1ccc([C@H]2CCCN(C(=O)c3ccc4[nH]ccc4c3)C2)cc1)c1ccc(-c2c3nc(c(-c4cc(S(=O)(=O)[O-])ccc4F)c4ccc([nH]4)c(-c4cc(S(=O)(=O)[O-])ccc4F)c4nc(c(-c5cc(S(=O)(=O)[O-])ccc5F)c5ccc2[nH]5)C=C4)C=C3)cc1
REMARK SMILES IDX 7 1 6 2 5 3 4 4 3 5 2 6 1 7 38 8 39 9 100 10 40 11 99 12
REMARK SMILES IDX 41 13 42 14 43 15 93 16 44 17 98 18 92 19 94 20 45 21 97 22
REMARK SMILES IDX 91 23 90 24 46 26 78 27 58 28 77 29 59 30 62 31 76 32 95 33
REMARK SMILES IDX 60 34 61 35 75 37 96 38 63 39 47 40 48 41 56 42 49 43 55 44
REMARK SMILES IDX 57 45 54 46 50 47 51 48 52 49 53 50 79 51 80 52 88 53 81 54
REMARK SMILES IDX 87 55 89 56 86 57 82 58 83 59 84 60 85 61 64 62 65 63 73 64
REMARK SMILES IDX 66 65 72 66 74 67 71 68 67 69 68 70 69 71 70 72 8 73 9 74
REMARK SMILES IDX 10 75 11 76 12 77 13 78 14 79 15 80 16 81 37 82 17 83 36 84
REMARK SMILES IDX 18 85 19 86 20 87 35 88 21 89 23 90 22 91 24 92 25 93 26 94
REMARK SMILES IDX 27 95 34 96 28 97 33 98 29 99 32 100 30 101 31 102
REMARK H PARENT 94 25 62 36 30 103
REMARK Flexibility Score: inf
ROOT
ATOM      1  C   UNL A   1      33.126  34.428  28.117  1.00  0.00     0.188 C 
ENDROOT
BRANCH   1   2
ATOM      2  O   UNL A   1      32.487  35.306  29.041  1.00  0.00    -0.376 OA
BRANCH   2   3
ATOM      3  C   UNL A   1      33.292  35.725  30.148  1.00  0.00     0.202 C 
BRANCH   3   4
ATOM      4  C   UNL A   1      32.680  35.670  31.567  1.00  0.00     0.261 C 
BRANCH   4   5
ATOM      5  O   UNL A   1      33.532  35.141  32.599  1.00  0.00    -0.460 OA
BRANCH   5   6
ATOM      6  C   UNL A   1      33.987  33.872  32.758  1.00  0.00     0.338 C 
ATOM      7  O   UNL A   1      33.207  33.014  33.170  1.00  0.00    -0.246 OA
BRANCH   6   8
ATOM      8  C   UNL A   1      35.407  33.479  32.516  1.00  0.00     0.060 A 
ATOM      9  C   UNL A   1      36.122  32.603  33.324  1.00  0.00     0.016 A 
ATOM     10  C   UNL A   1      36.033  33.943  31.349  1.00  0.00     0.016 A 
ATOM     11  C   UNL A   1      37.452  32.289  33.075  1.00  0.00     0.010 A 
ATOM     12  C   UNL A   1      37.349  33.565  31.043  1.00  0.00     0.010 A 
ATOM     13  C   UNL A   1      38.079  32.756  31.926  1.00  0.00    -0.014 A 
BRANCH  13  14
ATOM     14  C   UNL A   1      39.524  32.487  31.729  1.00  0.00     0.031 A 
ATOM     15  C   UNL A   1      40.507  33.460  32.311  1.00  0.00     0.074 A 
ATOM     16  C   UNL A   1      39.956  31.335  31.174  1.00  0.00     0.049 A 
ATOM     17  N   UNL A   1      41.797  33.537  32.137  1.00  0.00    -0.248 NA
ATOM     18  C   UNL A   1      39.964  34.464  33.244  1.00  0.00     0.031 C 
ATOM     19  C   UNL A   1      39.103  30.208  30.794  1.00  0.00     0.029 A 
ATOM     20  N   UNL A   1      41.221  30.907  30.843  1.00  0.00    -0.354 N 
ATOM     21  C   UNL A   1      42.223  34.584  32.944  1.00  0.00     0.074 A 
ATOM     22  C   UNL A   1      41.050  35.144  33.577  1.00  0.00     0.031 C 
ATOM     23  C   UNL A   1      39.866  29.221  30.300  1.00  0.00     0.029 A 
ATOM     24  C   UNL A   1      41.235  29.699  30.175  1.00  0.00     0.049 A 
ATOM     25  H   UNL A   1      42.036  31.413  31.062  1.00  0.00     0.167 HD
ATOM     26  C   UNL A   1      43.489  35.019  33.144  1.00  0.00     0.034 A 
ATOM     27  C   UNL A   1      42.211  29.111  29.444  1.00  0.00     0.034 A 
ATOM     28  C   UNL A   1      44.628  34.428  32.492  1.00  0.00     0.049 A 
ATOM     29  C   UNL A   1      43.517  29.861  29.348  1.00  0.00     0.074 A 
ATOM     30  C   UNL A   1      45.965  34.760  32.605  1.00  0.00     0.029 A 
ATOM     31  N   UNL A   1      44.552  33.383  31.580  1.00  0.00    -0.354 N 
ATOM     32  N   UNL A   1      43.913  30.909  30.036  1.00  0.00    -0.248 NA
ATOM     33  C   UNL A   1      44.486  29.393  28.352  1.00  0.00     0.031 C 
ATOM     34  C   UNL A   1      46.685  33.968  31.701  1.00  0.00     0.029 A 
ATOM     35  C   UNL A   1      45.806  33.099  31.072  1.00  0.00     0.049 A 
ATOM     36  H   UNL A   1      43.723  32.911  31.331  1.00  0.00     0.167 HD
ATOM     37  C   UNL A   1      45.208  31.175  29.610  1.00  0.00     0.074 A 
ATOM     38  C   UNL A   1      45.510  30.205  28.577  1.00  0.00     0.031 C 
ATOM     39  C   UNL A   1      46.082  32.114  30.055  1.00  0.00     0.034 A 
BRANCH  26  40
ATOM     40  C   UNL A   1      43.681  36.216  34.036  1.00  0.00     0.023 A 
ATOM     41  C   UNL A   1      43.572  37.532  33.553  1.00  0.00     0.031 A 
ATOM     42  C   UNL A   1      44.017  36.032  35.388  1.00  0.00     0.131 A 
ATOM     43  C   UNL A   1      43.844  38.612  34.407  1.00  0.00     0.055 A 
ATOM     44  C   UNL A   1      44.227  37.111  36.246  1.00  0.00     0.041 A 
ATOM     45  F   UNL A   1      44.166  34.796  35.891  1.00  0.00    -0.206 F 
ATOM     46  C   UNL A   1      44.150  38.411  35.755  1.00  0.00     0.022 A 
BRANCH  43  47
ATOM     47  S   UNL A   1      43.900  40.287  33.708  1.00  0.00     0.124 S 
ATOM     48  O   UNL A   1      42.773  40.256  32.778  1.00  0.00    -0.237 OA
ATOM     49  O   UNL A   1      43.731  41.128  34.886  1.00  0.00    -0.237 OA
ATOM     50  O   UNL A   1      45.217  40.353  33.078  1.00  0.00    -0.744 OA
ENDBRANCH  43  47
ENDBRANCH  26  40
BRANCH  27  51
ATOM     51  C   UNL A   1      41.955  27.901  28.588  1.00  0.00     0.023 A 
ATOM     52  C   UNL A   1      42.293  26.594  28.969  1.00  0.00     0.031 A 
ATOM     53  C   UNL A   1      41.484  28.066  27.274  1.00  0.00     0.131 A 
ATOM     54  C   UNL A   1      42.188  25.536  28.040  1.00  0.00     0.055 A 
ATOM     55  C   UNL A   1      41.310  27.010  26.378  1.00  0.00     0.041 A 
ATOM     56  F   UNL A   1      41.203  29.293  26.828  1.00  0.00    -0.206 F 
ATOM     57  C   UNL A   1      41.681  25.734  26.756  1.00  0.00     0.022 A 
BRANCH  54  58
ATOM     58  S   UNL A   1      42.893  23.917  28.459  1.00  0.00     0.124 S 
ATOM     59  O   UNL A   1      43.627  24.218  29.683  1.00  0.00    -0.237 OA
ATOM     60  O   UNL A   1      41.693  23.102  28.610  1.00  0.00    -0.237 OA
ATOM     61  O   UNL A   1      43.724  23.598  27.300  1.00  0.00    -0.744 OA
ENDBRANCH  54  58
ENDBRANCH  27  51
BRANCH  39  62
ATOM     62  C   UNL A   1      47.479  32.035  29.507  1.00  0.00     0.023 A 
ATOM     63  C   UNL A   1      47.932  32.902  28.501  1.00  0.00     0.031 A 
ATOM     64  C   UNL A   1      48.353  31.041  29.982  1.00  0.00     0.131 A 
ATOM     65  C   UNL A   1      49.215  32.724  27.964  1.00  0.00     0.055 A 
ATOM     66  C   UNL A   1      49.647  30.909  29.486  1.00  0.00     0.041 A 
ATOM     67  F   UNL A   1      47.957  30.185  30.938  1.00  0.00    -0.206 F 
ATOM     68  C   UNL A   1      50.080  31.746  28.463  1.00  0.00     0.022 A 
BRANCH  65  69
ATOM     69  S   UNL A   1      49.711  33.738  26.545  1.00  0.00     0.124 S 
ATOM     70  O   UNL A   1      50.045  32.723  25.552  1.00  0.00    -0.237 OA
ATOM     71  O   UNL A   1      48.506  34.518  26.279  1.00  0.00    -0.237 OA
ATOM     72  O   UNL A   1      50.845  34.507  27.054  1.00  0.00    -0.744 OA
ENDBRANCH  65  69
ENDBRANCH  39  62
ENDBRANCH  13  14
ENDBRANCH   6   8
ENDBRANCH   5   6
ENDBRANCH   4   5
ENDBRANCH   3   4
ENDBRANCH   2   3
ENDBRANCH   1   2
BRANCH   1  73
ATOM     73  C   UNL A   1      34.630  34.667  27.950  1.00  0.00     0.188 C 
BRANCH  73  74
ATOM     74  O   UNL A   1      35.456  33.541  27.685  1.00  0.00    -0.376 OA
BRANCH  74  75
ATOM     75  C   UNL A   1      35.072  32.308  28.278  1.00  0.00     0.202 C 
BRANCH  75  76
ATOM     76  C   UNL A   1      34.611  31.145  27.379  1.00  0.00     0.261 C 
BRANCH  76  77
ATOM     77  O   UNL A   1      33.396  30.470  27.745  1.00  0.00    -0.460 OA
BRANCH  77  78
ATOM     78  C   UNL A   1      32.456  30.452  26.773  1.00  0.00     0.338 C 
ATOM     79  O   UNL A   1      31.564  31.283  26.598  1.00  0.00    -0.246 OA
BRANCH  78  80
ATOM     80  C   UNL A   1      32.522  29.212  25.984  1.00  0.00     0.060 A 
ATOM     81  C   UNL A   1      31.636  28.913  24.944  1.00  0.00     0.016 A 
ATOM     82  C   UNL A   1      33.446  28.260  26.397  1.00  0.00     0.016 A 
ATOM     83  C   UNL A   1      31.661  27.638  24.350  1.00  0.00     0.005 A 
ATOM     84  C   UNL A   1      33.472  27.003  25.791  1.00  0.00     0.005 A 
ATOM     85  C   UNL A   1      32.566  26.646  24.779  1.00  0.00    -0.043 A 
BRANCH  85  86
ATOM     86  C   UNL A   1      32.545  25.245  24.140  1.00  0.00     0.039 C 
ATOM     87  C   UNL A   1      33.003  25.290  22.677  1.00  0.00     0.012 C 
ATOM     88  C   UNL A   1      33.226  24.128  24.978  1.00  0.00     0.128 C 
ATOM     89  C   UNL A   1      33.174  23.890  22.102  1.00  0.00     0.022 C 
ATOM     90  N   UNL A   1      33.913  23.023  24.302  1.00  0.00    -0.338 N 
ATOM     91  C   UNL A   1      34.228  23.121  22.878  1.00  0.00     0.120 C 
BRANCH  90  92
ATOM     92  C   UNL A   1      34.512  22.083  25.152  1.00  0.00     0.253 C 
ATOM     93  O   UNL A   1      33.935  21.068  25.543  1.00  0.00    -0.269 OA
BRANCH  92  94
ATOM     94  C   UNL A   1      35.932  22.229  25.525  1.00  0.00     0.040 A 
ATOM     95  C   UNL A   1      36.355  23.520  25.852  1.00  0.00     0.016 A 
ATOM     96  C   UNL A   1      36.837  21.163  25.428  1.00  0.00     0.024 A 
ATOM     97  C   UNL A   1      37.695  23.785  26.127  1.00  0.00     0.027 A 
ATOM     98  C   UNL A   1      38.201  21.420  25.690  1.00  0.00     0.000 A 
ATOM     99  C   UNL A   1      38.593  22.715  26.039  1.00  0.00     0.045 A 
ATOM    100  C   UNL A   1      39.383  20.624  25.672  1.00  0.00     0.028 A 
ATOM    101  N   UNL A   1      39.954  22.686  26.250  1.00  0.00    -0.361 N 
ATOM    102  C   UNL A   1      40.443  21.433  26.014  1.00  0.00     0.083 A 
ATOM    103  H   UNL A   1      40.496  23.458  26.531  1.00  0.00     0.166 HD
ENDBRANCH  92  94
ENDBRANCH  90  92
ENDBRANCH  85  86
ENDBRANCH  78  80
ENDBRANCH  77  78
ENDBRANCH  76  77
ENDBRANCH  75  76
ENDBRANCH  74  75
ENDBRANCH  73  74
ENDBRANCH   1  73
TORSDOF 23
ENDMDL
