MODEL 1
REMARK VINA RESULT:     -11.1      0.000      0.000
REMARK SMILES C[C@@H]1C[C@H](C)C[C@H]([N@@H+]2[C@@H](C(=O)OCCOCCOCCOC(=O)c3ccc(-c4c5nc(c(-c6cc(S(=O)(=O)[O-])ccc6F)c6ccc([nH]6)c(-c6cc(S(=O)(=O)[O-])ccc6F)c6nc(c(-c7cc(S(=O)(=O)[O-])ccc7F)c7ccc4[nH]7)C=C6)C=C5)cc3)CC[C@@H]3CCCC[C@@H]32)C1
REMARK SMILES IDX 17 1 16 2 15 3 14 4 13 5 12 6 10 7 11 8 9 9 8 10 94 11 87 13
REMARK SMILES IDX 89 14 93 15 88 16 90 17 92 18 91 19 7 20 5 21 4 22 6 23 3 24
REMARK SMILES IDX 2 25 95 26 1 27 18 28 19 29 20 30 21 31 22 32 23 33 24 34
REMARK SMILES IDX 25 35 86 36 26 37 85 38 27 39 28 40 29 41 79 42 30 43 84 44
REMARK SMILES IDX 78 45 80 46 31 47 83 48 77 49 76 50 32 52 64 53 44 54 63 55
REMARK SMILES IDX 45 56 48 57 62 58 81 59 46 60 47 61 61 63 82 64 49 65 33 66
REMARK SMILES IDX 34 67 42 68 35 69 41 70 43 71 40 72 36 73 37 74 38 75 39 76
REMARK SMILES IDX 65 77 66 78 74 79 67 80 73 81 75 82 72 83 68 84 69 85 70 86
REMARK SMILES IDX 71 87 50 88 51 89 59 90 52 91 58 92 60 93 57 94 53 95 54 96
REMARK SMILES IDX 55 97 56 98
REMARK H PARENT 8 12 80 51 48 62
REMARK Flexibility Score: inf
ROOT
ATOM      1  C   UNL A   1      33.240  30.334  26.398  1.00  0.00     0.188 C 
ENDROOT
BRANCH   1   2
ATOM      2  C   UNL A   1      33.587  29.162  27.330  1.00  0.00     0.188 C 
BRANCH   2   3
ATOM      3  O   UNL A   1      33.869  27.879  26.783  1.00  0.00    -0.376 OA
BRANCH   3   4
ATOM      4  C   UNL A   1      32.998  27.321  25.814  1.00  0.00     0.202 C 
BRANCH   4   5
ATOM      5  C   UNL A   1      31.530  27.096  26.201  1.00  0.00     0.261 C 
BRANCH   5   6
ATOM      6  O   UNL A   1      30.798  26.132  25.414  1.00  0.00    -0.459 OA
BRANCH   6   7
ATOM      7  C   UNL A   1      30.936  24.831  25.795  1.00  0.00     0.365 C 
ATOM      8  O   UNL A   1      30.426  24.375  26.817  1.00  0.00    -0.245 OA
BRANCH   7   9
ATOM      9  C   UNL A   1      31.770  23.931  24.845  1.00  0.00     0.295 C 
ATOM     10  N   UNL A   1      33.006  23.349  25.457  1.00  0.00    -0.318 N 
ATOM     11  C   UNL A   1      34.239  24.102  25.108  1.00  0.00     0.188 C 
ATOM     12  H   UNL A   1      33.509  23.439  26.340  1.00  0.00     0.349 HD
ATOM     13  C   UNL A   1      31.874  24.348  23.382  1.00  0.00     0.078 C 
ATOM     14  C   UNL A   1      34.458  24.485  23.625  1.00  0.00     0.048 C 
ATOM     15  C   UNL A   1      35.652  23.987  25.742  1.00  0.00     0.065 C 
ATOM     16  C   UNL A   1      33.196  24.883  22.876  1.00  0.00     0.016 C 
ATOM     17  C   UNL A   1      35.306  23.497  22.829  1.00  0.00     0.010 C 
ATOM     18  C   UNL A   1      36.866  23.534  24.908  1.00  0.00     0.006 C 
ATOM     19  C   UNL A   1      36.694  23.275  23.417  1.00  0.00     0.001 C 
BRANCH  10  20
ATOM     20  C   UNL A   1      32.731  21.976  25.940  1.00  0.00     0.185 C 
ATOM     21  C   UNL A   1      32.483  20.505  23.032  1.00  0.00     0.008 C 
ATOM     22  C   UNL A   1      32.071  20.016  24.393  1.00  0.00    -0.008 C 
ATOM     23  C   UNL A   1      31.614  21.181  25.261  1.00  0.00     0.068 C 
ATOM     24  C   UNL A   1      33.176  19.165  25.030  1.00  0.00     0.007 C 
ATOM     25  C   UNL A   1      34.308  19.898  25.772  1.00  0.00    -0.008 C 
ATOM     26  C   UNL A   1      33.829  21.102  26.572  1.00  0.00     0.068 C 
ATOM     27  C   UNL A   1      35.537  20.261  24.949  1.00  0.00     0.008 C 
ENDBRANCH  10  20
ENDBRANCH   7   9
ENDBRANCH   6   7
ENDBRANCH   5   6
ENDBRANCH   4   5
ENDBRANCH   3   4
ENDBRANCH   2   3
ENDBRANCH   1   2
BRANCH   1  28
ATOM     28  O   UNL A   1      31.858  30.640  26.366  1.00  0.00    -0.376 OA
BRANCH  28  29
ATOM     29  C   UNL A   1      31.508  31.950  26.766  1.00  0.00     0.202 C 
BRANCH  29  30
ATOM     30  C   UNL A   1      32.672  32.790  27.308  1.00  0.00     0.261 C 
BRANCH  30  31
ATOM     31  O   UNL A   1      32.384  34.170  27.609  1.00  0.00    -0.460 OA
BRANCH  31  32
ATOM     32  C   UNL A   1      33.202  34.812  28.467  1.00  0.00     0.338 C 
ATOM     33  O   UNL A   1      32.982  35.901  29.000  1.00  0.00    -0.246 OA
BRANCH  32  34
ATOM     34  C   UNL A   1      34.310  33.903  28.842  1.00  0.00     0.060 A 
ATOM     35  C   UNL A   1      34.018  32.738  29.561  1.00  0.00     0.016 A 
ATOM     36  C   UNL A   1      35.634  34.185  28.495  1.00  0.00     0.016 A 
ATOM     37  C   UNL A   1      35.032  31.846  29.925  1.00  0.00     0.010 A 
ATOM     38  C   UNL A   1      36.657  33.315  28.901  1.00  0.00     0.010 A 
ATOM     39  C   UNL A   1      36.366  32.148  29.634  1.00  0.00    -0.014 A 
BRANCH  39  40
ATOM     40  C   UNL A   1      37.464  31.362  30.264  1.00  0.00     0.031 A 
ATOM     41  C   UNL A   1      37.815  31.659  31.700  1.00  0.00     0.074 A 
ATOM     42  C   UNL A   1      38.131  30.401  29.596  1.00  0.00     0.049 A 
ATOM     43  N   UNL A   1      38.796  31.199  32.430  1.00  0.00    -0.248 NA
ATOM     44  C   UNL A   1      36.934  32.606  32.403  1.00  0.00     0.031 C 
ATOM     45  C   UNL A   1      37.843  29.964  28.231  1.00  0.00     0.029 A 
ATOM     46  N   UNL A   1      39.203  29.627  29.974  1.00  0.00    -0.354 N 
ATOM     47  C   UNL A   1      38.671  31.820  33.669  1.00  0.00     0.074 A 
ATOM     48  C   UNL A   1      37.520  32.693  33.588  1.00  0.00     0.031 C 
ATOM     49  C   UNL A   1      38.734  29.020  27.878  1.00  0.00     0.029 A 
ATOM     50  C   UNL A   1      39.688  28.820  28.969  1.00  0.00     0.049 A 
ATOM     51  H   UNL A   1      39.589  29.647  30.881  1.00  0.00     0.167 HD
ATOM     52  C   UNL A   1      39.450  31.681  34.768  1.00  0.00     0.034 A 
ATOM     53  C   UNL A   1      40.797  28.048  28.919  1.00  0.00     0.034 A 
ATOM     54  C   UNL A   1      40.590  30.802  34.841  1.00  0.00     0.049 A 
ATOM     55  C   UNL A   1      41.699  27.976  30.135  1.00  0.00     0.074 A 
ATOM     56  C   UNL A   1      41.423  30.565  35.921  1.00  0.00     0.029 A 
ATOM     57  N   UNL A   1      41.070  30.029  33.793  1.00  0.00    -0.354 N 
ATOM     58  N   UNL A   1      41.562  28.561  31.304  1.00  0.00    -0.248 NA
ATOM     59  C   UNL A   1      42.902  27.139  30.027  1.00  0.00     0.031 C 
ATOM     60  C   UNL A   1      42.453  29.717  35.502  1.00  0.00     0.029 A 
ATOM     61  C   UNL A   1      42.212  29.350  34.187  1.00  0.00     0.049 A 
ATOM     62  H   UNL A   1      40.659  29.973  32.899  1.00  0.00     0.167 HD
ATOM     63  C   UNL A   1      42.641  28.128  32.075  1.00  0.00     0.074 A 
ATOM     64  C   UNL A   1      43.407  27.224  31.248  1.00  0.00     0.031 C 
ATOM     65  C   UNL A   1      42.967  28.445  33.354  1.00  0.00     0.034 A 
BRANCH  52  66
ATOM     66  C   UNL A   1      39.146  32.553  35.960  1.00  0.00     0.023 A 
ATOM     67  C   UNL A   1      39.599  33.880  36.057  1.00  0.00     0.031 A 
ATOM     68  C   UNL A   1      38.370  32.042  37.017  1.00  0.00     0.131 A 
ATOM     69  C   UNL A   1      39.311  34.633  37.206  1.00  0.00     0.055 A 
ATOM     70  C   UNL A   1      38.027  32.819  38.124  1.00  0.00     0.041 A 
ATOM     71  F   UNL A   1      37.932  30.773  36.989  1.00  0.00    -0.206 F 
ATOM     72  C   UNL A   1      38.506  34.120  38.227  1.00  0.00     0.022 A 
BRANCH  69  73
ATOM     73  S   UNL A   1      40.089  36.260  37.401  1.00  0.00     0.124 S 
ATOM     74  O   UNL A   1      39.941  36.820  36.060  1.00  0.00    -0.237 OA
ATOM     75  O   UNL A   1      39.275  36.876  38.443  1.00  0.00    -0.237 OA
ATOM     76  O   UNL A   1      41.462  35.941  37.788  1.00  0.00    -0.744 OA
ENDBRANCH  69  73
ENDBRANCH  52  66
BRANCH  53  77
ATOM     77  C   UNL A   1      41.185  27.335  27.661  1.00  0.00     0.023 A 
ATOM     78  C   UNL A   1      41.121  25.935  27.563  1.00  0.00     0.031 A 
ATOM     79  C   UNL A   1      41.739  28.041  26.577  1.00  0.00     0.131 A 
ATOM     80  C   UNL A   1      41.664  25.284  26.443  1.00  0.00     0.055 A 
ATOM     81  C   UNL A   1      42.213  27.393  25.435  1.00  0.00     0.041 A 
ATOM     82  F   UNL A   1      41.841  29.379  26.618  1.00  0.00    -0.206 F 
ATOM     83  C   UNL A   1      42.195  26.003  25.371  1.00  0.00     0.022 A 
BRANCH  80  84
ATOM     84  S   UNL A   1      41.798  23.473  26.469  1.00  0.00     0.124 S 
ATOM     85  O   UNL A   1      42.554  23.215  25.249  1.00  0.00    -0.237 OA
ATOM     86  O   UNL A   1      42.505  23.240  27.724  1.00  0.00    -0.237 OA
ATOM     87  O   UNL A   1      40.406  23.028  26.447  1.00  0.00    -0.744 OA
ENDBRANCH  80  84
ENDBRANCH  53  77
BRANCH  65  88
ATOM     88  C   UNL A   1      44.168  27.757  33.960  1.00  0.00     0.023 A 
ATOM     89  C   UNL A   1      44.086  26.472  34.527  1.00  0.00     0.031 A 
ATOM     90  C   UNL A   1      45.420  28.401  33.968  1.00  0.00     0.131 A 
ATOM     91  C   UNL A   1      45.219  25.898  35.125  1.00  0.00     0.055 A 
ATOM     92  C   UNL A   1      46.557  27.798  34.505  1.00  0.00     0.041 A 
ATOM     93  F   UNL A   1      45.558  29.629  33.442  1.00  0.00    -0.206 F 
ATOM     94  C   UNL A   1      46.458  26.544  35.101  1.00  0.00     0.022 A 
BRANCH  91  95
ATOM     95  S   UNL A   1      45.035  24.330  36.020  1.00  0.00     0.124 S 
ATOM     96  O   UNL A   1      45.420  24.708  37.376  1.00  0.00    -0.237 OA
ATOM     97  O   UNL A   1      43.623  24.021  35.820  1.00  0.00    -0.237 OA
ATOM     98  O   UNL A   1      45.967  23.434  35.338  1.00  0.00    -0.744 OA
ENDBRANCH  91  95
ENDBRANCH  65  88
ENDBRANCH  39  40
ENDBRANCH  32  34
ENDBRANCH  31  32
ENDBRANCH  30  31
ENDBRANCH  29  30
ENDBRANCH  28  29
ENDBRANCH   1  28
TORSDOF 21
ENDMDL
MODEL 2
REMARK VINA RESULT:     -11.0      0.750      2.084
REMARK SMILES C[C@@H]1C[C@H](C)C[C@H]([N@@H+]2[C@@H](C(=O)OCCOCCOCCOC(=O)c3ccc(-c4c5nc(c(-c6cc(S(=O)(=O)[O-])ccc6F)c6ccc([nH]6)c(-c6cc(S(=O)(=O)[O-])ccc6F)c6nc(c(-c7cc(S(=O)(=O)[O-])ccc7F)c7ccc4[nH]7)C=C6)C=C5)cc3)CC[C@@H]3CCCC[C@@H]32)C1
REMARK SMILES IDX 17 1 16 2 15 3 14 4 13 5 12 6 10 7 11 8 9 9 8 10 94 11 87 13
REMARK SMILES IDX 89 14 93 15 88 16 90 17 92 18 91 19 7 20 5 21 4 22 6 23 3 24
REMARK SMILES IDX 2 25 95 26 1 27 18 28 19 29 20 30 21 31 22 32 23 33 24 34
REMARK SMILES IDX 25 35 86 36 26 37 85 38 27 39 28 40 29 41 79 42 30 43 84 44
REMARK SMILES IDX 78 45 80 46 31 47 83 48 77 49 76 50 32 52 64 53 44 54 63 55
REMARK SMILES IDX 45 56 48 57 62 58 81 59 46 60 47 61 61 63 82 64 49 65 33 66
REMARK SMILES IDX 34 67 42 68 35 69 41 70 43 71 40 72 36 73 37 74 38 75 39 76
REMARK SMILES IDX 65 77 66 78 74 79 67 80 73 81 75 82 72 83 68 84 69 85 70 86
REMARK SMILES IDX 71 87 50 88 51 89 59 90 52 91 58 92 60 93 57 94 53 95 54 96
REMARK SMILES IDX 55 97 56 98
REMARK H PARENT 8 12 80 51 48 62
REMARK Flexibility Score: inf
ROOT
ATOM      1  C   UNL A   1      32.409  30.108  27.083  1.00  0.00     0.188 C 
ENDROOT
BRANCH   1   2
ATOM      2  C   UNL A   1      32.060  28.618  27.235  1.00  0.00     0.188 C 
BRANCH   2   3
ATOM      3  O   UNL A   1      32.210  27.737  26.128  1.00  0.00    -0.376 OA
BRANCH   3   4
ATOM      4  C   UNL A   1      32.724  28.229  24.902  1.00  0.00     0.202 C 
BRANCH   4   5
ATOM      5  C   UNL A   1      31.985  27.866  23.607  1.00  0.00     0.261 C 
BRANCH   5   6
ATOM      6  O   UNL A   1      32.011  26.475  23.219  1.00  0.00    -0.459 OA
BRANCH   6   7
ATOM      7  C   UNL A   1      31.243  25.638  23.970  1.00  0.00     0.365 C 
ATOM      8  O   UNL A   1      30.017  25.715  24.017  1.00  0.00    -0.245 OA
BRANCH   7   9
ATOM      9  C   UNL A   1      32.008  24.547  24.765  1.00  0.00     0.295 C 
ATOM     10  N   UNL A   1      32.726  23.541  23.920  1.00  0.00    -0.318 N 
ATOM     11  C   UNL A   1      31.972  22.270  23.760  1.00  0.00     0.188 C 
ATOM     12  H   UNL A   1      32.798  23.325  22.925  1.00  0.00     0.349 HD
ATOM     13  C   UNL A   1      31.365  24.017  26.043  1.00  0.00     0.078 C 
ATOM     14  C   UNL A   1      31.363  21.625  25.027  1.00  0.00     0.048 C 
ATOM     15  C   UNL A   1      32.239  21.108  22.765  1.00  0.00     0.065 C 
ATOM     16  C   UNL A   1      30.804  22.613  26.040  1.00  0.00     0.016 C 
ATOM     17  C   UNL A   1      32.241  20.566  25.689  1.00  0.00     0.010 C 
ATOM     18  C   UNL A   1      32.595  19.696  23.265  1.00  0.00     0.006 C 
ATOM     19  C   UNL A   1      32.605  19.412  24.762  1.00  0.00     0.001 C 
BRANCH  10  20
ATOM     20  C   UNL A   1      34.148  23.929  23.773  1.00  0.00     0.185 C 
ATOM     21  C   UNL A   1      35.036  23.622  26.904  1.00  0.00     0.008 C 
ATOM     22  C   UNL A   1      35.747  24.304  25.766  1.00  0.00    -0.008 C 
ATOM     23  C   UNL A   1      34.741  24.903  24.792  1.00  0.00     0.068 C 
ATOM     24  C   UNL A   1      36.761  23.360  25.107  1.00  0.00     0.007 C 
ATOM     25  C   UNL A   1      36.241  22.385  24.035  1.00  0.00    -0.008 C 
ATOM     26  C   UNL A   1      35.183  22.992  23.125  1.00  0.00     0.068 C 
ATOM     27  C   UNL A   1      35.798  21.012  24.524  1.00  0.00     0.008 C 
ENDBRANCH  10  20
ENDBRANCH   7   9
ENDBRANCH   6   7
ENDBRANCH   5   6
ENDBRANCH   4   5
ENDBRANCH   3   4
ENDBRANCH   2   3
ENDBRANCH   1   2
BRANCH   1  28
ATOM     28  O   UNL A   1      31.524  30.811  26.232  1.00  0.00    -0.376 OA
BRANCH  28  29
ATOM     29  C   UNL A   1      31.349  32.183  26.525  1.00  0.00     0.202 C 
BRANCH  29  30
ATOM     30  C   UNL A   1      32.422  32.788  27.441  1.00  0.00     0.261 C 
BRANCH  30  31
ATOM     31  O   UNL A   1      32.455  34.227  27.531  1.00  0.00    -0.460 OA
BRANCH  31  32
ATOM     32  C   UNL A   1      33.134  34.778  28.557  1.00  0.00     0.338 C 
ATOM     33  O   UNL A   1      32.787  35.766  29.207  1.00  0.00    -0.246 OA
BRANCH  32  34
ATOM     34  C   UNL A   1      34.254  33.882  28.926  1.00  0.00     0.060 A 
ATOM     35  C   UNL A   1      33.976  32.697  29.617  1.00  0.00     0.016 A 
ATOM     36  C   UNL A   1      35.576  34.195  28.600  1.00  0.00     0.016 A 
ATOM     37  C   UNL A   1      35.002  31.816  29.974  1.00  0.00     0.010 A 
ATOM     38  C   UNL A   1      36.611  33.336  28.999  1.00  0.00     0.010 A 
ATOM     39  C   UNL A   1      36.334  32.149  29.705  1.00  0.00    -0.014 A 
BRANCH  39  40
ATOM     40  C   UNL A   1      37.439  31.371  30.331  1.00  0.00     0.031 A 
ATOM     41  C   UNL A   1      37.813  31.690  31.756  1.00  0.00     0.074 A 
ATOM     42  C   UNL A   1      38.094  30.397  29.669  1.00  0.00     0.049 A 
ATOM     43  N   UNL A   1      38.804  31.239  32.479  1.00  0.00    -0.248 NA
ATOM     44  C   UNL A   1      36.945  32.650  32.457  1.00  0.00     0.031 C 
ATOM     45  C   UNL A   1      37.783  29.938  28.316  1.00  0.00     0.029 A 
ATOM     46  N   UNL A   1      39.169  29.626  30.044  1.00  0.00    -0.354 N 
ATOM     47  C   UNL A   1      38.699  31.881  33.710  1.00  0.00     0.074 A 
ATOM     48  C   UNL A   1      37.548  32.755  33.631  1.00  0.00     0.031 C 
ATOM     49  C   UNL A   1      38.667  28.986  27.965  1.00  0.00     0.029 A 
ATOM     50  C   UNL A   1      39.637  28.801  29.045  1.00  0.00     0.049 A 
ATOM     51  H   UNL A   1      39.568  29.660  30.944  1.00  0.00     0.167 HD
ATOM     52  C   UNL A   1      39.494  31.757  34.799  1.00  0.00     0.034 A 
ATOM     53  C   UNL A   1      40.743  28.025  28.990  1.00  0.00     0.034 A 
ATOM     54  C   UNL A   1      40.632  30.877  34.869  1.00  0.00     0.049 A 
ATOM     55  C   UNL A   1      41.663  27.971  30.194  1.00  0.00     0.074 A 
ATOM     56  C   UNL A   1      41.481  30.655  35.940  1.00  0.00     0.029 A 
ATOM     57  N   UNL A   1      41.094  30.086  33.826  1.00  0.00    -0.354 N 
ATOM     58  N   UNL A   1      41.545  28.575  31.355  1.00  0.00    -0.248 NA
ATOM     59  C   UNL A   1      42.862  27.129  30.081  1.00  0.00     0.031 C 
ATOM     60  C   UNL A   1      42.502  29.797  35.520  1.00  0.00     0.029 A 
ATOM     61  C   UNL A   1      42.241  29.410  34.215  1.00  0.00     0.049 A 
ATOM     62  H   UNL A   1      40.670  30.016  32.940  1.00  0.00     0.167 HD
ATOM     63  C   UNL A   1      42.634  28.152  32.117  1.00  0.00     0.074 A 
ATOM     64  C   UNL A   1      43.385  27.232  31.293  1.00  0.00     0.031 C 
ATOM     65  C   UNL A   1      42.981  28.489  33.385  1.00  0.00     0.034 A 
BRANCH  52  66
ATOM     66  C   UNL A   1      39.209  32.650  35.981  1.00  0.00     0.023 A 
ATOM     67  C   UNL A   1      39.682  33.972  36.057  1.00  0.00     0.031 A 
ATOM     68  C   UNL A   1      38.435  32.164  37.050  1.00  0.00     0.131 A 
ATOM     69  C   UNL A   1      39.412  34.744  37.197  1.00  0.00     0.055 A 
ATOM     70  C   UNL A   1      38.110  32.960  38.148  1.00  0.00     0.041 A 
ATOM     71  F   UNL A   1      37.979  30.901  37.042  1.00  0.00    -0.206 F 
ATOM     72  C   UNL A   1      38.607  34.257  38.230  1.00  0.00     0.022 A 
BRANCH  69  73
ATOM     73  S   UNL A   1      40.213  36.363  37.364  1.00  0.00     0.124 S 
ATOM     74  O   UNL A   1      40.020  36.927  36.030  1.00  0.00    -0.237 OA
ATOM     75  O   UNL A   1      39.447  36.985  38.438  1.00  0.00    -0.237 OA
ATOM     76  O   UNL A   1      41.597  36.029  37.698  1.00  0.00    -0.744 OA
ENDBRANCH  69  73
ENDBRANCH  52  66
BRANCH  53  77
ATOM     77  C   UNL A   1      41.110  27.291  27.739  1.00  0.00     0.023 A 
ATOM     78  C   UNL A   1      40.993  25.893  27.648  1.00  0.00     0.031 A 
ATOM     79  C   UNL A   1      41.696  27.968  26.654  1.00  0.00     0.131 A 
ATOM     80  C   UNL A   1      41.517  25.216  26.535  1.00  0.00     0.055 A 
ATOM     81  C   UNL A   1      42.151  27.296  25.518  1.00  0.00     0.041 A 
ATOM     82  F   UNL A   1      41.850  29.302  26.688  1.00  0.00    -0.206 F 
ATOM     83  C   UNL A   1      42.081  25.908  25.462  1.00  0.00     0.022 A 
BRANCH  80  84
ATOM     84  S   UNL A   1      41.580  23.401  26.572  1.00  0.00     0.124 S 
ATOM     85  O   UNL A   1      40.187  23.051  26.321  1.00  0.00    -0.237 OA
ATOM     86  O   UNL A   1      42.519  23.109  25.493  1.00  0.00    -0.237 OA
ATOM     87  O   UNL A   1      42.067  23.104  27.918  1.00  0.00    -0.744 OA
ENDBRANCH  80  84
ENDBRANCH  53  77
BRANCH  65  88
ATOM     88  C   UNL A   1      44.189  27.807  33.984  1.00  0.00     0.023 A 
ATOM     89  C   UNL A   1      44.101  26.560  34.630  1.00  0.00     0.031 A 
ATOM     90  C   UNL A   1      45.454  28.419  33.905  1.00  0.00     0.131 A 
ATOM     91  C   UNL A   1      45.244  25.994  35.216  1.00  0.00     0.055 A 
ATOM     92  C   UNL A   1      46.598  27.821  34.433  1.00  0.00     0.041 A 
ATOM     93  F   UNL A   1      45.600  29.610  33.302  1.00  0.00    -0.206 F 
ATOM     94  C   UNL A   1      46.495  26.607  35.106  1.00  0.00     0.022 A 
BRANCH  91  95
ATOM     95  S   UNL A   1      45.059  24.487  36.209  1.00  0.00     0.124 S 
ATOM     96  O   UNL A   1      43.707  24.636  36.738  1.00  0.00    -0.237 OA
ATOM     97  O   UNL A   1      45.244  23.434  35.217  1.00  0.00    -0.237 OA
ATOM     98  O   UNL A   1      46.128  24.597  37.201  1.00  0.00    -0.744 OA
ENDBRANCH  91  95
ENDBRANCH  65  88
ENDBRANCH  39  40
ENDBRANCH  32  34
ENDBRANCH  31  32
ENDBRANCH  30  31
ENDBRANCH  29  30
ENDBRANCH  28  29
ENDBRANCH   1  28
TORSDOF 21
ENDMDL
MODEL 3
REMARK VINA RESULT:     -10.6      1.991      7.844
REMARK SMILES C[C@@H]1C[C@H](C)C[C@H]([N@@H+]2[C@@H](C(=O)OCCOCCOCCOC(=O)c3ccc(-c4c5nc(c(-c6cc(S(=O)(=O)[O-])ccc6F)c6ccc([nH]6)c(-c6cc(S(=O)(=O)[O-])ccc6F)c6nc(c(-c7cc(S(=O)(=O)[O-])ccc7F)c7ccc4[nH]7)C=C6)C=C5)cc3)CC[C@@H]3CCCC[C@@H]32)C1
REMARK SMILES IDX 17 1 16 2 15 3 14 4 13 5 12 6 10 7 11 8 9 9 8 10 94 11 87 13
REMARK SMILES IDX 89 14 93 15 88 16 90 17 92 18 91 19 7 20 5 21 4 22 6 23 3 24
REMARK SMILES IDX 2 25 95 26 1 27 18 28 19 29 20 30 21 31 22 32 23 33 24 34
REMARK SMILES IDX 25 35 86 36 26 37 85 38 27 39 28 40 29 41 79 42 30 43 84 44
REMARK SMILES IDX 78 45 80 46 31 47 83 48 77 49 76 50 32 52 64 53 44 54 63 55
REMARK SMILES IDX 45 56 48 57 62 58 81 59 46 60 47 61 61 63 82 64 49 65 33 66
REMARK SMILES IDX 34 67 42 68 35 69 41 70 43 71 40 72 36 73 37 74 38 75 39 76
REMARK SMILES IDX 65 77 66 78 74 79 67 80 73 81 75 82 72 83 68 84 69 85 70 86
REMARK SMILES IDX 71 87 50 88 51 89 59 90 52 91 58 92 60 93 57 94 53 95 54 96
REMARK SMILES IDX 55 97 56 98
REMARK H PARENT 8 12 80 51 48 62
REMARK Flexibility Score: inf
ROOT
ATOM      1  C   UNL A   1      32.296  29.808  26.898  1.00  0.00     0.188 C 
ENDROOT
BRANCH   1   2
ATOM      2  C   UNL A   1      32.263  28.510  26.075  1.00  0.00     0.188 C 
BRANCH   2   3
ATOM      3  O   UNL A   1      31.466  28.435  24.899  1.00  0.00    -0.376 OA
BRANCH   3   4
ATOM      4  C   UNL A   1      32.021  28.806  23.648  1.00  0.00     0.202 C 
BRANCH   4   5
ATOM      5  C   UNL A   1      31.557  28.051  22.395  1.00  0.00     0.261 C 
BRANCH   5   6
ATOM      6  O   UNL A   1      31.525  26.609  22.487  1.00  0.00    -0.459 OA
BRANCH   6   7
ATOM      7  C   UNL A   1      32.737  25.997  22.588  1.00  0.00     0.365 C 
ATOM      8  O   UNL A   1      33.648  26.177  21.782  1.00  0.00    -0.245 OA
BRANCH   7   9
ATOM      9  C   UNL A   1      32.921  25.054  23.807  1.00  0.00     0.295 C 
ATOM     10  N   UNL A   1      33.543  23.730  23.488  1.00  0.00    -0.318 N 
ATOM     11  C   UNL A   1      32.547  22.635  23.351  1.00  0.00     0.188 C 
ATOM     12  H   UNL A   1      33.829  23.228  22.646  1.00  0.00     0.349 HD
ATOM     13  C   UNL A   1      31.827  25.045  24.869  1.00  0.00     0.078 C 
ATOM     14  C   UNL A   1      31.456  22.509  24.440  1.00  0.00     0.048 C 
ATOM     15  C   UNL A   1      32.754  21.208  22.774  1.00  0.00     0.065 C 
ATOM     16  C   UNL A   1      30.928  23.833  24.970  1.00  0.00     0.016 C 
ATOM     17  C   UNL A   1      31.789  21.536  25.568  1.00  0.00     0.010 C 
ATOM     18  C   UNL A   1      32.556  19.957  23.650  1.00  0.00     0.006 C 
ATOM     19  C   UNL A   1      32.069  20.118  25.085  1.00  0.00     0.001 C 
BRANCH  10  20
ATOM     20  C   UNL A   1      34.999  23.779  23.756  1.00  0.00     0.185 C 
ATOM     21  C   UNL A   1      34.889  23.284  26.986  1.00  0.00     0.008 C 
ATOM     22  C   UNL A   1      36.021  23.780  26.128  1.00  0.00    -0.008 C 
ATOM     23  C   UNL A   1      35.485  24.594  24.957  1.00  0.00     0.068 C 
ATOM     24  C   UNL A   1      36.943  22.627  25.712  1.00  0.00     0.007 C 
ATOM     25  C   UNL A   1      36.539  21.796  24.481  1.00  0.00    -0.008 C 
ATOM     26  C   UNL A   1      35.939  22.629  23.357  1.00  0.00     0.068 C 
ATOM     27  C   UNL A   1      35.686  20.563  24.744  1.00  0.00     0.008 C 
ENDBRANCH  10  20
ENDBRANCH   7   9
ENDBRANCH   6   7
ENDBRANCH   5   6
ENDBRANCH   4   5
ENDBRANCH   3   4
ENDBRANCH   2   3
ENDBRANCH   1   2
BRANCH   1  28
ATOM     28  O   UNL A   1      31.489  30.839  26.360  1.00  0.00    -0.376 OA
BRANCH  28  29
ATOM     29  C   UNL A   1      31.697  32.128  26.901  1.00  0.00     0.202 C 
BRANCH  29  30
ATOM     30  C   UNL A   1      33.058  32.330  27.581  1.00  0.00     0.261 C 
BRANCH  30  31
ATOM     31  O   UNL A   1      33.600  33.666  27.553  1.00  0.00    -0.460 OA
BRANCH  31  32
ATOM     32  C   UNL A   1      33.541  34.392  28.687  1.00  0.00     0.338 C 
ATOM     33  O   UNL A   1      32.601  35.106  29.042  1.00  0.00    -0.246 OA
BRANCH  32  34
ATOM     34  C   UNL A   1      34.691  34.030  29.548  1.00  0.00     0.060 A 
ATOM     35  C   UNL A   1      35.980  34.400  29.148  1.00  0.00     0.016 A 
ATOM     36  C   UNL A   1      34.514  33.332  30.745  1.00  0.00     0.016 A 
ATOM     37  C   UNL A   1      37.093  34.089  29.936  1.00  0.00     0.010 A 
ATOM     38  C   UNL A   1      35.634  32.978  31.513  1.00  0.00     0.010 A 
ATOM     39  C   UNL A   1      36.933  33.339  31.106  1.00  0.00    -0.014 A 
BRANCH  39  40
ATOM     40  C   UNL A   1      38.123  32.759  31.790  1.00  0.00     0.031 A 
ATOM     41  C   UNL A   1      38.872  31.651  31.094  1.00  0.00     0.074 A 
ATOM     42  C   UNL A   1      38.546  33.203  32.989  1.00  0.00     0.049 A 
ATOM     43  N   UNL A   1      39.859  30.912  31.527  1.00  0.00    -0.248 NA
ATOM     44  C   UNL A   1      38.443  31.338  29.721  1.00  0.00     0.031 C 
ATOM     45  C   UNL A   1      37.960  34.316  33.734  1.00  0.00     0.029 A 
ATOM     46  N   UNL A   1      39.564  32.759  33.801  1.00  0.00    -0.354 N 
ATOM     47  C   UNL A   1      40.152  30.027  30.494  1.00  0.00     0.074 A 
ATOM     48  C   UNL A   1      39.234  30.321  29.415  1.00  0.00     0.031 C 
ATOM     49  C   UNL A   1      38.609  34.448  34.905  1.00  0.00     0.029 A 
ATOM     50  C   UNL A   1      39.624  33.400  35.018  1.00  0.00     0.049 A 
ATOM     51  H   UNL A   1      40.192  32.047  33.536  1.00  0.00     0.167 HD
ATOM     52  C   UNL A   1      41.094  29.054  30.454  1.00  0.00     0.034 A 
ATOM     53  C   UNL A   1      40.376  33.141  36.112  1.00  0.00     0.034 A 
ATOM     54  C   UNL A   1      42.009  28.776  31.531  1.00  0.00     0.049 A 
ATOM     55  C   UNL A   1      41.363  31.992  36.071  1.00  0.00     0.074 A 
ATOM     56  C   UNL A   1      43.023  27.834  31.575  1.00  0.00     0.029 A 
ATOM     57  N   UNL A   1      42.015  29.422  32.760  1.00  0.00    -0.354 N 
ATOM     58  N   UNL A   1      41.637  31.169  35.083  1.00  0.00    -0.248 NA
ATOM     59  C   UNL A   1      42.145  31.737  37.290  1.00  0.00     0.031 C 
ATOM     60  C   UNL A   1      43.584  27.852  32.856  1.00  0.00     0.029 A 
ATOM     61  C   UNL A   1      42.985  28.869  33.583  1.00  0.00     0.049 A 
ATOM     62  H   UNL A   1      41.418  30.164  33.011  1.00  0.00     0.167 HD
ATOM     63  C   UNL A   1      42.648  30.331  35.554  1.00  0.00     0.074 A 
ATOM     64  C   UNL A   1      42.945  30.756  36.903  1.00  0.00     0.031 C 
ATOM     65  C   UNL A   1      43.277  29.304  34.927  1.00  0.00     0.034 A 
BRANCH  52  66
ATOM     66  C   UNL A   1      41.135  28.165  29.236  1.00  0.00     0.023 A 
ATOM     67  C   UNL A   1      42.118  28.299  28.240  1.00  0.00     0.031 A 
ATOM     68  C   UNL A   1      40.170  27.153  29.081  1.00  0.00     0.131 A 
ATOM     69  C   UNL A   1      42.085  27.463  27.113  1.00  0.00     0.055 A 
ATOM     70  C   UNL A   1      40.186  26.279  27.994  1.00  0.00     0.041 A 
ATOM     71  F   UNL A   1      39.194  26.998  29.989  1.00  0.00    -0.206 F 
ATOM     72  C   UNL A   1      41.143  26.437  26.997  1.00  0.00     0.022 A 
BRANCH  69  73
ATOM     73  S   UNL A   1      43.228  27.798  25.745  1.00  0.00     0.124 S 
ATOM     74  O   UNL A   1      42.326  27.781  24.596  1.00  0.00    -0.237 OA
ATOM     75  O   UNL A   1      43.779  29.099  26.106  1.00  0.00    -0.237 OA
ATOM     76  O   UNL A   1      44.172  26.683  25.805  1.00  0.00    -0.744 OA
ENDBRANCH  69  73
ENDBRANCH  52  66
BRANCH  53  77
ATOM     77  C   UNL A   1      40.188  33.916  37.379  1.00  0.00     0.023 A 
ATOM     78  C   UNL A   1      40.978  35.040  37.674  1.00  0.00     0.031 A 
ATOM     79  C   UNL A   1      39.292  33.470  38.368  1.00  0.00     0.131 A 
ATOM     80  C   UNL A   1      40.908  35.634  38.945  1.00  0.00     0.055 A 
ATOM     81  C   UNL A   1      39.175  34.108  39.604  1.00  0.00     0.041 A 
ATOM     82  F   UNL A   1      38.521  32.392  38.151  1.00  0.00    -0.206 F 
ATOM     83  C   UNL A   1      40.001  35.185  39.907  1.00  0.00     0.022 A 
BRANCH  80  84
ATOM     84  S   UNL A   1      42.122  36.913  39.376  1.00  0.00     0.124 S 
ATOM     85  O   UNL A   1      41.262  38.063  39.633  1.00  0.00    -0.237 OA
ATOM     86  O   UNL A   1      42.777  36.328  40.542  1.00  0.00    -0.237 OA
ATOM     87  O   UNL A   1      42.954  37.011  38.179  1.00  0.00    -0.744 OA
ENDBRANCH  80  84
ENDBRANCH  53  77
BRANCH  65  88
ATOM     88  C   UNL A   1      44.397  28.614  35.670  1.00  0.00     0.023 A 
ATOM     89  C   UNL A   1      44.159  27.557  36.568  1.00  0.00     0.031 A 
ATOM     90  C   UNL A   1      45.729  29.023  35.474  1.00  0.00     0.131 A 
ATOM     91  C   UNL A   1      45.229  26.985  37.274  1.00  0.00     0.055 A 
ATOM     92  C   UNL A   1      46.795  28.406  36.129  1.00  0.00     0.041 A 
ATOM     93  F   UNL A   1      46.018  30.027  34.630  1.00  0.00    -0.206 F 
ATOM     94  C   UNL A   1      46.547  27.389  37.046  1.00  0.00     0.022 A 
BRANCH  91  95
ATOM     95  S   UNL A   1      44.868  25.763  38.567  1.00  0.00     0.124 S 
ATOM     96  O   UNL A   1      46.084  25.805  39.372  1.00  0.00    -0.237 OA
ATOM     97  O   UNL A   1      43.670  26.314  39.191  1.00  0.00    -0.237 OA
ATOM     98  O   UNL A   1      44.661  24.524  37.819  1.00  0.00    -0.744 OA
ENDBRANCH  91  95
ENDBRANCH  65  88
ENDBRANCH  39  40
ENDBRANCH  32  34
ENDBRANCH  31  32
ENDBRANCH  30  31
ENDBRANCH  29  30
ENDBRANCH  28  29
ENDBRANCH   1  28
TORSDOF 21
ENDMDL
