MODEL 1
REMARK VINA RESULT:      -8.8      0.000      0.000
REMARK SMILES C[C@H]([N@H+](CCC(=O)OCCOCCOCCOC(=O)c1ccc(-c2c3nc(c(-c4cc(S(=O)(=O)[O-])ccc4F)c4ccc([nH]4)c(-c4cc(S(=O)(=O)[O-])ccc4F)c4nc(c(-c5cc(S(=O)(=O)[O-])ccc5F)c5ccc2[nH]5)C=C4)C=C3)cc1)C(C)(C)C)C1(C)CC1
REMARK SMILES IDX 12 1 11 2 10 3 9 4 8 5 6 6 7 7 5 8 4 9 3 10 2 12 1 13 87 14
REMARK SMILES IDX 88 15 89 16 90 17 83 18 84 19 85 20 86 21 13 22 14 23 15 24
REMARK SMILES IDX 16 25 17 26 18 27 19 28 20 29 21 30 82 31 22 32 81 33 23 34
REMARK SMILES IDX 24 35 25 36 75 37 26 38 80 39 74 40 76 41 27 42 79 43 73 44
REMARK SMILES IDX 72 45 28 47 60 48 40 49 59 50 41 51 44 52 58 53 77 54 42 55
REMARK SMILES IDX 43 56 57 58 78 59 45 60 29 61 30 62 38 63 31 64 37 65 39 66
REMARK SMILES IDX 36 67 32 68 33 69 34 70 35 71 61 72 62 73 70 74 63 75 69 76
REMARK SMILES IDX 71 77 68 78 64 79 65 80 66 81 67 82 46 83 47 84 55 85 48 86
REMARK SMILES IDX 54 87 56 88 53 89 49 90 50 91 51 92 52 93
REMARK H PARENT 3 11 76 46 44 57
REMARK Flexibility Score: inf
ROOT
ATOM      1  C   UNL A   1      31.896  28.905  24.965  1.00  0.00     0.188 C 
ENDROOT
BRANCH   1   2
ATOM      2  O   UNL A   1      31.871  27.484  24.913  1.00  0.00    -0.376 OA
BRANCH   2   3
ATOM      3  C   UNL A   1      31.532  26.900  26.175  1.00  0.00     0.202 C 
BRANCH   3   4
ATOM      4  C   UNL A   1      30.674  25.624  26.033  1.00  0.00     0.261 C 
BRANCH   4   5
ATOM      5  O   UNL A   1      30.928  24.663  27.093  1.00  0.00    -0.463 OA
BRANCH   5   6
ATOM      6  C   UNL A   1      31.254  23.374  26.827  1.00  0.00     0.311 C 
ATOM      7  O   UNL A   1      30.460  22.542  26.410  1.00  0.00    -0.252 OA
BRANCH   6   8
ATOM      8  C   UNL A   1      32.745  23.099  27.056  1.00  0.00     0.184 C 
BRANCH   8   9
ATOM      9  C   UNL A   1      33.753  23.579  25.952  1.00  0.00     0.274 C 
BRANCH   9  10
ATOM     10  N   UNL A   1      34.412  22.579  25.049  1.00  0.00    -0.328 N 
ATOM     11  H   UNL A   1      34.330  21.746  25.632  1.00  0.00     0.348 HD
BRANCH  10  12
ATOM     12  C   UNL A   1      33.648  22.200  23.802  1.00  0.00     0.187 C 
ATOM     13  C   UNL A   1      32.862  20.875  23.913  1.00  0.00     0.076 C 
BRANCH  12  14
ATOM     14  C   UNL A   1      32.822  23.258  23.011  1.00  0.00     0.019 C 
ATOM     15  C   UNL A   1      31.321  23.205  23.262  1.00  0.00     0.018 C 
ATOM     16  C   UNL A   1      33.320  24.704  22.889  1.00  0.00     0.013 C 
ATOM     17  C   UNL A   1      33.307  23.829  21.687  1.00  0.00     0.013 C 
ENDBRANCH  12  14
ENDBRANCH  10  12
BRANCH  10  18
ATOM     18  C   UNL A   1      35.903  22.668  24.885  1.00  0.00     0.089 C 
ATOM     19  C   UNL A   1      36.624  21.409  25.377  1.00  0.00     0.078 C 
ATOM     20  C   UNL A   1      36.352  22.742  23.408  1.00  0.00     0.078 C 
ATOM     21  C   UNL A   1      36.534  23.830  25.679  1.00  0.00     0.078 C 
ENDBRANCH  10  18
ENDBRANCH   9  10
ENDBRANCH   8   9
ENDBRANCH   6   8
ENDBRANCH   5   6
ENDBRANCH   4   5
ENDBRANCH   3   4
ENDBRANCH   2   3
ENDBRANCH   1   2
BRANCH   1  22
ATOM     22  C   UNL A   1      32.601  29.422  26.196  1.00  0.00     0.188 C 
BRANCH  22  23
ATOM     23  O   UNL A   1      31.745  30.256  26.978  1.00  0.00    -0.376 OA
BRANCH  23  24
ATOM     24  C   UNL A   1      32.071  31.640  26.894  1.00  0.00     0.202 C 
BRANCH  24  25
ATOM     25  C   UNL A   1      33.371  32.015  27.619  1.00  0.00     0.261 C 
BRANCH  25  26
ATOM     26  O   UNL A   1      33.536  33.445  27.680  1.00  0.00    -0.460 OA
BRANCH  26  27
ATOM     27  C   UNL A   1      33.641  33.966  28.930  1.00  0.00     0.338 C 
ATOM     28  O   UNL A   1      32.799  34.637  29.507  1.00  0.00    -0.246 OA
BRANCH  27  29
ATOM     29  C   UNL A   1      34.846  33.420  29.603  1.00  0.00     0.060 A 
ATOM     30  C   UNL A   1      36.102  33.862  29.154  1.00  0.00     0.016 A 
ATOM     31  C   UNL A   1      34.763  32.540  30.686  1.00  0.00     0.016 A 
ATOM     32  C   UNL A   1      37.271  33.385  29.747  1.00  0.00     0.010 A 
ATOM     33  C   UNL A   1      35.936  32.052  31.271  1.00  0.00     0.010 A 
ATOM     34  C   UNL A   1      37.194  32.439  30.776  1.00  0.00    -0.014 A 
BRANCH  34  35
ATOM     35  C   UNL A   1      38.413  31.682  31.161  1.00  0.00     0.031 A 
ATOM     36  C   UNL A   1      39.097  32.065  32.448  1.00  0.00     0.074 A 
ATOM     37  C   UNL A   1      38.875  30.659  30.421  1.00  0.00     0.049 A 
ATOM     38  N   UNL A   1      40.193  31.596  32.985  1.00  0.00    -0.248 NA
ATOM     39  C   UNL A   1      38.453  33.132  33.233  1.00  0.00     0.031 C 
ATOM     40  C   UNL A   1      38.271  30.169  29.183  1.00  0.00     0.029 A 
ATOM     41  N   UNL A   1      39.969  29.847  30.604  1.00  0.00    -0.354 N 
ATOM     42  C   UNL A   1      40.367  32.304  34.169  1.00  0.00     0.074 A 
ATOM     43  C   UNL A   1      39.295  33.272  34.244  1.00  0.00     0.031 C 
ATOM     44  C   UNL A   1      39.011  29.150  28.710  1.00  0.00     0.029 A 
ATOM     45  C   UNL A   1      40.159  28.937  29.590  1.00  0.00     0.049 A 
ATOM     46  H   UNL A   1      40.560  29.912  31.388  1.00  0.00     0.167 HD
ATOM     47  C   UNL A   1      41.322  32.151  35.118  1.00  0.00     0.034 A 
ATOM     48  C   UNL A   1      41.160  28.056  29.387  1.00  0.00     0.034 A 
ATOM     49  C   UNL A   1      42.397  31.194  35.019  1.00  0.00     0.049 A 
ATOM     50  C   UNL A   1      42.265  27.961  30.417  1.00  0.00     0.074 A 
ATOM     51  C   UNL A   1      43.431  30.962  35.907  1.00  0.00     0.029 A 
ATOM     52  N   UNL A   1      42.578  30.312  33.960  1.00  0.00    -0.354 N 
ATOM     53  N   UNL A   1      42.420  28.640  31.534  1.00  0.00    -0.248 NA
ATOM     54  C   UNL A   1      43.320  26.972  30.167  1.00  0.00     0.031 C 
ATOM     55  C   UNL A   1      44.274  29.991  35.355  1.00  0.00     0.029 A 
ATOM     56  C   UNL A   1      43.721  29.554  34.162  1.00  0.00     0.049 A 
ATOM     57  H   UNL A   1      41.982  30.237  33.180  1.00  0.00     0.167 HD
ATOM     58  C   UNL A   1      43.575  28.135  32.128  1.00  0.00     0.074 A 
ATOM     59  C   UNL A   1      44.053  27.076  31.264  1.00  0.00     0.031 C 
ATOM     60  C   UNL A   1      44.192  28.511  33.279  1.00  0.00     0.034 A 
BRANCH  47  61
ATOM     61  C   UNL A   1      41.266  33.069  36.315  1.00  0.00     0.023 A 
ATOM     62  C   UNL A   1      40.551  32.725  37.477  1.00  0.00     0.031 A 
ATOM     63  C   UNL A   1      41.913  34.317  36.288  1.00  0.00     0.131 A 
ATOM     64  C   UNL A   1      40.449  33.640  38.535  1.00  0.00     0.055 A 
ATOM     65  C   UNL A   1      41.874  35.191  37.376  1.00  0.00     0.041 A 
ATOM     66  F   UNL A   1      42.586  34.715  35.196  1.00  0.00    -0.206 F 
ATOM     67  C   UNL A   1      41.129  34.861  38.503  1.00  0.00     0.022 A 
BRANCH  64  68
ATOM     68  S   UNL A   1      39.307  33.273  39.895  1.00  0.00     0.124 S 
ATOM     69  O   UNL A   1      40.232  33.020  40.997  1.00  0.00    -0.237 OA
ATOM     70  O   UNL A   1      38.522  34.498  39.988  1.00  0.00    -0.237 OA
ATOM     71  O   UNL A   1      38.577  32.097  39.422  1.00  0.00    -0.744 OA
ENDBRANCH  64  68
ENDBRANCH  47  61
BRANCH  48  72
ATOM     72  C   UNL A   1      41.208  27.223  28.146  1.00  0.00     0.023 A 
ATOM     73  C   UNL A   1      40.950  25.842  28.176  1.00  0.00     0.031 A 
ATOM     74  C   UNL A   1      41.599  27.788  26.918  1.00  0.00     0.131 A 
ATOM     75  C   UNL A   1      41.143  25.066  27.021  1.00  0.00     0.055 A 
ATOM     76  C   UNL A   1      41.725  27.024  25.757  1.00  0.00     0.041 A 
ATOM     77  F   UNL A   1      41.870  29.100  26.830  1.00  0.00    -0.206 F 
ATOM     78  C   UNL A   1      41.512  25.650  25.809  1.00  0.00     0.022 A 
BRANCH  75  79
ATOM     79  S   UNL A   1      41.018  23.260  27.155  1.00  0.00     0.124 S 
ATOM     80  O   UNL A   1      41.724  23.005  28.405  1.00  0.00    -0.237 OA
ATOM     81  O   UNL A   1      39.574  23.057  27.180  1.00  0.00    -0.237 OA
ATOM     82  O   UNL A   1      41.692  22.782  25.949  1.00  0.00    -0.744 OA
ENDBRANCH  75  79
ENDBRANCH  48  72
BRANCH  60  83
ATOM     83  C   UNL A   1      45.428  27.737  33.677  1.00  0.00     0.023 A 
ATOM     84  C   UNL A   1      46.712  28.141  33.271  1.00  0.00     0.031 A 
ATOM     85  C   UNL A   1      45.318  26.557  34.433  1.00  0.00     0.131 A 
ATOM     86  C   UNL A   1      47.821  27.326  33.545  1.00  0.00     0.055 A 
ATOM     87  C   UNL A   1      46.435  25.792  34.772  1.00  0.00     0.041 A 
ATOM     88  F   UNL A   1      44.118  26.120  34.849  1.00  0.00    -0.206 F 
ATOM     89  C   UNL A   1      47.693  26.163  34.308  1.00  0.00     0.022 A 
BRANCH  86  90
ATOM     90  S   UNL A   1      49.407  27.729  32.762  1.00  0.00     0.124 S 
ATOM     91  O   UNL A   1      49.151  29.064  32.231  1.00  0.00    -0.237 OA
ATOM     92  O   UNL A   1      50.335  27.658  33.885  1.00  0.00    -0.237 OA
ATOM     93  O   UNL A   1      49.569  26.681  31.755  1.00  0.00    -0.744 OA
ENDBRANCH  86  90
ENDBRANCH  60  83
ENDBRANCH  34  35
ENDBRANCH  27  29
ENDBRANCH  26  27
ENDBRANCH  25  26
ENDBRANCH  24  25
ENDBRANCH  23  24
ENDBRANCH  22  23
ENDBRANCH   1  22
TORSDOF 25
ENDMDL
MODEL 2
REMARK VINA RESULT:      -8.6      1.381      2.134
REMARK SMILES C[C@H]([N@H+](CCC(=O)OCCOCCOCCOC(=O)c1ccc(-c2c3nc(c(-c4cc(S(=O)(=O)[O-])ccc4F)c4ccc([nH]4)c(-c4cc(S(=O)(=O)[O-])ccc4F)c4nc(c(-c5cc(S(=O)(=O)[O-])ccc5F)c5ccc2[nH]5)C=C4)C=C3)cc1)C(C)(C)C)C1(C)CC1
REMARK SMILES IDX 12 1 11 2 10 3 9 4 8 5 6 6 7 7 5 8 4 9 3 10 2 12 1 13 87 14
REMARK SMILES IDX 88 15 89 16 90 17 83 18 84 19 85 20 86 21 13 22 14 23 15 24
REMARK SMILES IDX 16 25 17 26 18 27 19 28 20 29 21 30 82 31 22 32 81 33 23 34
REMARK SMILES IDX 24 35 25 36 75 37 26 38 80 39 74 40 76 41 27 42 79 43 73 44
REMARK SMILES IDX 72 45 28 47 60 48 40 49 59 50 41 51 44 52 58 53 77 54 42 55
REMARK SMILES IDX 43 56 57 58 78 59 45 60 29 61 30 62 38 63 31 64 37 65 39 66
REMARK SMILES IDX 36 67 32 68 33 69 34 70 35 71 61 72 62 73 70 74 63 75 69 76
REMARK SMILES IDX 71 77 68 78 64 79 65 80 66 81 67 82 46 83 47 84 55 85 48 86
REMARK SMILES IDX 54 87 56 88 53 89 49 90 50 91 51 92 52 93
REMARK H PARENT 3 11 76 46 44 57
REMARK Flexibility Score: inf
ROOT
ATOM      1  C   UNL A   1      31.597  28.918  24.590  1.00  0.00     0.188 C 
ENDROOT
BRANCH   1   2
ATOM      2  O   UNL A   1      30.814  27.873  25.156  1.00  0.00    -0.376 OA
BRANCH   2   3
ATOM      3  C   UNL A   1      30.099  27.132  24.162  1.00  0.00     0.202 C 
BRANCH   3   4
ATOM      4  C   UNL A   1      30.187  25.605  24.375  1.00  0.00     0.261 C 
BRANCH   4   5
ATOM      5  O   UNL A   1      30.431  25.251  25.763  1.00  0.00    -0.463 OA
BRANCH   5   6
ATOM      6  C   UNL A   1      30.328  23.974  26.206  1.00  0.00     0.311 C 
ATOM      7  O   UNL A   1      29.870  23.665  27.298  1.00  0.00    -0.252 OA
BRANCH   6   8
ATOM      8  C   UNL A   1      30.796  22.961  25.154  1.00  0.00     0.184 C 
BRANCH   8   9
ATOM      9  C   UNL A   1      32.285  23.051  24.665  1.00  0.00     0.274 C 
BRANCH   9  10
ATOM     10  N   UNL A   1      33.344  23.596  25.577  1.00  0.00    -0.328 N 
ATOM     11  H   UNL A   1      32.751  24.001  26.301  1.00  0.00     0.348 HD
BRANCH  10  12
ATOM     12  C   UNL A   1      34.161  22.575  26.336  1.00  0.00     0.187 C 
ATOM     13  C   UNL A   1      33.651  22.286  27.765  1.00  0.00     0.076 C 
BRANCH  12  14
ATOM     14  C   UNL A   1      34.641  21.260  25.653  1.00  0.00     0.019 C 
ATOM     15  C   UNL A   1      33.634  20.119  25.697  1.00  0.00     0.018 C 
ATOM     16  C   UNL A   1      35.381  21.303  24.310  1.00  0.00     0.013 C 
ATOM     17  C   UNL A   1      36.117  20.908  25.540  1.00  0.00     0.013 C 
ENDBRANCH  12  14
ENDBRANCH  10  12
BRANCH  10  18
ATOM     18  C   UNL A   1      34.102  24.808  25.115  1.00  0.00     0.089 C 
ATOM     19  C   UNL A   1      35.615  24.664  25.310  1.00  0.00     0.078 C 
ATOM     20  C   UNL A   1      33.993  25.054  23.593  1.00  0.00     0.078 C 
ATOM     21  C   UNL A   1      33.718  26.092  25.879  1.00  0.00     0.078 C 
ENDBRANCH  10  18
ENDBRANCH   9  10
ENDBRANCH   8   9
ENDBRANCH   6   8
ENDBRANCH   5   6
ENDBRANCH   4   5
ENDBRANCH   3   4
ENDBRANCH   2   3
ENDBRANCH   1   2
BRANCH   1  22
ATOM     22  C   UNL A   1      31.124  30.285  25.018  1.00  0.00     0.188 C 
BRANCH  22  23
ATOM     23  O   UNL A   1      31.312  30.491  26.419  1.00  0.00    -0.376 OA
BRANCH  23  24
ATOM     24  C   UNL A   1      32.639  30.217  26.859  1.00  0.00     0.202 C 
BRANCH  24  25
ATOM     25  C   UNL A   1      33.549  31.454  26.886  1.00  0.00     0.261 C 
BRANCH  25  26
ATOM     26  O   UNL A   1      32.964  32.510  27.672  1.00  0.00    -0.460 OA
BRANCH  26  27
ATOM     27  C   UNL A   1      33.848  33.314  28.316  1.00  0.00     0.338 C 
ATOM     28  O   UNL A   1      33.621  34.428  28.765  1.00  0.00    -0.246 OA
BRANCH  27  29
ATOM     29  C   UNL A   1      35.096  32.562  28.602  1.00  0.00     0.060 A 
ATOM     30  C   UNL A   1      34.973  31.281  29.164  1.00  0.00     0.016 A 
ATOM     31  C   UNL A   1      36.361  33.064  28.281  1.00  0.00     0.016 A 
ATOM     32  C   UNL A   1      36.109  30.526  29.455  1.00  0.00     0.010 A 
ATOM     33  C   UNL A   1      37.500  32.312  28.585  1.00  0.00     0.010 A 
ATOM     34  C   UNL A   1      37.381  31.059  29.214  1.00  0.00    -0.014 A 
BRANCH  34  35
ATOM     35  C   UNL A   1      38.569  30.418  29.834  1.00  0.00     0.031 A 
ATOM     36  C   UNL A   1      38.948  30.847  31.227  1.00  0.00     0.074 A 
ATOM     37  C   UNL A   1      39.263  29.454  29.203  1.00  0.00     0.049 A 
ATOM     38  N   UNL A   1      39.959  30.478  31.970  1.00  0.00    -0.248 NA
ATOM     39  C   UNL A   1      38.064  31.837  31.865  1.00  0.00     0.031 C 
ATOM     40  C   UNL A   1      38.962  28.925  27.874  1.00  0.00     0.029 A 
ATOM     41  N   UNL A   1      40.373  28.749  29.601  1.00  0.00    -0.354 N 
ATOM     42  C   UNL A   1      39.829  31.184  33.162  1.00  0.00     0.074 A 
ATOM     43  C   UNL A   1      38.674  32.044  33.020  1.00  0.00     0.031 C 
ATOM     44  C   UNL A   1      39.876  27.989  27.560  1.00  0.00     0.029 A 
ATOM     45  C   UNL A   1      40.845  27.875  28.649  1.00  0.00     0.049 A 
ATOM     46  H   UNL A   1      40.792  28.860  30.485  1.00  0.00     0.167 HD
ATOM     47  C   UNL A   1      40.591  31.110  34.280  1.00  0.00     0.034 A 
ATOM     48  C   UNL A   1      41.947  27.097  28.650  1.00  0.00     0.034 A 
ATOM     49  C   UNL A   1      41.752  30.262  34.398  1.00  0.00     0.049 A 
ATOM     50  C   UNL A   1      42.834  27.095  29.877  1.00  0.00     0.074 A 
ATOM     51  C   UNL A   1      42.610  30.119  35.472  1.00  0.00     0.029 A 
ATOM     52  N   UNL A   1      42.220  29.416  33.400  1.00  0.00    -0.354 N 
ATOM     53  N   UNL A   1      42.701  27.770  30.998  1.00  0.00    -0.248 NA
ATOM     54  C   UNL A   1      44.008  26.215  29.843  1.00  0.00     0.031 C 
ATOM     55  C   UNL A   1      43.635  29.241  35.101  1.00  0.00     0.029 A 
ATOM     56  C   UNL A   1      43.370  28.769  33.825  1.00  0.00     0.049 A 
ATOM     57  H   UNL A   1      41.798  29.295  32.519  1.00  0.00     0.167 HD
ATOM     58  C   UNL A   1      43.762  27.370  31.810  1.00  0.00     0.074 A 
ATOM     59  C   UNL A   1      44.500  26.374  31.062  1.00  0.00     0.031 C 
ATOM     60  C   UNL A   1      44.103  27.789  33.057  1.00  0.00     0.034 A 
BRANCH  47  61
ATOM     61  C   UNL A   1      40.213  32.003  35.438  1.00  0.00     0.023 A 
ATOM     62  C   UNL A   1      39.291  31.591  36.417  1.00  0.00     0.031 A 
ATOM     63  C   UNL A   1      40.762  33.292  35.553  1.00  0.00     0.131 A 
ATOM     64  C   UNL A   1      38.899  32.480  37.429  1.00  0.00     0.055 A 
ATOM     65  C   UNL A   1      40.428  34.143  36.608  1.00  0.00     0.041 A 
ATOM     66  F   UNL A   1      41.625  33.753  34.633  1.00  0.00    -0.206 F 
ATOM     67  C   UNL A   1      39.482  33.744  37.547  1.00  0.00     0.022 A 
BRANCH  64  68
ATOM     68  S   UNL A   1      37.520  32.013  38.510  1.00  0.00     0.124 S 
ATOM     69  O   UNL A   1      37.260  30.641  38.081  1.00  0.00    -0.237 OA
ATOM     70  O   UNL A   1      38.094  32.168  39.841  1.00  0.00    -0.237 OA
ATOM     71  O   UNL A   1      36.473  32.974  38.165  1.00  0.00    -0.744 OA
ENDBRANCH  64  68
ENDBRANCH  47  61
BRANCH  48  72
ATOM     72  C   UNL A   1      42.317  26.290  27.447  1.00  0.00     0.023 A 
ATOM     73  C   UNL A   1      41.962  24.935  27.333  1.00  0.00     0.031 A 
ATOM     74  C   UNL A   1      43.108  26.847  26.425  1.00  0.00     0.131 A 
ATOM     75  C   UNL A   1      42.447  24.170  26.259  1.00  0.00     0.055 A 
ATOM     76  C   UNL A   1      43.532  26.099  25.325  1.00  0.00     0.041 A 
ATOM     77  F   UNL A   1      43.487  28.133  26.485  1.00  0.00    -0.206 F 
ATOM     78  C   UNL A   1      43.215  24.747  25.246  1.00  0.00     0.022 A 
BRANCH  75  79
ATOM     79  S   UNL A   1      42.157  22.378  26.265  1.00  0.00     0.124 S 
ATOM     80  O   UNL A   1      42.670  21.998  27.576  1.00  0.00    -0.237 OA
ATOM     81  O   UNL A   1      40.709  22.305  26.096  1.00  0.00    -0.237 OA
ATOM     82  O   UNL A   1      42.940  21.903  25.126  1.00  0.00    -0.744 OA
ENDBRANCH  75  79
ENDBRANCH  48  72
BRANCH  60  83
ATOM     83  C   UNL A   1      45.307  27.132  33.693  1.00  0.00     0.023 A 
ATOM     84  C   UNL A   1      46.613  27.589  33.444  1.00  0.00     0.031 A 
ATOM     85  C   UNL A   1      45.151  26.007  34.522  1.00  0.00     0.131 A 
ATOM     86  C   UNL A   1      47.712  26.873  33.943  1.00  0.00     0.055 A 
ATOM     87  C   UNL A   1      46.245  25.346  35.082  1.00  0.00     0.041 A 
ATOM     88  F   UNL A   1      43.928  25.523  34.796  1.00  0.00    -0.206 F 
ATOM     89  C   UNL A   1      47.537  25.766  34.775  1.00  0.00     0.022 A 
BRANCH  86  90
ATOM     90  S   UNL A   1      49.373  27.322  33.366  1.00  0.00     0.124 S 
ATOM     91  O   UNL A   1      50.075  27.560  34.622  1.00  0.00    -0.237 OA
ATOM     92  O   UNL A   1      49.777  26.132  32.625  1.00  0.00    -0.237 OA
ATOM     93  O   UNL A   1      49.141  28.513  32.550  1.00  0.00    -0.744 OA
ENDBRANCH  86  90
ENDBRANCH  60  83
ENDBRANCH  34  35
ENDBRANCH  27  29
ENDBRANCH  26  27
ENDBRANCH  25  26
ENDBRANCH  24  25
ENDBRANCH  23  24
ENDBRANCH  22  23
ENDBRANCH   1  22
TORSDOF 25
ENDMDL
MODEL 3
REMARK VINA RESULT:      -8.6      1.941      2.657
REMARK SMILES C[C@H]([N@H+](CCC(=O)OCCOCCOCCOC(=O)c1ccc(-c2c3nc(c(-c4cc(S(=O)(=O)[O-])ccc4F)c4ccc([nH]4)c(-c4cc(S(=O)(=O)[O-])ccc4F)c4nc(c(-c5cc(S(=O)(=O)[O-])ccc5F)c5ccc2[nH]5)C=C4)C=C3)cc1)C(C)(C)C)C1(C)CC1
REMARK SMILES IDX 12 1 11 2 10 3 9 4 8 5 6 6 7 7 5 8 4 9 3 10 2 12 1 13 87 14
REMARK SMILES IDX 88 15 89 16 90 17 83 18 84 19 85 20 86 21 13 22 14 23 15 24
REMARK SMILES IDX 16 25 17 26 18 27 19 28 20 29 21 30 82 31 22 32 81 33 23 34
REMARK SMILES IDX 24 35 25 36 75 37 26 38 80 39 74 40 76 41 27 42 79 43 73 44
REMARK SMILES IDX 72 45 28 47 60 48 40 49 59 50 41 51 44 52 58 53 77 54 42 55
REMARK SMILES IDX 43 56 57 58 78 59 45 60 29 61 30 62 38 63 31 64 37 65 39 66
REMARK SMILES IDX 36 67 32 68 33 69 34 70 35 71 61 72 62 73 70 74 63 75 69 76
REMARK SMILES IDX 71 77 68 78 64 79 65 80 66 81 67 82 46 83 47 84 55 85 48 86
REMARK SMILES IDX 54 87 56 88 53 89 49 90 50 91 51 92 52 93
REMARK H PARENT 3 11 76 46 44 57
REMARK Flexibility Score: inf
ROOT
ATOM      1  C   UNL A   1      32.404  28.746  25.089  1.00  0.00     0.188 C 
ENDROOT
BRANCH   1   2
ATOM      2  O   UNL A   1      31.585  27.676  25.546  1.00  0.00    -0.376 OA
BRANCH   2   3
ATOM      3  C   UNL A   1      31.260  26.755  24.500  1.00  0.00     0.202 C 
BRANCH   3   4
ATOM      4  C   UNL A   1      31.614  25.295  24.856  1.00  0.00     0.261 C 
BRANCH   4   5
ATOM      5  O   UNL A   1      31.169  24.924  26.188  1.00  0.00    -0.463 OA
BRANCH   5   6
ATOM      6  C   UNL A   1      30.562  23.737  26.436  1.00  0.00     0.311 C 
ATOM      7  O   UNL A   1      29.766  23.555  27.347  1.00  0.00    -0.252 OA
BRANCH   6   8
ATOM      8  C   UNL A   1      30.945  22.669  25.404  1.00  0.00     0.184 C 
BRANCH   8   9
ATOM      9  C   UNL A   1      32.149  21.722  25.747  1.00  0.00     0.274 C 
BRANCH   9  10
ATOM     10  N   UNL A   1      32.969  21.118  24.646  1.00  0.00    -0.328 N 
ATOM     11  H   UNL A   1      32.290  21.166  23.886  1.00  0.00     0.348 HD
BRANCH  10  12
ATOM     12  C   UNL A   1      34.116  21.957  24.131  1.00  0.00     0.187 C 
ATOM     13  C   UNL A   1      33.759  22.857  22.928  1.00  0.00     0.076 C 
BRANCH  12  14
ATOM     14  C   UNL A   1      35.066  22.709  25.111  1.00  0.00     0.019 C 
ATOM     15  C   UNL A   1      35.106  24.219  24.919  1.00  0.00     0.018 C 
ATOM     16  C   UNL A   1      35.112  22.331  26.598  1.00  0.00     0.013 C 
ATOM     17  C   UNL A   1      36.281  22.033  25.728  1.00  0.00     0.013 C 
ENDBRANCH  12  14
ENDBRANCH  10  12
BRANCH  10  18
ATOM     18  C   UNL A   1      33.232  19.641  24.705  1.00  0.00     0.089 C 
ATOM     19  C   UNL A   1      32.566  18.879  23.554  1.00  0.00     0.078 C 
ATOM     20  C   UNL A   1      34.722  19.277  24.516  1.00  0.00     0.078 C 
ATOM     21  C   UNL A   1      32.694  18.978  25.990  1.00  0.00     0.078 C 
ENDBRANCH  10  18
ENDBRANCH   9  10
ENDBRANCH   8   9
ENDBRANCH   6   8
ENDBRANCH   5   6
ENDBRANCH   4   5
ENDBRANCH   3   4
ENDBRANCH   2   3
ENDBRANCH   1   2
BRANCH   1  22
ATOM     22  C   UNL A   1      31.699  30.078  25.158  1.00  0.00     0.188 C 
BRANCH  22  23
ATOM     23  O   UNL A   1      31.515  30.505  26.509  1.00  0.00    -0.376 OA
BRANCH  23  24
ATOM     24  C   UNL A   1      32.724  30.544  27.261  1.00  0.00     0.202 C 
BRANCH  24  25
ATOM     25  C   UNL A   1      33.523  31.843  27.079  1.00  0.00     0.261 C 
BRANCH  25  26
ATOM     26  O   UNL A   1      33.058  32.866  27.980  1.00  0.00    -0.460 OA
BRANCH  26  27
ATOM     27  C   UNL A   1      34.027  33.646  28.525  1.00  0.00     0.338 C 
ATOM     28  O   UNL A   1      33.901  34.802  28.901  1.00  0.00    -0.246 OA
BRANCH  27  29
ATOM     29  C   UNL A   1      35.230  32.825  28.813  1.00  0.00     0.060 A 
ATOM     30  C   UNL A   1      35.056  31.651  29.564  1.00  0.00     0.016 A 
ATOM     31  C   UNL A   1      36.495  33.155  28.318  1.00  0.00     0.016 A 
ATOM     32  C   UNL A   1      36.149  30.838  29.866  1.00  0.00     0.010 A 
ATOM     33  C   UNL A   1      37.593  32.347  28.632  1.00  0.00     0.010 A 
ATOM     34  C   UNL A   1      37.432  31.210  29.444  1.00  0.00    -0.014 A 
BRANCH  34  35
ATOM     35  C   UNL A   1      38.616  30.550  30.050  1.00  0.00     0.031 A 
ATOM     36  C   UNL A   1      39.020  30.973  31.438  1.00  0.00     0.074 A 
ATOM     37  C   UNL A   1      39.288  29.574  29.411  1.00  0.00     0.049 A 
ATOM     38  N   UNL A   1      40.034  30.588  32.169  1.00  0.00    -0.248 NA
ATOM     39  C   UNL A   1      38.160  31.977  32.086  1.00  0.00     0.031 C 
ATOM     40  C   UNL A   1      38.961  29.050  28.086  1.00  0.00     0.029 A 
ATOM     41  N   UNL A   1      40.391  28.852  29.795  1.00  0.00    -0.354 N 
ATOM     42  C   UNL A   1      39.930  31.297  33.361  1.00  0.00     0.074 A 
ATOM     43  C   UNL A   1      38.788  32.174  33.234  1.00  0.00     0.031 C 
ATOM     44  C   UNL A   1      39.856  28.099  27.762  1.00  0.00     0.029 A 
ATOM     45  C   UNL A   1      40.837  27.970  28.838  1.00  0.00     0.049 A 
ATOM     46  H   UNL A   1      40.822  28.956  30.674  1.00  0.00     0.167 HD
ATOM     47  C   UNL A   1      40.705  31.211  34.470  1.00  0.00     0.034 A 
ATOM     48  C   UNL A   1      41.926  27.174  28.826  1.00  0.00     0.034 A 
ATOM     49  C   UNL A   1      41.853  30.344  34.574  1.00  0.00     0.049 A 
ATOM     50  C   UNL A   1      42.828  27.159  30.041  1.00  0.00     0.074 A 
ATOM     51  C   UNL A   1      42.723  30.187  35.638  1.00  0.00     0.029 A 
ATOM     52  N   UNL A   1      42.296  29.490  33.570  1.00  0.00    -0.354 N 
ATOM     53  N   UNL A   1      42.720  27.836  31.164  1.00  0.00    -0.248 NA
ATOM     54  C   UNL A   1      43.988  26.260  29.993  1.00  0.00     0.031 C 
ATOM     55  C   UNL A   1      43.728  29.293  35.254  1.00  0.00     0.029 A 
ATOM     56  C   UNL A   1      43.440  28.825  33.982  1.00  0.00     0.049 A 
ATOM     57  H   UNL A   1      41.861  29.376  32.695  1.00  0.00     0.167 HD
ATOM     58  C   UNL A   1      43.785  27.420  31.963  1.00  0.00     0.074 A 
ATOM     59  C   UNL A   1      44.497  26.411  31.206  1.00  0.00     0.031 C 
ATOM     60  C   UNL A   1      44.148  27.833  33.206  1.00  0.00     0.034 A 
BRANCH  47  61
ATOM     61  C   UNL A   1      40.356  32.110  35.632  1.00  0.00     0.023 A 
ATOM     62  C   UNL A   1      39.282  31.820  36.493  1.00  0.00     0.031 A 
ATOM     63  C   UNL A   1      41.090  33.285  35.870  1.00  0.00     0.131 A 
ATOM     64  C   UNL A   1      38.934  32.723  37.509  1.00  0.00     0.055 A 
ATOM     65  C   UNL A   1      40.788  34.140  36.932  1.00  0.00     0.041 A 
ATOM     66  F   UNL A   1      42.107  33.631  35.064  1.00  0.00    -0.206 F 
ATOM     67  C   UNL A   1      39.697  33.868  37.751  1.00  0.00     0.022 A 
BRANCH  64  68
ATOM     68  S   UNL A   1      37.391  32.450  38.423  1.00  0.00     0.124 S 
ATOM     69  O   UNL A   1      36.412  33.086  37.546  1.00  0.00    -0.237 OA
ATOM     70  O   UNL A   1      37.326  30.997  38.507  1.00  0.00    -0.237 OA
ATOM     71  O   UNL A   1      37.619  33.140  39.692  1.00  0.00    -0.744 OA
ENDBRANCH  64  68
ENDBRANCH  47  61
BRANCH  48  72
ATOM     72  C   UNL A   1      42.268  26.361  27.619  1.00  0.00     0.023 A 
ATOM     73  C   UNL A   1      41.835  25.031  27.481  1.00  0.00     0.031 A 
ATOM     74  C   UNL A   1      43.110  26.881  26.618  1.00  0.00     0.131 A 
ATOM     75  C   UNL A   1      42.291  24.252  26.405  1.00  0.00     0.055 A 
ATOM     76  C   UNL A   1      43.506  26.123  25.516  1.00  0.00     0.041 A 
ATOM     77  F   UNL A   1      43.564  28.142  26.701  1.00  0.00    -0.206 F 
ATOM     78  C   UNL A   1      43.110  24.793  25.413  1.00  0.00     0.022 A 
BRANCH  75  79
ATOM     79  S   UNL A   1      41.894  22.481  26.382  1.00  0.00     0.124 S 
ATOM     80  O   UNL A   1      42.545  22.045  25.152  1.00  0.00    -0.237 OA
ATOM     81  O   UNL A   1      42.499  22.019  27.627  1.00  0.00    -0.237 OA
ATOM     82  O   UNL A   1      40.433  22.460  26.357  1.00  0.00    -0.744 OA
ENDBRANCH  75  79
ENDBRANCH  48  72
BRANCH  60  83
ATOM     83  C   UNL A   1      45.349  27.157  33.827  1.00  0.00     0.023 A 
ATOM     84  C   UNL A   1      45.217  26.001  34.616  1.00  0.00     0.031 A 
ATOM     85  C   UNL A   1      46.636  27.701  33.666  1.00  0.00     0.131 A 
ATOM     86  C   UNL A   1      46.335  25.481  35.286  1.00  0.00     0.055 A 
ATOM     87  C   UNL A   1      47.757  27.131  34.269  1.00  0.00     0.041 A 
ATOM     88  F   UNL A   1      46.825  28.804  32.923  1.00  0.00    -0.206 F 
ATOM     89  C   UNL A   1      47.607  26.026  35.104  1.00  0.00     0.022 A 
BRANCH  86  90
ATOM     90  S   UNL A   1      46.075  24.172  36.516  1.00  0.00     0.124 S 
ATOM     91  O   UNL A   1      47.056  24.520  37.539  1.00  0.00    -0.237 OA
ATOM     92  O   UNL A   1      44.676  24.363  36.883  1.00  0.00    -0.237 OA
ATOM     93  O   UNL A   1      46.362  22.944  35.775  1.00  0.00    -0.744 OA
ENDBRANCH  86  90
ENDBRANCH  60  83
ENDBRANCH  34  35
ENDBRANCH  27  29
ENDBRANCH  26  27
ENDBRANCH  25  26
ENDBRANCH  24  25
ENDBRANCH  23  24
ENDBRANCH  22  23
ENDBRANCH   1  22
TORSDOF 25
ENDMDL
