MODEL 1
REMARK VINA RESULT:      -9.8      0.000      0.000
REMARK SMILES O=C(Cn1cc(/C=C2\SC(N3CCOCC3)=[NH+]C2=O)c2ccccc21)OCCOCCOCCOC(=O)c1ccc(-c2c3nc(c(-c4cc(S(=O)(=O)[O-])ccc4F)c4ccc([nH]4)c(-c4cc(S(=O)(=O)[O-])ccc4F)c4nc(c(-c5cc(S(=O)(=O)[O-])ccc5F)c5ccc2[nH]5)C=C4)C=C3)cc1
REMARK SMILES IDX 31 1 30 2 29 3 28 4 27 5 26 6 2 7 1 8 3 9 4 10 5 11 25 12
REMARK SMILES IDX 6 13 20 14 24 15 21 16 23 17 22 18 7 19 8 20 9 21 18 22
REMARK SMILES IDX 10 23 17 24 19 25 11 26 12 28 16 29 13 30 15 31 14 32 32 33
REMARK SMILES IDX 33 34 34 35 35 36 36 37 37 38 38 39 39 40 100 41 40 42 99 43
REMARK SMILES IDX 41 44 42 45 43 46 93 47 44 48 98 49 92 50 94 51 45 52 97 53
REMARK SMILES IDX 91 54 90 55 46 57 78 58 58 59 77 60 59 61 62 62 76 63 95 64
REMARK SMILES IDX 60 65 61 66 75 68 96 69 63 70 47 71 48 72 56 73 49 74 55 75
REMARK SMILES IDX 57 76 54 77 50 78 51 79 52 80 53 81 79 82 80 83 88 84 81 85
REMARK SMILES IDX 87 86 89 87 86 88 82 89 83 90 84 91 85 92 64 93 65 94 73 95
REMARK SMILES IDX 66 96 72 97 74 98 71 99 67 100 68 101 69 102 70 103
REMARK H PARENT 17 27 94 56 62 67
REMARK Flexibility Score: inf
ROOT
ATOM      1  C   UNL A   1      45.218  22.988  25.018  1.00  0.00     0.188 C 
ENDROOT
BRANCH   1   2
ATOM      2  C   UNL A   1      45.461  24.452  25.410  1.00  0.00     0.188 C 
BRANCH   2   3
ATOM      3  O   UNL A   1      44.728  24.784  26.586  1.00  0.00    -0.376 OA
BRANCH   3   4
ATOM      4  C   UNL A   1      44.379  26.162  26.655  1.00  0.00     0.202 C 
BRANCH   4   5
ATOM      5  C   UNL A   1      44.431  26.765  25.259  1.00  0.00     0.261 C 
BRANCH   5   6
ATOM      6  O   UNL A   1      45.306  27.902  25.078  1.00  0.00    -0.462 OA
BRANCH   6   7
ATOM      7  C   UNL A   1      46.610  27.905  24.758  1.00  0.00     0.326 C 
ATOM      8  O   UNL A   1      47.230  28.952  24.942  1.00  0.00    -0.250 OA
BRANCH   7   9
ATOM      9  C   UNL A   1      47.315  26.719  24.154  1.00  0.00     0.244 C 
BRANCH   9  10
ATOM     10  N   UNL A   1      48.599  26.953  23.524  1.00  0.00    -0.336 N 
ATOM     11  C   UNL A   1      48.744  27.409  22.242  1.00  0.00     0.095 A 
ATOM     12  C   UNL A   1      49.826  26.809  24.125  1.00  0.00     0.049 A 
ATOM     13  C   UNL A   1      50.091  27.576  22.008  1.00  0.00     0.001 A 
ATOM     14  C   UNL A   1      50.792  27.103  23.155  1.00  0.00     0.007 A 
ATOM     15  C   UNL A   1      50.158  26.415  25.430  1.00  0.00     0.027 A 
ATOM     16  C   UNL A   1      52.147  26.941  23.501  1.00  0.00     0.011 A 
ATOM     17  C   UNL A   1      51.502  26.234  25.736  1.00  0.00     0.002 A 
ATOM     18  C   UNL A   1      52.485  26.483  24.783  1.00  0.00     0.001 A 
BRANCH  13  19
ATOM     19  C   UNL A   1      50.611  28.143  20.806  1.00  0.00     0.034 C 
ATOM     20  C   UNL A   1      51.069  27.441  19.755  1.00  0.00     0.110 C 
ATOM     21  S   UNL A   1      51.051  25.740  19.542  1.00  0.00     0.006 SA
ATOM     22  C   UNL A   1      51.753  28.069  18.589  1.00  0.00     0.346 C 
ATOM     23  C   UNL A   1      51.961  25.914  18.053  1.00  0.00     0.319 C 
ATOM     24  N   UNL A   1      52.290  27.126  17.737  1.00  0.00    -0.200 N 
ATOM     25  O   UNL A   1      51.895  29.279  18.472  1.00  0.00    -0.240 OA
ATOM     26  N   UNL A   1      52.371  24.776  17.412  1.00  0.00    -0.251 N 
ATOM     27  H   UNL A   1      52.864  27.352  16.969  1.00  0.00     0.316 HD
ATOM     28  C   UNL A   1      51.449  23.668  17.091  1.00  0.00     0.265 C 
ATOM     29  C   UNL A   1      53.619  24.728  16.656  1.00  0.00     0.265 C 
ATOM     30  C   UNL A   1      52.194  22.333  17.227  1.00  0.00     0.206 C 
ATOM     31  C   UNL A   1      54.278  23.358  16.875  1.00  0.00     0.206 C 
ATOM     32  O   UNL A   1      53.408  22.301  16.447  1.00  0.00    -0.373 OA
ENDBRANCH  13  19
ENDBRANCH   9  10
ENDBRANCH   7   9
ENDBRANCH   6   7
ENDBRANCH   5   6
ENDBRANCH   4   5
ENDBRANCH   3   4
ENDBRANCH   2   3
ENDBRANCH   1   2
BRANCH   1  33
ATOM     33  O   UNL A   1      43.869  22.518  25.004  1.00  0.00    -0.376 OA
BRANCH  33  34
ATOM     34  C   UNL A   1      43.548  21.449  25.885  1.00  0.00     0.202 C 
BRANCH  34  35
ATOM     35  C   UNL A   1      42.045  21.212  26.116  1.00  0.00     0.261 C 
BRANCH  35  36
ATOM     36  O   UNL A   1      41.257  22.353  25.725  1.00  0.00    -0.460 OA
BRANCH  36  37
ATOM     37  C   UNL A   1      40.155  22.617  26.470  1.00  0.00     0.338 C 
ATOM     38  O   UNL A   1      39.246  21.849  26.715  1.00  0.00    -0.246 OA
BRANCH  37  39
ATOM     39  C   UNL A   1      40.388  23.904  27.177  1.00  0.00     0.060 A 
ATOM     40  C   UNL A   1      41.486  24.127  28.012  1.00  0.00     0.016 A 
ATOM     41  C   UNL A   1      39.368  24.862  27.093  1.00  0.00     0.016 A 
ATOM     42  C   UNL A   1      41.538  25.305  28.772  1.00  0.00     0.010 A 
ATOM     43  C   UNL A   1      39.402  26.012  27.886  1.00  0.00     0.010 A 
ATOM     44  C   UNL A   1      40.483  26.242  28.738  1.00  0.00    -0.014 A 
BRANCH  44  45
ATOM     45  C   UNL A   1      40.667  27.542  29.417  1.00  0.00     0.031 A 
ATOM     46  C   UNL A   1      41.630  28.444  28.729  1.00  0.00     0.074 A 
ATOM     47  C   UNL A   1      39.948  28.090  30.424  1.00  0.00     0.049 A 
ATOM     48  N   UNL A   1      42.728  28.952  29.184  1.00  0.00    -0.248 NA
ATOM     49  C   UNL A   1      41.357  28.752  27.318  1.00  0.00     0.031 C 
ATOM     50  C   UNL A   1      38.681  27.611  30.970  1.00  0.00     0.029 A 
ATOM     51  N   UNL A   1      40.159  29.263  31.118  1.00  0.00    -0.354 N 
ATOM     52  C   UNL A   1      43.197  29.798  28.178  1.00  0.00     0.074 A 
ATOM     53  C   UNL A   1      42.400  29.519  27.010  1.00  0.00     0.031 C 
ATOM     54  C   UNL A   1      38.164  28.536  31.804  1.00  0.00     0.029 A 
ATOM     55  C   UNL A   1      39.074  29.664  31.892  1.00  0.00     0.049 A 
ATOM     56  H   UNL A   1      41.001  29.770  31.070  1.00  0.00     0.167 HD
ATOM     57  C   UNL A   1      44.091  30.797  28.422  1.00  0.00     0.034 A 
ATOM     58  C   UNL A   1      38.850  30.865  32.484  1.00  0.00     0.034 A 
ATOM     59  C   UNL A   1      44.756  30.616  29.681  1.00  0.00     0.049 A 
ATOM     60  C   UNL A   1      40.112  31.620  32.588  1.00  0.00     0.074 A 
ATOM     61  C   UNL A   1      45.470  29.574  30.233  1.00  0.00     0.029 A 
ATOM     62  N   UNL A   1      44.456  31.461  30.721  1.00  0.00    -0.354 N 
ATOM     63  N   UNL A   1      41.075  31.351  33.420  1.00  0.00    -0.248 NA
ATOM     64  C   UNL A   1      40.460  32.515  31.494  1.00  0.00     0.031 C 
ATOM     65  C   UNL A   1      45.164  29.600  31.618  1.00  0.00     0.029 A 
ATOM     66  C   UNL A   1      44.323  30.687  31.844  1.00  0.00     0.049 A 
ATOM     67  H   UNL A   1      44.354  32.439  30.669  1.00  0.00     0.167 HD
ATOM     68  C   UNL A   1      42.225  31.641  32.709  1.00  0.00     0.074 A 
ATOM     69  C   UNL A   1      41.788  32.479  31.598  1.00  0.00     0.031 C 
ATOM     70  C   UNL A   1      43.368  30.926  32.902  1.00  0.00     0.034 A 
BRANCH  57  71
ATOM     71  C   UNL A   1      44.171  32.073  27.621  1.00  0.00     0.023 A 
ATOM     72  C   UNL A   1      43.508  33.250  28.012  1.00  0.00     0.031 A 
ATOM     73  C   UNL A   1      45.081  32.207  26.552  1.00  0.00     0.131 A 
ATOM     74  C   UNL A   1      43.708  34.465  27.347  1.00  0.00     0.055 A 
ATOM     75  C   UNL A   1      45.339  33.438  25.936  1.00  0.00     0.041 A 
ATOM     76  F   UNL A   1      45.790  31.156  26.112  1.00  0.00    -0.206 F 
ATOM     77  C   UNL A   1      44.646  34.576  26.327  1.00  0.00     0.022 A 
BRANCH  74  78
ATOM     78  S   UNL A   1      42.730  35.921  27.804  1.00  0.00     0.124 S 
ATOM     79  O   UNL A   1      43.733  36.764  28.443  1.00  0.00    -0.237 OA
ATOM     80  O   UNL A   1      42.251  36.379  26.502  1.00  0.00    -0.237 OA
ATOM     81  O   UNL A   1      41.699  35.375  28.681  1.00  0.00    -0.744 OA
ENDBRANCH  74  78
ENDBRANCH  57  71
BRANCH  58  82
ATOM     82  C   UNL A   1      37.536  31.540  32.616  1.00  0.00     0.023 A 
ATOM     83  C   UNL A   1      36.835  31.910  31.453  1.00  0.00     0.031 A 
ATOM     84  C   UNL A   1      37.083  32.076  33.833  1.00  0.00     0.131 A 
ATOM     85  C   UNL A   1      35.751  32.790  31.512  1.00  0.00     0.055 A 
ATOM     86  C   UNL A   1      35.991  32.953  33.894  1.00  0.00     0.041 A 
ATOM     87  F   UNL A   1      37.725  31.806  34.980  1.00  0.00    -0.206 F 
ATOM     88  C   UNL A   1      35.323  33.321  32.728  1.00  0.00     0.022 A 
BRANCH  85  89
ATOM     89  S   UNL A   1      34.918  33.297  29.984  1.00  0.00     0.124 S 
ATOM     90  O   UNL A   1      33.678  33.884  30.485  1.00  0.00    -0.237 OA
ATOM     91  O   UNL A   1      35.879  34.240  29.423  1.00  0.00    -0.237 OA
ATOM     92  O   UNL A   1      34.754  32.044  29.255  1.00  0.00    -0.744 OA
ENDBRANCH  85  89
ENDBRANCH  58  82
BRANCH  70  93
ATOM     93  C   UNL A   1      43.511  30.065  34.135  1.00  0.00     0.023 A 
ATOM     94  C   UNL A   1      42.937  28.781  34.090  1.00  0.00     0.031 A 
ATOM     95  C   UNL A   1      43.979  30.527  35.378  1.00  0.00     0.131 A 
ATOM     96  C   UNL A   1      42.823  28.013  35.256  1.00  0.00     0.055 A 
ATOM     97  C   UNL A   1      43.929  29.726  36.522  1.00  0.00     0.041 A 
ATOM     98  F   UNL A   1      44.406  31.787  35.545  1.00  0.00    -0.206 F 
ATOM     99  C   UNL A   1      43.333  28.471  36.471  1.00  0.00     0.022 A 
BRANCH  96 100
ATOM    100  S   UNL A   1      41.857  26.480  35.242  1.00  0.00     0.124 S 
ATOM    101  O   UNL A   1      42.808  25.518  34.699  1.00  0.00    -0.237 OA
ATOM    102  O   UNL A   1      41.515  26.303  36.651  1.00  0.00    -0.237 OA
ATOM    103  O   UNL A   1      40.717  26.800  34.384  1.00  0.00    -0.744 OA
ENDBRANCH  96 100
ENDBRANCH  70  93
ENDBRANCH  44  45
ENDBRANCH  37  39
ENDBRANCH  36  37
ENDBRANCH  35  36
ENDBRANCH  34  35
ENDBRANCH  33  34
ENDBRANCH   1  33
TORSDOF 22
ENDMDL
MODEL 2
REMARK VINA RESULT:      -9.8      3.272      4.151
REMARK SMILES O=C(Cn1cc(/C=C2\SC(N3CCOCC3)=[NH+]C2=O)c2ccccc21)OCCOCCOCCOC(=O)c1ccc(-c2c3nc(c(-c4cc(S(=O)(=O)[O-])ccc4F)c4ccc([nH]4)c(-c4cc(S(=O)(=O)[O-])ccc4F)c4nc(c(-c5cc(S(=O)(=O)[O-])ccc5F)c5ccc2[nH]5)C=C4)C=C3)cc1
REMARK SMILES IDX 31 1 30 2 29 3 28 4 27 5 26 6 2 7 1 8 3 9 4 10 5 11 25 12
REMARK SMILES IDX 6 13 20 14 24 15 21 16 23 17 22 18 7 19 8 20 9 21 18 22
REMARK SMILES IDX 10 23 17 24 19 25 11 26 12 28 16 29 13 30 15 31 14 32 32 33
REMARK SMILES IDX 33 34 34 35 35 36 36 37 37 38 38 39 39 40 100 41 40 42 99 43
REMARK SMILES IDX 41 44 42 45 43 46 93 47 44 48 98 49 92 50 94 51 45 52 97 53
REMARK SMILES IDX 91 54 90 55 46 57 78 58 58 59 77 60 59 61 62 62 76 63 95 64
REMARK SMILES IDX 60 65 61 66 75 68 96 69 63 70 47 71 48 72 56 73 49 74 55 75
REMARK SMILES IDX 57 76 54 77 50 78 51 79 52 80 53 81 79 82 80 83 88 84 81 85
REMARK SMILES IDX 87 86 89 87 86 88 82 89 83 90 84 91 85 92 64 93 65 94 73 95
REMARK SMILES IDX 66 96 72 97 74 98 71 99 67 100 68 101 69 102 70 103
REMARK H PARENT 17 27 94 56 62 67
REMARK Flexibility Score: inf
ROOT
ATOM      1  C   UNL A   1      45.418  22.956  24.795  1.00  0.00     0.188 C 
ENDROOT
BRANCH   1   2
ATOM      2  C   UNL A   1      45.375  24.473  25.021  1.00  0.00     0.188 C 
BRANCH   2   3
ATOM      3  O   UNL A   1      44.056  24.894  25.355  1.00  0.00    -0.376 OA
BRANCH   3   4
ATOM      4  C   UNL A   1      43.875  26.301  25.251  1.00  0.00     0.202 C 
BRANCH   4   5
ATOM      5  C   UNL A   1      45.225  26.966  25.026  1.00  0.00     0.261 C 
BRANCH   5   6
ATOM      6  O   UNL A   1      45.547  28.082  25.886  1.00  0.00    -0.462 OA
BRANCH   6   7
ATOM      7  C   UNL A   1      46.147  28.059  27.089  1.00  0.00     0.326 C 
ATOM      8  O   UNL A   1      46.710  29.090  27.454  1.00  0.00    -0.250 OA
BRANCH   7   9
ATOM      9  C   UNL A   1      46.195  26.835  27.964  1.00  0.00     0.244 C 
BRANCH   9  10
ATOM     10  N   UNL A   1      47.495  26.258  28.238  1.00  0.00    -0.336 N 
ATOM     11  C   UNL A   1      48.343  25.801  27.267  1.00  0.00     0.095 A 
ATOM     12  C   UNL A   1      48.077  26.141  29.477  1.00  0.00     0.049 A 
ATOM     13  C   UNL A   1      49.504  25.389  27.885  1.00  0.00     0.001 A 
ATOM     14  C   UNL A   1      49.309  25.504  29.291  1.00  0.00     0.007 A 
ATOM     15  C   UNL A   1      47.601  26.518  30.743  1.00  0.00     0.027 A 
ATOM     16  C   UNL A   1      50.068  25.185  30.434  1.00  0.00     0.011 A 
ATOM     17  C   UNL A   1      48.357  26.165  31.856  1.00  0.00     0.002 A 
ATOM     18  C   UNL A   1      49.569  25.498  31.706  1.00  0.00     0.001 A 
BRANCH  13  19
ATOM     19  C   UNL A   1      50.657  24.951  27.167  1.00  0.00     0.034 C 
ATOM     20  C   UNL A   1      51.735  25.708  26.901  1.00  0.00     0.110 C 
ATOM     21  S   UNL A   1      52.048  27.310  27.425  1.00  0.00     0.006 SA
ATOM     22  C   UNL A   1      52.845  25.264  26.010  1.00  0.00     0.346 C 
ATOM     23  C   UNL A   1      53.500  27.351  26.444  1.00  0.00     0.319 C 
ATOM     24  N   UNL A   1      53.737  26.284  25.750  1.00  0.00    -0.200 N 
ATOM     25  O   UNL A   1      52.888  24.151  25.503  1.00  0.00    -0.240 OA
ATOM     26  N   UNL A   1      54.196  28.528  26.373  1.00  0.00    -0.251 N 
ATOM     27  H   UNL A   1      54.476  26.208  25.103  1.00  0.00     0.316 HD
ATOM     28  C   UNL A   1      54.604  29.284  27.574  1.00  0.00     0.265 C 
ATOM     29  C   UNL A   1      54.922  28.919  25.168  1.00  0.00     0.265 C 
ATOM     30  C   UNL A   1      54.527  30.788  27.275  1.00  0.00     0.206 C 
ATOM     31  C   UNL A   1      54.767  30.433  24.965  1.00  0.00     0.206 C 
ATOM     32  O   UNL A   1      55.278  31.152  26.097  1.00  0.00    -0.373 OA
ENDBRANCH  13  19
ENDBRANCH   9  10
ENDBRANCH   7   9
ENDBRANCH   6   7
ENDBRANCH   5   6
ENDBRANCH   4   5
ENDBRANCH   3   4
ENDBRANCH   2   3
ENDBRANCH   1   2
BRANCH   1  33
ATOM     33  O   UNL A   1      44.172  22.270  24.645  1.00  0.00    -0.376 OA
BRANCH  33  34
ATOM     34  C   UNL A   1      43.866  21.270  25.607  1.00  0.00     0.202 C 
BRANCH  34  35
ATOM     35  C   UNL A   1      42.388  21.186  26.026  1.00  0.00     0.261 C 
BRANCH  35  36
ATOM     36  O   UNL A   1      41.694  22.427  25.789  1.00  0.00    -0.460 OA
BRANCH  36  37
ATOM     37  C   UNL A   1      40.563  22.639  26.507  1.00  0.00     0.338 C 
ATOM     38  O   UNL A   1      39.705  21.818  26.765  1.00  0.00    -0.246 OA
BRANCH  37  39
ATOM     39  C   UNL A   1      40.691  23.964  27.169  1.00  0.00     0.060 A 
ATOM     40  C   UNL A   1      41.829  24.352  27.882  1.00  0.00     0.016 A 
ATOM     41  C   UNL A   1      39.549  24.776  27.179  1.00  0.00     0.016 A 
ATOM     42  C   UNL A   1      41.799  25.546  28.617  1.00  0.00     0.010 A 
ATOM     43  C   UNL A   1      39.509  25.941  27.950  1.00  0.00     0.010 A 
ATOM     44  C   UNL A   1      40.630  26.335  28.681  1.00  0.00    -0.014 A 
BRANCH  44  45
ATOM     45  C   UNL A   1      40.706  27.665  29.321  1.00  0.00     0.031 A 
ATOM     46  C   UNL A   1      41.655  28.596  28.652  1.00  0.00     0.074 A 
ATOM     47  C   UNL A   1      39.904  28.205  30.269  1.00  0.00     0.049 A 
ATOM     48  N   UNL A   1      42.697  29.179  29.145  1.00  0.00    -0.248 NA
ATOM     49  C   UNL A   1      41.443  28.840  27.219  1.00  0.00     0.031 C 
ATOM     50  C   UNL A   1      38.637  27.675  30.764  1.00  0.00     0.029 A 
ATOM     51  N   UNL A   1      40.013  29.411  30.929  1.00  0.00    -0.354 N 
ATOM     52  C   UNL A   1      43.173  30.016  28.135  1.00  0.00     0.074 A 
ATOM     53  C   UNL A   1      42.458  29.654  26.938  1.00  0.00     0.031 C 
ATOM     54  C   UNL A   1      38.026  28.597  31.535  1.00  0.00     0.029 A 
ATOM     55  C   UNL A   1      38.868  29.777  31.629  1.00  0.00     0.049 A 
ATOM     56  H   UNL A   1      40.829  29.963  30.907  1.00  0.00     0.167 HD
ATOM     57  C   UNL A   1      43.998  31.071  28.388  1.00  0.00     0.034 A 
ATOM     58  C   UNL A   1      38.547  30.982  32.164  1.00  0.00     0.034 A 
ATOM     59  C   UNL A   1      44.601  30.971  29.686  1.00  0.00     0.049 A 
ATOM     60  C   UNL A   1      39.759  31.810  32.307  1.00  0.00     0.074 A 
ATOM     61  C   UNL A   1      45.340  29.989  30.313  1.00  0.00     0.029 A 
ATOM     62  N   UNL A   1      44.200  31.832  30.678  1.00  0.00    -0.354 N 
ATOM     63  N   UNL A   1      40.689  31.623  33.198  1.00  0.00    -0.248 NA
ATOM     64  C   UNL A   1      40.117  32.685  31.201  1.00  0.00     0.031 C 
ATOM     65  C   UNL A   1      44.958  30.045  31.678  1.00  0.00     0.029 A 
ATOM     66  C   UNL A   1      44.049  31.090  31.820  1.00  0.00     0.049 A 
ATOM     67  H   UNL A   1      44.048  32.800  30.584  1.00  0.00     0.167 HD
ATOM     68  C   UNL A   1      41.858  31.954  32.538  1.00  0.00     0.074 A 
ATOM     69  C   UNL A   1      41.437  32.728  31.375  1.00  0.00     0.031 C 
ATOM     70  C   UNL A   1      43.026  31.311  32.816  1.00  0.00     0.034 A 
BRANCH  57  71
ATOM     71  C   UNL A   1      44.052  32.322  27.547  1.00  0.00     0.023 A 
ATOM     72  C   UNL A   1      43.443  33.525  27.945  1.00  0.00     0.031 A 
ATOM     73  C   UNL A   1      44.891  32.404  26.416  1.00  0.00     0.131 A 
ATOM     74  C   UNL A   1      43.624  34.715  27.233  1.00  0.00     0.055 A 
ATOM     75  C   UNL A   1      45.134  33.611  25.748  1.00  0.00     0.041 A 
ATOM     76  F   UNL A   1      45.545  31.325  25.961  1.00  0.00    -0.206 F 
ATOM     77  C   UNL A   1      44.494  34.776  26.151  1.00  0.00     0.022 A 
BRANCH  74  78
ATOM     78  S   UNL A   1      42.711  36.207  27.711  1.00  0.00     0.124 S 
ATOM     79  O   UNL A   1      42.754  36.988  26.480  1.00  0.00    -0.237 OA
ATOM     80  O   UNL A   1      41.407  35.655  28.069  1.00  0.00    -0.237 OA
ATOM     81  O   UNL A   1      43.485  36.733  28.831  1.00  0.00    -0.744 OA
ENDBRANCH  74  78
ENDBRANCH  57  71
BRANCH  58  82
ATOM     82  C   UNL A   1      37.193  31.587  32.202  1.00  0.00     0.023 A 
ATOM     83  C   UNL A   1      36.594  32.003  30.999  1.00  0.00     0.031 A 
ATOM     84  C   UNL A   1      36.593  32.017  33.398  1.00  0.00     0.131 A 
ATOM     85  C   UNL A   1      35.465  32.827  31.002  1.00  0.00     0.055 A 
ATOM     86  C   UNL A   1      35.457  32.838  33.401  1.00  0.00     0.041 A 
ATOM     87  F   UNL A   1      37.130  31.698  34.585  1.00  0.00    -0.206 F 
ATOM     88  C   UNL A   1      34.891  33.254  32.198  1.00  0.00     0.022 A 
BRANCH  85  89
ATOM     89  S   UNL A   1      34.765  33.400  29.431  1.00  0.00     0.124 S 
ATOM     90  O   UNL A   1      34.717  32.170  28.644  1.00  0.00    -0.237 OA
ATOM     91  O   UNL A   1      33.474  33.926  29.857  1.00  0.00    -0.237 OA
ATOM     92  O   UNL A   1      35.735  34.388  28.968  1.00  0.00    -0.744 OA
ENDBRANCH  85  89
ENDBRANCH  58  82
BRANCH  70  93
ATOM     93  C   UNL A   1      43.147  30.501  34.086  1.00  0.00     0.023 A 
ATOM     94  C   UNL A   1      42.685  29.173  34.047  1.00  0.00     0.031 A 
ATOM     95  C   UNL A   1      43.484  31.037  35.342  1.00  0.00     0.131 A 
ATOM     96  C   UNL A   1      42.549  28.432  35.228  1.00  0.00     0.055 A 
ATOM     97  C   UNL A   1      43.416  30.269  36.508  1.00  0.00     0.041 A 
ATOM     98  F   UNL A   1      43.794  32.333  35.494  1.00  0.00    -0.206 F 
ATOM     99  C   UNL A   1      42.929  28.967  36.459  1.00  0.00     0.022 A 
BRANCH  96 100
ATOM    100  S   UNL A   1      41.716  26.824  35.199  1.00  0.00     0.124 S 
ATOM    101  O   UNL A   1      41.300  26.664  36.587  1.00  0.00    -0.237 OA
ATOM    102  O   UNL A   1      40.636  27.039  34.238  1.00  0.00    -0.237 OA
ATOM    103  O   UNL A   1      42.755  25.905  34.736  1.00  0.00    -0.744 OA
ENDBRANCH  96 100
ENDBRANCH  70  93
ENDBRANCH  44  45
ENDBRANCH  37  39
ENDBRANCH  36  37
ENDBRANCH  35  36
ENDBRANCH  34  35
ENDBRANCH  33  34
ENDBRANCH   1  33
TORSDOF 22
ENDMDL
MODEL 3
REMARK VINA RESULT:      -9.8      4.379      7.573
REMARK SMILES O=C(Cn1cc(/C=C2\SC(N3CCOCC3)=[NH+]C2=O)c2ccccc21)OCCOCCOCCOC(=O)c1ccc(-c2c3nc(c(-c4cc(S(=O)(=O)[O-])ccc4F)c4ccc([nH]4)c(-c4cc(S(=O)(=O)[O-])ccc4F)c4nc(c(-c5cc(S(=O)(=O)[O-])ccc5F)c5ccc2[nH]5)C=C4)C=C3)cc1
REMARK SMILES IDX 31 1 30 2 29 3 28 4 27 5 26 6 2 7 1 8 3 9 4 10 5 11 25 12
REMARK SMILES IDX 6 13 20 14 24 15 21 16 23 17 22 18 7 19 8 20 9 21 18 22
REMARK SMILES IDX 10 23 17 24 19 25 11 26 12 28 16 29 13 30 15 31 14 32 32 33
REMARK SMILES IDX 33 34 34 35 35 36 36 37 37 38 38 39 39 40 100 41 40 42 99 43
REMARK SMILES IDX 41 44 42 45 43 46 93 47 44 48 98 49 92 50 94 51 45 52 97 53
REMARK SMILES IDX 91 54 90 55 46 57 78 58 58 59 77 60 59 61 62 62 76 63 95 64
REMARK SMILES IDX 60 65 61 66 75 68 96 69 63 70 47 71 48 72 56 73 49 74 55 75
REMARK SMILES IDX 57 76 54 77 50 78 51 79 52 80 53 81 79 82 80 83 88 84 81 85
REMARK SMILES IDX 87 86 89 87 86 88 82 89 83 90 84 91 85 92 64 93 65 94 73 95
REMARK SMILES IDX 66 96 72 97 74 98 71 99 67 100 68 101 69 102 70 103
REMARK H PARENT 17 27 94 56 62 67
REMARK Flexibility Score: inf
ROOT
ATOM      1  C   UNL A   1      45.922  22.943  26.198  1.00  0.00     0.188 C 
ENDROOT
BRANCH   1   2
ATOM      2  C   UNL A   1      46.113  23.844  24.971  1.00  0.00     0.188 C 
BRANCH   2   3
ATOM      3  O   UNL A   1      46.599  25.125  25.360  1.00  0.00    -0.376 OA
BRANCH   3   4
ATOM      4  C   UNL A   1      45.650  26.166  25.166  1.00  0.00     0.202 C 
BRANCH   4   5
ATOM      5  C   UNL A   1      44.810  26.322  26.426  1.00  0.00     0.261 C 
BRANCH   5   6
ATOM      6  O   UNL A   1      45.522  26.657  27.640  1.00  0.00    -0.462 OA
BRANCH   6   7
ATOM      7  C   UNL A   1      46.520  27.542  27.801  1.00  0.00     0.326 C 
ATOM      8  O   UNL A   1      46.295  28.706  27.472  1.00  0.00    -0.250 OA
BRANCH   7   9
ATOM      9  C   UNL A   1      47.884  27.163  28.313  1.00  0.00     0.244 C 
BRANCH   9  10
ATOM     10  N   UNL A   1      48.093  27.191  29.746  1.00  0.00    -0.336 N 
ATOM     11  C   UNL A   1      48.087  26.073  30.536  1.00  0.00     0.095 A 
ATOM     12  C   UNL A   1      48.376  28.307  30.495  1.00  0.00     0.049 A 
ATOM     13  C   UNL A   1      48.384  26.468  31.822  1.00  0.00     0.001 A 
ATOM     14  C   UNL A   1      48.468  27.891  31.828  1.00  0.00     0.007 A 
ATOM     15  C   UNL A   1      48.526  29.647  30.107  1.00  0.00     0.027 A 
ATOM     16  C   UNL A   1      48.666  28.874  32.816  1.00  0.00     0.011 A 
ATOM     17  C   UNL A   1      48.691  30.601  31.105  1.00  0.00     0.002 A 
ATOM     18  C   UNL A   1      48.750  30.223  32.443  1.00  0.00     0.001 A 
BRANCH  13  19
ATOM     19  C   UNL A   1      48.571  25.549  32.898  1.00  0.00     0.034 C 
ATOM     20  C   UNL A   1      47.598  25.103  33.711  1.00  0.00     0.110 C 
ATOM     21  S   UNL A   1      45.916  25.422  33.608  1.00  0.00     0.006 SA
ATOM     22  C   UNL A   1      47.862  24.275  34.922  1.00  0.00     0.346 C 
ATOM     23  C   UNL A   1      45.660  24.567  35.117  1.00  0.00     0.319 C 
ATOM     24  N   UNL A   1      46.726  24.102  35.686  1.00  0.00    -0.200 N 
ATOM     25  O   UNL A   1      48.979  23.886  35.233  1.00  0.00    -0.240 OA
ATOM     26  N   UNL A   1      44.398  24.567  35.651  1.00  0.00    -0.251 N 
ATOM     27  H   UNL A   1      46.727  23.670  36.571  1.00  0.00     0.316 HD
ATOM     28  C   UNL A   1      43.204  24.192  34.868  1.00  0.00     0.265 C 
ATOM     29  C   UNL A   1      44.175  24.546  37.093  1.00  0.00     0.265 C 
ATOM     30  C   UNL A   1      42.014  25.053  35.314  1.00  0.00     0.206 C 
ATOM     31  C   UNL A   1      42.974  25.445  37.422  1.00  0.00     0.206 C 
ATOM     32  O   UNL A   1      41.797  24.991  36.739  1.00  0.00    -0.373 OA
ENDBRANCH  13  19
ENDBRANCH   9  10
ENDBRANCH   7   9
ENDBRANCH   6   7
ENDBRANCH   5   6
ENDBRANCH   4   5
ENDBRANCH   3   4
ENDBRANCH   2   3
ENDBRANCH   1   2
BRANCH   1  33
ATOM     33  O   UNL A   1      44.593  22.520  26.514  1.00  0.00    -0.376 OA
BRANCH  33  34
ATOM     34  C   UNL A   1      43.998  21.561  25.649  1.00  0.00     0.202 C 
BRANCH  34  35
ATOM     35  C   UNL A   1      42.556  21.157  26.004  1.00  0.00     0.261 C 
BRANCH  35  36
ATOM     36  O   UNL A   1      41.671  22.293  26.020  1.00  0.00    -0.460 OA
BRANCH  36  37
ATOM     37  C   UNL A   1      40.664  22.268  26.930  1.00  0.00     0.338 C 
ATOM     38  O   UNL A   1      40.095  21.282  27.352  1.00  0.00    -0.246 OA
BRANCH  37  39
ATOM     39  C   UNL A   1      40.575  23.622  27.539  1.00  0.00     0.060 A 
ATOM     40  C   UNL A   1      39.493  24.481  27.331  1.00  0.00     0.016 A 
ATOM     41  C   UNL A   1      41.708  24.077  28.228  1.00  0.00     0.016 A 
ATOM     42  C   UNL A   1      39.569  25.800  27.801  1.00  0.00     0.010 A 
ATOM     43  C   UNL A   1      41.796  25.405  28.655  1.00  0.00     0.010 A 
ATOM     44  C   UNL A   1      40.732  26.281  28.440  1.00  0.00    -0.014 A 
BRANCH  44  45
ATOM     45  C   UNL A   1      40.694  27.618  29.071  1.00  0.00     0.031 A 
ATOM     46  C   UNL A   1      41.702  28.565  28.524  1.00  0.00     0.074 A 
ATOM     47  C   UNL A   1      39.763  28.146  29.900  1.00  0.00     0.049 A 
ATOM     48  N   UNL A   1      42.658  29.175  29.144  1.00  0.00    -0.248 NA
ATOM     49  C   UNL A   1      41.675  28.795  27.073  1.00  0.00     0.031 C 
ATOM     50  C   UNL A   1      38.453  27.591  30.230  1.00  0.00     0.029 A 
ATOM     51  N   UNL A   1      39.758  29.358  30.557  1.00  0.00    -0.354 N 
ATOM     52  C   UNL A   1      43.245  30.016  28.197  1.00  0.00     0.074 A 
ATOM     53  C   UNL A   1      42.701  29.629  26.920  1.00  0.00     0.031 C 
ATOM     54  C   UNL A   1      37.727  28.504  30.905  1.00  0.00     0.029 A 
ATOM     55  C   UNL A   1      38.523  29.703  31.097  1.00  0.00     0.049 A 
ATOM     56  H   UNL A   1      40.557  29.929  30.637  1.00  0.00     0.167 HD
ATOM     57  C   UNL A   1      44.006  31.091  28.546  1.00  0.00     0.034 A 
ATOM     58  C   UNL A   1      38.109  30.904  31.573  1.00  0.00     0.034 A 
ATOM     59  C   UNL A   1      44.435  31.013  29.913  1.00  0.00     0.049 A 
ATOM     60  C   UNL A   1      39.273  31.761  31.866  1.00  0.00     0.074 A 
ATOM     61  C   UNL A   1      45.106  30.053  30.641  1.00  0.00     0.029 A 
ATOM     62  N   UNL A   1      43.888  31.872  30.834  1.00  0.00    -0.354 N 
ATOM     63  N   UNL A   1      40.081  31.601  32.873  1.00  0.00    -0.248 NA
ATOM     64  C   UNL A   1      39.754  32.636  30.808  1.00  0.00     0.031 C 
ATOM     65  C   UNL A   1      44.546  30.109  31.943  1.00  0.00     0.029 A 
ATOM     66  C   UNL A   1      43.604  31.135  31.954  1.00  0.00     0.049 A 
ATOM     67  H   UNL A   1      43.730  32.836  30.712  1.00  0.00     0.167 HD
ATOM     68  C   UNL A   1      41.319  31.953  32.369  1.00  0.00     0.074 A 
ATOM     69  C   UNL A   1      41.039  32.710  31.154  1.00  0.00     0.031 C 
ATOM     70  C   UNL A   1      42.455  31.339  32.805  1.00  0.00     0.034 A 
BRANCH  57  71
ATOM     71  C   UNL A   1      44.143  32.337  27.707  1.00  0.00     0.023 A 
ATOM     72  C   UNL A   1      43.554  33.560  28.072  1.00  0.00     0.031 A 
ATOM     73  C   UNL A   1      45.041  32.389  26.620  1.00  0.00     0.131 A 
ATOM     74  C   UNL A   1      43.810  34.742  27.368  1.00  0.00     0.055 A 
ATOM     75  C   UNL A   1      45.357  33.585  25.963  1.00  0.00     0.041 A 
ATOM     76  F   UNL A   1      45.682  31.287  26.200  1.00  0.00    -0.206 F 
ATOM     77  C   UNL A   1      44.735  34.771  26.331  1.00  0.00     0.022 A 
BRANCH  74  78
ATOM     78  S   UNL A   1      42.922  36.264  27.797  1.00  0.00     0.124 S 
ATOM     79  O   UNL A   1      41.532  35.841  27.676  1.00  0.00    -0.237 OA
ATOM     80  O   UNL A   1      43.396  36.511  29.156  1.00  0.00    -0.237 OA
ATOM     81  O   UNL A   1      43.391  37.221  26.799  1.00  0.00    -0.744 OA
ENDBRANCH  74  78
ENDBRANCH  57  71
BRANCH  58  82
ATOM     82  C   UNL A   1      36.749  31.479  31.427  1.00  0.00     0.023 A 
ATOM     83  C   UNL A   1      36.236  31.707  30.137  1.00  0.00     0.031 A 
ATOM     84  C   UNL A   1      36.057  32.060  32.503  1.00  0.00     0.131 A 
ATOM     85  C   UNL A   1      35.101  32.499  29.941  1.00  0.00     0.055 A 
ATOM     86  C   UNL A   1      34.914  32.848  32.307  1.00  0.00     0.041 A 
ATOM     87  F   UNL A   1      36.508  31.925  33.759  1.00  0.00    -0.206 F 
ATOM     88  C   UNL A   1      34.435  33.077  31.020  1.00  0.00     0.022 A 
BRANCH  85  89
ATOM     89  S   UNL A   1      34.513  32.828  28.258  1.00  0.00     0.124 S 
ATOM     90  O   UNL A   1      33.487  33.844  28.480  1.00  0.00    -0.237 OA
ATOM     91  O   UNL A   1      35.730  33.293  27.605  1.00  0.00    -0.237 OA
ATOM     92  O   UNL A   1      34.007  31.532  27.816  1.00  0.00    -0.744 OA
ENDBRANCH  85  89
ENDBRANCH  58  82
BRANCH  70  93
ATOM     93  C   UNL A   1      42.425  30.541  34.088  1.00  0.00     0.023 A 
ATOM     94  C   UNL A   1      42.847  31.195  35.260  1.00  0.00     0.031 A 
ATOM     95  C   UNL A   1      42.217  29.152  34.155  1.00  0.00     0.131 A 
ATOM     96  C   UNL A   1      43.068  30.470  36.438  1.00  0.00     0.055 A 
ATOM     97  C   UNL A   1      42.368  28.447  35.352  1.00  0.00     0.041 A 
ATOM     98  F   UNL A   1      41.956  28.425  33.059  1.00  0.00    -0.206 F 
ATOM     99  C   UNL A   1      42.814  29.099  36.496  1.00  0.00     0.022 A 
BRANCH  96 100
ATOM    100  S   UNL A   1      43.854  31.270  37.861  1.00  0.00     0.124 S 
ATOM    101  O   UNL A   1      44.690  32.282  37.227  1.00  0.00    -0.237 OA
ATOM    102  O   UNL A   1      42.710  31.778  38.616  1.00  0.00    -0.237 OA
ATOM    103  O   UNL A   1      44.567  30.177  38.520  1.00  0.00    -0.744 OA
ENDBRANCH  96 100
ENDBRANCH  70  93
ENDBRANCH  44  45
ENDBRANCH  37  39
ENDBRANCH  36  37
ENDBRANCH  35  36
ENDBRANCH  34  35
ENDBRANCH  33  34
ENDBRANCH   1  33
TORSDOF 22
ENDMDL
