MODEL 1
REMARK VINA RESULT:      -9.3      0.000      0.000
REMARK SMILES Cc1c(C(=O)OCCOCCOCCOC(=O)c2ccc(-c3c4nc(c(-c5cc(S(=O)(=O)[O-])ccc5F)c5ccc([nH]5)c(-c5cc(S(=O)(=O)[O-])ccc5F)c5nc(c(-c6cc(S(=O)(=O)[O-])ccc6F)c6ccc3[nH]6)C=C5)C=C4)cc2)sc2ncnc(NCc3cn4c(n3)SCC4)c12
REMARK SMILES IDX 10 1 9 2 8 3 7 4 6 5 4 6 5 7 3 8 1 9 2 10 97 11 81 12 82 13
REMARK SMILES IDX 86 14 83 15 85 16 84 17 87 18 88 20 89 21 90 22 93 23 91 24
REMARK SMILES IDX 92 25 96 26 94 27 95 28 11 29 12 30 13 31 14 32 15 33 16 34
REMARK SMILES IDX 17 35 18 36 19 37 80 38 20 39 79 40 21 41 22 42 23 43 73 44
REMARK SMILES IDX 24 45 78 46 72 47 74 48 25 49 77 50 71 51 70 52 26 54 58 55
REMARK SMILES IDX 38 56 57 57 39 58 42 59 56 60 75 61 40 62 41 63 55 65 76 66
REMARK SMILES IDX 43 67 27 68 28 69 36 70 29 71 35 72 37 73 34 74 30 75 31 76
REMARK SMILES IDX 32 77 33 78 59 79 60 80 68 81 61 82 67 83 69 84 66 85 62 86
REMARK SMILES IDX 63 87 64 88 65 89 44 90 45 91 53 92 46 93 52 94 54 95 51 96
REMARK SMILES IDX 47 97 48 98 49 99 50 100
REMARK H PARENT 87 19 74 53 42 64
REMARK Flexibility Score: inf
ROOT
ATOM      1  C   UNL A   1      36.336  31.121  28.112  1.00  0.00     0.188 C 
ENDROOT
BRANCH   1   2
ATOM      2  O   UNL A   1      35.643  29.966  28.522  1.00  0.00    -0.376 OA
BRANCH   2   3
ATOM      3  C   UNL A   1      34.742  29.350  27.618  1.00  0.00     0.202 C 
BRANCH   3   4
ATOM      4  C   UNL A   1      33.463  30.036  27.081  1.00  0.00     0.261 C 
BRANCH   4   5
ATOM      5  O   UNL A   1      33.271  30.089  25.663  1.00  0.00    -0.459 OA
BRANCH   5   6
ATOM      6  C   UNL A   1      32.074  29.639  25.172  1.00  0.00     0.348 C 
ATOM      7  O   UNL A   1      31.033  30.252  25.234  1.00  0.00    -0.245 OA
BRANCH   6   8
ATOM      8  C   UNL A   1      32.284  28.408  24.412  1.00  0.00     0.118 A 
ATOM      9  C   UNL A   1      31.831  26.793  26.293  1.00  0.00     0.047 C 
ATOM     10  C   UNL A   1      32.237  27.097  24.887  1.00  0.00    -0.012 A 
ATOM     11  C   UNL A   1      32.586  26.117  23.851  1.00  0.00     0.058 A 
ATOM     12  S   UNL A   1      32.592  28.481  22.746  1.00  0.00    -0.108 S 
ATOM     13  C   UNL A   1      32.749  26.792  22.639  1.00  0.00     0.129 A 
ATOM     14  C   UNL A   1      32.776  24.705  23.766  1.00  0.00     0.138 A 
ATOM     15  N   UNL A   1      33.026  26.269  21.435  1.00  0.00    -0.225 NA
ATOM     16  N   UNL A   1      33.059  24.172  22.548  1.00  0.00    -0.219 NA
ATOM     17  C   UNL A   1      33.151  24.952  21.471  1.00  0.00     0.225 A 
BRANCH  14  18
ATOM     18  N   UNL A   1      32.760  23.709  24.692  1.00  0.00    -0.364 N 
ATOM     19  H   UNL A   1      31.907  23.688  25.181  1.00  0.00     0.162 HD
BRANCH  18  20
ATOM     20  C   UNL A   1      33.650  22.683  25.147  1.00  0.00     0.172 C 
BRANCH  20  21
ATOM     21  C   UNL A   1      33.164  21.275  24.983  1.00  0.00     0.079 A 
ATOM     22  C   UNL A   1      33.105  20.248  25.921  1.00  0.00     0.113 A 
ATOM     23  N   UNL A   1      32.783  20.823  23.726  1.00  0.00    -0.226 NA
ATOM     24  N   UNL A   1      32.725  19.168  25.198  1.00  0.00    -0.325 N 
ATOM     25  C   UNL A   1      32.547  19.555  23.909  1.00  0.00     0.168 A 
ATOM     26  C   UNL A   1      32.740  17.741  25.452  1.00  0.00     0.135 C 
ATOM     27  S   UNL A   1      32.422  18.226  22.824  1.00  0.00    -0.086 SA
ATOM     28  C   UNL A   1      33.123  17.105  24.112  1.00  0.00     0.100 C 
ENDBRANCH  20  21
ENDBRANCH  18  20
ENDBRANCH  14  18
ENDBRANCH   6   8
ENDBRANCH   5   6
ENDBRANCH   4   5
ENDBRANCH   3   4
ENDBRANCH   2   3
ENDBRANCH   1   2
BRANCH   1  29
ATOM     29  C   UNL A   1      35.858  32.414  28.800  1.00  0.00     0.188 C 
BRANCH  29  30
ATOM     30  O   UNL A   1      34.842  32.383  29.792  1.00  0.00    -0.376 OA
BRANCH  30  31
ATOM     31  C   UNL A   1      35.124  32.143  31.164  1.00  0.00     0.202 C 
BRANCH  31  32
ATOM     32  C   UNL A   1      34.852  33.163  32.271  1.00  0.00     0.261 C 
BRANCH  32  33
ATOM     33  O   UNL A   1      35.663  34.318  32.245  1.00  0.00    -0.460 OA
BRANCH  33  34
ATOM     34  C   UNL A   1      36.500  34.397  33.298  1.00  0.00     0.338 C 
ATOM     35  O   UNL A   1      36.200  34.389  34.480  1.00  0.00    -0.246 OA
BRANCH  34  36
ATOM     36  C   UNL A   1      37.863  34.575  32.801  1.00  0.00     0.060 A 
ATOM     37  C   UNL A   1      38.001  34.676  31.416  1.00  0.00     0.016 A 
ATOM     38  C   UNL A   1      38.920  34.220  33.648  1.00  0.00     0.016 A 
ATOM     39  C   UNL A   1      39.118  34.117  30.850  1.00  0.00     0.010 A 
ATOM     40  C   UNL A   1      40.021  33.638  33.080  1.00  0.00     0.010 A 
ATOM     41  C   UNL A   1      40.045  33.497  31.695  1.00  0.00    -0.014 A 
BRANCH  41  42
ATOM     42  C   UNL A   1      41.123  32.751  31.095  1.00  0.00     0.031 A 
ATOM     43  C   UNL A   1      40.701  31.376  30.770  1.00  0.00     0.074 A 
ATOM     44  C   UNL A   1      42.305  33.316  30.782  1.00  0.00     0.049 A 
ATOM     45  N   UNL A   1      40.978  30.299  31.424  1.00  0.00    -0.248 NA
ATOM     46  C   UNL A   1      39.628  31.210  29.772  1.00  0.00     0.031 C 
ATOM     47  C   UNL A   1      42.693  34.726  30.856  1.00  0.00     0.029 A 
ATOM     48  N   UNL A   1      43.403  32.736  30.235  1.00  0.00    -0.354 N 
ATOM     49  C   UNL A   1      40.356  29.286  30.709  1.00  0.00     0.074 A 
ATOM     50  C   UNL A   1      39.331  29.921  29.930  1.00  0.00     0.031 C 
ATOM     51  C   UNL A   1      43.839  34.913  30.160  1.00  0.00     0.029 A 
ATOM     52  C   UNL A   1      44.332  33.625  29.699  1.00  0.00     0.049 A 
ATOM     53  H   UNL A   1      43.534  31.760  30.219  1.00  0.00     0.167 HD
ATOM     54  C   UNL A   1      40.965  28.082  30.548  1.00  0.00     0.034 A 
ATOM     55  C   UNL A   1      45.377  33.300  28.883  1.00  0.00     0.034 A 
ATOM     56  C   UNL A   1      42.016  27.896  31.522  1.00  0.00     0.049 A 
ATOM     57  C   UNL A   1      45.649  31.855  29.126  1.00  0.00     0.074 A 
ATOM     58  C   UNL A   1      42.068  27.914  32.904  1.00  0.00     0.029 A 
ATOM     59  N   UNL A   1      43.317  28.062  31.100  1.00  0.00    -0.354 N 
ATOM     60  N   UNL A   1      46.060  31.388  30.276  1.00  0.00    -0.248 NA
ATOM     61  C   UNL A   1      44.973  30.890  28.269  1.00  0.00     0.031 C 
ATOM     62  C   UNL A   1      43.289  28.576  33.220  1.00  0.00     0.029 A 
ATOM     63  C   UNL A   1      43.962  28.846  32.027  1.00  0.00     0.049 A 
ATOM     64  H   UNL A   1      43.715  27.686  30.282  1.00  0.00     0.167 HD
ATOM     65  C   UNL A   1      45.340  30.217  30.467  1.00  0.00     0.074 A 
ATOM     66  C   UNL A   1      44.738  29.925  29.164  1.00  0.00     0.031 C 
ATOM     67  C   UNL A   1      45.050  29.756  31.718  1.00  0.00     0.034 A 
BRANCH  54  68
ATOM     68  C   UNL A   1      40.882  27.274  29.274  1.00  0.00     0.023 A 
ATOM     69  C   UNL A   1      41.795  27.589  28.257  1.00  0.00     0.031 A 
ATOM     70  C   UNL A   1      39.815  26.420  28.902  1.00  0.00     0.131 A 
ATOM     71  C   UNL A   1      41.595  27.130  26.945  1.00  0.00     0.055 A 
ATOM     72  C   UNL A   1      39.656  25.914  27.611  1.00  0.00     0.041 A 
ATOM     73  F   UNL A   1      38.812  26.097  29.726  1.00  0.00    -0.206 F 
ATOM     74  C   UNL A   1      40.534  26.291  26.614  1.00  0.00     0.022 A 
BRANCH  71  75
ATOM     75  S   UNL A   1      42.676  27.766  25.643  1.00  0.00     0.124 S 
ATOM     76  O   UNL A   1      42.766  26.615  24.752  1.00  0.00    -0.237 OA
ATOM     77  O   UNL A   1      41.910  28.906  25.151  1.00  0.00    -0.237 OA
ATOM     78  O   UNL A   1      43.903  28.103  26.360  1.00  0.00    -0.744 OA
ENDBRANCH  71  75
ENDBRANCH  54  68
BRANCH  55  79
ATOM     79  C   UNL A   1      45.868  34.032  27.671  1.00  0.00     0.023 A 
ATOM     80  C   UNL A   1      47.247  34.221  27.407  1.00  0.00     0.031 A 
ATOM     81  C   UNL A   1      44.987  34.334  26.607  1.00  0.00     0.131 A 
ATOM     82  C   UNL A   1      47.685  34.674  26.137  1.00  0.00     0.055 A 
ATOM     83  C   UNL A   1      45.426  34.782  25.357  1.00  0.00     0.041 A 
ATOM     84  F   UNL A   1      43.668  34.120  26.708  1.00  0.00    -0.206 F 
ATOM     85  C   UNL A   1      46.778  34.942  25.111  1.00  0.00     0.022 A 
BRANCH  82  86
ATOM     86  S   UNL A   1      49.464  34.812  25.750  1.00  0.00     0.124 S 
ATOM     87  O   UNL A   1      49.810  33.437  25.409  1.00  0.00    -0.237 OA
ATOM     88  O   UNL A   1      49.478  35.776  24.656  1.00  0.00    -0.237 OA
ATOM     89  O   UNL A   1      50.046  35.301  27.002  1.00  0.00    -0.744 OA
ENDBRANCH  82  86
ENDBRANCH  55  79
BRANCH  67  90
ATOM     90  C   UNL A   1      45.774  30.348  32.909  1.00  0.00     0.023 A 
ATOM     91  C   UNL A   1      45.338  31.466  33.659  1.00  0.00     0.031 A 
ATOM     92  C   UNL A   1      46.851  29.599  33.413  1.00  0.00     0.131 A 
ATOM     93  C   UNL A   1      45.977  31.780  34.879  1.00  0.00     0.055 A 
ATOM     94  C   UNL A   1      47.463  29.901  34.627  1.00  0.00     0.041 A 
ATOM     95  F   UNL A   1      47.283  28.509  32.755  1.00  0.00    -0.206 F 
ATOM     96  C   UNL A   1      47.026  30.991  35.368  1.00  0.00     0.022 A 
BRANCH  93  97
ATOM     97  S   UNL A   1      45.416  33.192  35.891  1.00  0.00     0.124 S 
ATOM     98  O   UNL A   1      46.645  33.946  36.113  1.00  0.00    -0.237 OA
ATOM     99  O   UNL A   1      44.418  33.824  35.033  1.00  0.00    -0.237 OA
ATOM    100  O   UNL A   1      44.867  32.557  37.091  1.00  0.00    -0.744 OA
ENDBRANCH  93  97
ENDBRANCH  67  90
ENDBRANCH  41  42
ENDBRANCH  34  36
ENDBRANCH  33  34
ENDBRANCH  32  33
ENDBRANCH  31  32
ENDBRANCH  30  31
ENDBRANCH  29  30
ENDBRANCH   1  29
TORSDOF 23
ENDMDL
MODEL 2
REMARK VINA RESULT:      -9.3      1.796      2.155
REMARK SMILES Cc1c(C(=O)OCCOCCOCCOC(=O)c2ccc(-c3c4nc(c(-c5cc(S(=O)(=O)[O-])ccc5F)c5ccc([nH]5)c(-c5cc(S(=O)(=O)[O-])ccc5F)c5nc(c(-c6cc(S(=O)(=O)[O-])ccc6F)c6ccc3[nH]6)C=C5)C=C4)cc2)sc2ncnc(NCc3cn4c(n3)SCC4)c12
REMARK SMILES IDX 10 1 9 2 8 3 7 4 6 5 4 6 5 7 3 8 1 9 2 10 97 11 81 12 82 13
REMARK SMILES IDX 86 14 83 15 85 16 84 17 87 18 88 20 89 21 90 22 93 23 91 24
REMARK SMILES IDX 92 25 96 26 94 27 95 28 11 29 12 30 13 31 14 32 15 33 16 34
REMARK SMILES IDX 17 35 18 36 19 37 80 38 20 39 79 40 21 41 22 42 23 43 73 44
REMARK SMILES IDX 24 45 78 46 72 47 74 48 25 49 77 50 71 51 70 52 26 54 58 55
REMARK SMILES IDX 38 56 57 57 39 58 42 59 56 60 75 61 40 62 41 63 55 65 76 66
REMARK SMILES IDX 43 67 27 68 28 69 36 70 29 71 35 72 37 73 34 74 30 75 31 76
REMARK SMILES IDX 32 77 33 78 59 79 60 80 68 81 61 82 67 83 69 84 66 85 62 86
REMARK SMILES IDX 63 87 64 88 65 89 44 90 45 91 53 92 46 93 52 94 54 95 51 96
REMARK SMILES IDX 47 97 48 98 49 99 50 100
REMARK H PARENT 87 19 74 53 42 64
REMARK Flexibility Score: inf
ROOT
ATOM      1  C   UNL A   1      36.398  30.971  27.987  1.00  0.00     0.188 C 
ENDROOT
BRANCH   1   2
ATOM      2  O   UNL A   1      35.634  29.850  28.366  1.00  0.00    -0.376 OA
BRANCH   2   3
ATOM      3  C   UNL A   1      34.623  29.382  27.491  1.00  0.00     0.202 C 
BRANCH   3   4
ATOM      4  C   UNL A   1      33.570  30.300  26.827  1.00  0.00     0.261 C 
BRANCH   4   5
ATOM      5  O   UNL A   1      33.120  29.968  25.509  1.00  0.00    -0.459 OA
BRANCH   5   6
ATOM      6  C   UNL A   1      31.773  29.799  25.326  1.00  0.00     0.348 C 
ATOM      7  O   UNL A   1      30.970  30.701  25.272  1.00  0.00    -0.245 OA
BRANCH   6   8
ATOM      8  C   UNL A   1      31.489  28.397  25.027  1.00  0.00     0.118 A 
ATOM      9  C   UNL A   1      31.462  27.564  27.405  1.00  0.00     0.047 C 
ATOM     10  C   UNL A   1      31.391  27.337  25.930  1.00  0.00    -0.012 A 
ATOM     11  C   UNL A   1      31.178  26.050  25.256  1.00  0.00     0.058 A 
ATOM     12  S   UNL A   1      31.196  27.912  23.428  1.00  0.00    -0.108 S 
ATOM     13  C   UNL A   1      31.015  26.286  23.890  1.00  0.00     0.129 A 
ATOM     14  C   UNL A   1      31.082  24.676  25.629  1.00  0.00     0.138 A 
ATOM     15  N   UNL A   1      30.755  25.392  22.923  1.00  0.00    -0.225 NA
ATOM     16  N   UNL A   1      30.822  23.767  24.653  1.00  0.00    -0.219 NA
ATOM     17  C   UNL A   1      30.659  24.157  23.389  1.00  0.00     0.225 A 
BRANCH  14  18
ATOM     18  N   UNL A   1      31.225  24.024  26.814  1.00  0.00    -0.364 N 
ATOM     19  H   UNL A   1      30.506  24.260  27.442  1.00  0.00     0.162 HD
BRANCH  18  20
ATOM     20  C   UNL A   1      32.141  23.087  27.394  1.00  0.00     0.172 C 
BRANCH  20  21
ATOM     21  C   UNL A   1      33.367  22.785  26.588  1.00  0.00     0.079 A 
ATOM     22  C   UNL A   1      33.764  21.585  26.003  1.00  0.00     0.113 A 
ATOM     23  N   UNL A   1      34.341  23.763  26.427  1.00  0.00    -0.226 NA
ATOM     24  N   UNL A   1      35.005  21.849  25.530  1.00  0.00    -0.325 N 
ATOM     25  C   UNL A   1      35.303  23.146  25.803  1.00  0.00     0.168 A 
ATOM     26  C   UNL A   1      36.099  21.014  25.075  1.00  0.00     0.135 C 
ATOM     27  S   UNL A   1      36.970  23.507  25.587  1.00  0.00    -0.086 SA
ATOM     28  C   UNL A   1      37.365  21.705  25.589  1.00  0.00     0.100 C 
ENDBRANCH  20  21
ENDBRANCH  18  20
ENDBRANCH  14  18
ENDBRANCH   6   8
ENDBRANCH   5   6
ENDBRANCH   4   5
ENDBRANCH   3   4
ENDBRANCH   2   3
ENDBRANCH   1   2
BRANCH   1  29
ATOM     29  C   UNL A   1      35.996  32.274  28.705  1.00  0.00     0.188 C 
BRANCH  29  30
ATOM     30  O   UNL A   1      34.973  32.282  29.690  1.00  0.00    -0.376 OA
BRANCH  30  31
ATOM     31  C   UNL A   1      35.247  32.110  31.074  1.00  0.00     0.202 C 
BRANCH  31  32
ATOM     32  C   UNL A   1      34.828  33.116  32.146  1.00  0.00     0.261 C 
BRANCH  32  33
ATOM     33  O   UNL A   1      35.597  34.298  32.203  1.00  0.00    -0.460 OA
BRANCH  33  34
ATOM     34  C   UNL A   1      36.369  34.371  33.305  1.00  0.00     0.338 C 
ATOM     35  O   UNL A   1      36.001  34.362  34.466  1.00  0.00    -0.246 OA
BRANCH  34  36
ATOM     36  C   UNL A   1      37.761  34.542  32.890  1.00  0.00     0.060 A 
ATOM     37  C   UNL A   1      37.971  34.749  31.526  1.00  0.00     0.016 A 
ATOM     38  C   UNL A   1      38.763  34.085  33.754  1.00  0.00     0.016 A 
ATOM     39  C   UNL A   1      39.099  34.200  30.970  1.00  0.00     0.010 A 
ATOM     40  C   UNL A   1      39.873  33.514  33.194  1.00  0.00     0.010 A 
ATOM     41  C   UNL A   1      39.963  33.484  31.805  1.00  0.00    -0.014 A 
BRANCH  41  42
ATOM     42  C   UNL A   1      41.048  32.753  31.198  1.00  0.00     0.031 A 
ATOM     43  C   UNL A   1      40.638  31.376  30.865  1.00  0.00     0.074 A 
ATOM     44  C   UNL A   1      42.224  33.332  30.888  1.00  0.00     0.049 A 
ATOM     45  N   UNL A   1      40.927  30.297  31.511  1.00  0.00    -0.248 NA
ATOM     46  C   UNL A   1      39.566  31.206  29.867  1.00  0.00     0.031 C 
ATOM     47  C   UNL A   1      42.598  34.745  30.971  1.00  0.00     0.029 A 
ATOM     48  N   UNL A   1      43.327  32.766  30.335  1.00  0.00    -0.354 N 
ATOM     49  C   UNL A   1      40.315  29.283  30.790  1.00  0.00     0.074 A 
ATOM     50  C   UNL A   1      39.282  29.913  30.016  1.00  0.00     0.031 C 
ATOM     51  C   UNL A   1      43.741  34.948  30.275  1.00  0.00     0.029 A 
ATOM     52  C   UNL A   1      44.246  33.668  29.804  1.00  0.00     0.049 A 
ATOM     53  H   UNL A   1      43.467  31.791  30.312  1.00  0.00     0.167 HD
ATOM     54  C   UNL A   1      40.935  28.086  30.619  1.00  0.00     0.034 A 
ATOM     55  C   UNL A   1      45.293  33.359  28.984  1.00  0.00     0.034 A 
ATOM     56  C   UNL A   1      41.989  27.903  31.590  1.00  0.00     0.049 A 
ATOM     57  C   UNL A   1      45.579  31.915  29.217  1.00  0.00     0.074 A 
ATOM     58  C   UNL A   1      42.043  27.913  32.972  1.00  0.00     0.029 A 
ATOM     59  N   UNL A   1      43.288  28.085  31.168  1.00  0.00    -0.354 N 
ATOM     60  N   UNL A   1      45.997  31.444  30.363  1.00  0.00    -0.248 NA
ATOM     61  C   UNL A   1      44.912  30.949  28.355  1.00  0.00     0.031 C 
ATOM     62  C   UNL A   1      43.258  28.585  33.291  1.00  0.00     0.029 A 
ATOM     63  C   UNL A   1      43.926  28.869  32.099  1.00  0.00     0.049 A 
ATOM     64  H   UNL A   1      43.688  27.719  30.347  1.00  0.00     0.167 HD
ATOM     65  C   UNL A   1      45.289  30.264  30.547  1.00  0.00     0.074 A 
ATOM     66  C   UNL A   1      44.688  29.976  29.243  1.00  0.00     0.031 C 
ATOM     67  C   UNL A   1      45.005  29.792  31.796  1.00  0.00     0.034 A 
BRANCH  54  68
ATOM     68  C   UNL A   1      40.858  27.286  29.340  1.00  0.00     0.023 A 
ATOM     69  C   UNL A   1      41.765  27.618  28.323  1.00  0.00     0.031 A 
ATOM     70  C   UNL A   1      39.800  26.422  28.964  1.00  0.00     0.131 A 
ATOM     71  C   UNL A   1      41.567  27.167  27.008  1.00  0.00     0.055 A 
ATOM     72  C   UNL A   1      39.644  25.924  27.671  1.00  0.00     0.041 A 
ATOM     73  F   UNL A   1      38.802  26.082  29.789  1.00  0.00    -0.206 F 
ATOM     74  C   UNL A   1      40.515  26.318  26.674  1.00  0.00     0.022 A 
BRANCH  71  75
ATOM     75  S   UNL A   1      42.637  27.824  25.708  1.00  0.00     0.124 S 
ATOM     76  O   UNL A   1      41.872  28.982  25.259  1.00  0.00    -0.237 OA
ATOM     77  O   UNL A   1      43.862  28.107  26.447  1.00  0.00    -0.237 OA
ATOM     78  O   UNL A   1      42.724  26.721  24.754  1.00  0.00    -0.744 OA
ENDBRANCH  71  75
ENDBRANCH  54  68
BRANCH  55  79
ATOM     79  C   UNL A   1      45.775  34.104  27.776  1.00  0.00     0.023 A 
ATOM     80  C   UNL A   1      47.123  34.512  27.627  1.00  0.00     0.031 A 
ATOM     81  C   UNL A   1      44.967  34.199  26.620  1.00  0.00     0.131 A 
ATOM     82  C   UNL A   1      47.604  34.971  26.375  1.00  0.00     0.055 A 
ATOM     83  C   UNL A   1      45.448  34.654  25.388  1.00  0.00     0.041 A 
ATOM     84  F   UNL A   1      43.698  33.767  26.615  1.00  0.00    -0.206 F 
ATOM     85  C   UNL A   1      46.773  35.030  25.256  1.00  0.00     0.022 A 
BRANCH  82  86
ATOM     86  S   UNL A   1      49.366  35.392  26.142  1.00  0.00     0.124 S 
ATOM     87  O   UNL A   1      49.968  34.871  27.364  1.00  0.00    -0.237 OA
ATOM     88  O   UNL A   1      49.700  34.696  24.905  1.00  0.00    -0.237 OA
ATOM     89  O   UNL A   1      49.354  36.853  26.036  1.00  0.00    -0.744 OA
ENDBRANCH  82  86
ENDBRANCH  55  79
BRANCH  67  90
ATOM     90  C   UNL A   1      45.724  30.383  32.989  1.00  0.00     0.023 A 
ATOM     91  C   UNL A   1      47.030  30.040  33.411  1.00  0.00     0.031 A 
ATOM     92  C   UNL A   1      45.112  31.497  33.591  1.00  0.00     0.131 A 
ATOM     93  C   UNL A   1      47.675  30.821  34.396  1.00  0.00     0.055 A 
ATOM     94  C   UNL A   1      45.761  32.276  34.546  1.00  0.00     0.041 A 
ATOM     95  F   UNL A   1      43.885  31.885  33.204  1.00  0.00    -0.206 F 
ATOM     96  C   UNL A   1      47.048  31.944  34.950  1.00  0.00     0.022 A 
BRANCH  93  97
ATOM     97  S   UNL A   1      49.373  30.428  34.935  1.00  0.00     0.124 S 
ATOM     98  O   UNL A   1      50.199  31.129  33.958  1.00  0.00    -0.237 OA
ATOM     99  O   UNL A   1      49.405  30.951  36.298  1.00  0.00    -0.237 OA
ATOM    100  O   UNL A   1      49.433  28.968  34.846  1.00  0.00    -0.744 OA
ENDBRANCH  93  97
ENDBRANCH  67  90
ENDBRANCH  41  42
ENDBRANCH  34  36
ENDBRANCH  33  34
ENDBRANCH  32  33
ENDBRANCH  31  32
ENDBRANCH  30  31
ENDBRANCH  29  30
ENDBRANCH   1  29
TORSDOF 23
ENDMDL
MODEL 3
REMARK VINA RESULT:      -8.9     10.211     15.067
REMARK SMILES Cc1c(C(=O)OCCOCCOCCOC(=O)c2ccc(-c3c4nc(c(-c5cc(S(=O)(=O)[O-])ccc5F)c5ccc([nH]5)c(-c5cc(S(=O)(=O)[O-])ccc5F)c5nc(c(-c6cc(S(=O)(=O)[O-])ccc6F)c6ccc3[nH]6)C=C5)C=C4)cc2)sc2ncnc(NCc3cn4c(n3)SCC4)c12
REMARK SMILES IDX 10 1 9 2 8 3 7 4 6 5 4 6 5 7 3 8 1 9 2 10 97 11 81 12 82 13
REMARK SMILES IDX 86 14 83 15 85 16 84 17 87 18 88 20 89 21 90 22 93 23 91 24
REMARK SMILES IDX 92 25 96 26 94 27 95 28 11 29 12 30 13 31 14 32 15 33 16 34
REMARK SMILES IDX 17 35 18 36 19 37 80 38 20 39 79 40 21 41 22 42 23 43 73 44
REMARK SMILES IDX 24 45 78 46 72 47 74 48 25 49 77 50 71 51 70 52 26 54 58 55
REMARK SMILES IDX 38 56 57 57 39 58 42 59 56 60 75 61 40 62 41 63 55 65 76 66
REMARK SMILES IDX 43 67 27 68 28 69 36 70 29 71 35 72 37 73 34 74 30 75 31 76
REMARK SMILES IDX 32 77 33 78 59 79 60 80 68 81 61 82 67 83 69 84 66 85 62 86
REMARK SMILES IDX 63 87 64 88 65 89 44 90 45 91 53 92 46 93 52 94 54 95 51 96
REMARK SMILES IDX 47 97 48 98 49 99 50 100
REMARK H PARENT 87 19 74 53 42 64
REMARK Flexibility Score: inf
ROOT
ATOM      1  C   UNL A   1      47.559  19.268  38.385  1.00  0.00     0.188 C 
ENDROOT
BRANCH   1   2
ATOM      2  O   UNL A   1      46.767  19.015  39.522  1.00  0.00    -0.376 OA
BRANCH   2   3
ATOM      3  C   UNL A   1      47.320  18.262  40.588  1.00  0.00     0.202 C 
BRANCH   3   4
ATOM      4  C   UNL A   1      46.635  17.021  41.206  1.00  0.00     0.261 C 
BRANCH   4   5
ATOM      5  O   UNL A   1      45.717  17.225  42.287  1.00  0.00    -0.459 OA
BRANCH   5   6
ATOM      6  C   UNL A   1      44.443  17.612  41.967  1.00  0.00     0.348 C 
ATOM      7  O   UNL A   1      44.095  18.758  41.802  1.00  0.00    -0.245 OA
BRANCH   6   8
ATOM      8  C   UNL A   1      43.627  16.434  41.682  1.00  0.00     0.118 A 
ATOM      9  C   UNL A   1      43.411  15.614  44.054  1.00  0.00     0.047 C 
ATOM     10  C   UNL A   1      43.179  15.469  42.586  1.00  0.00    -0.012 A 
ATOM     11  C   UNL A   1      42.453  14.379  41.922  1.00  0.00     0.058 A 
ATOM     12  S   UNL A   1      43.085  16.138  40.102  1.00  0.00    -0.108 S 
ATOM     13  C   UNL A   1      42.320  14.694  40.568  1.00  0.00     0.129 A 
ATOM     14  C   UNL A   1      41.858  13.136  42.296  1.00  0.00     0.138 A 
ATOM     15  N   UNL A   1      41.685  13.992  39.616  1.00  0.00    -0.225 NA
ATOM     16  N   UNL A   1      41.217  12.422  41.334  1.00  0.00    -0.219 NA
ATOM     17  C   UNL A   1      41.148  12.877  40.083  1.00  0.00     0.225 A 
BRANCH  14  18
ATOM     18  N   UNL A   1      41.804  12.450  43.468  1.00  0.00    -0.364 N 
ATOM     19  H   UNL A   1      41.286  12.939  44.147  1.00  0.00     0.162 HD
BRANCH  18  20
ATOM     20  C   UNL A   1      42.297  11.206  43.982  1.00  0.00     0.172 C 
BRANCH  20  21
ATOM     21  C   UNL A   1      43.623  11.265  44.677  1.00  0.00     0.079 A 
ATOM     22  C   UNL A   1      44.208  10.342  45.539  1.00  0.00     0.113 A 
ATOM     23  N   UNL A   1      44.405  12.409  44.568  1.00  0.00    -0.226 NA
ATOM     24  N   UNL A   1      45.327  10.968  45.977  1.00  0.00    -0.325 N 
ATOM     25  C   UNL A   1      45.400  12.185  45.377  1.00  0.00     0.168 A 
ATOM     26  C   UNL A   1      46.238  10.731  47.078  1.00  0.00     0.135 C 
ATOM     27  S   UNL A   1      46.561  13.221  46.111  1.00  0.00    -0.086 SA
ATOM     28  C   UNL A   1      46.606  12.125  47.594  1.00  0.00     0.100 C 
ENDBRANCH  20  21
ENDBRANCH  18  20
ENDBRANCH  14  18
ENDBRANCH   6   8
ENDBRANCH   5   6
ENDBRANCH   4   5
ENDBRANCH   3   4
ENDBRANCH   2   3
ENDBRANCH   1   2
BRANCH   1  29
ATOM     29  C   UNL A   1      47.613  20.754  37.980  1.00  0.00     0.188 C 
BRANCH  29  30
ATOM     30  O   UNL A   1      48.819  21.496  38.077  1.00  0.00    -0.376 OA
BRANCH  30  31
ATOM     31  C   UNL A   1      48.884  22.887  37.792  1.00  0.00     0.202 C 
BRANCH  31  32
ATOM     32  C   UNL A   1      47.655  23.797  37.753  1.00  0.00     0.261 C 
BRANCH  32  33
ATOM     33  O   UNL A   1      47.814  25.002  37.036  1.00  0.00    -0.460 OA
BRANCH  33  34
ATOM     34  C   UNL A   1      46.641  25.555  36.669  1.00  0.00     0.338 C 
ATOM     35  O   UNL A   1      45.927  26.281  37.338  1.00  0.00    -0.246 OA
BRANCH  34  36
ATOM     36  C   UNL A   1      46.300  25.081  35.329  1.00  0.00     0.060 A 
ATOM     37  C   UNL A   1      47.129  25.520  34.295  1.00  0.00     0.016 A 
ATOM     38  C   UNL A   1      45.000  24.608  35.113  1.00  0.00     0.016 A 
ATOM     39  C   UNL A   1      46.543  25.776  33.082  1.00  0.00     0.010 A 
ATOM     40  C   UNL A   1      44.412  24.891  33.911  1.00  0.00     0.010 A 
ATOM     41  C   UNL A   1      45.165  25.572  32.958  1.00  0.00    -0.014 A 
BRANCH  41  42
ATOM     42  C   UNL A   1      44.516  26.012  31.748  1.00  0.00     0.031 A 
ATOM     43  C   UNL A   1      44.693  25.029  30.664  1.00  0.00     0.074 A 
ATOM     44  C   UNL A   1      43.757  27.124  31.699  1.00  0.00     0.049 A 
ATOM     45  N   UNL A   1      45.508  25.103  29.666  1.00  0.00    -0.248 NA
ATOM     46  C   UNL A   1      44.103  23.691  30.852  1.00  0.00     0.031 C 
ATOM     47  C   UNL A   1      43.348  28.001  32.798  1.00  0.00     0.029 A 
ATOM     48  N   UNL A   1      43.107  27.660  30.635  1.00  0.00    -0.354 N 
ATOM     49  C   UNL A   1      45.282  23.944  28.941  1.00  0.00     0.074 A 
ATOM     50  C   UNL A   1      44.670  23.018  29.852  1.00  0.00     0.031 C 
ATOM     51  C   UNL A   1      42.345  28.807  32.378  1.00  0.00     0.029 A 
ATOM     52  C   UNL A   1      42.126  28.594  30.956  1.00  0.00     0.049 A 
ATOM     53  H   UNL A   1      43.316  27.408  29.706  1.00  0.00     0.167 HD
ATOM     54  C   UNL A   1      45.287  23.967  27.582  1.00  0.00     0.034 A 
ATOM     55  C   UNL A   1      41.174  29.083  30.109  1.00  0.00     0.034 A 
ATOM     56  C   UNL A   1      45.954  25.149  27.085  1.00  0.00     0.049 A 
ATOM     57  C   UNL A   1      41.707  28.873  28.734  1.00  0.00     0.074 A 
ATOM     58  C   UNL A   1      47.215  25.692  27.256  1.00  0.00     0.029 A 
ATOM     59  N   UNL A   1      45.169  26.179  26.615  1.00  0.00    -0.354 N 
ATOM     60  N   UNL A   1      42.785  29.464  28.286  1.00  0.00    -0.248 NA
ATOM     61  C   UNL A   1      41.353  27.633  28.056  1.00  0.00     0.031 C 
ATOM     62  C   UNL A   1      47.002  27.097  27.358  1.00  0.00     0.029 A 
ATOM     63  C   UNL A   1      45.645  27.350  27.153  1.00  0.00     0.049 A 
ATOM     64  H   UNL A   1      44.403  26.091  26.002  1.00  0.00     0.167 HD
ATOM     65  C   UNL A   1      43.466  28.483  27.578  1.00  0.00     0.074 A 
ATOM     66  C   UNL A   1      42.499  27.396  27.412  1.00  0.00     0.031 C 
ATOM     67  C   UNL A   1      44.825  28.509  27.453  1.00  0.00     0.034 A 
BRANCH  54  68
ATOM     68  C   UNL A   1      44.344  23.147  26.735  1.00  0.00     0.023 A 
ATOM     69  C   UNL A   1      42.987  23.164  27.088  1.00  0.00     0.031 A 
ATOM     70  C   UNL A   1      44.722  22.160  25.791  1.00  0.00     0.131 A 
ATOM     71  C   UNL A   1      42.099  22.203  26.579  1.00  0.00     0.055 A 
ATOM     72  C   UNL A   1      43.823  21.248  25.238  1.00  0.00     0.041 A 
ATOM     73  F   UNL A   1      45.990  21.950  25.417  1.00  0.00    -0.206 F 
ATOM     74  C   UNL A   1      42.506  21.246  25.652  1.00  0.00     0.022 A 
BRANCH  71  75
ATOM     75  S   UNL A   1      40.425  22.140  27.257  1.00  0.00     0.124 S 
ATOM     76  O   UNL A   1      40.398  23.345  28.079  1.00  0.00    -0.237 OA
ATOM     77  O   UNL A   1      39.612  22.166  26.046  1.00  0.00    -0.237 OA
ATOM     78  O   UNL A   1      40.408  20.878  27.994  1.00  0.00    -0.744 OA
ENDBRANCH  71  75
ENDBRANCH  54  68
BRANCH  55  79
ATOM     79  C   UNL A   1      39.725  29.343  30.393  1.00  0.00     0.023 A 
ATOM     80  C   UNL A   1      38.971  30.297  29.668  1.00  0.00     0.031 A 
ATOM     81  C   UNL A   1      38.985  28.463  31.215  1.00  0.00     0.131 A 
ATOM     82  C   UNL A   1      37.557  30.332  29.773  1.00  0.00     0.055 A 
ATOM     83  C   UNL A   1      37.590  28.504  31.315  1.00  0.00     0.041 A 
ATOM     84  F   UNL A   1      39.578  27.466  31.887  1.00  0.00    -0.206 F 
ATOM     85  C   UNL A   1      36.868  29.430  30.585  1.00  0.00     0.022 A 
BRANCH  82  86
ATOM     86  S   UNL A   1      36.568  31.482  28.758  1.00  0.00     0.124 S 
ATOM     87  O   UNL A   1      36.437  30.748  27.504  1.00  0.00    -0.237 OA
ATOM     88  O   UNL A   1      35.352  31.640  29.547  1.00  0.00    -0.237 OA
ATOM     89  O   UNL A   1      37.407  32.679  28.686  1.00  0.00    -0.744 OA
ENDBRANCH  82  86
ENDBRANCH  55  79
BRANCH  67  90
ATOM     90  C   UNL A   1      45.575  29.772  27.821  1.00  0.00     0.023 A 
ATOM     91  C   UNL A   1      45.729  30.905  26.987  1.00  0.00     0.031 A 
ATOM     92  C   UNL A   1      45.970  29.888  29.165  1.00  0.00     0.131 A 
ATOM     93  C   UNL A   1      46.251  32.103  27.525  1.00  0.00     0.055 A 
ATOM     94  C   UNL A   1      46.464  31.077  29.695  1.00  0.00     0.041 A 
ATOM     95  F   UNL A   1      45.815  28.852  30.007  1.00  0.00    -0.206 F 
ATOM     96  C   UNL A   1      46.603  32.192  28.877  1.00  0.00     0.022 A 
BRANCH  93  97
ATOM     97  S   UNL A   1      46.427  33.594  26.488  1.00  0.00     0.124 S 
ATOM     98  O   UNL A   1      46.175  34.679  27.428  1.00  0.00    -0.237 OA
ATOM     99  O   UNL A   1      47.794  33.478  25.989  1.00  0.00    -0.237 OA
ATOM    100  O   UNL A   1      45.393  33.424  25.464  1.00  0.00    -0.744 OA
ENDBRANCH  93  97
ENDBRANCH  67  90
ENDBRANCH  41  42
ENDBRANCH  34  36
ENDBRANCH  33  34
ENDBRANCH  32  33
ENDBRANCH  31  32
ENDBRANCH  30  31
ENDBRANCH  29  30
ENDBRANCH   1  29
TORSDOF 23
ENDMDL
