MODEL 1
REMARK VINA RESULT:     -10.0      0.000      0.000
REMARK SMILES C=CC[N@@H+]1C[C@@H](C(=O)OCCOCCOCCOC(=O)c2ccc(-c3c4nc(c(-c5cc(S(=O)(=O)[O-])ccc5F)c5ccc([nH]5)c(-c5cc(S(=O)(=O)[O-])ccc5F)c5nc(c(-c6cc(S(=O)(=O)[O-])ccc6F)c6ccc3[nH]6)C=C5)C=C4)cc2)C2(CC[NH+](C)CC2)C1
REMARK SMILES IDX 14 1 13 2 12 3 11 4 10 5 9 6 7 7 8 8 6 9 4 10 5 11 91 12
REMARK SMILES IDX 84 14 85 15 90 16 86 17 89 18 87 19 88 20 3 22 2 23 1 24
REMARK SMILES IDX 15 25 16 26 17 27 18 28 19 29 20 30 21 31 22 32 83 33 23 34
REMARK SMILES IDX 82 35 24 36 25 37 26 38 76 39 27 40 81 41 75 42 77 43 28 44
REMARK SMILES IDX 80 45 74 46 73 47 29 49 61 50 41 51 60 52 42 53 45 54 59 55
REMARK SMILES IDX 78 56 43 57 44 58 58 60 79 61 46 62 30 63 31 64 39 65 32 66
REMARK SMILES IDX 38 67 40 68 37 69 33 70 34 71 35 72 36 73 62 74 63 75 71 76
REMARK SMILES IDX 64 77 70 78 72 79 69 80 65 81 66 82 67 83 68 84 47 85 48 86
REMARK SMILES IDX 56 87 49 88 55 89 57 90 54 91 50 92 51 93 52 94 53 95
REMARK H PARENT 4 13 87 21 77 48 45 59
REMARK Flexibility Score: inf
ROOT
ATOM      1  C   UNL A   1      35.445  22.415  26.021  1.00  0.00     0.188 C 
ENDROOT
BRANCH   1   2
ATOM      2  C   UNL A   1      34.095  22.867  25.472  1.00  0.00     0.188 C 
BRANCH   2   3
ATOM      3  O   UNL A   1      32.919  22.281  26.022  1.00  0.00    -0.376 OA
BRANCH   3   4
ATOM      4  C   UNL A   1      31.676  22.518  25.377  1.00  0.00     0.202 C 
BRANCH   4   5
ATOM      5  C   UNL A   1      30.808  23.635  25.971  1.00  0.00     0.261 C 
BRANCH   5   6
ATOM      6  O   UNL A   1      31.481  24.547  26.876  1.00  0.00    -0.463 OA
BRANCH   6   7
ATOM      7  C   UNL A   1      31.525  25.830  26.447  1.00  0.00     0.315 C 
ATOM      8  O   UNL A   1      30.628  26.644  26.661  1.00  0.00    -0.252 OA
BRANCH   7   9
ATOM      9  C   UNL A   1      32.672  26.201  25.520  1.00  0.00     0.166 C 
ATOM     10  N   UNL A   1      33.471  28.398  25.932  1.00  0.00    -0.330 N 
ATOM     11  C   UNL A   1      33.681  27.007  26.340  1.00  0.00     0.278 C 
ATOM     12  C   UNL A   1      33.008  28.412  24.552  1.00  0.00     0.271 C 
ATOM     13  H   UNL A   1      32.732  28.824  26.492  1.00  0.00     0.348 HD
ATOM     14  C   UNL A   1      32.611  26.974  24.179  1.00  0.00     0.049 C 
ATOM     15  C   UNL A   1      31.308  27.025  23.379  1.00  0.00     0.075 C 
ATOM     16  C   UNL A   1      33.707  26.387  23.222  1.00  0.00     0.075 C 
ATOM     17  C   UNL A   1      30.973  25.691  22.745  1.00  0.00     0.262 C 
ATOM     18  C   UNL A   1      33.304  25.046  22.596  1.00  0.00     0.262 C 
ATOM     19  N   UNL A   1      32.016  25.102  21.910  1.00  0.00    -0.337 N 
ATOM     20  C   UNL A   1      32.105  25.695  20.580  1.00  0.00     0.332 C 
ATOM     21  H   UNL A   1      31.729  24.136  21.748  1.00  0.00     0.347 HD
BRANCH  10  22
ATOM     22  C   UNL A   1      34.607  29.262  26.242  1.00  0.00     0.290 C 
BRANCH  22  23
ATOM     23  C   UNL A   1      34.645  29.776  27.657  1.00  0.00     0.025 C 
ATOM     24  C   UNL A   1      35.702  29.742  28.478  1.00  0.00     0.010 C 
ENDBRANCH  22  23
ENDBRANCH  10  22
ENDBRANCH   7   9
ENDBRANCH   6   7
ENDBRANCH   5   6
ENDBRANCH   4   5
ENDBRANCH   3   4
ENDBRANCH   2   3
ENDBRANCH   1   2
BRANCH   1  25
ATOM     25  O   UNL A   1      35.588  20.996  26.015  1.00  0.00    -0.376 OA
BRANCH  25  26
ATOM     26  C   UNL A   1      36.256  20.537  24.836  1.00  0.00     0.202 C 
BRANCH  26  27
ATOM     27  C   UNL A   1      37.767  20.571  25.078  1.00  0.00     0.261 C 
BRANCH  27  28
ATOM     28  O   UNL A   1      38.177  21.637  25.960  1.00  0.00    -0.460 OA
BRANCH  28  29
ATOM     29  C   UNL A   1      39.433  21.520  26.456  1.00  0.00     0.338 C 
ATOM     30  O   UNL A   1      40.138  20.529  26.402  1.00  0.00    -0.246 OA
BRANCH  29  31
ATOM     31  C   UNL A   1      39.903  22.845  26.910  1.00  0.00     0.060 A 
ATOM     32  C   UNL A   1      39.306  23.971  26.349  1.00  0.00     0.016 A 
ATOM     33  C   UNL A   1      40.962  22.995  27.798  1.00  0.00     0.016 A 
ATOM     34  C   UNL A   1      39.764  25.252  26.627  1.00  0.00     0.010 A 
ATOM     35  C   UNL A   1      41.428  24.286  28.090  1.00  0.00     0.010 A 
ATOM     36  C   UNL A   1      40.847  25.423  27.489  1.00  0.00    -0.014 A 
BRANCH  36  37
ATOM     37  C   UNL A   1      41.462  26.767  27.637  1.00  0.00     0.031 A 
ATOM     38  C   UNL A   1      42.799  27.020  27.002  1.00  0.00     0.074 A 
ATOM     39  C   UNL A   1      40.826  27.765  28.280  1.00  0.00     0.049 A 
ATOM     40  N   UNL A   1      43.635  28.007  27.183  1.00  0.00    -0.248 NA
ATOM     41  C   UNL A   1      43.256  26.010  26.034  1.00  0.00     0.031 C 
ATOM     42  C   UNL A   1      39.472  27.694  28.830  1.00  0.00     0.029 A 
ATOM     43  N   UNL A   1      41.244  29.037  28.586  1.00  0.00    -0.354 N 
ATOM     44  C   UNL A   1      44.745  27.709  26.400  1.00  0.00     0.074 A 
ATOM     45  C   UNL A   1      44.470  26.448  25.743  1.00  0.00     0.031 C 
ATOM     46  C   UNL A   1      39.174  28.868  29.412  1.00  0.00     0.029 A 
ATOM     47  C   UNL A   1      40.345  29.739  29.353  1.00  0.00     0.049 A 
ATOM     48  H   UNL A   1      42.104  29.410  28.284  1.00  0.00     0.167 HD
ATOM     49  C   UNL A   1      45.890  28.421  26.257  1.00  0.00     0.034 A 
ATOM     50  C   UNL A   1      40.474  30.921  29.991  1.00  0.00     0.034 A 
ATOM     51  C   UNL A   1      46.122  29.694  26.898  1.00  0.00     0.049 A 
ATOM     52  C   UNL A   1      41.788  31.656  29.897  1.00  0.00     0.074 A 
ATOM     53  C   UNL A   1      47.243  30.502  26.834  1.00  0.00     0.029 A 
ATOM     54  N   UNL A   1      45.209  30.347  27.718  1.00  0.00    -0.354 N 
ATOM     55  N   UNL A   1      42.876  31.326  29.238  1.00  0.00    -0.248 NA
ATOM     56  C   UNL A   1      41.898  32.915  30.646  1.00  0.00     0.031 C 
ATOM     57  C   UNL A   1      47.032  31.610  27.663  1.00  0.00     0.029 A 
ATOM     58  C   UNL A   1      45.752  31.533  28.188  1.00  0.00     0.049 A 
ATOM     59  H   UNL A   1      44.308  30.016  27.934  1.00  0.00     0.167 HD
ATOM     60  C   UNL A   1      43.794  32.345  29.485  1.00  0.00     0.074 A 
ATOM     61  C   UNL A   1      43.124  33.308  30.334  1.00  0.00     0.031 C 
ATOM     62  C   UNL A   1      45.074  32.474  29.050  1.00  0.00     0.034 A 
BRANCH  49  63
ATOM     63  C   UNL A   1      46.999  27.790  25.452  1.00  0.00     0.023 A 
ATOM     64  C   UNL A   1      47.255  28.145  24.116  1.00  0.00     0.031 A 
ATOM     65  C   UNL A   1      47.777  26.765  26.022  1.00  0.00     0.131 A 
ATOM     66  C   UNL A   1      48.208  27.428  23.374  1.00  0.00     0.055 A 
ATOM     67  C   UNL A   1      48.778  26.112  25.302  1.00  0.00     0.041 A 
ATOM     68  F   UNL A   1      47.560  26.364  27.285  1.00  0.00    -0.206 F 
ATOM     69  C   UNL A   1      48.988  26.431  23.964  1.00  0.00     0.022 A 
BRANCH  66  70
ATOM     70  S   UNL A   1      48.307  27.711  21.584  1.00  0.00     0.124 S 
ATOM     71  O   UNL A   1      49.358  28.722  21.503  1.00  0.00    -0.237 OA
ATOM     72  O   UNL A   1      48.651  26.388  21.074  1.00  0.00    -0.237 OA
ATOM     73  O   UNL A   1      46.970  28.185  21.237  1.00  0.00    -0.744 OA
ENDBRANCH  66  70
ENDBRANCH  49  63
BRANCH  50  74
ATOM     74  C   UNL A   1      39.374  31.435  30.858  1.00  0.00     0.023 A 
ATOM     75  C   UNL A   1      39.427  31.316  32.255  1.00  0.00     0.031 A 
ATOM     76  C   UNL A   1      38.223  32.012  30.289  1.00  0.00     0.131 A 
ATOM     77  C   UNL A   1      38.338  31.738  33.035  1.00  0.00     0.055 A 
ATOM     78  C   UNL A   1      37.166  32.480  31.072  1.00  0.00     0.041 A 
ATOM     79  F   UNL A   1      38.114  32.140  28.958  1.00  0.00    -0.206 F 
ATOM     80  C   UNL A   1      37.215  32.333  32.454  1.00  0.00     0.022 A 
BRANCH  77  81
ATOM     81  S   UNL A   1      38.374  31.427  34.823  1.00  0.00     0.124 S 
ATOM     82  O   UNL A   1      38.290  29.972  34.873  1.00  0.00    -0.237 OA
ATOM     83  O   UNL A   1      39.654  32.011  35.207  1.00  0.00    -0.237 OA
ATOM     84  O   UNL A   1      37.196  32.137  35.316  1.00  0.00    -0.744 OA
ENDBRANCH  77  81
ENDBRANCH  50  74
BRANCH  62  85
ATOM     85  C   UNL A   1      45.811  33.724  29.460  1.00  0.00     0.023 A 
ATOM     86  C   UNL A   1      45.761  34.898  28.688  1.00  0.00     0.031 A 
ATOM     87  C   UNL A   1      46.584  33.735  30.635  1.00  0.00     0.131 A 
ATOM     88  C   UNL A   1      46.514  36.018  29.073  1.00  0.00     0.055 A 
ATOM     89  C   UNL A   1      47.285  34.870  31.042  1.00  0.00     0.041 A 
ATOM     90  F   UNL A   1      46.667  32.641  31.407  1.00  0.00    -0.206 F 
ATOM     91  C   UNL A   1      47.263  36.016  30.253  1.00  0.00     0.022 A 
BRANCH  88  92
ATOM     92  S   UNL A   1      46.571  37.454  27.965  1.00  0.00     0.124 S 
ATOM     93  O   UNL A   1      45.557  37.113  26.974  1.00  0.00    -0.237 OA
ATOM     94  O   UNL A   1      46.243  38.556  28.863  1.00  0.00    -0.237 OA
ATOM     95  O   UNL A   1      47.947  37.449  27.470  1.00  0.00    -0.744 OA
ENDBRANCH  88  92
ENDBRANCH  62  85
ENDBRANCH  36  37
ENDBRANCH  29  31
ENDBRANCH  28  29
ENDBRANCH  27  28
ENDBRANCH  26  27
ENDBRANCH  25  26
ENDBRANCH   1  25
TORSDOF 22
ENDMDL
MODEL 2
REMARK VINA RESULT:      -9.9      2.012      3.140
REMARK SMILES C=CC[N@@H+]1C[C@@H](C(=O)OCCOCCOCCOC(=O)c2ccc(-c3c4nc(c(-c5cc(S(=O)(=O)[O-])ccc5F)c5ccc([nH]5)c(-c5cc(S(=O)(=O)[O-])ccc5F)c5nc(c(-c6cc(S(=O)(=O)[O-])ccc6F)c6ccc3[nH]6)C=C5)C=C4)cc2)C2(CC[NH+](C)CC2)C1
REMARK SMILES IDX 14 1 13 2 12 3 11 4 10 5 9 6 7 7 8 8 6 9 4 10 5 11 91 12
REMARK SMILES IDX 84 14 85 15 90 16 86 17 89 18 87 19 88 20 3 22 2 23 1 24
REMARK SMILES IDX 15 25 16 26 17 27 18 28 19 29 20 30 21 31 22 32 83 33 23 34
REMARK SMILES IDX 82 35 24 36 25 37 26 38 76 39 27 40 81 41 75 42 77 43 28 44
REMARK SMILES IDX 80 45 74 46 73 47 29 49 61 50 41 51 60 52 42 53 45 54 59 55
REMARK SMILES IDX 78 56 43 57 44 58 58 60 79 61 46 62 30 63 31 64 39 65 32 66
REMARK SMILES IDX 38 67 40 68 37 69 33 70 34 71 35 72 36 73 62 74 63 75 71 76
REMARK SMILES IDX 64 77 70 78 72 79 69 80 65 81 66 82 67 83 68 84 47 85 48 86
REMARK SMILES IDX 56 87 49 88 55 89 57 90 54 91 50 92 51 93 52 94 53 95
REMARK H PARENT 4 13 87 21 77 48 45 59
REMARK Flexibility Score: inf
ROOT
ATOM      1  C   UNL A   1      35.628  22.798  25.781  1.00  0.00     0.188 C 
ENDROOT
BRANCH   1   2
ATOM      2  C   UNL A   1      34.546  22.851  24.706  1.00  0.00     0.188 C 
BRANCH   2   3
ATOM      3  O   UNL A   1      33.595  23.909  24.766  1.00  0.00    -0.376 OA
BRANCH   3   4
ATOM      4  C   UNL A   1      32.631  23.899  25.808  1.00  0.00     0.202 C 
BRANCH   4   5
ATOM      5  C   UNL A   1      31.181  23.626  25.387  1.00  0.00     0.261 C 
BRANCH   5   6
ATOM      6  O   UNL A   1      30.433  24.775  24.912  1.00  0.00    -0.463 OA
BRANCH   6   7
ATOM      7  C   UNL A   1      30.652  25.913  25.612  1.00  0.00     0.315 C 
ATOM      8  O   UNL A   1      30.287  26.070  26.775  1.00  0.00    -0.252 OA
BRANCH   7   9
ATOM      9  C   UNL A   1      31.232  27.087  24.840  1.00  0.00     0.166 C 
ATOM     10  N   UNL A   1      32.544  26.376  22.993  1.00  0.00    -0.330 N 
ATOM     11  C   UNL A   1      31.170  26.735  23.352  1.00  0.00     0.278 C 
ATOM     12  C   UNL A   1      33.456  27.125  23.845  1.00  0.00     0.271 C 
ATOM     13  H   UNL A   1      32.712  25.388  23.182  1.00  0.00     0.348 HD
ATOM     14  C   UNL A   1      32.631  27.737  24.988  1.00  0.00     0.049 C 
ATOM     15  C   UNL A   1      33.418  27.577  26.291  1.00  0.00     0.075 C 
ATOM     16  C   UNL A   1      32.489  29.278  24.731  1.00  0.00     0.075 C 
ATOM     17  C   UNL A   1      32.813  28.375  27.426  1.00  0.00     0.262 C 
ATOM     18  C   UNL A   1      31.889  30.035  25.922  1.00  0.00     0.262 C 
ATOM     19  N   UNL A   1      32.610  29.798  27.170  1.00  0.00    -0.337 N 
ATOM     20  C   UNL A   1      33.829  30.592  27.281  1.00  0.00     0.332 C 
ATOM     21  H   UNL A   1      32.009  30.133  27.923  1.00  0.00     0.347 HD
BRANCH  10  22
ATOM     22  C   UNL A   1      32.795  26.445  21.556  1.00  0.00     0.290 C 
BRANCH  22  23
ATOM     23  C   UNL A   1      33.036  25.116  20.889  1.00  0.00     0.025 C 
ATOM     24  C   UNL A   1      32.774  23.913  21.416  1.00  0.00     0.010 C 
ENDBRANCH  22  23
ENDBRANCH  10  22
ENDBRANCH   7   9
ENDBRANCH   6   7
ENDBRANCH   5   6
ENDBRANCH   4   5
ENDBRANCH   3   4
ENDBRANCH   2   3
ENDBRANCH   1   2
BRANCH   1  25
ATOM     25  O   UNL A   1      36.043  21.466  26.070  1.00  0.00    -0.376 OA
BRANCH  25  26
ATOM     26  C   UNL A   1      36.425  20.762  24.885  1.00  0.00     0.202 C 
BRANCH  26  27
ATOM     27  C   UNL A   1      37.894  20.346  25.007  1.00  0.00     0.261 C 
BRANCH  27  28
ATOM     28  O   UNL A   1      38.453  20.612  26.310  1.00  0.00    -0.460 OA
BRANCH  28  29
ATOM     29  C   UNL A   1      39.802  20.736  26.340  1.00  0.00     0.338 C 
ATOM     30  O   UNL A   1      40.607  19.937  25.898  1.00  0.00    -0.246 OA
BRANCH  29  31
ATOM     31  C   UNL A   1      40.157  22.085  26.824  1.00  0.00     0.060 A 
ATOM     32  C   UNL A   1      39.466  23.169  26.287  1.00  0.00     0.016 A 
ATOM     33  C   UNL A   1      41.200  22.307  27.716  1.00  0.00     0.016 A 
ATOM     34  C   UNL A   1      39.812  24.478  26.593  1.00  0.00     0.010 A 
ATOM     35  C   UNL A   1      41.554  23.626  28.037  1.00  0.00     0.010 A 
ATOM     36  C   UNL A   1      40.877  24.722  27.460  1.00  0.00    -0.014 A 
BRANCH  36  37
ATOM     37  C   UNL A   1      41.375  26.110  27.638  1.00  0.00     0.031 A 
ATOM     38  C   UNL A   1      42.690  26.488  27.020  1.00  0.00     0.074 A 
ATOM     39  C   UNL A   1      40.652  27.038  28.294  1.00  0.00     0.049 A 
ATOM     40  N   UNL A   1      43.438  27.538  27.226  1.00  0.00    -0.248 NA
ATOM     41  C   UNL A   1      43.238  25.538  26.038  1.00  0.00     0.031 C 
ATOM     42  C   UNL A   1      39.304  26.843  28.830  1.00  0.00     0.029 A 
ATOM     43  N   UNL A   1      40.958  28.335  28.626  1.00  0.00    -0.354 N 
ATOM     44  C   UNL A   1      44.575  27.350  26.448  1.00  0.00     0.074 A 
ATOM     45  C   UNL A   1      44.413  26.083  25.766  1.00  0.00     0.031 C 
ATOM     46  C   UNL A   1      38.904  27.976  29.431  1.00  0.00     0.029 A 
ATOM     47  C   UNL A   1      39.997  28.944  29.398  1.00  0.00     0.049 A 
ATOM     48  H   UNL A   1      41.786  28.785  28.339  1.00  0.00     0.167 HD
ATOM     49  C   UNL A   1      45.656  28.159  26.328  1.00  0.00     0.034 A 
ATOM     50  C   UNL A   1      40.021  30.120  30.059  1.00  0.00     0.034 A 
ATOM     51  C   UNL A   1      45.775  29.435  26.995  1.00  0.00     0.049 A 
ATOM     52  C   UNL A   1      41.269  30.966  29.990  1.00  0.00     0.074 A 
ATOM     53  C   UNL A   1      46.824  30.336  26.955  1.00  0.00     0.029 A 
ATOM     54  N   UNL A   1      44.804  29.993  27.818  1.00  0.00    -0.354 N 
ATOM     55  N   UNL A   1      42.386  30.741  29.335  1.00  0.00    -0.248 NA
ATOM     56  C   UNL A   1      41.265  32.215  30.763  1.00  0.00     0.031 C 
ATOM     57  C   UNL A   1      46.514  31.406  27.803  1.00  0.00     0.029 A 
ATOM     58  C   UNL A   1      45.241  31.211  28.315  1.00  0.00     0.049 A 
ATOM     59  H   UNL A   1      43.932  29.582  28.020  1.00  0.00     0.167 HD
ATOM     60  C   UNL A   1      43.212  31.830  29.609  1.00  0.00     0.074 A 
ATOM     61  C   UNL A   1      42.456  32.716  30.470  1.00  0.00     0.031 C 
ATOM     62  C   UNL A   1      44.479  32.074  29.188  1.00  0.00     0.034 A 
BRANCH  49  63
ATOM     63  C   UNL A   1      46.821  27.639  25.522  1.00  0.00     0.023 A 
ATOM     64  C   UNL A   1      47.077  28.067  24.207  1.00  0.00     0.031 A 
ATOM     65  C   UNL A   1      47.657  26.646  26.065  1.00  0.00     0.131 A 
ATOM     66  C   UNL A   1      48.089  27.449  23.457  1.00  0.00     0.055 A 
ATOM     67  C   UNL A   1      48.714  26.095  25.341  1.00  0.00     0.041 A 
ATOM     68  F   UNL A   1      47.445  26.180  27.306  1.00  0.00    -0.206 F 
ATOM     69  C   UNL A   1      48.926  26.483  24.022  1.00  0.00     0.022 A 
BRANCH  66  70
ATOM     70  S   UNL A   1      48.201  27.813  21.682  1.00  0.00     0.124 S 
ATOM     71  O   UNL A   1      48.428  26.483  21.122  1.00  0.00    -0.237 OA
ATOM     72  O   UNL A   1      46.901  28.412  21.400  1.00  0.00    -0.237 OA
ATOM     73  O   UNL A   1      49.341  28.722  21.589  1.00  0.00    -0.744 OA
ENDBRANCH  66  70
ENDBRANCH  49  63
BRANCH  50  74
ATOM     74  C   UNL A   1      38.875  30.523  30.926  1.00  0.00     0.023 A 
ATOM     75  C   UNL A   1      37.919  31.453  30.489  1.00  0.00     0.031 A 
ATOM     76  C   UNL A   1      38.750  30.013  32.232  1.00  0.00     0.131 A 
ATOM     77  C   UNL A   1      36.900  31.869  31.361  1.00  0.00     0.055 A 
ATOM     78  C   UNL A   1      37.704  30.389  33.076  1.00  0.00     0.041 A 
ATOM     79  F   UNL A   1      39.643  29.130  32.706  1.00  0.00    -0.206 F 
ATOM     80  C   UNL A   1      36.776  31.332  32.645  1.00  0.00     0.022 A 
BRANCH  77  81
ATOM     81  S   UNL A   1      35.775  33.187  30.820  1.00  0.00     0.124 S 
ATOM     82  O   UNL A   1      36.630  33.959  29.926  1.00  0.00    -0.237 OA
ATOM     83  O   UNL A   1      34.702  32.429  30.185  1.00  0.00    -0.237 OA
ATOM     84  O   UNL A   1      35.409  33.855  32.066  1.00  0.00    -0.744 OA
ENDBRANCH  77  81
ENDBRANCH  50  74
BRANCH  62  85
ATOM     85  C   UNL A   1      45.104  33.375  29.627  1.00  0.00     0.023 A 
ATOM     86  C   UNL A   1      45.874  33.466  30.800  1.00  0.00     0.031 A 
ATOM     87  C   UNL A   1      44.914  34.542  28.865  1.00  0.00     0.131 A 
ATOM     88  C   UNL A   1      46.382  34.710  31.205  1.00  0.00     0.055 A 
ATOM     89  C   UNL A   1      45.471  35.764  29.243  1.00  0.00     0.041 A 
ATOM     90  F   UNL A   1      44.187  34.510  27.738  1.00  0.00    -0.206 F 
ATOM     91  C   UNL A   1      46.198  35.856  30.426  1.00  0.00     0.022 A 
BRANCH  88  92
ATOM     92  S   UNL A   1      47.216  34.830  32.812  1.00  0.00     0.124 S 
ATOM     93  O   UNL A   1      46.807  36.153  33.269  1.00  0.00    -0.237 OA
ATOM     94  O   UNL A   1      46.653  33.699  33.542  1.00  0.00    -0.237 OA
ATOM     95  O   UNL A   1      48.633  34.703  32.472  1.00  0.00    -0.744 OA
ENDBRANCH  88  92
ENDBRANCH  62  85
ENDBRANCH  36  37
ENDBRANCH  29  31
ENDBRANCH  28  29
ENDBRANCH  27  28
ENDBRANCH  26  27
ENDBRANCH  25  26
ENDBRANCH   1  25
TORSDOF 22
ENDMDL
MODEL 3
REMARK VINA RESULT:      -9.7      1.922      7.956
REMARK SMILES C=CC[N@@H+]1C[C@@H](C(=O)OCCOCCOCCOC(=O)c2ccc(-c3c4nc(c(-c5cc(S(=O)(=O)[O-])ccc5F)c5ccc([nH]5)c(-c5cc(S(=O)(=O)[O-])ccc5F)c5nc(c(-c6cc(S(=O)(=O)[O-])ccc6F)c6ccc3[nH]6)C=C5)C=C4)cc2)C2(CC[NH+](C)CC2)C1
REMARK SMILES IDX 14 1 13 2 12 3 11 4 10 5 9 6 7 7 8 8 6 9 4 10 5 11 91 12
REMARK SMILES IDX 84 14 85 15 90 16 86 17 89 18 87 19 88 20 3 22 2 23 1 24
REMARK SMILES IDX 15 25 16 26 17 27 18 28 19 29 20 30 21 31 22 32 83 33 23 34
REMARK SMILES IDX 82 35 24 36 25 37 26 38 76 39 27 40 81 41 75 42 77 43 28 44
REMARK SMILES IDX 80 45 74 46 73 47 29 49 61 50 41 51 60 52 42 53 45 54 59 55
REMARK SMILES IDX 78 56 43 57 44 58 58 60 79 61 46 62 30 63 31 64 39 65 32 66
REMARK SMILES IDX 38 67 40 68 37 69 33 70 34 71 35 72 36 73 62 74 63 75 71 76
REMARK SMILES IDX 64 77 70 78 72 79 69 80 65 81 66 82 67 83 68 84 47 85 48 86
REMARK SMILES IDX 56 87 49 88 55 89 57 90 54 91 50 92 51 93 52 94 53 95
REMARK H PARENT 4 13 87 21 77 48 45 59
REMARK Flexibility Score: inf
ROOT
ATOM      1  C   UNL A   1      34.991  22.392  24.298  1.00  0.00     0.188 C 
ENDROOT
BRANCH   1   2
ATOM      2  C   UNL A   1      34.483  23.559  25.138  1.00  0.00     0.188 C 
BRANCH   2   3
ATOM      3  O   UNL A   1      33.770  23.263  26.335  1.00  0.00    -0.376 OA
BRANCH   3   4
ATOM      4  C   UNL A   1      32.631  24.045  26.659  1.00  0.00     0.202 C 
BRANCH   4   5
ATOM      5  C   UNL A   1      31.316  23.642  25.979  1.00  0.00     0.261 C 
BRANCH   5   6
ATOM      6  O   UNL A   1      30.714  24.643  25.119  1.00  0.00    -0.463 OA
BRANCH   6   7
ATOM      7  C   UNL A   1      30.632  25.877  25.671  1.00  0.00     0.315 C 
ATOM      8  O   UNL A   1      29.976  26.122  26.682  1.00  0.00    -0.252 OA
BRANCH   7   9
ATOM      9  C   UNL A   1      31.258  27.019  24.886  1.00  0.00     0.166 C 
ATOM     10  N   UNL A   1      32.778  26.235  23.239  1.00  0.00    -0.330 N 
ATOM     11  C   UNL A   1      31.364  26.568  23.427  1.00  0.00     0.278 C 
ATOM     12  C   UNL A   1      33.573  27.070  24.129  1.00  0.00     0.271 C 
ATOM     13  H   UNL A   1      32.954  25.268  23.512  1.00  0.00     0.348 HD
ATOM     14  C   UNL A   1      32.614  27.725  25.135  1.00  0.00     0.049 C 
ATOM     15  C   UNL A   1      33.261  27.679  26.520  1.00  0.00     0.075 C 
ATOM     16  C   UNL A   1      32.456  29.241  24.759  1.00  0.00     0.075 C 
ATOM     17  C   UNL A   1      32.516  28.527  27.529  1.00  0.00     0.262 C 
ATOM     18  C   UNL A   1      31.711  30.051  25.827  1.00  0.00     0.262 C 
ATOM     19  N   UNL A   1      32.302  29.922  27.156  1.00  0.00    -0.337 N 
ATOM     20  C   UNL A   1      33.479  30.764  27.340  1.00  0.00     0.332 C 
ATOM     21  H   UNL A   1      31.614  30.284  27.817  1.00  0.00     0.347 HD
BRANCH  10  22
ATOM     22  C   UNL A   1      33.179  26.220  21.835  1.00  0.00     0.290 C 
BRANCH  22  23
ATOM     23  C   UNL A   1      32.921  24.922  21.116  1.00  0.00     0.025 C 
ATOM     24  C   UNL A   1      33.012  23.697  21.648  1.00  0.00     0.010 C 
ENDBRANCH  22  23
ENDBRANCH  10  22
ENDBRANCH   7   9
ENDBRANCH   6   7
ENDBRANCH   5   6
ENDBRANCH   4   5
ENDBRANCH   3   4
ENDBRANCH   2   3
ENDBRANCH   1   2
BRANCH   1  25
ATOM     25  O   UNL A   1      36.218  22.690  23.637  1.00  0.00    -0.376 OA
BRANCH  25  26
ATOM     26  C   UNL A   1      37.183  21.648  23.820  1.00  0.00     0.202 C 
BRANCH  26  27
ATOM     27  C   UNL A   1      37.201  21.243  25.296  1.00  0.00     0.261 C 
BRANCH  27  28
ATOM     28  O   UNL A   1      37.875  22.200  26.140  1.00  0.00    -0.460 OA
BRANCH  28  29
ATOM     29  C   UNL A   1      39.170  21.911  26.413  1.00  0.00     0.338 C 
ATOM     30  O   UNL A   1      39.761  20.893  26.101  1.00  0.00    -0.246 OA
BRANCH  29  31
ATOM     31  C   UNL A   1      39.824  23.104  26.988  1.00  0.00     0.060 A 
ATOM     32  C   UNL A   1      39.459  24.349  26.483  1.00  0.00     0.016 A 
ATOM     33  C   UNL A   1      40.838  23.014  27.936  1.00  0.00     0.016 A 
ATOM     34  C   UNL A   1      40.106  25.513  26.878  1.00  0.00     0.010 A 
ATOM     35  C   UNL A   1      41.493  24.185  28.346  1.00  0.00     0.010 A 
ATOM     36  C   UNL A   1      41.147  25.441  27.803  1.00  0.00    -0.014 A 
BRANCH  36  37
ATOM     37  C   UNL A   1      41.966  26.648  28.081  1.00  0.00     0.031 A 
ATOM     38  C   UNL A   1      41.367  27.748  28.910  1.00  0.00     0.074 A 
ATOM     39  C   UNL A   1      43.238  26.751  27.650  1.00  0.00     0.049 A 
ATOM     40  N   UNL A   1      41.777  28.975  29.089  1.00  0.00    -0.248 NA
ATOM     41  C   UNL A   1      40.127  27.413  29.628  1.00  0.00     0.031 C 
ATOM     42  C   UNL A   1      43.984  25.706  26.948  1.00  0.00     0.029 A 
ATOM     43  N   UNL A   1      44.127  27.794  27.736  1.00  0.00    -0.354 N 
ATOM     44  C   UNL A   1      40.815  29.580  29.891  1.00  0.00     0.074 A 
ATOM     45  C   UNL A   1      39.803  28.580  30.161  1.00  0.00     0.031 C 
ATOM     46  C   UNL A   1      45.213  26.164  26.661  1.00  0.00     0.029 A 
ATOM     47  C   UNL A   1      45.312  27.560  27.079  1.00  0.00     0.049 A 
ATOM     48  H   UNL A   1      43.934  28.629  28.221  1.00  0.00     0.167 HD
ATOM     49  C   UNL A   1      40.781  30.857  30.345  1.00  0.00     0.034 A 
ATOM     50  C   UNL A   1      46.331  28.394  26.789  1.00  0.00     0.034 A 
ATOM     51  C   UNL A   1      41.823  31.823  30.088  1.00  0.00     0.049 A 
ATOM     52  C   UNL A   1      46.234  29.837  27.222  1.00  0.00     0.074 A 
ATOM     53  C   UNL A   1      41.893  33.145  30.489  1.00  0.00     0.029 A 
ATOM     54  N   UNL A   1      42.982  31.566  29.366  1.00  0.00    -0.354 N 
ATOM     55  N   UNL A   1      45.277  30.437  27.894  1.00  0.00    -0.248 NA
ATOM     56  C   UNL A   1      47.347  30.718  26.843  1.00  0.00     0.031 C 
ATOM     57  C   UNL A   1      43.062  33.702  29.958  1.00  0.00     0.029 A 
ATOM     58  C   UNL A   1      43.760  32.711  29.286  1.00  0.00     0.049 A 
ATOM     59  H   UNL A   1      43.218  30.696  28.969  1.00  0.00     0.167 HD
ATOM     60  C   UNL A   1      45.682  31.763  28.028  1.00  0.00     0.074 A 
ATOM     61  C   UNL A   1      46.976  31.868  27.386  1.00  0.00     0.031 C 
ATOM     62  C   UNL A   1      45.042  32.801  28.626  1.00  0.00     0.034 A 
BRANCH  49  63
ATOM     63  C   UNL A   1      39.538  31.294  31.081  1.00  0.00     0.023 A 
ATOM     64  C   UNL A   1      38.445  31.889  30.426  1.00  0.00     0.031 A 
ATOM     65  C   UNL A   1      39.475  31.163  32.481  1.00  0.00     0.131 A 
ATOM     66  C   UNL A   1      37.376  32.400  31.178  1.00  0.00     0.055 A 
ATOM     67  C   UNL A   1      38.370  31.600  33.213  1.00  0.00     0.041 A 
ATOM     68  F   UNL A   1      40.499  30.626  33.163  1.00  0.00    -0.206 F 
ATOM     69  C   UNL A   1      37.319  32.238  32.564  1.00  0.00     0.022 A 
BRANCH  66  70
ATOM     70  S   UNL A   1      36.130  33.418  30.336  1.00  0.00     0.124 S 
ATOM     71  O   UNL A   1      35.764  34.365  31.386  1.00  0.00    -0.237 OA
ATOM     72  O   UNL A   1      36.880  33.969  29.212  1.00  0.00    -0.237 OA
ATOM     73  O   UNL A   1      35.087  32.460  29.981  1.00  0.00    -0.744 OA
ENDBRANCH  66  70
ENDBRANCH  49  63
BRANCH  50  74
ATOM     74  C   UNL A   1      47.481  27.923  25.964  1.00  0.00     0.023 A 
ATOM     75  C   UNL A   1      47.496  28.082  24.570  1.00  0.00     0.031 A 
ATOM     76  C   UNL A   1      48.567  27.255  26.563  1.00  0.00     0.131 A 
ATOM     77  C   UNL A   1      48.558  27.554  23.817  1.00  0.00     0.055 A 
ATOM     78  C   UNL A   1      49.646  26.780  25.815  1.00  0.00     0.041 A 
ATOM     79  F   UNL A   1      48.599  27.065  27.891  1.00  0.00    -0.206 F 
ATOM     80  C   UNL A   1      49.640  26.919  24.431  1.00  0.00     0.022 A 
BRANCH  77  81
ATOM     81  S   UNL A   1      48.469  27.641  22.006  1.00  0.00     0.124 S 
ATOM     82  O   UNL A   1      47.129  28.176  21.800  1.00  0.00    -0.237 OA
ATOM     83  O   UNL A   1      49.575  28.539  21.690  1.00  0.00    -0.237 OA
ATOM     84  O   UNL A   1      48.659  26.253  21.589  1.00  0.00    -0.744 OA
ENDBRANCH  77  81
ENDBRANCH  50  74
BRANCH  62  85
ATOM     85  C   UNL A   1      45.761  34.126  28.643  1.00  0.00     0.023 A 
ATOM     86  C   UNL A   1      46.641  34.477  29.682  1.00  0.00     0.031 A 
ATOM     87  C   UNL A   1      45.551  35.057  27.609  1.00  0.00     0.131 A 
ATOM     88  C   UNL A   1      47.239  35.746  29.691  1.00  0.00     0.055 A 
ATOM     89  C   UNL A   1      46.192  36.295  27.595  1.00  0.00     0.041 A 
ATOM     90  F   UNL A   1      44.719  34.774  26.595  1.00  0.00    -0.206 F 
ATOM     91  C   UNL A   1      47.032  36.651  28.647  1.00  0.00     0.022 A 
BRANCH  88  92
ATOM     92  S   UNL A   1      48.226  36.235  31.132  1.00  0.00     0.124 S 
ATOM     93  O   UNL A   1      49.186  37.162  30.543  1.00  0.00    -0.237 OA
ATOM     94  O   UNL A   1      47.224  36.828  32.012  1.00  0.00    -0.237 OA
ATOM     95  O   UNL A   1      48.792  34.973  31.603  1.00  0.00    -0.744 OA
ENDBRANCH  88  92
ENDBRANCH  62  85
ENDBRANCH  36  37
ENDBRANCH  29  31
ENDBRANCH  28  29
ENDBRANCH  27  28
ENDBRANCH  26  27
ENDBRANCH  25  26
ENDBRANCH   1  25
TORSDOF 22
ENDMDL
