MODEL 1
REMARK VINA RESULT:     -10.8      0.000      0.000
REMARK SMILES O=C(OCCOCCOCCOC(=O)[C@@H](Cc1c(F)cccc1Cl)c1ccc(Cl)cc1)c1ccc(-c2c3nc(c(-c4cc(S(=O)(=O)[O-])ccc4F)c4ccc([nH]4)c(-c4cc(S(=O)(=O)[O-])ccc4F)c4nc(c(-c5cc(S(=O)(=O)[O-])ccc5F)c5ccc2[nH]5)C=C4)C=C3)cc1
REMARK SMILES IDX 7 1 6 2 5 3 4 4 3 5 2 6 1 7 32 8 33 9 94 10 34 11 93 12
REMARK SMILES IDX 35 13 36 14 37 15 87 16 38 17 92 18 86 19 88 20 39 21 91 22
REMARK SMILES IDX 85 23 84 24 40 26 72 27 52 28 71 29 53 30 56 31 70 32 89 33
REMARK SMILES IDX 54 34 55 35 69 37 90 38 57 39 41 40 42 41 50 42 43 43 49 44
REMARK SMILES IDX 51 45 48 46 44 47 45 48 46 49 47 50 73 51 74 52 82 53 75 54
REMARK SMILES IDX 81 55 83 56 80 57 76 58 77 59 78 60 79 61 58 62 59 63 67 64
REMARK SMILES IDX 60 65 66 66 68 67 65 68 61 69 62 70 63 71 64 72 8 73 9 74
REMARK SMILES IDX 10 75 11 76 12 77 13 78 14 79 15 80 16 81 17 82 18 83 23 84
REMARK SMILES IDX 19 85 20 86 22 87 24 88 21 89 25 90 26 91 31 92 27 93 30 94
REMARK SMILES IDX 28 95 29 96
REMARK H PARENT 88 25 56 36
REMARK Flexibility Score: inf
ROOT
ATOM      1  C   UNL A   1      31.510  26.743  26.344  1.00  0.00     0.188 C 
ENDROOT
BRANCH   1   2
ATOM      2  O   UNL A   1      31.090  28.095  26.138  1.00  0.00    -0.376 OA
BRANCH   2   3
ATOM      3  C   UNL A   1      31.813  29.044  26.930  1.00  0.00     0.202 C 
BRANCH   3   4
ATOM      4  C   UNL A   1      32.586  30.089  26.116  1.00  0.00     0.261 C 
BRANCH   4   5
ATOM      5  O   UNL A   1      32.298  31.425  26.584  1.00  0.00    -0.460 OA
BRANCH   5   6
ATOM      6  C   UNL A   1      33.057  32.239  27.363  1.00  0.00     0.338 C 
ATOM      7  O   UNL A   1      32.659  33.379  27.593  1.00  0.00    -0.246 OA
BRANCH   6   8
ATOM      8  C   UNL A   1      34.372  31.826  27.941  1.00  0.00     0.060 A 
ATOM      9  C   UNL A   1      34.646  30.528  28.349  1.00  0.00     0.016 A 
ATOM     10  C   UNL A   1      35.421  32.763  27.998  1.00  0.00     0.016 A 
ATOM     11  C   UNL A   1      35.876  30.192  28.907  1.00  0.00     0.010 A 
ATOM     12  C   UNL A   1      36.692  32.407  28.492  1.00  0.00     0.010 A 
ATOM     13  C   UNL A   1      36.920  31.112  28.965  1.00  0.00    -0.014 A 
BRANCH  13  14
ATOM     14  C   UNL A   1      38.167  30.655  29.633  1.00  0.00     0.031 A 
ATOM     15  C   UNL A   1      38.317  30.895  31.103  1.00  0.00     0.074 A 
ATOM     16  C   UNL A   1      39.021  29.829  28.994  1.00  0.00     0.049 A 
ATOM     17  N   UNL A   1      39.303  30.566  31.892  1.00  0.00    -0.248 NA
ATOM     18  C   UNL A   1      37.208  31.590  31.776  1.00  0.00     0.031 C 
ATOM     19  C   UNL A   1      38.888  29.421  27.598  1.00  0.00     0.029 A 
ATOM     20  N   UNL A   1      40.107  29.113  29.441  1.00  0.00    -0.354 N 
ATOM     21  C   UNL A   1      38.981  31.100  33.133  1.00  0.00     0.074 A 
ATOM     22  C   UNL A   1      37.668  31.695  33.013  1.00  0.00     0.031 C 
ATOM     23  C   UNL A   1      39.771  28.442  27.342  1.00  0.00     0.029 A 
ATOM     24  C   UNL A   1      40.620  28.231  28.509  1.00  0.00     0.049 A 
ATOM     25  H   UNL A   1      40.486  29.219  30.344  1.00  0.00     0.167 HD
ATOM     26  C   UNL A   1      39.758  31.145  34.239  1.00  0.00     0.034 A 
ATOM     27  C   UNL A   1      41.673  27.384  28.581  1.00  0.00     0.034 A 
ATOM     28  C   UNL A   1      41.056  30.524  34.324  1.00  0.00     0.049 A 
ATOM     29  C   UNL A   1      42.524  27.456  29.832  1.00  0.00     0.074 A 
ATOM     30  C   UNL A   1      41.977  30.587  35.353  1.00  0.00     0.029 A 
ATOM     31  N   UNL A   1      41.615  29.725  33.334  1.00  0.00    -0.354 N 
ATOM     32  N   UNL A   1      42.285  28.089  30.960  1.00  0.00    -0.248 NA
ATOM     33  C   UNL A   1      43.823  26.768  29.795  1.00  0.00     0.031 C 
ATOM     34  C   UNL A   1      43.124  29.893  34.952  1.00  0.00     0.029 A 
ATOM     35  C   UNL A   1      42.887  29.326  33.710  1.00  0.00     0.049 A 
ATOM     36  H   UNL A   1      41.173  29.480  32.490  1.00  0.00     0.167 HD
ATOM     37  C   UNL A   1      43.430  27.922  31.734  1.00  0.00     0.074 A 
ATOM     38  C   UNL A   1      44.313  27.048  30.993  1.00  0.00     0.031 C 
ATOM     39  C   UNL A   1      43.754  28.482  32.928  1.00  0.00     0.034 A 
BRANCH  26  40
ATOM     40  C   UNL A   1      39.309  32.050  35.352  1.00  0.00     0.023 A 
ATOM     41  C   UNL A   1      39.710  33.389  35.467  1.00  0.00     0.031 A 
ATOM     42  C   UNL A   1      38.479  31.516  36.357  1.00  0.00     0.131 A 
ATOM     43  C   UNL A   1      39.312  34.137  36.588  1.00  0.00     0.055 A 
ATOM     44  C   UNL A   1      38.031  32.283  37.430  1.00  0.00     0.041 A 
ATOM     45  F   UNL A   1      38.102  30.228  36.316  1.00  0.00    -0.206 F 
ATOM     46  C   UNL A   1      38.455  33.600  37.555  1.00  0.00     0.022 A 
BRANCH  43  47
ATOM     47  S   UNL A   1      40.021  35.788  36.832  1.00  0.00     0.124 S 
ATOM     48  O   UNL A   1      39.337  36.226  38.047  1.00  0.00    -0.237 OA
ATOM     49  O   UNL A   1      41.445  35.505  36.969  1.00  0.00    -0.237 OA
ATOM     50  O   UNL A   1      39.642  36.506  35.617  1.00  0.00    -0.744 OA
ENDBRANCH  43  47
ENDBRANCH  26  40
BRANCH  27  51
ATOM     51  C   UNL A   1      42.111  26.522  27.426  1.00  0.00     0.023 A 
ATOM     52  C   UNL A   1      41.933  25.123  27.444  1.00  0.00     0.031 A 
ATOM     53  C   UNL A   1      42.859  27.056  26.359  1.00  0.00     0.131 A 
ATOM     54  C   UNL A   1      42.554  24.317  26.470  1.00  0.00     0.055 A 
ATOM     55  C   UNL A   1      43.391  26.259  25.342  1.00  0.00     0.041 A 
ATOM     56  F   UNL A   1      43.120  28.371  26.295  1.00  0.00    -0.206 F 
ATOM     57  C   UNL A   1      43.261  24.878  25.406  1.00  0.00     0.022 A 
BRANCH  54  58
ATOM     58  S   UNL A   1      42.586  22.514  26.708  1.00  0.00     0.124 S 
ATOM     59  O   UNL A   1      43.915  22.178  26.207  1.00  0.00    -0.237 OA
ATOM     60  O   UNL A   1      42.399  22.386  28.149  1.00  0.00    -0.237 OA
ATOM     61  O   UNL A   1      41.475  22.038  25.888  1.00  0.00    -0.744 OA
ENDBRANCH  54  58
ENDBRANCH  27  51
BRANCH  39  62
ATOM     62  C   UNL A   1      45.133  28.192  33.461  1.00  0.00     0.023 A 
ATOM     63  C   UNL A   1      45.364  27.093  34.310  1.00  0.00     0.031 A 
ATOM     64  C   UNL A   1      46.224  29.004  33.114  1.00  0.00     0.131 A 
ATOM     65  C   UNL A   1      46.648  26.865  34.822  1.00  0.00     0.055 A 
ATOM     66  C   UNL A   1      47.512  28.737  33.579  1.00  0.00     0.041 A 
ATOM     67  F   UNL A   1      46.057  30.065  32.308  1.00  0.00    -0.206 F 
ATOM     68  C   UNL A   1      47.727  27.668  34.446  1.00  0.00     0.022 A 
BRANCH  65  69
ATOM     69  S   UNL A   1      46.877  25.544  36.043  1.00  0.00     0.124 S 
ATOM     70  O   UNL A   1      48.276  25.181  35.839  1.00  0.00    -0.237 OA
ATOM     71  O   UNL A   1      46.569  26.219  37.299  1.00  0.00    -0.237 OA
ATOM     72  O   UNL A   1      45.907  24.528  35.634  1.00  0.00    -0.744 OA
ENDBRANCH  65  69
ENDBRANCH  39  62
ENDBRANCH  13  14
ENDBRANCH   6   8
ENDBRANCH   5   6
ENDBRANCH   4   5
ENDBRANCH   3   4
ENDBRANCH   2   3
ENDBRANCH   1   2
BRANCH   1  73
ATOM     73  C   UNL A   1      30.557  25.744  25.682  1.00  0.00     0.188 C 
BRANCH  73  74
ATOM     74  O   UNL A   1      31.115  24.482  25.315  1.00  0.00    -0.376 OA
BRANCH  74  75
ATOM     75  C   UNL A   1      30.859  23.988  24.002  1.00  0.00     0.202 C 
BRANCH  75  76
ATOM     76  C   UNL A   1      31.804  22.917  23.450  1.00  0.00     0.261 C 
BRANCH  76  77
ATOM     77  O   UNL A   1      31.954  21.776  24.302  1.00  0.00    -0.463 OA
BRANCH  77  78
ATOM     78  C   UNL A   1      32.505  20.686  23.713  1.00  0.00     0.313 C 
ATOM     79  O   UNL A   1      32.133  20.227  22.633  1.00  0.00    -0.252 OA
BRANCH  78  80
ATOM     80  C   UNL A   1      33.683  20.112  24.488  1.00  0.00     0.134 C 
BRANCH  80  81
ATOM     81  C   UNL A   1      34.182  20.937  25.700  1.00  0.00     0.060 C 
BRANCH  81  82
ATOM     82  C   UNL A   1      35.487  21.714  25.702  1.00  0.00     0.008 A 
ATOM     83  C   UNL A   1      36.682  21.060  25.367  1.00  0.00     0.127 A 
ATOM     84  C   UNL A   1      35.575  23.109  25.858  1.00  0.00     0.047 A 
ATOM     85  F   UNL A   1      36.672  19.758  25.064  1.00  0.00    -0.207 F 
ATOM     86  C   UNL A   1      37.908  21.718  25.283  1.00  0.00     0.039 A 
ATOM     87  C   UNL A   1      36.798  23.787  25.736  1.00  0.00     0.021 A 
ATOM     88  Cl  UNL A   1      34.210  24.118  26.147  1.00  0.00    -0.084 Cl
ATOM     89  C   UNL A   1      37.970  23.090  25.470  1.00  0.00     0.005 A 
ENDBRANCH  81  82
ENDBRANCH  80  81
BRANCH  80  90
ATOM     90  C   UNL A   1      33.492  18.628  24.716  1.00  0.00    -0.033 A 
ATOM     91  C   UNL A   1      32.521  18.155  25.613  1.00  0.00     0.006 A 
ATOM     92  C   UNL A   1      34.294  17.702  24.027  1.00  0.00     0.006 A 
ATOM     93  C   UNL A   1      32.364  16.783  25.817  1.00  0.00     0.021 A 
ATOM     94  C   UNL A   1      34.129  16.334  24.226  1.00  0.00     0.021 A 
ATOM     95  C   UNL A   1      33.173  15.881  25.129  1.00  0.00     0.041 A 
ATOM     96  Cl  UNL A   1      33.026  14.196  25.428  1.00  0.00    -0.084 Cl
ENDBRANCH  80  90
ENDBRANCH  78  80
ENDBRANCH  77  78
ENDBRANCH  76  77
ENDBRANCH  75  76
ENDBRANCH  74  75
ENDBRANCH  73  74
ENDBRANCH   1  73
TORSDOF 23
ENDMDL
MODEL 2
REMARK VINA RESULT:     -10.6      2.140      2.692
REMARK SMILES O=C(OCCOCCOCCOC(=O)[C@@H](Cc1c(F)cccc1Cl)c1ccc(Cl)cc1)c1ccc(-c2c3nc(c(-c4cc(S(=O)(=O)[O-])ccc4F)c4ccc([nH]4)c(-c4cc(S(=O)(=O)[O-])ccc4F)c4nc(c(-c5cc(S(=O)(=O)[O-])ccc5F)c5ccc2[nH]5)C=C4)C=C3)cc1
REMARK SMILES IDX 7 1 6 2 5 3 4 4 3 5 2 6 1 7 32 8 33 9 94 10 34 11 93 12
REMARK SMILES IDX 35 13 36 14 37 15 87 16 38 17 92 18 86 19 88 20 39 21 91 22
REMARK SMILES IDX 85 23 84 24 40 26 72 27 52 28 71 29 53 30 56 31 70 32 89 33
REMARK SMILES IDX 54 34 55 35 69 37 90 38 57 39 41 40 42 41 50 42 43 43 49 44
REMARK SMILES IDX 51 45 48 46 44 47 45 48 46 49 47 50 73 51 74 52 82 53 75 54
REMARK SMILES IDX 81 55 83 56 80 57 76 58 77 59 78 60 79 61 58 62 59 63 67 64
REMARK SMILES IDX 60 65 66 66 68 67 65 68 61 69 62 70 63 71 64 72 8 73 9 74
REMARK SMILES IDX 10 75 11 76 12 77 13 78 14 79 15 80 16 81 17 82 18 83 23 84
REMARK SMILES IDX 19 85 20 86 22 87 24 88 21 89 25 90 26 91 31 92 27 93 30 94
REMARK SMILES IDX 28 95 29 96
REMARK H PARENT 88 25 56 36
REMARK Flexibility Score: inf
ROOT
ATOM      1  C   UNL A   1      31.816  28.363  25.706  1.00  0.00     0.188 C 
ENDROOT
BRANCH   1   2
ATOM      2  O   UNL A   1      31.163  29.599  26.007  1.00  0.00    -0.376 OA
BRANCH   2   3
ATOM      3  C   UNL A   1      32.071  30.674  26.273  1.00  0.00     0.202 C 
BRANCH   3   4
ATOM      4  C   UNL A   1      31.399  31.970  26.740  1.00  0.00     0.261 C 
BRANCH   4   5
ATOM      5  O   UNL A   1      32.348  33.058  26.789  1.00  0.00    -0.460 OA
BRANCH   5   6
ATOM      6  C   UNL A   1      33.014  33.563  27.861  1.00  0.00     0.338 C 
ATOM      7  O   UNL A   1      32.587  34.585  28.394  1.00  0.00    -0.246 OA
BRANCH   6   8
ATOM      8  C   UNL A   1      34.259  32.950  28.415  1.00  0.00     0.060 A 
ATOM      9  C   UNL A   1      34.358  31.608  28.752  1.00  0.00     0.016 A 
ATOM     10  C   UNL A   1      35.422  33.737  28.519  1.00  0.00     0.016 A 
ATOM     11  C   UNL A   1      35.529  31.084  29.291  1.00  0.00     0.010 A 
ATOM     12  C   UNL A   1      36.633  33.191  28.993  1.00  0.00     0.010 A 
ATOM     13  C   UNL A   1      36.685  31.854  29.396  1.00  0.00    -0.014 A 
BRANCH  13  14
ATOM     14  C   UNL A   1      37.856  31.202  30.038  1.00  0.00     0.031 A 
ATOM     15  C   UNL A   1      37.999  31.295  31.526  1.00  0.00     0.074 A 
ATOM     16  C   UNL A   1      38.628  30.343  29.340  1.00  0.00     0.049 A 
ATOM     17  N   UNL A   1      38.922  30.789  32.296  1.00  0.00    -0.248 NA
ATOM     18  C   UNL A   1      36.958  32.050  32.242  1.00  0.00     0.031 C 
ATOM     19  C   UNL A   1      38.483  30.075  27.911  1.00  0.00     0.029 A 
ATOM     20  N   UNL A   1      39.615  29.472  29.736  1.00  0.00    -0.354 N 
ATOM     21  C   UNL A   1      38.633  31.246  33.574  1.00  0.00     0.074 A 
ATOM     22  C   UNL A   1      37.398  31.995  33.490  1.00  0.00     0.031 C 
ATOM     23  C   UNL A   1      39.256  29.028  27.582  1.00  0.00     0.029 A 
ATOM     24  C   UNL A   1      40.049  28.622  28.736  1.00  0.00     0.049 A 
ATOM     25  H   UNL A   1      39.983  29.456  30.650  1.00  0.00     0.167 HD
ATOM     26  C   UNL A   1      39.384  31.107  34.690  1.00  0.00     0.034 A 
ATOM     27  C   UNL A   1      40.998  27.657  28.747  1.00  0.00     0.034 A 
ATOM     28  C   UNL A   1      40.602  30.337  34.737  1.00  0.00     0.049 A 
ATOM     29  C   UNL A   1      41.823  27.523  30.011  1.00  0.00     0.074 A 
ATOM     30  C   UNL A   1      41.499  30.206  35.780  1.00  0.00     0.029 A 
ATOM     31  N   UNL A   1      41.092  29.569  33.689  1.00  0.00    -0.354 N 
ATOM     32  N   UNL A   1      41.629  28.079  31.187  1.00  0.00    -0.248 NA
ATOM     33  C   UNL A   1      43.036  26.698  29.931  1.00  0.00     0.031 C 
ATOM     34  C   UNL A   1      42.571  29.423  35.335  1.00  0.00     0.029 A 
ATOM     35  C   UNL A   1      42.301  28.997  34.045  1.00  0.00     0.049 A 
ATOM     36  H   UNL A   1      40.645  29.449  32.820  1.00  0.00     0.167 HD
ATOM     37  C   UNL A   1      42.730  27.717  31.960  1.00  0.00     0.074 A 
ATOM     38  C   UNL A   1      43.527  26.816  31.155  1.00  0.00     0.031 C 
ATOM     39  C   UNL A   1      43.086  28.131  33.202  1.00  0.00     0.034 A 
BRANCH  26  40
ATOM     40  C   UNL A   1      39.013  31.957  35.874  1.00  0.00     0.023 A 
ATOM     41  C   UNL A   1      38.217  31.500  36.933  1.00  0.00     0.031 A 
ATOM     42  C   UNL A   1      39.449  33.296  35.899  1.00  0.00     0.131 A 
ATOM     43  C   UNL A   1      37.846  32.390  37.955  1.00  0.00     0.055 A 
ATOM     44  C   UNL A   1      39.136  34.155  36.951  1.00  0.00     0.041 A 
ATOM     45  F   UNL A   1      40.179  33.795  34.888  1.00  0.00    -0.206 F 
ATOM     46  C   UNL A   1      38.321  33.705  37.983  1.00  0.00     0.022 A 
BRANCH  43  47
ATOM     47  S   UNL A   1      36.637  31.845  39.191  1.00  0.00     0.124 S 
ATOM     48  O   UNL A   1      37.349  32.110  40.438  1.00  0.00    -0.237 OA
ATOM     49  O   UNL A   1      35.492  32.705  38.916  1.00  0.00    -0.237 OA
ATOM     50  O   UNL A   1      36.442  30.430  38.880  1.00  0.00    -0.744 OA
ENDBRANCH  43  47
ENDBRANCH  26  40
BRANCH  27  51
ATOM     51  C   UNL A   1      41.364  26.854  27.526  1.00  0.00     0.023 A 
ATOM     52  C   UNL A   1      41.071  25.478  27.436  1.00  0.00     0.031 A 
ATOM     53  C   UNL A   1      42.154  27.406  26.500  1.00  0.00     0.131 A 
ATOM     54  C   UNL A   1      41.623  24.701  26.399  1.00  0.00     0.055 A 
ATOM     55  C   UNL A   1      42.619  26.650  25.420  1.00  0.00     0.041 A 
ATOM     56  F   UNL A   1      42.523  28.696  26.536  1.00  0.00    -0.206 F 
ATOM     57  C   UNL A   1      42.374  25.284  25.379  1.00  0.00     0.022 A 
BRANCH  54  58
ATOM     58  S   UNL A   1      41.506  22.889  26.497  1.00  0.00     0.124 S 
ATOM     59  O   UNL A   1      42.357  22.483  25.383  1.00  0.00    -0.237 OA
ATOM     60  O   UNL A   1      42.028  22.614  27.831  1.00  0.00    -0.237 OA
ATOM     61  O   UNL A   1      40.080  22.626  26.316  1.00  0.00    -0.744 OA
ENDBRANCH  54  58
ENDBRANCH  27  51
BRANCH  39  62
ATOM     62  C   UNL A   1      44.411  27.641  33.726  1.00  0.00     0.023 A 
ATOM     63  C   UNL A   1      44.506  26.427  34.432  1.00  0.00     0.031 A 
ATOM     64  C   UNL A   1      45.586  28.378  33.512  1.00  0.00     0.131 A 
ATOM     65  C   UNL A   1      45.743  26.010  34.941  1.00  0.00     0.055 A 
ATOM     66  C   UNL A   1      46.825  27.928  33.969  1.00  0.00     0.041 A 
ATOM     67  F   UNL A   1      45.551  29.543  32.845  1.00  0.00    -0.206 F 
ATOM     68  C   UNL A   1      46.907  26.743  34.697  1.00  0.00     0.022 A 
BRANCH  65  69
ATOM     69  S   UNL A   1      45.801  24.530  35.987  1.00  0.00     0.124 S 
ATOM     70  O   UNL A   1      47.075  24.695  36.677  1.00  0.00    -0.237 OA
ATOM     71  O   UNL A   1      44.605  24.679  36.810  1.00  0.00    -0.237 OA
ATOM     72  O   UNL A   1      45.754  23.429  35.025  1.00  0.00    -0.744 OA
ENDBRANCH  65  69
ENDBRANCH  39  62
ENDBRANCH  13  14
ENDBRANCH   6   8
ENDBRANCH   5   6
ENDBRANCH   4   5
ENDBRANCH   3   4
ENDBRANCH   2   3
ENDBRANCH   1   2
BRANCH   1  73
ATOM     73  C   UNL A   1      31.500  27.285  26.747  1.00  0.00     0.188 C 
BRANCH  73  74
ATOM     74  O   UNL A   1      30.490  26.338  26.395  1.00  0.00    -0.376 OA
BRANCH  74  75
ATOM     75  C   UNL A   1      30.891  24.998  26.116  1.00  0.00     0.202 C 
BRANCH  75  76
ATOM     76  C   UNL A   1      31.771  24.291  27.150  1.00  0.00     0.261 C 
BRANCH  76  77
ATOM     77  O   UNL A   1      32.399  23.099  26.663  1.00  0.00    -0.463 OA
BRANCH  77  78
ATOM     78  C   UNL A   1      31.664  22.382  25.778  1.00  0.00     0.313 C 
ATOM     79  O   UNL A   1      30.503  22.023  25.981  1.00  0.00    -0.252 OA
BRANCH  78  80
ATOM     80  C   UNL A   1      32.392  22.110  24.469  1.00  0.00     0.134 C 
BRANCH  80  81
ATOM     81  C   UNL A   1      33.576  23.048  24.128  1.00  0.00     0.060 C 
BRANCH  81  82
ATOM     82  C   UNL A   1      33.415  24.354  23.369  1.00  0.00     0.008 A 
ATOM     83  C   UNL A   1      33.705  25.568  24.010  1.00  0.00     0.127 A 
ATOM     84  C   UNL A   1      33.149  24.438  21.991  1.00  0.00     0.047 A 
ATOM     85  F   UNL A   1      34.104  25.573  25.286  1.00  0.00    -0.207 F 
ATOM     86  C   UNL A   1      33.645  26.800  23.362  1.00  0.00     0.039 A 
ATOM     87  C   UNL A   1      33.126  25.671  21.320  1.00  0.00     0.021 A 
ATOM     88  Cl  UNL A   1      32.892  23.060  20.989  1.00  0.00    -0.084 Cl
ATOM     89  C   UNL A   1      33.352  26.855  22.009  1.00  0.00     0.005 A 
ENDBRANCH  81  82
ENDBRANCH  80  81
BRANCH  80  90
ATOM     90  C   UNL A   1      32.638  20.626  24.299  1.00  0.00    -0.033 A 
ATOM     91  C   UNL A   1      32.302  19.972  23.102  1.00  0.00     0.006 A 
ATOM     92  C   UNL A   1      33.207  19.883  25.347  1.00  0.00     0.006 A 
ATOM     93  C   UNL A   1      32.529  18.602  22.965  1.00  0.00     0.021 A 
ATOM     94  C   UNL A   1      33.439  18.518  25.205  1.00  0.00     0.021 A 
ATOM     95  C   UNL A   1      33.088  17.881  24.018  1.00  0.00     0.041 A 
ATOM     96  Cl  UNL A   1      33.306  16.183  23.876  1.00  0.00    -0.084 Cl
ENDBRANCH  80  90
ENDBRANCH  78  80
ENDBRANCH  77  78
ENDBRANCH  76  77
ENDBRANCH  75  76
ENDBRANCH  74  75
ENDBRANCH  73  74
ENDBRANCH   1  73
TORSDOF 23
ENDMDL
MODEL 3
REMARK VINA RESULT:     -10.4      2.425      9.030
REMARK SMILES O=C(OCCOCCOCCOC(=O)[C@@H](Cc1c(F)cccc1Cl)c1ccc(Cl)cc1)c1ccc(-c2c3nc(c(-c4cc(S(=O)(=O)[O-])ccc4F)c4ccc([nH]4)c(-c4cc(S(=O)(=O)[O-])ccc4F)c4nc(c(-c5cc(S(=O)(=O)[O-])ccc5F)c5ccc2[nH]5)C=C4)C=C3)cc1
REMARK SMILES IDX 7 1 6 2 5 3 4 4 3 5 2 6 1 7 32 8 33 9 94 10 34 11 93 12
REMARK SMILES IDX 35 13 36 14 37 15 87 16 38 17 92 18 86 19 88 20 39 21 91 22
REMARK SMILES IDX 85 23 84 24 40 26 72 27 52 28 71 29 53 30 56 31 70 32 89 33
REMARK SMILES IDX 54 34 55 35 69 37 90 38 57 39 41 40 42 41 50 42 43 43 49 44
REMARK SMILES IDX 51 45 48 46 44 47 45 48 46 49 47 50 73 51 74 52 82 53 75 54
REMARK SMILES IDX 81 55 83 56 80 57 76 58 77 59 78 60 79 61 58 62 59 63 67 64
REMARK SMILES IDX 60 65 66 66 68 67 65 68 61 69 62 70 63 71 64 72 8 73 9 74
REMARK SMILES IDX 10 75 11 76 12 77 13 78 14 79 15 80 16 81 17 82 18 83 23 84
REMARK SMILES IDX 19 85 20 86 22 87 24 88 21 89 25 90 26 91 31 92 27 93 30 94
REMARK SMILES IDX 28 95 29 96
REMARK H PARENT 88 25 56 36
REMARK Flexibility Score: inf
ROOT
ATOM      1  C   UNL A   1      39.748  20.690  25.933  1.00  0.00     0.188 C 
ENDROOT
BRANCH   1   2
ATOM      2  O   UNL A   1      40.897  21.536  26.028  1.00  0.00    -0.376 OA
BRANCH   2   3
ATOM      3  C   UNL A   1      42.136  20.817  26.042  1.00  0.00     0.202 C 
BRANCH   3   4
ATOM      4  C   UNL A   1      43.283  21.517  25.305  1.00  0.00     0.261 C 
BRANCH   4   5
ATOM      5  O   UNL A   1      42.876  22.820  24.831  1.00  0.00    -0.460 OA
BRANCH   5   6
ATOM      6  C   UNL A   1      43.406  24.037  25.121  1.00  0.00     0.338 C 
ATOM      7  O   UNL A   1      44.363  24.437  24.462  1.00  0.00    -0.246 OA
BRANCH   6   8
ATOM      8  C   UNL A   1      42.897  24.911  26.221  1.00  0.00     0.060 A 
ATOM      9  C   UNL A   1      43.056  26.289  26.229  1.00  0.00     0.016 A 
ATOM     10  C   UNL A   1      42.140  24.335  27.259  1.00  0.00     0.016 A 
ATOM     11  C   UNL A   1      42.590  27.062  27.288  1.00  0.00     0.010 A 
ATOM     12  C   UNL A   1      41.600  25.126  28.294  1.00  0.00     0.010 A 
ATOM     13  C   UNL A   1      41.838  26.503  28.318  1.00  0.00    -0.014 A 
BRANCH  13  14
ATOM     14  C   UNL A   1      41.443  27.417  29.420  1.00  0.00     0.031 A 
ATOM     15  C   UNL A   1      40.077  28.030  29.386  1.00  0.00     0.074 A 
ATOM     16  C   UNL A   1      42.189  27.496  30.543  1.00  0.00     0.049 A 
ATOM     17  N   UNL A   1      39.516  28.834  30.246  1.00  0.00    -0.248 NA
ATOM     18  C   UNL A   1      39.228  27.683  28.235  1.00  0.00     0.031 C 
ATOM     19  C   UNL A   1      43.473  26.825  30.731  1.00  0.00     0.029 A 
ATOM     20  N   UNL A   1      41.948  28.086  31.761  1.00  0.00    -0.354 N 
ATOM     21  C   UNL A   1      38.288  29.171  29.694  1.00  0.00     0.074 A 
ATOM     22  C   UNL A   1      38.148  28.413  28.470  1.00  0.00     0.031 C 
ATOM     23  C   UNL A   1      43.840  26.937  32.018  1.00  0.00     0.029 A 
ATOM     24  C   UNL A   1      42.892  27.789  32.726  1.00  0.00     0.049 A 
ATOM     25  H   UNL A   1      41.172  28.669  31.931  1.00  0.00     0.167 HD
ATOM     26  C   UNL A   1      37.404  30.090  30.145  1.00  0.00     0.034 A 
ATOM     27  C   UNL A   1      42.994  28.190  34.014  1.00  0.00     0.034 A 
ATOM     28  C   UNL A   1      37.571  30.813  31.380  1.00  0.00     0.049 A 
ATOM     29  C   UNL A   1      41.989  29.218  34.492  1.00  0.00     0.074 A 
ATOM     30  C   UNL A   1      36.797  31.838  31.891  1.00  0.00     0.029 A 
ATOM     31  N   UNL A   1      38.589  30.584  32.298  1.00  0.00    -0.354 N 
ATOM     32  N   UNL A   1      40.898  29.648  33.897  1.00  0.00    -0.248 NA
ATOM     33  C   UNL A   1      42.268  29.876  35.777  1.00  0.00     0.031 C 
ATOM     34  C   UNL A   1      37.392  32.282  33.077  1.00  0.00     0.029 A 
ATOM     35  C   UNL A   1      38.488  31.479  33.350  1.00  0.00     0.049 A 
ATOM     36  H   UNL A   1      39.280  29.889  32.212  1.00  0.00     0.167 HD
ATOM     37  C   UNL A   1      40.402  30.665  34.708  1.00  0.00     0.074 A 
ATOM     38  C   UNL A   1      41.249  30.716  35.880  1.00  0.00     0.031 C 
ATOM     39  C   UNL A   1      39.373  31.523  34.486  1.00  0.00     0.034 A 
BRANCH  26  40
ATOM     40  C   UNL A   1      36.301  30.495  29.206  1.00  0.00     0.023 A 
ATOM     41  C   UNL A   1      35.297  29.619  28.772  1.00  0.00     0.031 A 
ATOM     42  C   UNL A   1      36.302  31.810  28.701  1.00  0.00     0.131 A 
ATOM     43  C   UNL A   1      34.357  30.059  27.824  1.00  0.00     0.055 A 
ATOM     44  C   UNL A   1      35.326  32.261  27.814  1.00  0.00     0.041 A 
ATOM     45  F   UNL A   1      37.266  32.675  29.053  1.00  0.00    -0.206 F 
ATOM     46  C   UNL A   1      34.350  31.380  27.364  1.00  0.00     0.022 A 
BRANCH  43  47
ATOM     47  S   UNL A   1      33.209  28.852  27.108  1.00  0.00     0.124 S 
ATOM     48  O   UNL A   1      32.331  29.711  26.318  1.00  0.00    -0.237 OA
ATOM     49  O   UNL A   1      34.098  27.979  26.350  1.00  0.00    -0.237 OA
ATOM     50  O   UNL A   1      32.583  28.238  28.278  1.00  0.00    -0.744 OA
ENDBRANCH  43  47
ENDBRANCH  26  40
BRANCH  27  51
ATOM     51  C   UNL A   1      44.137  27.789  34.909  1.00  0.00     0.023 A 
ATOM     52  C   UNL A   1      43.972  26.827  35.927  1.00  0.00     0.031 A 
ATOM     53  C   UNL A   1      45.368  28.472  34.871  1.00  0.00     0.131 A 
ATOM     54  C   UNL A   1      44.978  26.638  36.894  1.00  0.00     0.055 A 
ATOM     55  C   UNL A   1      46.400  28.210  35.775  1.00  0.00     0.041 A 
ATOM     56  F   UNL A   1      45.587  29.440  33.967  1.00  0.00    -0.206 F 
ATOM     57  C   UNL A   1      46.200  27.306  36.810  1.00  0.00     0.022 A 
BRANCH  54  58
ATOM     58  S   UNL A   1      44.605  25.646  38.372  1.00  0.00     0.124 S 
ATOM     59  O   UNL A   1      45.905  25.612  39.035  1.00  0.00    -0.237 OA
ATOM     60  O   UNL A   1      43.575  26.443  39.031  1.00  0.00    -0.237 OA
ATOM     61  O   UNL A   1      44.153  24.369  37.826  1.00  0.00    -0.744 OA
ENDBRANCH  54  58
ENDBRANCH  27  51
BRANCH  39  62
ATOM     62  C   UNL A   1      39.156  32.601  35.515  1.00  0.00     0.023 A 
ATOM     63  C   UNL A   1      39.822  33.837  35.420  1.00  0.00     0.031 A 
ATOM     64  C   UNL A   1      38.272  32.404  36.588  1.00  0.00     0.131 A 
ATOM     65  C   UNL A   1      39.631  34.811  36.409  1.00  0.00     0.055 A 
ATOM     66  C   UNL A   1      38.040  33.400  37.537  1.00  0.00     0.041 A 
ATOM     67  F   UNL A   1      37.611  31.242  36.725  1.00  0.00    -0.206 F 
ATOM     68  C   UNL A   1      38.729  34.608  37.456  1.00  0.00     0.022 A 
BRANCH  65  69
ATOM     69  S   UNL A   1      40.630  36.323  36.347  1.00  0.00     0.124 S 
ATOM     70  O   UNL A   1      40.018  37.046  35.237  1.00  0.00    -0.237 OA
ATOM     71  O   UNL A   1      40.420  36.894  37.673  1.00  0.00    -0.237 OA
ATOM     72  O   UNL A   1      41.983  35.829  36.095  1.00  0.00    -0.744 OA
ENDBRANCH  65  69
ENDBRANCH  39  62
ENDBRANCH  13  14
ENDBRANCH   6   8
ENDBRANCH   5   6
ENDBRANCH   4   5
ENDBRANCH   3   4
ENDBRANCH   2   3
ENDBRANCH   1   2
BRANCH   1  73
ATOM     73  C   UNL A   1      38.508  21.464  25.476  1.00  0.00     0.188 C 
BRANCH  73  74
ATOM     74  O   UNL A   1      38.428  22.831  25.884  1.00  0.00    -0.376 OA
BRANCH  74  75
ATOM     75  C   UNL A   1      37.142  23.369  26.187  1.00  0.00     0.202 C 
BRANCH  75  76
ATOM     76  C   UNL A   1      36.320  23.939  25.028  1.00  0.00     0.261 C 
BRANCH  76  77
ATOM     77  O   UNL A   1      35.147  23.178  24.716  1.00  0.00    -0.463 OA
BRANCH  77  78
ATOM     78  C   UNL A   1      34.794  23.174  23.407  1.00  0.00     0.313 C 
ATOM     79  O   UNL A   1      35.597  23.058  22.480  1.00  0.00    -0.252 OA
BRANCH  78  80
ATOM     80  C   UNL A   1      33.291  23.263  23.186  1.00  0.00     0.134 C 
BRANCH  80  81
ATOM     81  C   UNL A   1      32.407  22.345  24.065  1.00  0.00     0.060 C 
BRANCH  81  82
ATOM     82  C   UNL A   1      32.531  20.831  24.081  1.00  0.00     0.008 A 
ATOM     83  C   UNL A   1      32.230  20.100  22.922  1.00  0.00     0.127 A 
ATOM     84  C   UNL A   1      33.092  20.097  25.140  1.00  0.00     0.047 A 
ATOM     85  F   UNL A   1      31.822  20.733  21.817  1.00  0.00    -0.207 F 
ATOM     86  C   UNL A   1      32.381  18.718  22.838  1.00  0.00     0.039 A 
ATOM     87  C   UNL A   1      33.287  18.709  25.051  1.00  0.00     0.021 A 
ATOM     88  Cl  UNL A   1      33.647  20.816  26.603  1.00  0.00    -0.084 Cl
ATOM     89  C   UNL A   1      32.911  18.015  23.909  1.00  0.00     0.005 A 
ENDBRANCH  81  82
ENDBRANCH  80  81
BRANCH  80  90
ATOM     90  C   UNL A   1      32.859  24.710  23.075  1.00  0.00    -0.033 A 
ATOM     91  C   UNL A   1      31.518  25.079  23.271  1.00  0.00     0.006 A 
ATOM     92  C   UNL A   1      33.803  25.705  22.770  1.00  0.00     0.006 A 
ATOM     93  C   UNL A   1      31.135  26.416  23.158  1.00  0.00     0.021 A 
ATOM     94  C   UNL A   1      33.419  27.039  22.665  1.00  0.00     0.021 A 
ATOM     95  C   UNL A   1      32.085  27.387  22.848  1.00  0.00     0.041 A 
ATOM     96  Cl  UNL A   1      31.604  29.024  22.643  1.00  0.00    -0.084 Cl
ENDBRANCH  80  90
ENDBRANCH  78  80
ENDBRANCH  77  78
ENDBRANCH  76  77
ENDBRANCH  75  76
ENDBRANCH  74  75
ENDBRANCH  73  74
ENDBRANCH   1  73
TORSDOF 23
ENDMDL
