MODEL 1
REMARK VINA RESULT:      -7.5      0.000      0.000
REMARK SMILES C/C(=N/OCc1ccccc1Nc1c(Cl)cccc1Cl)C(=O)OCCOCCOCCOC(=O)c1ccc(-c2c3nc(c(-c4cc(S(=O)(=O)[O-])ccc4F)c4ccc([nH]4)c(-c4cc(S(=O)(=O)[O-])ccc4F)c4nc(c(-c5cc(S(=O)(=O)[O-])ccc5F)c5ccc2[nH]5)C=C4)C=C3)cc1
REMARK SMILES IDX 27 1 26 2 25 3 24 4 23 5 21 6 22 7 2 8 1 9 3 10 4 11 5 12
REMARK SMILES IDX 6 13 7 14 11 15 8 16 10 17 9 18 12 19 13 21 14 22 19 23
REMARK SMILES IDX 15 24 16 25 18 26 20 27 17 28 28 29 29 30 30 31 31 32 32 33
REMARK SMILES IDX 33 34 34 35 35 36 36 37 97 38 37 39 96 40 38 41 39 42 40 43
REMARK SMILES IDX 90 44 41 45 95 46 89 47 91 48 42 49 94 50 88 51 87 52 43 54
REMARK SMILES IDX 75 55 55 56 74 57 56 58 59 59 73 60 92 61 57 62 58 63 72 65
REMARK SMILES IDX 93 66 60 67 44 68 45 69 53 70 46 71 52 72 54 73 51 74 47 75
REMARK SMILES IDX 48 76 49 77 50 78 76 79 77 80 85 81 78 82 84 83 86 84 83 85
REMARK SMILES IDX 79 86 80 87 81 88 82 89 61 90 62 91 70 92 63 93 69 94 71 95
REMARK SMILES IDX 68 96 64 97 65 98 66 99 67 100
REMARK H PARENT 12 20 91 53 59 64
REMARK Flexibility Score: inf
ROOT
ATOM      1  C   UNL A   1      41.756  19.902  26.144  1.00  0.00     0.188 C 
ENDROOT
BRANCH   1   2
ATOM      2  O   UNL A   1      41.803  20.663  27.360  1.00  0.00    -0.376 OA
BRANCH   2   3
ATOM      3  C   UNL A   1      42.517  21.904  27.329  1.00  0.00     0.202 C 
BRANCH   3   4
ATOM      4  C   UNL A   1      41.905  22.929  26.373  1.00  0.00     0.261 C 
BRANCH   4   5
ATOM      5  O   UNL A   1      41.527  24.069  27.150  1.00  0.00    -0.459 OA
BRANCH   5   6
ATOM      6  C   UNL A   1      40.690  24.942  26.555  1.00  0.00     0.355 C 
ATOM      7  O   UNL A   1      40.884  25.662  25.603  1.00  0.00    -0.245 OA
BRANCH   6   8
ATOM      8  C   UNL A   1      39.336  24.688  27.172  1.00  0.00     0.161 C 
ATOM      9  C   UNL A   1      38.520  23.638  26.482  1.00  0.00     0.079 C 
ATOM     10  N   UNL A   1      38.921  25.222  28.282  1.00  0.00    -0.084 NA
BRANCH  10  11
ATOM     11  O   UNL A   1      39.845  26.155  28.789  1.00  0.00    -0.390 OA
BRANCH  11  12
ATOM     12  C   UNL A   1      39.218  27.448  28.840  1.00  0.00     0.302 C 
BRANCH  12  13
ATOM     13  C   UNL A   1      40.286  28.518  28.823  1.00  0.00     0.016 A 
ATOM     14  C   UNL A   1      41.177  28.532  27.728  1.00  0.00     0.009 A 
ATOM     15  C   UNL A   1      40.448  29.462  29.856  1.00  0.00     0.045 A 
ATOM     16  C   UNL A   1      42.226  29.443  27.659  1.00  0.00     0.001 A 
ATOM     17  C   UNL A   1      41.516  30.373  29.765  1.00  0.00     0.026 A 
ATOM     18  C   UNL A   1      42.400  30.362  28.684  1.00  0.00     0.002 A 
BRANCH  15  19
ATOM     19  N   UNL A   1      39.548  29.513  30.943  1.00  0.00    -0.353 N 
ATOM     20  H   UNL A   1      39.352  28.642  31.359  1.00  0.00     0.167 HD
BRANCH  19  21
ATOM     21  C   UNL A   1      38.882  30.619  31.532  1.00  0.00     0.076 A 
ATOM     22  C   UNL A   1      39.491  31.291  32.615  1.00  0.00     0.066 A 
ATOM     23  C   UNL A   1      37.658  31.142  31.063  1.00  0.00     0.066 A 
ATOM     24  Cl  UNL A   1      40.975  30.709  33.295  1.00  0.00    -0.082 Cl
ATOM     25  C   UNL A   1      38.930  32.445  33.176  1.00  0.00     0.023 A 
ATOM     26  C   UNL A   1      37.101  32.303  31.622  1.00  0.00     0.023 A 
ATOM     27  Cl  UNL A   1      36.697  30.346  29.861  1.00  0.00    -0.082 Cl
ATOM     28  C   UNL A   1      37.739  32.959  32.671  1.00  0.00     0.003 A 
ENDBRANCH  19  21
ENDBRANCH  15  19
ENDBRANCH  12  13
ENDBRANCH  11  12
ENDBRANCH  10  11
ENDBRANCH   6   8
ENDBRANCH   5   6
ENDBRANCH   4   5
ENDBRANCH   3   4
ENDBRANCH   2   3
ENDBRANCH   1   2
BRANCH   1  29
ATOM     29  C   UNL A   1      43.037  19.133  25.799  1.00  0.00     0.188 C 
BRANCH  29  30
ATOM     30  O   UNL A   1      43.548  19.544  24.526  1.00  0.00    -0.376 OA
BRANCH  30  31
ATOM     31  C   UNL A   1      44.977  19.594  24.447  1.00  0.00     0.202 C 
BRANCH  31  32
ATOM     32  C   UNL A   1      45.556  20.710  25.326  1.00  0.00     0.261 C 
BRANCH  32  33
ATOM     33  O   UNL A   1      46.191  21.742  24.553  1.00  0.00    -0.460 OA
BRANCH  33  34
ATOM     34  C   UNL A   1      45.354  22.699  24.087  1.00  0.00     0.338 C 
ATOM     35  O   UNL A   1      44.614  22.599  23.122  1.00  0.00    -0.246 OA
BRANCH  34  36
ATOM     36  C   UNL A   1      45.382  23.878  24.980  1.00  0.00     0.060 A 
ATOM     37  C   UNL A   1      46.520  24.064  25.777  1.00  0.00     0.016 A 
ATOM     38  C   UNL A   1      44.293  24.753  25.086  1.00  0.00     0.016 A 
ATOM     39  C   UNL A   1      46.554  25.098  26.709  1.00  0.00     0.010 A 
ATOM     40  C   UNL A   1      44.322  25.781  26.031  1.00  0.00     0.010 A 
ATOM     41  C   UNL A   1      45.441  25.935  26.865  1.00  0.00    -0.014 A 
BRANCH  41  42
ATOM     42  C   UNL A   1      45.387  26.859  28.017  1.00  0.00     0.031 A 
ATOM     43  C   UNL A   1      45.698  28.312  27.788  1.00  0.00     0.074 A 
ATOM     44  C   UNL A   1      45.081  26.410  29.244  1.00  0.00     0.049 A 
ATOM     45  N   UNL A   1      45.628  29.316  28.621  1.00  0.00    -0.248 NA
ATOM     46  C   UNL A   1      46.153  28.676  26.436  1.00  0.00     0.031 C 
ATOM     47  C   UNL A   1      44.800  25.017  29.592  1.00  0.00     0.029 A 
ATOM     48  N   UNL A   1      44.968  27.083  30.430  1.00  0.00    -0.354 N 
ATOM     49  C   UNL A   1      45.987  30.439  27.887  1.00  0.00     0.074 A 
ATOM     50  C   UNL A   1      46.323  29.983  26.553  1.00  0.00     0.031 C 
ATOM     51  C   UNL A   1      44.574  24.937  30.915  1.00  0.00     0.029 A 
ATOM     52  C   UNL A   1      44.680  26.272  31.499  1.00  0.00     0.049 A 
ATOM     53  H   UNL A   1      45.082  28.058  30.510  1.00  0.00     0.167 HD
ATOM     54  C   UNL A   1      46.022  31.736  28.280  1.00  0.00     0.034 A 
ATOM     55  C   UNL A   1      44.521  26.579  32.799  1.00  0.00     0.034 A 
ATOM     56  C   UNL A   1      45.753  32.174  29.623  1.00  0.00     0.049 A 
ATOM     57  C   UNL A   1      44.603  28.019  33.229  1.00  0.00     0.074 A 
ATOM     58  C   UNL A   1      45.759  33.458  30.139  1.00  0.00     0.029 A 
ATOM     59  N   UNL A   1      45.456  31.324  30.680  1.00  0.00    -0.354 N 
ATOM     60  N   UNL A   1      44.875  29.081  32.507  1.00  0.00    -0.248 NA
ATOM     61  C   UNL A   1      44.337  28.299  34.645  1.00  0.00     0.031 C 
ATOM     62  C   UNL A   1      45.500  33.379  31.514  1.00  0.00     0.029 A 
ATOM     63  C   UNL A   1      45.299  32.049  31.848  1.00  0.00     0.049 A 
ATOM     64  H   UNL A   1      45.370  30.345  30.609  1.00  0.00     0.167 HD
ATOM     65  C   UNL A   1      44.796  30.159  33.381  1.00  0.00     0.074 A 
ATOM     66  C   UNL A   1      44.453  29.618  34.682  1.00  0.00     0.031 C 
ATOM     67  C   UNL A   1      44.979  31.480  33.133  1.00  0.00     0.034 A 
BRANCH  54  68
ATOM     68  C   UNL A   1      46.398  32.741  27.228  1.00  0.00     0.023 A 
ATOM     69  C   UNL A   1      47.745  33.091  27.017  1.00  0.00     0.031 A 
ATOM     70  C   UNL A   1      45.410  33.414  26.492  1.00  0.00     0.131 A 
ATOM     71  C   UNL A   1      48.063  34.137  26.139  1.00  0.00     0.055 A 
ATOM     72  C   UNL A   1      45.738  34.418  25.579  1.00  0.00     0.041 A 
ATOM     73  F   UNL A   1      44.111  33.133  26.677  1.00  0.00    -0.206 F 
ATOM     74  C   UNL A   1      47.069  34.794  25.408  1.00  0.00     0.022 A 
BRANCH  71  75
ATOM     75  S   UNL A   1      49.784  34.706  26.057  1.00  0.00     0.124 S 
ATOM     76  O   UNL A   1      50.465  33.714  26.885  1.00  0.00    -0.237 OA
ATOM     77  O   UNL A   1      50.069  34.648  24.628  1.00  0.00    -0.237 OA
ATOM     78  O   UNL A   1      49.727  36.050  26.628  1.00  0.00    -0.744 OA
ENDBRANCH  71  75
ENDBRANCH  54  68
BRANCH  55  79
ATOM     79  C   UNL A   1      44.281  25.507  33.796  1.00  0.00     0.023 A 
ATOM     80  C   UNL A   1      45.298  24.609  34.156  1.00  0.00     0.031 A 
ATOM     81  C   UNL A   1      43.010  25.353  34.374  1.00  0.00     0.131 A 
ATOM     82  C   UNL A   1      45.021  23.569  35.056  1.00  0.00     0.055 A 
ATOM     83  C   UNL A   1      42.743  24.327  35.282  1.00  0.00     0.041 A 
ATOM     84  F   UNL A   1      42.015  26.199  34.064  1.00  0.00    -0.206 F 
ATOM     85  C   UNL A   1      43.750  23.425  35.621  1.00  0.00     0.022 A 
BRANCH  82  86
ATOM     86  S   UNL A   1      46.344  22.387  35.453  1.00  0.00     0.124 S 
ATOM     87  O   UNL A   1      46.104  21.321  34.485  1.00  0.00    -0.237 OA
ATOM     88  O   UNL A   1      47.545  23.188  35.235  1.00  0.00    -0.237 OA
ATOM     89  O   UNL A   1      46.080  22.035  36.847  1.00  0.00    -0.744 OA
ENDBRANCH  82  86
ENDBRANCH  55  79
BRANCH  67  90
ATOM     90  C   UNL A   1      44.786  32.413  34.295  1.00  0.00     0.023 A 
ATOM     91  C   UNL A   1      43.551  33.043  34.528  1.00  0.00     0.031 A 
ATOM     92  C   UNL A   1      45.856  32.682  35.164  1.00  0.00     0.131 A 
ATOM     93  C   UNL A   1      43.420  33.945  35.593  1.00  0.00     0.055 A 
ATOM     94  C   UNL A   1      45.716  33.560  36.238  1.00  0.00     0.041 A 
ATOM     95  F   UNL A   1      47.053  32.103  34.976  1.00  0.00    -0.206 F 
ATOM     96  C   UNL A   1      44.495  34.202  36.452  1.00  0.00     0.022 A 
BRANCH  93  97
ATOM     97  S   UNL A   1      41.843  34.824  35.807  1.00  0.00     0.124 S 
ATOM     98  O   UNL A   1      41.824  35.720  34.655  1.00  0.00    -0.237 OA
ATOM     99  O   UNL A   1      40.873  33.733  35.780  1.00  0.00    -0.237 OA
ATOM    100  O   UNL A   1      41.993  35.486  37.102  1.00  0.00    -0.744 OA
ENDBRANCH  93  97
ENDBRANCH  67  90
ENDBRANCH  41  42
ENDBRANCH  34  36
ENDBRANCH  33  34
ENDBRANCH  32  33
ENDBRANCH  31  32
ENDBRANCH  30  31
ENDBRANCH  29  30
ENDBRANCH   1  29
TORSDOF 25
ENDMDL
MODEL 2
REMARK VINA RESULT:      -7.3      5.419     10.851
REMARK SMILES C/C(=N/OCc1ccccc1Nc1c(Cl)cccc1Cl)C(=O)OCCOCCOCCOC(=O)c1ccc(-c2c3nc(c(-c4cc(S(=O)(=O)[O-])ccc4F)c4ccc([nH]4)c(-c4cc(S(=O)(=O)[O-])ccc4F)c4nc(c(-c5cc(S(=O)(=O)[O-])ccc5F)c5ccc2[nH]5)C=C4)C=C3)cc1
REMARK SMILES IDX 27 1 26 2 25 3 24 4 23 5 21 6 22 7 2 8 1 9 3 10 4 11 5 12
REMARK SMILES IDX 6 13 7 14 11 15 8 16 10 17 9 18 12 19 13 21 14 22 19 23
REMARK SMILES IDX 15 24 16 25 18 26 20 27 17 28 28 29 29 30 30 31 31 32 32 33
REMARK SMILES IDX 33 34 34 35 35 36 36 37 97 38 37 39 96 40 38 41 39 42 40 43
REMARK SMILES IDX 90 44 41 45 95 46 89 47 91 48 42 49 94 50 88 51 87 52 43 54
REMARK SMILES IDX 75 55 55 56 74 57 56 58 59 59 73 60 92 61 57 62 58 63 72 65
REMARK SMILES IDX 93 66 60 67 44 68 45 69 53 70 46 71 52 72 54 73 51 74 47 75
REMARK SMILES IDX 48 76 49 77 50 78 76 79 77 80 85 81 78 82 84 83 86 84 83 85
REMARK SMILES IDX 79 86 80 87 81 88 82 89 61 90 62 91 70 92 63 93 69 94 71 95
REMARK SMILES IDX 68 96 64 97 65 98 66 99 67 100
REMARK H PARENT 12 20 91 53 59 64
REMARK Flexibility Score: inf
ROOT
ATOM      1  C   UNL A   1      37.457  29.462  28.178  1.00  0.00     0.188 C 
ENDROOT
BRANCH   1   2
ATOM      2  O   UNL A   1      36.352  30.203  27.640  1.00  0.00    -0.376 OA
BRANCH   2   3
ATOM      3  C   UNL A   1      35.064  29.575  27.674  1.00  0.00     0.202 C 
BRANCH   3   4
ATOM      4  C   UNL A   1      33.999  30.337  26.884  1.00  0.00     0.261 C 
BRANCH   4   5
ATOM      5  O   UNL A   1      33.648  29.535  25.753  1.00  0.00    -0.459 OA
BRANCH   5   6
ATOM      6  C   UNL A   1      32.364  29.130  25.688  1.00  0.00     0.355 C 
ATOM      7  O   UNL A   1      31.503  29.437  24.896  1.00  0.00    -0.245 OA
BRANCH   6   8
ATOM      8  C   UNL A   1      32.245  28.003  26.685  1.00  0.00     0.161 C 
ATOM      9  C   UNL A   1      31.273  28.250  27.797  1.00  0.00     0.079 C 
ATOM     10  N   UNL A   1      32.824  26.845  26.559  1.00  0.00    -0.084 NA
BRANCH  10  11
ATOM     11  O   UNL A   1      33.668  26.804  25.433  1.00  0.00    -0.390 OA
BRANCH  11  12
ATOM     12  C   UNL A   1      34.334  25.531  25.400  1.00  0.00     0.302 C 
BRANCH  12  13
ATOM     13  C   UNL A   1      33.935  24.795  24.141  1.00  0.00     0.016 A 
ATOM     14  C   UNL A   1      33.462  25.566  23.058  1.00  0.00     0.009 A 
ATOM     15  C   UNL A   1      33.980  23.392  24.022  1.00  0.00     0.045 A 
ATOM     16  C   UNL A   1      33.016  24.968  21.883  1.00  0.00     0.001 A 
ATOM     17  C   UNL A   1      33.524  22.809  22.825  1.00  0.00     0.026 A 
ATOM     18  C   UNL A   1      33.041  23.586  21.769  1.00  0.00     0.002 A 
BRANCH  15  19
ATOM     19  N   UNL A   1      34.492  22.588  25.063  1.00  0.00    -0.353 N 
ATOM     20  H   UNL A   1      33.992  22.639  25.910  1.00  0.00     0.167 HD
BRANCH  19  21
ATOM     21  C   UNL A   1      35.614  21.720  25.086  1.00  0.00     0.076 A 
ATOM     22  C   UNL A   1      35.410  20.330  24.938  1.00  0.00     0.066 A 
ATOM     23  C   UNL A   1      36.951  22.161  25.186  1.00  0.00     0.066 A 
ATOM     24  Cl  UNL A   1      33.807  19.676  24.847  1.00  0.00    -0.082 Cl
ATOM     25  C   UNL A   1      36.481  19.432  24.856  1.00  0.00     0.023 A 
ATOM     26  C   UNL A   1      38.023  21.260  25.097  1.00  0.00     0.023 A 
ATOM     27  Cl  UNL A   1      37.371  23.805  25.540  1.00  0.00    -0.082 Cl
ATOM     28  C   UNL A   1      37.791  19.899  24.923  1.00  0.00     0.003 A 
ENDBRANCH  19  21
ENDBRANCH  15  19
ENDBRANCH  12  13
ENDBRANCH  11  12
ENDBRANCH  10  11
ENDBRANCH   6   8
ENDBRANCH   5   6
ENDBRANCH   4   5
ENDBRANCH   3   4
ENDBRANCH   2   3
ENDBRANCH   1   2
BRANCH   1  29
ATOM     29  C   UNL A   1      38.091  30.055  29.442  1.00  0.00     0.188 C 
BRANCH  29  30
ATOM     30  O   UNL A   1      37.395  31.237  29.853  1.00  0.00    -0.376 OA
BRANCH  30  31
ATOM     31  C   UNL A   1      36.454  31.035  30.913  1.00  0.00     0.202 C 
BRANCH  31  32
ATOM     32  C   UNL A   1      36.838  31.824  32.171  1.00  0.00     0.261 C 
BRANCH  32  33
ATOM     33  O   UNL A   1      38.101  32.496  32.032  1.00  0.00    -0.460 OA
BRANCH  33  34
ATOM     34  C   UNL A   1      38.017  33.790  31.642  1.00  0.00     0.338 C 
ATOM     35  O   UNL A   1      37.058  34.527  31.801  1.00  0.00    -0.246 OA
BRANCH  34  36
ATOM     36  C   UNL A   1      39.307  34.234  31.070  1.00  0.00     0.060 A 
ATOM     37  C   UNL A   1      39.373  34.423  29.683  1.00  0.00     0.016 A 
ATOM     38  C   UNL A   1      40.449  34.401  31.863  1.00  0.00     0.016 A 
ATOM     39  C   UNL A   1      40.589  34.740  29.082  1.00  0.00     0.010 A 
ATOM     40  C   UNL A   1      41.671  34.705  31.259  1.00  0.00     0.010 A 
ATOM     41  C   UNL A   1      41.748  34.844  29.864  1.00  0.00    -0.014 A 
BRANCH  41  42
ATOM     42  C   UNL A   1      43.064  34.929  29.196  1.00  0.00     0.031 A 
ATOM     43  C   UNL A   1      43.515  36.260  28.664  1.00  0.00     0.074 A 
ATOM     44  C   UNL A   1      43.834  33.839  29.057  1.00  0.00     0.049 A 
ATOM     45  N   UNL A   1      44.658  36.594  28.126  1.00  0.00    -0.248 NA
ATOM     46  C   UNL A   1      42.540  37.360  28.748  1.00  0.00     0.031 C 
ATOM     47  C   UNL A   1      43.483  32.489  29.498  1.00  0.00     0.029 A 
ATOM     48  N   UNL A   1      45.072  33.697  28.489  1.00  0.00    -0.354 N 
ATOM     49  C   UNL A   1      44.559  37.950  27.846  1.00  0.00     0.074 A 
ATOM     50  C   UNL A   1      43.224  38.366  28.228  1.00  0.00     0.031 C 
ATOM     51  C   UNL A   1      44.476  31.648  29.157  1.00  0.00     0.029 A 
ATOM     52  C   UNL A   1      45.533  32.404  28.489  1.00  0.00     0.049 A 
ATOM     53  H   UNL A   1      45.583  34.451  28.115  1.00  0.00     0.167 HD
ATOM     54  C   UNL A   1      45.497  38.782  27.329  1.00  0.00     0.034 A 
ATOM     55  C   UNL A   1      46.680  31.896  28.004  1.00  0.00     0.034 A 
ATOM     56  C   UNL A   1      46.796  38.350  26.889  1.00  0.00     0.049 A 
ATOM     57  C   UNL A   1      47.695  32.825  27.395  1.00  0.00     0.074 A 
ATOM     58  C   UNL A   1      47.828  39.099  26.350  1.00  0.00     0.029 A 
ATOM     59  N   UNL A   1      47.233  37.032  26.912  1.00  0.00    -0.354 N 
ATOM     60  N   UNL A   1      47.616  34.121  27.201  1.00  0.00    -0.248 NA
ATOM     61  C   UNL A   1      48.962  32.222  26.961  1.00  0.00     0.031 C 
ATOM     62  C   UNL A   1      48.873  38.227  26.015  1.00  0.00     0.029 A 
ATOM     63  C   UNL A   1      48.507  36.941  26.378  1.00  0.00     0.049 A 
ATOM     64  H   UNL A   1      46.712  36.272  27.258  1.00  0.00     0.167 HD
ATOM     65  C   UNL A   1      48.831  34.491  26.635  1.00  0.00     0.074 A 
ATOM     66  C   UNL A   1      49.623  33.281  26.519  1.00  0.00     0.031 C 
ATOM     67  C   UNL A   1      49.262  35.720  26.255  1.00  0.00     0.034 A 
BRANCH  54  68
ATOM     68  C   UNL A   1      45.106  40.227  27.197  1.00  0.00     0.023 A 
ATOM     69  C   UNL A   1      44.592  40.725  25.986  1.00  0.00     0.031 A 
ATOM     70  C   UNL A   1      45.325  41.129  28.251  1.00  0.00     0.131 A 
ATOM     71  C   UNL A   1      44.375  42.102  25.836  1.00  0.00     0.055 A 
ATOM     72  C   UNL A   1      45.056  42.492  28.112  1.00  0.00     0.041 A 
ATOM     73  F   UNL A   1      45.838  40.706  29.417  1.00  0.00    -0.206 F 
ATOM     74  C   UNL A   1      44.591  42.987  26.895  1.00  0.00     0.022 A 
BRANCH  71  75
ATOM     75  S   UNL A   1      43.921  42.733  24.195  1.00  0.00     0.124 S 
ATOM     76  O   UNL A   1      45.085  42.352  23.398  1.00  0.00    -0.237 OA
ATOM     77  O   UNL A   1      42.687  42.009  23.909  1.00  0.00    -0.237 OA
ATOM     78  O   UNL A   1      43.766  44.169  24.412  1.00  0.00    -0.744 OA
ENDBRANCH  71  75
ENDBRANCH  54  68
BRANCH  55  79
ATOM     79  C   UNL A   1      46.931  30.435  28.056  1.00  0.00     0.023 A 
ATOM     80  C   UNL A   1      46.444  29.578  27.057  1.00  0.00     0.031 A 
ATOM     81  C   UNL A   1      47.637  29.879  29.136  1.00  0.00     0.131 A 
ATOM     82  C   UNL A   1      46.646  28.194  27.168  1.00  0.00     0.055 A 
ATOM     83  C   UNL A   1      47.852  28.504  29.235  1.00  0.00     0.041 A 
ATOM     84  F   UNL A   1      48.129  30.667  30.105  1.00  0.00    -0.206 F 
ATOM     85  C   UNL A   1      47.348  27.654  28.251  1.00  0.00     0.022 A 
BRANCH  82  86
ATOM     86  S   UNL A   1      45.949  27.107  25.888  1.00  0.00     0.124 S 
ATOM     87  O   UNL A   1      47.143  26.464  25.349  1.00  0.00    -0.237 OA
ATOM     88  O   UNL A   1      45.060  26.250  26.668  1.00  0.00    -0.237 OA
ATOM     89  O   UNL A   1      45.276  28.035  24.982  1.00  0.00    -0.744 OA
ENDBRANCH  82  86
ENDBRANCH  55  79
BRANCH  67  90
ATOM     90  C   UNL A   1      50.657  35.798  25.703  1.00  0.00     0.023 A 
ATOM     91  C   UNL A   1      51.778  35.565  26.518  1.00  0.00     0.031 A 
ATOM     92  C   UNL A   1      50.861  36.128  24.353  1.00  0.00     0.131 A 
ATOM     93  C   UNL A   1      53.067  35.695  25.982  1.00  0.00     0.055 A 
ATOM     94  C   UNL A   1      52.143  36.232  23.816  1.00  0.00     0.041 A 
ATOM     95  F   UNL A   1      49.816  36.363  23.541  1.00  0.00    -0.206 F 
ATOM     96  C   UNL A   1      53.254  36.023  24.634  1.00  0.00     0.022 A 
BRANCH  93  97
ATOM     97  S   UNL A   1      54.499  35.489  27.084  1.00  0.00     0.124 S 
ATOM     98  O   UNL A   1      54.424  34.074  27.435  1.00  0.00    -0.237 OA
ATOM     99  O   UNL A   1      55.613  35.872  26.222  1.00  0.00    -0.237 OA
ATOM    100  O   UNL A   1      54.221  36.413  28.183  1.00  0.00    -0.744 OA
ENDBRANCH  93  97
ENDBRANCH  67  90
ENDBRANCH  41  42
ENDBRANCH  34  36
ENDBRANCH  33  34
ENDBRANCH  32  33
ENDBRANCH  31  32
ENDBRANCH  30  31
ENDBRANCH  29  30
ENDBRANCH   1  29
TORSDOF 25
ENDMDL
MODEL 3
REMARK VINA RESULT:      -7.2      6.505     13.665
REMARK SMILES C/C(=N/OCc1ccccc1Nc1c(Cl)cccc1Cl)C(=O)OCCOCCOCCOC(=O)c1ccc(-c2c3nc(c(-c4cc(S(=O)(=O)[O-])ccc4F)c4ccc([nH]4)c(-c4cc(S(=O)(=O)[O-])ccc4F)c4nc(c(-c5cc(S(=O)(=O)[O-])ccc5F)c5ccc2[nH]5)C=C4)C=C3)cc1
REMARK SMILES IDX 27 1 26 2 25 3 24 4 23 5 21 6 22 7 2 8 1 9 3 10 4 11 5 12
REMARK SMILES IDX 6 13 7 14 11 15 8 16 10 17 9 18 12 19 13 21 14 22 19 23
REMARK SMILES IDX 15 24 16 25 18 26 20 27 17 28 28 29 29 30 30 31 31 32 32 33
REMARK SMILES IDX 33 34 34 35 35 36 36 37 97 38 37 39 96 40 38 41 39 42 40 43
REMARK SMILES IDX 90 44 41 45 95 46 89 47 91 48 42 49 94 50 88 51 87 52 43 54
REMARK SMILES IDX 75 55 55 56 74 57 56 58 59 59 73 60 92 61 57 62 58 63 72 65
REMARK SMILES IDX 93 66 60 67 44 68 45 69 53 70 46 71 52 72 54 73 51 74 47 75
REMARK SMILES IDX 48 76 49 77 50 78 76 79 77 80 85 81 78 82 84 83 86 84 83 85
REMARK SMILES IDX 79 86 80 87 81 88 82 89 61 90 62 91 70 92 63 93 69 94 71 95
REMARK SMILES IDX 68 96 64 97 65 98 66 99 67 100
REMARK H PARENT 12 20 91 53 59 64
REMARK Flexibility Score: inf
ROOT
ATOM      1  C   UNL A   1      44.206  42.347  29.315  1.00  0.00     0.188 C 
ENDROOT
BRANCH   1   2
ATOM      2  O   UNL A   1      45.542  41.975  28.949  1.00  0.00    -0.376 OA
BRANCH   2   3
ATOM      3  C   UNL A   1      46.200  42.781  27.964  1.00  0.00     0.202 C 
BRANCH   3   4
ATOM      4  C   UNL A   1      46.806  41.965  26.822  1.00  0.00     0.261 C 
BRANCH   4   5
ATOM      5  O   UNL A   1      46.377  40.611  26.986  1.00  0.00    -0.459 OA
BRANCH   5   6
ATOM      6  C   UNL A   1      45.717  40.067  25.945  1.00  0.00     0.355 C 
ATOM      7  O   UNL A   1      46.148  39.665  24.889  1.00  0.00    -0.245 OA
BRANCH   6   8
ATOM      8  C   UNL A   1      44.310  39.828  26.438  1.00  0.00     0.161 C 
ATOM      9  C   UNL A   1      44.205  38.891  27.602  1.00  0.00     0.079 C 
ATOM     10  N   UNL A   1      43.259  40.457  26.001  1.00  0.00    -0.084 NA
BRANCH  10  11
ATOM     11  O   UNL A   1      43.574  41.315  24.930  1.00  0.00    -0.390 OA
BRANCH  11  12
ATOM     12  C   UNL A   1      42.360  41.909  24.440  1.00  0.00     0.302 C 
BRANCH  12  13
ATOM     13  C   UNL A   1      42.617  42.509  23.076  1.00  0.00     0.016 A 
ATOM     14  C   UNL A   1      41.506  42.690  22.225  1.00  0.00     0.009 A 
ATOM     15  C   UNL A   1      43.903  42.856  22.617  1.00  0.00     0.045 A 
ATOM     16  C   UNL A   1      41.658  43.180  20.931  1.00  0.00     0.001 A 
ATOM     17  C   UNL A   1      44.032  43.348  21.306  1.00  0.00     0.026 A 
ATOM     18  C   UNL A   1      42.925  43.504  20.468  1.00  0.00     0.002 A 
BRANCH  15  19
ATOM     19  N   UNL A   1      45.032  42.737  23.456  1.00  0.00    -0.353 N 
ATOM     20  H   UNL A   1      44.937  42.087  24.189  1.00  0.00     0.167 HD
BRANCH  19  21
ATOM     21  C   UNL A   1      46.283  43.405  23.411  1.00  0.00     0.076 A 
ATOM     22  C   UNL A   1      47.309  42.889  22.588  1.00  0.00     0.066 A 
ATOM     23  C   UNL A   1      46.560  44.606  24.097  1.00  0.00     0.066 A 
ATOM     24  Cl  UNL A   1      47.090  41.398  21.731  1.00  0.00    -0.082 Cl
ATOM     25  C   UNL A   1      48.531  43.554  22.428  1.00  0.00     0.023 A 
ATOM     26  C   UNL A   1      47.783  45.275  23.930  1.00  0.00     0.023 A 
ATOM     27  Cl  UNL A   1      45.483  45.283  25.275  1.00  0.00    -0.082 Cl
ATOM     28  C   UNL A   1      48.764  44.756  23.090  1.00  0.00     0.003 A 
ENDBRANCH  19  21
ENDBRANCH  15  19
ENDBRANCH  12  13
ENDBRANCH  11  12
ENDBRANCH  10  11
ENDBRANCH   6   8
ENDBRANCH   5   6
ENDBRANCH   4   5
ENDBRANCH   3   4
ENDBRANCH   2   3
ENDBRANCH   1   2
BRANCH   1  29
ATOM     29  C   UNL A   1      43.938  42.438  30.822  1.00  0.00     0.188 C 
BRANCH  29  30
ATOM     30  O   UNL A   1      44.464  43.657  31.358  1.00  0.00    -0.376 OA
BRANCH  30  31
ATOM     31  C   UNL A   1      45.747  43.529  31.980  1.00  0.00     0.202 C 
BRANCH  31  32
ATOM     32  C   UNL A   1      45.726  44.021  33.433  1.00  0.00     0.261 C 
BRANCH  32  33
ATOM     33  O   UNL A   1      46.158  43.010  34.359  1.00  0.00    -0.460 OA
BRANCH  33  34
ATOM     34  C   UNL A   1      45.182  42.519  35.159  1.00  0.00     0.338 C 
ATOM     35  O   UNL A   1      44.638  43.112  36.077  1.00  0.00    -0.246 OA
BRANCH  34  36
ATOM     36  C   UNL A   1      44.781  41.169  34.704  1.00  0.00     0.060 A 
ATOM     37  C   UNL A   1      45.649  40.105  34.981  1.00  0.00     0.016 A 
ATOM     38  C   UNL A   1      43.612  40.956  33.962  1.00  0.00     0.016 A 
ATOM     39  C   UNL A   1      45.370  38.833  34.486  1.00  0.00     0.010 A 
ATOM     40  C   UNL A   1      43.340  39.684  33.453  1.00  0.00     0.010 A 
ATOM     41  C   UNL A   1      44.235  38.628  33.688  1.00  0.00    -0.014 A 
BRANCH  41  42
ATOM     42  C   UNL A   1      44.083  37.349  32.964  1.00  0.00     0.031 A 
ATOM     43  C   UNL A   1      44.938  37.102  31.753  1.00  0.00     0.074 A 
ATOM     44  C   UNL A   1      43.191  36.432  33.371  1.00  0.00     0.049 A 
ATOM     45  N   UNL A   1      45.044  36.027  31.018  1.00  0.00    -0.248 NA
ATOM     46  C   UNL A   1      45.784  38.223  31.313  1.00  0.00     0.031 C 
ATOM     47  C   UNL A   1      42.282  36.578  34.507  1.00  0.00     0.029 A 
ATOM     48  N   UNL A   1      42.898  35.196  32.861  1.00  0.00    -0.354 N 
ATOM     49  C   UNL A   1      45.998  36.324  30.054  1.00  0.00     0.074 A 
ATOM     50  C   UNL A   1      46.403  37.699  30.268  1.00  0.00     0.031 C 
ATOM     51  C   UNL A   1      41.509  35.481  34.590  1.00  0.00     0.029 A 
ATOM     52  C   UNL A   1      41.882  34.554  33.524  1.00  0.00     0.049 A 
ATOM     53  H   UNL A   1      43.371  34.804  32.091  1.00  0.00     0.167 HD
ATOM     54  C   UNL A   1      46.503  35.524  29.083  1.00  0.00     0.034 A 
ATOM     55  C   UNL A   1      41.322  33.353  33.291  1.00  0.00     0.034 A 
ATOM     56  C   UNL A   1      46.048  34.183  28.832  1.00  0.00     0.049 A 
ATOM     57  C   UNL A   1      41.865  32.491  32.184  1.00  0.00     0.074 A 
ATOM     58  C   UNL A   1      46.483  33.278  27.879  1.00  0.00     0.029 A 
ATOM     59  N   UNL A   1      45.021  33.561  29.530  1.00  0.00    -0.354 N 
ATOM     60  N   UNL A   1      42.819  32.759  31.322  1.00  0.00    -0.248 NA
ATOM     61  C   UNL A   1      41.268  31.158  32.034  1.00  0.00     0.031 C 
ATOM     62  C   UNL A   1      45.695  32.124  27.979  1.00  0.00     0.029 A 
ATOM     63  C   UNL A   1      44.792  32.296  29.017  1.00  0.00     0.049 A 
ATOM     64  H   UNL A   1      44.526  33.962  30.281  1.00  0.00     0.167 HD
ATOM     65  C   UNL A   1      42.947  31.619  30.537  1.00  0.00     0.074 A 
ATOM     66  C   UNL A   1      41.972  30.663  31.027  1.00  0.00     0.031 C 
ATOM     67  C   UNL A   1      43.800  31.375  29.511  1.00  0.00     0.034 A 
BRANCH  54  68
ATOM     68  C   UNL A   1      47.580  36.120  28.221  1.00  0.00     0.023 A 
ATOM     69  C   UNL A   1      48.903  36.225  28.691  1.00  0.00     0.031 A 
ATOM     70  C   UNL A   1      47.274  36.663  26.963  1.00  0.00     0.131 A 
ATOM     71  C   UNL A   1      49.858  36.918  27.935  1.00  0.00     0.055 A 
ATOM     72  C   UNL A   1      48.244  37.305  26.190  1.00  0.00     0.041 A 
ATOM     73  F   UNL A   1      46.022  36.610  26.482  1.00  0.00    -0.206 F 
ATOM     74  C   UNL A   1      49.541  37.447  26.681  1.00  0.00     0.022 A 
BRANCH  71  75
ATOM     75  S   UNL A   1      51.490  37.222  28.669  1.00  0.00     0.124 S 
ATOM     76  O   UNL A   1      51.648  36.056  29.534  1.00  0.00    -0.237 OA
ATOM     77  O   UNL A   1      52.359  37.271  27.499  1.00  0.00    -0.237 OA
ATOM     78  O   UNL A   1      51.317  38.492  29.372  1.00  0.00    -0.744 OA
ENDBRANCH  71  75
ENDBRANCH  54  68
BRANCH  55  79
ATOM     79  C   UNL A   1      40.172  32.894  34.108  1.00  0.00     0.023 A 
ATOM     80  C   UNL A   1      38.876  33.379  33.875  1.00  0.00     0.031 A 
ATOM     81  C   UNL A   1      40.373  31.985  35.160  1.00  0.00     0.131 A 
ATOM     82  C   UNL A   1      37.821  32.971  34.706  1.00  0.00     0.055 A 
ATOM     83  C   UNL A   1      39.318  31.568  35.973  1.00  0.00     0.041 A 
ATOM     84  F   UNL A   1      41.596  31.490  35.407  1.00  0.00    -0.206 F 
ATOM     85  C   UNL A   1      38.036  32.068  35.752  1.00  0.00     0.022 A 
BRANCH  82  86
ATOM     86  S   UNL A   1      36.165  33.665  34.415  1.00  0.00     0.124 S 
ATOM     87  O   UNL A   1      35.645  33.796  35.772  1.00  0.00    -0.237 OA
ATOM     88  O   UNL A   1      36.476  34.915  33.728  1.00  0.00    -0.237 OA
ATOM     89  O   UNL A   1      35.511  32.652  33.590  1.00  0.00    -0.744 OA
ENDBRANCH  82  86
ENDBRANCH  55  79
BRANCH  67  90
ATOM     90  C   UNL A   1      43.715  30.014  28.879  1.00  0.00     0.023 A 
ATOM     91  C   UNL A   1      42.835  29.758  27.813  1.00  0.00     0.031 A 
ATOM     92  C   UNL A   1      44.511  28.964  29.365  1.00  0.00     0.131 A 
ATOM     93  C   UNL A   1      42.747  28.465  27.280  1.00  0.00     0.055 A 
ATOM     94  C   UNL A   1      44.440  27.685  28.817  1.00  0.00     0.041 A 
ATOM     95  F   UNL A   1      45.362  29.166  30.385  1.00  0.00    -0.206 F 
ATOM     96  C   UNL A   1      43.548  27.428  27.774  1.00  0.00     0.022 A 
BRANCH  93  97
ATOM     97  S   UNL A   1      41.526  28.139  25.972  1.00  0.00     0.124 S 
ATOM     98  O   UNL A   1      42.281  28.429  24.758  1.00  0.00    -0.237 OA
ATOM     99  O   UNL A   1      41.199  26.733  26.195  1.00  0.00    -0.237 OA
ATOM    100  O   UNL A   1      40.447  29.079  26.268  1.00  0.00    -0.744 OA
ENDBRANCH  93  97
ENDBRANCH  67  90
ENDBRANCH  41  42
ENDBRANCH  34  36
ENDBRANCH  33  34
ENDBRANCH  32  33
ENDBRANCH  31  32
ENDBRANCH  30  31
ENDBRANCH  29  30
ENDBRANCH   1  29
TORSDOF 25
ENDMDL
