MODEL 1
REMARK VINA RESULT:      -8.9      0.000      0.000
REMARK SMILES C/C(=N\Nc1nc(-c2ccc(Cl)cc2)cs1)c1nnn(-c2ccc(C(=O)OCCOCCOCCOC(=O)c3ccc(-c4c5nc(c(-c6cc(S(=O)(=O)[O-])ccc6F)c6ccc([nH]6)c(-c6cc(S(=O)(=O)[O-])ccc6F)c6nc(c(-c7cc(S(=O)(=O)[O-])ccc7F)c7ccc4[nH]7)C=C6)C=C5)cc3)cc2)c1C
REMARK SMILES IDX 31 1 30 2 29 3 28 4 27 5 25 6 26 7 24 8 21 9 22 10 103 11
REMARK SMILES IDX 23 12 102 13 20 14 17 15 18 16 104 17 19 18 105 19 2 20 1 21
REMARK SMILES IDX 3 22 4 23 5 25 6 26 16 27 7 28 15 29 8 30 9 31 14 32 10 33
REMARK SMILES IDX 13 34 11 35 12 36 32 37 33 38 34 39 35 40 36 41 37 42 38 43
REMARK SMILES IDX 39 44 40 45 101 46 41 47 100 48 42 49 43 50 44 51 94 52
REMARK SMILES IDX 45 53 99 54 93 55 95 56 46 57 98 58 92 59 91 60 47 62 79 63
REMARK SMILES IDX 59 64 78 65 60 66 63 67 77 68 96 69 61 70 62 71 76 73 97 74
REMARK SMILES IDX 64 75 48 76 49 77 57 78 50 79 56 80 58 81 55 82 51 83 52 84
REMARK SMILES IDX 53 85 54 86 80 87 81 88 89 89 82 90 88 91 90 92 87 93 83 94
REMARK SMILES IDX 84 95 85 96 86 97 65 98 66 99 74 100 67 101 73 102 75 103
REMARK SMILES IDX 72 104 68 105 69 106 70 107 71 108
REMARK H PARENT 4 24 95 61 63 72
REMARK Flexibility Score: inf
ROOT
ATOM      1  C   UNL A   1      49.602  32.082  27.664  1.00  0.00     0.188 C 
ENDROOT
BRANCH   1   2
ATOM      2  O   UNL A   1      48.301  31.582  27.952  1.00  0.00    -0.376 OA
BRANCH   2   3
ATOM      3  C   UNL A   1      47.361  31.388  26.904  1.00  0.00     0.202 C 
BRANCH   3   4
ATOM      4  C   UNL A   1      46.056  32.206  26.874  1.00  0.00     0.261 C 
BRANCH   4   5
ATOM      5  O   UNL A   1      46.015  33.261  25.902  1.00  0.00    -0.460 OA
BRANCH   5   6
ATOM      6  C   UNL A   1      44.795  33.650  25.481  1.00  0.00     0.338 C 
ATOM      7  O   UNL A   1      44.000  32.990  24.816  1.00  0.00    -0.246 OA
BRANCH   6   8
ATOM      8  C   UNL A   1      44.455  34.973  26.050  1.00  0.00     0.060 A 
ATOM      9  C   UNL A   1      43.720  37.513  26.898  1.00  0.00     0.067 A 
ATOM     10  C   UNL A   1      42.721  36.564  26.662  1.00  0.00     0.029 A 
ATOM     11  C   UNL A   1      45.075  37.155  26.866  1.00  0.00     0.029 A 
ATOM     12  C   UNL A   1      43.098  35.298  26.214  1.00  0.00     0.018 A 
ATOM     13  C   UNL A   1      45.446  35.882  26.438  1.00  0.00     0.018 A 
BRANCH   9  14
ATOM     14  N   UNL A   1      43.370  38.882  26.865  1.00  0.00    -0.217 N 
ATOM     15  C   UNL A   1      43.361  40.965  26.213  1.00  0.00     0.132 A 
ATOM     16  N   UNL A   1      42.087  40.613  26.557  1.00  0.00    -0.128 NA
ATOM     17  C   UNL A   1      44.210  39.890  26.417  1.00  0.00     0.071 A 
ATOM     18  N   UNL A   1      42.091  39.320  26.873  1.00  0.00    -0.061 NA
ATOM     19  C   UNL A   1      45.630  39.699  26.015  1.00  0.00     0.069 C 
BRANCH  15  20
ATOM     20  C   UNL A   1      43.727  42.185  25.510  1.00  0.00     0.087 C 
ATOM     21  C   UNL A   1      44.561  43.148  26.324  1.00  0.00     0.071 C 
ATOM     22  N   UNL A   1      43.213  42.345  24.322  1.00  0.00    -0.176 NA
BRANCH  22  23
ATOM     23  N   UNL A   1      43.306  43.514  23.605  1.00  0.00    -0.252 N 
ATOM     24  H   UNL A   1      42.582  44.159  23.776  1.00  0.00     0.193 HD
BRANCH  23  25
ATOM     25  C   UNL A   1      44.230  43.929  22.702  1.00  0.00     0.203 A 
ATOM     26  N   UNL A   1      44.203  45.055  22.032  1.00  0.00    -0.219 NA
ATOM     27  S   UNL A   1      45.542  42.891  22.259  1.00  0.00    -0.103 S 
ATOM     28  C   UNL A   1      45.023  44.981  20.925  1.00  0.00     0.084 A 
ATOM     29  C   UNL A   1      45.832  43.868  20.874  1.00  0.00     0.097 A 
BRANCH  28  30
ATOM     30  C   UNL A   1      44.907  45.990  19.890  1.00  0.00     0.001 A 
ATOM     31  C   UNL A   1      44.388  45.631  18.640  1.00  0.00     0.012 A 
ATOM     32  C   UNL A   1      45.437  47.275  20.073  1.00  0.00     0.012 A 
ATOM     33  C   UNL A   1      44.378  46.549  17.588  1.00  0.00     0.021 A 
ATOM     34  C   UNL A   1      45.438  48.190  19.016  1.00  0.00     0.021 A 
ATOM     35  C   UNL A   1      44.905  47.825  17.780  1.00  0.00     0.041 A 
ATOM     36  Cl  UNL A   1      44.918  48.949  16.478  1.00  0.00    -0.084 Cl
ENDBRANCH  28  30
ENDBRANCH  23  25
ENDBRANCH  22  23
ENDBRANCH  15  20
ENDBRANCH   9  14
ENDBRANCH   6   8
ENDBRANCH   5   6
ENDBRANCH   4   5
ENDBRANCH   3   4
ENDBRANCH   2   3
ENDBRANCH   1   2
BRANCH   1  37
ATOM     37  C   UNL A   1      49.799  33.439  26.945  1.00  0.00     0.188 C 
BRANCH  37  38
ATOM     38  O   UNL A   1      49.780  34.570  27.795  1.00  0.00    -0.376 OA
BRANCH  38  39
ATOM     39  C   UNL A   1      48.539  35.078  28.264  1.00  0.00     0.202 C 
BRANCH  39  40
ATOM     40  C   UNL A   1      48.488  36.281  29.204  1.00  0.00     0.261 C 
BRANCH  40  41
ATOM     41  O   UNL A   1      47.238  36.505  29.823  1.00  0.00    -0.460 OA
BRANCH  41  42
ATOM     42  C   UNL A   1      46.938  35.648  30.811  1.00  0.00     0.338 C 
ATOM     43  O   UNL A   1      47.740  35.074  31.550  1.00  0.00    -0.246 OA
BRANCH  42  44
ATOM     44  C   UNL A   1      45.492  35.450  30.831  1.00  0.00     0.060 A 
ATOM     45  C   UNL A   1      44.931  35.126  32.065  1.00  0.00     0.016 A 
ATOM     46  C   UNL A   1      44.840  35.201  29.612  1.00  0.00     0.016 A 
ATOM     47  C   UNL A   1      43.869  34.260  32.066  1.00  0.00     0.010 A 
ATOM     48  C   UNL A   1      43.799  34.314  29.615  1.00  0.00     0.010 A 
ATOM     49  C   UNL A   1      43.412  33.774  30.837  1.00  0.00    -0.014 A 
BRANCH  49  50
ATOM     50  C   UNL A   1      42.490  32.668  30.863  1.00  0.00     0.031 A 
ATOM     51  C   UNL A   1      41.130  33.070  31.240  1.00  0.00     0.074 A 
ATOM     52  C   UNL A   1      42.853  31.426  30.500  1.00  0.00     0.049 A 
ATOM     53  N   UNL A   1      40.508  32.808  32.338  1.00  0.00    -0.248 NA
ATOM     54  C   UNL A   1      40.458  34.055  30.379  1.00  0.00     0.031 C 
ATOM     55  C   UNL A   1      44.098  30.996  29.859  1.00  0.00     0.029 A 
ATOM     56  N   UNL A   1      42.110  30.290  30.528  1.00  0.00    -0.354 N 
ATOM     57  C   UNL A   1      39.259  33.391  32.189  1.00  0.00     0.074 A 
ATOM     58  C   UNL A   1      39.379  34.329  31.108  1.00  0.00     0.031 C 
ATOM     59  C   UNL A   1      43.928  29.752  29.357  1.00  0.00     0.029 A 
ATOM     60  C   UNL A   1      42.615  29.261  29.747  1.00  0.00     0.049 A 
ATOM     61  H   UNL A   1      41.285  30.203  31.059  1.00  0.00     0.167 HD
ATOM     62  C   UNL A   1      38.162  32.834  32.765  1.00  0.00     0.034 A 
ATOM     63  C   UNL A   1      41.950  28.138  29.372  1.00  0.00     0.034 A 
ATOM     64  C   UNL A   1      38.534  31.955  33.854  1.00  0.00     0.049 A 
ATOM     65  C   UNL A   1      40.838  27.945  30.339  1.00  0.00     0.074 A 
ATOM     66  C   UNL A   1      39.269  32.122  35.015  1.00  0.00     0.029 A 
ATOM     67  N   UNL A   1      38.479  30.592  33.650  1.00  0.00    -0.354 N 
ATOM     68  N   UNL A   1      41.026  27.676  31.603  1.00  0.00    -0.248 NA
ATOM     69  C   UNL A   1      39.538  28.524  30.025  1.00  0.00     0.031 C 
ATOM     70  C   UNL A   1      40.017  30.916  35.160  1.00  0.00     0.029 A 
ATOM     71  C   UNL A   1      39.652  30.053  34.124  1.00  0.00     0.049 A 
ATOM     72  H   UNL A   1      37.735  30.096  33.240  1.00  0.00     0.167 HD
ATOM     73  C   UNL A   1      40.083  28.435  32.280  1.00  0.00     0.074 A 
ATOM     74  C   UNL A   1      39.125  28.845  31.256  1.00  0.00     0.031 C 
ATOM     75  C   UNL A   1      40.318  28.899  33.545  1.00  0.00     0.034 A 
BRANCH  62  76
ATOM     76  C   UNL A   1      36.810  32.789  32.090  1.00  0.00     0.023 A 
ATOM     77  C   UNL A   1      36.653  31.860  31.049  1.00  0.00     0.031 A 
ATOM     78  C   UNL A   1      35.785  33.762  32.203  1.00  0.00     0.131 A 
ATOM     79  C   UNL A   1      35.600  31.981  30.129  1.00  0.00     0.055 A 
ATOM     80  C   UNL A   1      34.698  33.830  31.330  1.00  0.00     0.041 A 
ATOM     81  F   UNL A   1      35.811  34.758  33.095  1.00  0.00    -0.206 F 
ATOM     82  C   UNL A   1      34.619  32.960  30.263  1.00  0.00     0.022 A 
BRANCH  79  83
ATOM     83  S   UNL A   1      35.649  30.955  28.642  1.00  0.00     0.124 S 
ATOM     84  O   UNL A   1      36.211  29.713  29.163  1.00  0.00    -0.237 OA
ATOM     85  O   UNL A   1      34.242  30.917  28.262  1.00  0.00    -0.237 OA
ATOM     86  O   UNL A   1      36.521  31.706  27.743  1.00  0.00    -0.744 OA
ENDBRANCH  79  83
ENDBRANCH  62  76
BRANCH  63  87
ATOM     87  C   UNL A   1      42.027  27.473  28.042  1.00  0.00     0.023 A 
ATOM     88  C   UNL A   1      42.428  26.131  27.881  1.00  0.00     0.031 A 
ATOM     89  C   UNL A   1      41.479  28.111  26.903  1.00  0.00     0.131 A 
ATOM     90  C   UNL A   1      42.284  25.492  26.627  1.00  0.00     0.055 A 
ATOM     91  C   UNL A   1      41.351  27.479  25.666  1.00  0.00     0.041 A 
ATOM     92  F   UNL A   1      40.967  29.350  26.977  1.00  0.00    -0.206 F 
ATOM     93  C   UNL A   1      41.747  26.161  25.524  1.00  0.00     0.022 A 
BRANCH  90  94
ATOM     94  S   UNL A   1      42.711  23.732  26.436  1.00  0.00     0.124 S 
ATOM     95  O   UNL A   1      43.820  23.578  27.371  1.00  0.00    -0.237 OA
ATOM     96  O   UNL A   1      41.463  23.067  26.795  1.00  0.00    -0.237 OA
ATOM     97  O   UNL A   1      43.079  23.620  25.024  1.00  0.00    -0.744 OA
ENDBRANCH  90  94
ENDBRANCH  63  87
BRANCH  75  98
ATOM     98  C   UNL A   1      41.500  28.330  34.310  1.00  0.00     0.023 A 
ATOM     99  C   UNL A   1      41.526  27.052  34.914  1.00  0.00     0.031 A 
ATOM    100  C   UNL A   1      42.692  29.076  34.319  1.00  0.00     0.131 A 
ATOM    101  C   UNL A   1      42.710  26.575  35.512  1.00  0.00     0.055 A 
ATOM    102  C   UNL A   1      43.868  28.593  34.893  1.00  0.00     0.041 A 
ATOM    103  F   UNL A   1      42.743  30.285  33.734  1.00  0.00    -0.206 F 
ATOM    104  C   UNL A   1      43.879  27.342  35.497  1.00  0.00     0.022 A 
BRANCH 101 105
ATOM    105  S   UNL A   1      42.749  24.947  36.330  1.00  0.00     0.124 S 
ATOM    106  O   UNL A   1      43.703  24.186  35.534  1.00  0.00    -0.237 OA
ATOM    107  O   UNL A   1      43.173  25.286  37.687  1.00  0.00    -0.237 OA
ATOM    108  O   UNL A   1      41.364  24.482  36.228  1.00  0.00    -0.744 OA
ENDBRANCH 101 105
ENDBRANCH  75  98
ENDBRANCH  49  50
ENDBRANCH  42  44
ENDBRANCH  41  42
ENDBRANCH  40  41
ENDBRANCH  39  40
ENDBRANCH  38  39
ENDBRANCH  37  38
ENDBRANCH   1  37
TORSDOF 25
ENDMDL
MODEL 2
REMARK VINA RESULT:      -8.7      6.703     13.892
REMARK SMILES C/C(=N\Nc1nc(-c2ccc(Cl)cc2)cs1)c1nnn(-c2ccc(C(=O)OCCOCCOCCOC(=O)c3ccc(-c4c5nc(c(-c6cc(S(=O)(=O)[O-])ccc6F)c6ccc([nH]6)c(-c6cc(S(=O)(=O)[O-])ccc6F)c6nc(c(-c7cc(S(=O)(=O)[O-])ccc7F)c7ccc4[nH]7)C=C6)C=C5)cc3)cc2)c1C
REMARK SMILES IDX 31 1 30 2 29 3 28 4 27 5 25 6 26 7 24 8 21 9 22 10 103 11
REMARK SMILES IDX 23 12 102 13 20 14 17 15 18 16 104 17 19 18 105 19 2 20 1 21
REMARK SMILES IDX 3 22 4 23 5 25 6 26 16 27 7 28 15 29 8 30 9 31 14 32 10 33
REMARK SMILES IDX 13 34 11 35 12 36 32 37 33 38 34 39 35 40 36 41 37 42 38 43
REMARK SMILES IDX 39 44 40 45 101 46 41 47 100 48 42 49 43 50 44 51 94 52
REMARK SMILES IDX 45 53 99 54 93 55 95 56 46 57 98 58 92 59 91 60 47 62 79 63
REMARK SMILES IDX 59 64 78 65 60 66 63 67 77 68 96 69 61 70 62 71 76 73 97 74
REMARK SMILES IDX 64 75 48 76 49 77 57 78 50 79 56 80 58 81 55 82 51 83 52 84
REMARK SMILES IDX 53 85 54 86 80 87 81 88 89 89 82 90 88 91 90 92 87 93 83 94
REMARK SMILES IDX 84 95 85 96 86 97 65 98 66 99 74 100 67 101 73 102 75 103
REMARK SMILES IDX 72 104 68 105 69 106 70 107 71 108
REMARK H PARENT 4 24 95 61 63 72
REMARK Flexibility Score: inf
ROOT
ATOM      1  C   UNL A   1      33.536  35.716  29.835  1.00  0.00     0.188 C 
ENDROOT
BRANCH   1   2
ATOM      2  O   UNL A   1      33.362  34.396  29.330  1.00  0.00    -0.376 OA
BRANCH   2   3
ATOM      3  C   UNL A   1      34.046  33.305  29.930  1.00  0.00     0.202 C 
BRANCH   3   4
ATOM      4  C   UNL A   1      35.265  32.676  29.231  1.00  0.00     0.261 C 
BRANCH   4   5
ATOM      5  O   UNL A   1      36.484  32.692  29.989  1.00  0.00    -0.460 OA
BRANCH   5   6
ATOM      6  C   UNL A   1      37.634  32.725  29.286  1.00  0.00     0.338 C 
ATOM      7  O   UNL A   1      38.146  33.708  28.755  1.00  0.00    -0.246 OA
BRANCH   6   8
ATOM      8  C   UNL A   1      38.305  31.407  29.343  1.00  0.00     0.060 A 
ATOM      9  C   UNL A   1      39.781  29.056  29.428  1.00  0.00     0.067 A 
ATOM     10  C   UNL A   1      39.842  29.931  30.516  1.00  0.00     0.029 A 
ATOM     11  C   UNL A   1      38.874  29.272  28.380  1.00  0.00     0.029 A 
ATOM     12  C   UNL A   1      39.115  31.121  30.455  1.00  0.00     0.018 A 
ATOM     13  C   UNL A   1      38.136  30.452  28.335  1.00  0.00     0.018 A 
BRANCH   9  14
ATOM     14  N   UNL A   1      40.838  28.137  29.243  1.00  0.00    -0.217 N 
ATOM     15  C   UNL A   1      41.899  26.376  28.508  1.00  0.00     0.132 A 
ATOM     16  N   UNL A   1      42.772  27.425  28.544  1.00  0.00    -0.128 NA
ATOM     17  C   UNL A   1      40.659  26.789  28.967  1.00  0.00     0.071 A 
ATOM     18  N   UNL A   1      42.095  28.509  28.913  1.00  0.00    -0.061 NA
ATOM     19  C   UNL A   1      39.344  26.095  28.938  1.00  0.00     0.069 C 
BRANCH  15  20
ATOM     20  C   UNL A   1      42.155  25.100  27.858  1.00  0.00     0.087 C 
ATOM     21  C   UNL A   1      43.030  25.192  26.628  1.00  0.00     0.071 C 
ATOM     22  N   UNL A   1      41.528  24.066  28.343  1.00  0.00    -0.176 NA
BRANCH  22  23
ATOM     23  N   UNL A   1      41.512  22.832  27.736  1.00  0.00    -0.252 N 
ATOM     24  H   UNL A   1      42.260  22.243  27.986  1.00  0.00     0.193 HD
BRANCH  23  25
ATOM     25  C   UNL A   1      40.637  22.291  26.852  1.00  0.00     0.203 A 
ATOM     26  N   UNL A   1      39.679  22.930  26.226  1.00  0.00    -0.219 NA
ATOM     27  S   UNL A   1      40.652  20.588  26.542  1.00  0.00    -0.103 S 
ATOM     28  C   UNL A   1      38.735  22.044  25.750  1.00  0.00     0.084 A 
ATOM     29  C   UNL A   1      39.088  20.714  25.836  1.00  0.00     0.097 A 
BRANCH  28  30
ATOM     30  C   UNL A   1      37.452  22.549  25.302  1.00  0.00     0.001 A 
ATOM     31  C   UNL A   1      37.025  22.270  23.996  1.00  0.00     0.012 A 
ATOM     32  C   UNL A   1      36.704  23.425  26.099  1.00  0.00     0.012 A 
ATOM     33  C   UNL A   1      35.853  22.844  23.499  1.00  0.00     0.021 A 
ATOM     34  C   UNL A   1      35.537  24.009  25.596  1.00  0.00     0.021 A 
ATOM     35  C   UNL A   1      35.115  23.713  24.300  1.00  0.00     0.041 A 
ATOM     36  Cl  UNL A   1      33.685  24.440  23.680  1.00  0.00    -0.084 Cl
ENDBRANCH  28  30
ENDBRANCH  23  25
ENDBRANCH  22  23
ENDBRANCH  15  20
ENDBRANCH   9  14
ENDBRANCH   6   8
ENDBRANCH   5   6
ENDBRANCH   4   5
ENDBRANCH   3   4
ENDBRANCH   2   3
ENDBRANCH   1   2
BRANCH   1  37
ATOM     37  C   UNL A   1      32.546  36.318  30.862  1.00  0.00     0.188 C 
BRANCH  37  38
ATOM     38  O   UNL A   1      33.018  36.346  32.196  1.00  0.00    -0.376 OA
BRANCH  38  39
ATOM     39  C   UNL A   1      33.275  35.126  32.877  1.00  0.00     0.202 C 
BRANCH  39  40
ATOM     40  C   UNL A   1      34.537  34.948  33.720  1.00  0.00     0.261 C 
BRANCH  40  41
ATOM     41  O   UNL A   1      34.892  33.608  33.990  1.00  0.00    -0.460 OA
BRANCH  41  42
ATOM     42  C   UNL A   1      36.025  33.457  34.694  1.00  0.00     0.338 C 
ATOM     43  O   UNL A   1      36.136  33.512  35.920  1.00  0.00    -0.246 OA
BRANCH  42  44
ATOM     44  C   UNL A   1      37.133  33.281  33.760  1.00  0.00     0.060 A 
ATOM     45  C   UNL A   1      38.161  32.438  34.176  1.00  0.00     0.016 A 
ATOM     46  C   UNL A   1      37.296  34.232  32.739  1.00  0.00     0.016 A 
ATOM     47  C   UNL A   1      39.437  32.768  33.799  1.00  0.00     0.010 A 
ATOM     48  C   UNL A   1      38.572  34.578  32.387  1.00  0.00     0.010 A 
ATOM     49  C   UNL A   1      39.619  33.911  33.016  1.00  0.00    -0.014 A 
BRANCH  49  50
ATOM     50  C   UNL A   1      40.965  34.399  32.858  1.00  0.00     0.031 A 
ATOM     51  C   UNL A   1      41.602  33.921  31.624  1.00  0.00     0.074 A 
ATOM     52  C   UNL A   1      41.521  35.261  33.726  1.00  0.00     0.049 A 
ATOM     53  N   UNL A   1      42.561  33.067  31.515  1.00  0.00    -0.248 NA
ATOM     54  C   UNL A   1      40.957  34.280  30.353  1.00  0.00     0.031 C 
ATOM     55  C   UNL A   1      40.872  35.991  34.819  1.00  0.00     0.029 A 
ATOM     56  N   UNL A   1      42.785  35.754  33.731  1.00  0.00    -0.354 N 
ATOM     57  C   UNL A   1      42.807  32.979  30.153  1.00  0.00     0.074 A 
ATOM     58  C   UNL A   1      41.655  33.534  29.500  1.00  0.00     0.031 C 
ATOM     59  C   UNL A   1      41.686  36.992  35.222  1.00  0.00     0.029 A 
ATOM     60  C   UNL A   1      42.948  36.894  34.504  1.00  0.00     0.049 A 
ATOM     61  H   UNL A   1      43.524  35.338  33.229  1.00  0.00     0.167 HD
ATOM     62  C   UNL A   1      44.061  32.735  29.691  1.00  0.00     0.034 A 
ATOM     63  C   UNL A   1      44.008  37.742  34.471  1.00  0.00     0.034 A 
ATOM     64  C   UNL A   1      44.887  32.133  30.716  1.00  0.00     0.049 A 
ATOM     65  C   UNL A   1      45.152  36.988  33.895  1.00  0.00     0.074 A 
ATOM     66  C   UNL A   1      44.773  30.998  31.498  1.00  0.00     0.029 A 
ATOM     67  N   UNL A   1      45.832  32.917  31.346  1.00  0.00    -0.354 N 
ATOM     68  N   UNL A   1      45.708  35.966  34.487  1.00  0.00    -0.248 NA
ATOM     69  C   UNL A   1      45.369  37.051  32.455  1.00  0.00     0.031 C 
ATOM     70  C   UNL A   1      45.268  31.377  32.781  1.00  0.00     0.029 A 
ATOM     71  C   UNL A   1      45.719  32.696  32.699  1.00  0.00     0.049 A 
ATOM     72  H   UNL A   1      46.470  33.523  30.906  1.00  0.00     0.167 HD
ATOM     73  C   UNL A   1      45.957  35.051  33.475  1.00  0.00     0.074 A 
ATOM     74  C   UNL A   1      45.833  35.817  32.237  1.00  0.00     0.031 C 
ATOM     75  C   UNL A   1      45.954  33.704  33.717  1.00  0.00     0.034 A 
BRANCH  62  76
ATOM     76  C   UNL A   1      44.626  33.398  28.455  1.00  0.00     0.023 A 
ATOM     77  C   UNL A   1      44.932  34.765  28.554  1.00  0.00     0.031 A 
ATOM     78  C   UNL A   1      44.618  32.865  27.142  1.00  0.00     0.131 A 
ATOM     79  C   UNL A   1      45.103  35.549  27.402  1.00  0.00     0.055 A 
ATOM     80  C   UNL A   1      44.865  33.635  26.004  1.00  0.00     0.041 A 
ATOM     81  F   UNL A   1      44.284  31.601  26.863  1.00  0.00    -0.206 F 
ATOM     82  C   UNL A   1      45.073  34.993  26.125  1.00  0.00     0.022 A 
BRANCH  79  83
ATOM     83  S   UNL A   1      45.169  37.344  27.599  1.00  0.00     0.124 S 
ATOM     84  O   UNL A   1      45.710  37.470  28.948  1.00  0.00    -0.237 OA
ATOM     85  O   UNL A   1      46.057  37.730  26.508  1.00  0.00    -0.237 OA
ATOM     86  O   UNL A   1      43.775  37.752  27.445  1.00  0.00    -0.744 OA
ENDBRANCH  79  83
ENDBRANCH  62  76
BRANCH  63  87
ATOM     87  C   UNL A   1      43.950  39.226  34.574  1.00  0.00     0.023 A 
ATOM     88  C   UNL A   1      44.531  39.940  35.642  1.00  0.00     0.031 A 
ATOM     89  C   UNL A   1      43.498  39.991  33.473  1.00  0.00     0.131 A 
ATOM     90  C   UNL A   1      44.628  41.351  35.584  1.00  0.00     0.055 A 
ATOM     91  C   UNL A   1      43.585  41.383  33.427  1.00  0.00     0.041 A 
ATOM     92  F   UNL A   1      43.030  39.403  32.360  1.00  0.00    -0.206 F 
ATOM     93  C   UNL A   1      44.159  42.070  34.482  1.00  0.00     0.022 A 
BRANCH  90  94
ATOM     94  S   UNL A   1      45.461  42.272  36.916  1.00  0.00     0.124 S 
ATOM     95  O   UNL A   1      46.216  41.223  37.594  1.00  0.00    -0.237 OA
ATOM     96  O   UNL A   1      46.239  43.257  36.175  1.00  0.00    -0.237 OA
ATOM     97  O   UNL A   1      44.351  42.828  37.693  1.00  0.00    -0.744 OA
ENDBRANCH  90  94
ENDBRANCH  63  87
BRANCH  75  98
ATOM     98  C   UNL A   1      45.967  33.235  35.162  1.00  0.00     0.023 A 
ATOM     99  C   UNL A   1      44.829  33.183  36.000  1.00  0.00     0.031 A 
ATOM    100  C   UNL A   1      47.169  32.707  35.665  1.00  0.00     0.131 A 
ATOM    101  C   UNL A   1      44.928  32.633  37.294  1.00  0.00     0.055 A 
ATOM    102  C   UNL A   1      47.258  32.143  36.938  1.00  0.00     0.041 A 
ATOM    103  F   UNL A   1      48.278  32.697  34.907  1.00  0.00    -0.206 F 
ATOM    104  C   UNL A   1      46.138  32.110  37.760  1.00  0.00     0.022 A 
BRANCH 101 105
ATOM    105  S   UNL A   1      43.481  32.595  38.401  1.00  0.00     0.124 S 
ATOM    106  O   UNL A   1      42.404  33.129  37.576  1.00  0.00    -0.237 OA
ATOM    107  O   UNL A   1      43.383  31.179  38.745  1.00  0.00    -0.237 OA
ATOM    108  O   UNL A   1      43.881  33.461  39.513  1.00  0.00    -0.744 OA
ENDBRANCH 101 105
ENDBRANCH  75  98
ENDBRANCH  49  50
ENDBRANCH  42  44
ENDBRANCH  41  42
ENDBRANCH  40  41
ENDBRANCH  39  40
ENDBRANCH  38  39
ENDBRANCH  37  38
ENDBRANCH   1  37
TORSDOF 25
ENDMDL
MODEL 3
REMARK VINA RESULT:      -8.4      7.857     13.118
REMARK SMILES C/C(=N\Nc1nc(-c2ccc(Cl)cc2)cs1)c1nnn(-c2ccc(C(=O)OCCOCCOCCOC(=O)c3ccc(-c4c5nc(c(-c6cc(S(=O)(=O)[O-])ccc6F)c6ccc([nH]6)c(-c6cc(S(=O)(=O)[O-])ccc6F)c6nc(c(-c7cc(S(=O)(=O)[O-])ccc7F)c7ccc4[nH]7)C=C6)C=C5)cc3)cc2)c1C
REMARK SMILES IDX 31 1 30 2 29 3 28 4 27 5 25 6 26 7 24 8 21 9 22 10 103 11
REMARK SMILES IDX 23 12 102 13 20 14 17 15 18 16 104 17 19 18 105 19 2 20 1 21
REMARK SMILES IDX 3 22 4 23 5 25 6 26 16 27 7 28 15 29 8 30 9 31 14 32 10 33
REMARK SMILES IDX 13 34 11 35 12 36 32 37 33 38 34 39 35 40 36 41 37 42 38 43
REMARK SMILES IDX 39 44 40 45 101 46 41 47 100 48 42 49 43 50 44 51 94 52
REMARK SMILES IDX 45 53 99 54 93 55 95 56 46 57 98 58 92 59 91 60 47 62 79 63
REMARK SMILES IDX 59 64 78 65 60 66 63 67 77 68 96 69 61 70 62 71 76 73 97 74
REMARK SMILES IDX 64 75 48 76 49 77 57 78 50 79 56 80 58 81 55 82 51 83 52 84
REMARK SMILES IDX 53 85 54 86 80 87 81 88 89 89 82 90 88 91 90 92 87 93 83 94
REMARK SMILES IDX 84 95 85 96 86 97 65 98 66 99 74 100 67 101 73 102 75 103
REMARK SMILES IDX 72 104 68 105 69 106 70 107 71 108
REMARK H PARENT 4 24 95 61 63 72
REMARK Flexibility Score: inf
ROOT
ATOM      1  C   UNL A   1      37.430  33.478  36.927  1.00  0.00     0.188 C 
ENDROOT
BRANCH   1   2
ATOM      2  O   UNL A   1      37.702  32.643  35.807  1.00  0.00    -0.376 OA
BRANCH   2   3
ATOM      3  C   UNL A   1      37.239  33.006  34.514  1.00  0.00     0.202 C 
BRANCH   3   4
ATOM      4  C   UNL A   1      37.524  34.414  33.957  1.00  0.00     0.261 C 
BRANCH   4   5
ATOM      5  O   UNL A   1      36.850  34.736  32.731  1.00  0.00    -0.460 OA
BRANCH   5   6
ATOM      6  C   UNL A   1      37.541  34.537  31.590  1.00  0.00     0.338 C 
ATOM      7  O   UNL A   1      38.702  34.869  31.364  1.00  0.00    -0.246 OA
BRANCH   6   8
ATOM      8  C   UNL A   1      36.746  33.718  30.648  1.00  0.00     0.060 A 
ATOM      9  C   UNL A   1      35.305  31.987  29.024  1.00  0.00     0.067 A 
ATOM     10  C   UNL A   1      34.796  32.313  30.284  1.00  0.00     0.029 A 
ATOM     11  C   UNL A   1      36.437  32.638  28.515  1.00  0.00     0.029 A 
ATOM     12  C   UNL A   1      35.538  33.165  31.103  1.00  0.00     0.018 A 
ATOM     13  C   UNL A   1      37.163  33.504  29.329  1.00  0.00     0.018 A 
BRANCH   9  14
ATOM     14  N   UNL A   1      34.860  30.797  28.406  1.00  0.00    -0.217 N 
ATOM     15  C   UNL A   1      33.940  29.503  26.908  1.00  0.00     0.132 A 
ATOM     16  N   UNL A   1      35.044  28.872  27.406  1.00  0.00    -0.128 NA
ATOM     17  C   UNL A   1      33.781  30.726  27.538  1.00  0.00     0.071 A 
ATOM     18  N   UNL A   1      35.642  29.703  28.256  1.00  0.00    -0.061 NA
ATOM     19  C   UNL A   1      32.868  31.857  27.222  1.00  0.00     0.069 C 
BRANCH  15  20
ATOM     20  C   UNL A   1      33.197  29.077  25.732  1.00  0.00     0.087 C 
ATOM     21  C   UNL A   1      31.694  29.115  25.896  1.00  0.00     0.071 C 
ATOM     22  N   UNL A   1      33.902  28.623  24.734  1.00  0.00    -0.176 NA
BRANCH  22  23
ATOM     23  N   UNL A   1      33.354  28.012  23.631  1.00  0.00    -0.252 N 
ATOM     24  H   UNL A   1      33.015  28.631  22.945  1.00  0.00     0.193 HD
BRANCH  23  25
ATOM     25  C   UNL A   1      33.204  26.697  23.330  1.00  0.00     0.203 A 
ATOM     26  N   UNL A   1      33.774  25.694  23.952  1.00  0.00    -0.219 NA
ATOM     27  S   UNL A   1      32.277  26.219  21.949  1.00  0.00    -0.103 S 
ATOM     28  C   UNL A   1      33.760  24.563  23.163  1.00  0.00     0.084 A 
ATOM     29  C   UNL A   1      32.993  24.657  22.022  1.00  0.00     0.097 A 
BRANCH  28  30
ATOM     30  C   UNL A   1      34.598  23.436  23.525  1.00  0.00     0.001 A 
ATOM     31  C   UNL A   1      34.019  22.326  24.153  1.00  0.00     0.012 A 
ATOM     32  C   UNL A   1      35.992  23.501  23.388  1.00  0.00     0.012 A 
ATOM     33  C   UNL A   1      34.819  21.282  24.622  1.00  0.00     0.021 A 
ATOM     34  C   UNL A   1      36.793  22.461  23.869  1.00  0.00     0.021 A 
ATOM     35  C   UNL A   1      36.203  21.355  24.480  1.00  0.00     0.041 A 
ATOM     36  Cl  UNL A   1      37.192  20.081  25.080  1.00  0.00    -0.084 Cl
ENDBRANCH  28  30
ENDBRANCH  23  25
ENDBRANCH  22  23
ENDBRANCH  15  20
ENDBRANCH   9  14
ENDBRANCH   6   8
ENDBRANCH   5   6
ENDBRANCH   4   5
ENDBRANCH   3   4
ENDBRANCH   2   3
ENDBRANCH   1   2
BRANCH   1  37
ATOM     37  C   UNL A   1      38.121  33.239  38.292  1.00  0.00     0.188 C 
BRANCH  37  38
ATOM     38  O   UNL A   1      39.533  33.317  38.265  1.00  0.00    -0.376 OA
BRANCH  38  39
ATOM     39  C   UNL A   1      40.190  34.412  38.887  1.00  0.00     0.202 C 
BRANCH  39  40
ATOM     40  C   UNL A   1      39.901  35.849  38.455  1.00  0.00     0.261 C 
BRANCH  40  41
ATOM     41  O   UNL A   1      40.815  36.390  37.525  1.00  0.00    -0.460 OA
BRANCH  41  42
ATOM     42  C   UNL A   1      40.529  36.132  36.239  1.00  0.00     0.338 C 
ATOM     43  O   UNL A   1      39.426  36.242  35.700  1.00  0.00    -0.246 OA
BRANCH  42  44
ATOM     44  C   UNL A   1      41.733  35.630  35.585  1.00  0.00     0.060 A 
ATOM     45  C   UNL A   1      41.650  35.432  34.209  1.00  0.00     0.016 A 
ATOM     46  C   UNL A   1      42.713  35.017  36.384  1.00  0.00     0.016 A 
ATOM     47  C   UNL A   1      42.340  34.371  33.683  1.00  0.00     0.010 A 
ATOM     48  C   UNL A   1      43.378  33.940  35.864  1.00  0.00     0.010 A 
ATOM     49  C   UNL A   1      43.087  33.572  34.554  1.00  0.00    -0.014 A 
BRANCH  49  50
ATOM     50  C   UNL A   1      43.578  32.317  34.047  1.00  0.00     0.031 A 
ATOM     51  C   UNL A   1      44.606  32.484  33.012  1.00  0.00     0.074 A 
ATOM     52  C   UNL A   1      43.172  31.136  34.543  1.00  0.00     0.049 A 
ATOM     53  N   UNL A   1      44.498  32.242  31.750  1.00  0.00    -0.248 NA
ATOM     54  C   UNL A   1      45.832  33.200  33.394  1.00  0.00     0.031 C 
ATOM     55  C   UNL A   1      42.367  30.886  35.742  1.00  0.00     0.029 A 
ATOM     56  N   UNL A   1      43.505  29.888  34.127  1.00  0.00    -0.354 N 
ATOM     57  C   UNL A   1      45.745  32.541  31.222  1.00  0.00     0.074 A 
ATOM     58  C   UNL A   1      46.417  33.343  32.207  1.00  0.00     0.031 C 
ATOM     59  C   UNL A   1      42.472  29.580  36.078  1.00  0.00     0.029 A 
ATOM     60  C   UNL A   1      43.244  28.890  35.056  1.00  0.00     0.049 A 
ATOM     61  H   UNL A   1      43.897  29.705  33.243  1.00  0.00     0.167 HD
ATOM     62  C   UNL A   1      46.228  31.854  30.155  1.00  0.00     0.034 A 
ATOM     63  C   UNL A   1      43.722  27.620  35.025  1.00  0.00     0.034 A 
ATOM     64  C   UNL A   1      45.158  31.209  29.422  1.00  0.00     0.049 A 
ATOM     65  C   UNL A   1      44.104  27.332  33.617  1.00  0.00     0.074 A 
ATOM     66  C   UNL A   1      43.998  31.662  28.820  1.00  0.00     0.029 A 
ATOM     67  N   UNL A   1      44.989  29.848  29.565  1.00  0.00    -0.354 N 
ATOM     68  N   UNL A   1      43.241  27.265  32.640  1.00  0.00    -0.248 NA
ATOM     69  C   UNL A   1      45.475  27.597  33.203  1.00  0.00     0.031 C 
ATOM     70  C   UNL A   1      43.022  30.656  29.088  1.00  0.00     0.029 A 
ATOM     71  C   UNL A   1      43.650  29.616  29.777  1.00  0.00     0.049 A 
ATOM     72  H   UNL A   1      45.697  29.167  29.523  1.00  0.00     0.167 HD
ATOM     73  C   UNL A   1      43.854  27.899  31.569  1.00  0.00     0.074 A 
ATOM     74  C   UNL A   1      45.265  27.980  31.939  1.00  0.00     0.031 C 
ATOM     75  C   UNL A   1      43.123  28.555  30.617  1.00  0.00     0.034 A 
BRANCH  62  76
ATOM     76  C   UNL A   1      47.681  31.457  30.019  1.00  0.00     0.023 A 
ATOM     77  C   UNL A   1      48.345  31.875  28.855  1.00  0.00     0.031 A 
ATOM     78  C   UNL A   1      48.358  30.483  30.795  1.00  0.00     0.131 A 
ATOM     79  C   UNL A   1      49.545  31.267  28.454  1.00  0.00     0.055 A 
ATOM     80  C   UNL A   1      49.590  29.938  30.431  1.00  0.00     0.041 A 
ATOM     81  F   UNL A   1      47.839  29.929  31.896  1.00  0.00    -0.206 F 
ATOM     82  C   UNL A   1      50.175  30.302  29.235  1.00  0.00     0.022 A 
BRANCH  79  83
ATOM     83  S   UNL A   1      50.165  31.625  26.795  1.00  0.00     0.124 S 
ATOM     84  O   UNL A   1      51.552  31.985  27.072  1.00  0.00    -0.237 OA
ATOM     85  O   UNL A   1      49.951  30.351  26.118  1.00  0.00    -0.237 OA
ATOM     86  O   UNL A   1      49.313  32.723  26.346  1.00  0.00    -0.744 OA
ENDBRANCH  79  83
ENDBRANCH  62  76
BRANCH  63  87
ATOM     87  C   UNL A   1      44.181  26.823  36.196  1.00  0.00     0.023 A 
ATOM     88  C   UNL A   1      45.422  27.041  36.828  1.00  0.00     0.031 A 
ATOM     89  C   UNL A   1      43.276  25.961  36.859  1.00  0.00     0.131 A 
ATOM     90  C   UNL A   1      45.717  26.403  38.056  1.00  0.00     0.055 A 
ATOM     91  C   UNL A   1      43.577  25.324  38.063  1.00  0.00     0.041 A 
ATOM     92  F   UNL A   1      42.029  25.772  36.399  1.00  0.00    -0.206 F 
ATOM     93  C   UNL A   1      44.799  25.549  38.673  1.00  0.00     0.022 A 
BRANCH  90  94
ATOM     94  S   UNL A   1      47.279  26.753  38.924  1.00  0.00     0.124 S 
ATOM     95  O   UNL A   1      48.152  25.693  38.432  1.00  0.00    -0.237 OA
ATOM     96  O   UNL A   1      47.586  28.107  38.480  1.00  0.00    -0.237 OA
ATOM     97  O   UNL A   1      46.916  26.641  40.338  1.00  0.00    -0.744 OA
ENDBRANCH  90  94
ENDBRANCH  63  87
BRANCH  75  98
ATOM     98  C   UNL A   1      41.621  28.332  30.586  1.00  0.00     0.023 A 
ATOM     99  C   UNL A   1      40.685  29.046  31.370  1.00  0.00     0.031 A 
ATOM    100  C   UNL A   1      41.115  27.435  29.628  1.00  0.00     0.131 A 
ATOM    101  C   UNL A   1      39.304  28.835  31.189  1.00  0.00     0.055 A 
ATOM    102  C   UNL A   1      39.746  27.245  29.437  1.00  0.00     0.041 A 
ATOM    103  F   UNL A   1      41.950  26.749  28.829  1.00  0.00    -0.206 F 
ATOM    104  C   UNL A   1      38.835  27.941  30.223  1.00  0.00     0.022 A 
BRANCH 101 105
ATOM    105  S   UNL A   1      38.086  29.718  32.219  1.00  0.00     0.124 S 
ATOM    106  O   UNL A   1      38.323  29.192  33.557  1.00  0.00    -0.237 OA
ATOM    107  O   UNL A   1      38.449  31.117  32.007  1.00  0.00    -0.237 OA
ATOM    108  O   UNL A   1      36.801  29.332  31.633  1.00  0.00    -0.744 OA
ENDBRANCH 101 105
ENDBRANCH  75  98
ENDBRANCH  49  50
ENDBRANCH  42  44
ENDBRANCH  41  42
ENDBRANCH  40  41
ENDBRANCH  39  40
ENDBRANCH  38  39
ENDBRANCH  37  38
ENDBRANCH   1  37
TORSDOF 25
ENDMDL
