MODEL 1
REMARK VINA RESULT:      -8.3      0.000      0.000
REMARK SMILES CC1=C[C@@H]([C@@H]2N=N[C@H](S)N2/N=C/c2ccc(C(=O)OCCOCCOCCOC(=O)c3ccc(-c4c5nc(c(-c6cc(S(=O)(=O)[O-])ccc6F)c6ccc([nH]6)c(-c6cc(S(=O)(=O)[O-])ccc6F)c6nc(c(-c7cc(S(=O)(=O)[O-])ccc7F)c7ccc4[nH]7)C=C6)C=C5)cc3)cc2)N=N1
REMARK SMILES IDX 23 1 22 2 21 3 20 4 19 5 17 6 18 7 16 8 13 9 14 10 95 11
REMARK SMILES IDX 15 12 94 13 12 14 11 15 10 16 5 17 6 18 7 19 8 20 4 21 1 22
REMARK SMILES IDX 2 23 3 24 97 25 96 26 9 27 24 29 25 30 26 31 27 32 28 33
REMARK SMILES IDX 29 34 30 35 31 36 32 37 93 38 33 39 92 40 34 41 35 42 36 43
REMARK SMILES IDX 86 44 37 45 91 46 85 47 87 48 38 49 90 50 84 51 83 52 39 54
REMARK SMILES IDX 71 55 51 56 70 57 52 58 55 59 69 60 88 61 53 62 54 63 68 65
REMARK SMILES IDX 89 66 56 67 40 68 41 69 49 70 42 71 48 72 50 73 47 74 43 75
REMARK SMILES IDX 44 76 45 77 46 78 72 79 73 80 81 81 74 82 80 83 82 84 79 85
REMARK SMILES IDX 75 86 76 87 77 88 78 89 57 90 58 91 66 92 59 93 65 94 67 95
REMARK SMILES IDX 64 96 60 97 61 98 62 99 63 100
REMARK H PARENT 9 28 87 53 55 64
REMARK Flexibility Score: inf
ROOT
ATOM      1  C   UNL A   1      34.234  35.408  31.054  1.00  0.00     0.188 C 
ENDROOT
BRANCH   1   2
ATOM      2  O   UNL A   1      35.032  34.497  31.798  1.00  0.00    -0.376 OA
BRANCH   2   3
ATOM      3  C   UNL A   1      34.825  34.351  33.195  1.00  0.00     0.202 C 
BRANCH   3   4
ATOM      4  C   UNL A   1      35.461  33.151  33.915  1.00  0.00     0.261 C 
BRANCH   4   5
ATOM      5  O   UNL A   1      36.336  32.360  33.092  1.00  0.00    -0.460 OA
BRANCH   5   6
ATOM      6  C   UNL A   1      37.542  32.066  33.631  1.00  0.00     0.338 C 
ATOM      7  O   UNL A   1      37.779  31.258  34.514  1.00  0.00    -0.246 OA
BRANCH   6   8
ATOM      8  C   UNL A   1      38.618  32.754  32.881  1.00  0.00     0.060 A 
ATOM      9  C   UNL A   1      40.745  34.002  31.586  1.00  0.00    -0.005 A 
ATOM     10  C   UNL A   1      40.998  32.935  32.452  1.00  0.00     0.010 A 
ATOM     11  C   UNL A   1      39.436  34.425  31.332  1.00  0.00     0.010 A 
ATOM     12  C   UNL A   1      39.934  32.327  33.115  1.00  0.00     0.016 A 
ATOM     13  C   UNL A   1      38.365  33.785  31.968  1.00  0.00     0.016 A 
BRANCH   9  14
ATOM     14  C   UNL A   1      41.907  34.697  31.004  1.00  0.00     0.141 C 
ATOM     15  N   UNL A   1      43.107  34.243  31.175  1.00  0.00    -0.180 NA
BRANCH  15  16
ATOM     16  N   UNL A   1      44.132  34.884  30.535  1.00  0.00    -0.233 NA
ATOM     17  C   UNL A   1      44.076  34.903  29.062  1.00  0.00     0.274 C 
ATOM     18  N   UNL A   1      44.602  36.208  28.583  1.00  0.00    -0.161 NA
ATOM     19  N   UNL A   1      44.876  36.948  29.553  1.00  0.00    -0.153 NA
ATOM     20  C   UNL A   1      44.598  36.252  30.825  1.00  0.00     0.298 C 
BRANCH  17  21
ATOM     21  C   UNL A   1      44.869  33.733  28.429  1.00  0.00     0.201 C 
ATOM     22  C   UNL A   1      48.388  33.124  29.408  1.00  0.00     0.068 C 
ATOM     23  C   UNL A   1      47.060  33.415  28.812  1.00  0.00     0.058 C 
ATOM     24  C   UNL A   1      45.875  33.106  29.333  1.00  0.00     0.031 C 
ATOM     25  N   UNL A   1      46.952  34.075  27.615  1.00  0.00    -0.160 NA
ATOM     26  N   UNL A   1      45.733  34.242  27.318  1.00  0.00    -0.177 NA
ENDBRANCH  17  21
BRANCH  20  27
ATOM     27  S   UNL A   1      46.043  36.194  31.949  1.00  0.00    -0.128 SA
ATOM     28  H   UNL A   1      46.113  34.967  32.534  1.00  0.00     0.106 HD
ENDBRANCH  20  27
ENDBRANCH  15  16
ENDBRANCH   9  14
ENDBRANCH   6   8
ENDBRANCH   5   6
ENDBRANCH   4   5
ENDBRANCH   3   4
ENDBRANCH   2   3
ENDBRANCH   1   2
BRANCH   1  29
ATOM     29  C   UNL A   1      32.941  34.959  30.337  1.00  0.00     0.188 C 
BRANCH  29  30
ATOM     30  O   UNL A   1      32.895  35.183  28.935  1.00  0.00    -0.376 OA
BRANCH  30  31
ATOM     31  C   UNL A   1      33.131  34.032  28.127  1.00  0.00     0.202 C 
BRANCH  31  32
ATOM     32  C   UNL A   1      34.592  33.590  28.098  1.00  0.00     0.261 C 
BRANCH  32  33
ATOM     33  O   UNL A   1      34.782  32.178  28.123  1.00  0.00    -0.460 OA
BRANCH  33  34
ATOM     34  C   UNL A   1      35.335  31.672  29.247  1.00  0.00     0.338 C 
ATOM     35  O   UNL A   1      34.874  31.715  30.371  1.00  0.00    -0.246 OA
BRANCH  34  36
ATOM     36  C   UNL A   1      36.641  31.095  28.904  1.00  0.00     0.060 A 
ATOM     37  C   UNL A   1      36.696  29.726  28.627  1.00  0.00     0.016 A 
ATOM     38  C   UNL A   1      37.803  31.860  29.082  1.00  0.00     0.016 A 
ATOM     39  C   UNL A   1      37.917  29.083  28.700  1.00  0.00     0.010 A 
ATOM     40  C   UNL A   1      39.015  31.215  29.171  1.00  0.00     0.010 A 
ATOM     41  C   UNL A   1      39.047  29.824  29.055  1.00  0.00    -0.014 A 
BRANCH  41  42
ATOM     42  C   UNL A   1      40.253  29.110  29.430  1.00  0.00     0.031 A 
ATOM     43  C   UNL A   1      40.599  29.088  30.863  1.00  0.00     0.074 A 
ATOM     44  C   UNL A   1      40.903  28.357  28.518  1.00  0.00     0.049 A 
ATOM     45  N   UNL A   1      41.714  29.433  31.417  1.00  0.00    -0.248 NA
ATOM     46  C   UNL A   1      39.552  28.694  31.818  1.00  0.00     0.031 C 
ATOM     47  C   UNL A   1      40.450  28.056  27.155  1.00  0.00     0.029 A 
ATOM     48  N   UNL A   1      42.017  27.582  28.661  1.00  0.00    -0.354 N 
ATOM     49  C   UNL A   1      41.592  29.088  32.758  1.00  0.00     0.074 A 
ATOM     50  C   UNL A   1      40.200  28.801  32.976  1.00  0.00     0.031 C 
ATOM     51  C   UNL A   1      41.146  27.002  26.684  1.00  0.00     0.029 A 
ATOM     52  C   UNL A   1      42.155  26.628  27.661  1.00  0.00     0.049 A 
ATOM     53  H   UNL A   1      42.659  27.690  29.399  1.00  0.00     0.167 HD
ATOM     54  C   UNL A   1      42.686  28.844  33.527  1.00  0.00     0.034 A 
ATOM     55  C   UNL A   1      42.968  25.543  27.663  1.00  0.00     0.034 A 
ATOM     56  C   UNL A   1      43.875  29.436  32.958  1.00  0.00     0.049 A 
ATOM     57  C   UNL A   1      44.045  25.780  28.652  1.00  0.00     0.074 A 
ATOM     58  C   UNL A   1      44.227  30.719  32.581  1.00  0.00     0.029 A 
ATOM     59  N   UNL A   1      44.824  28.613  32.398  1.00  0.00    -0.354 N 
ATOM     60  N   UNL A   1      44.967  26.693  28.518  1.00  0.00    -0.248 NA
ATOM     61  C   UNL A   1      43.882  25.265  30.003  1.00  0.00     0.031 C 
ATOM     62  C   UNL A   1      45.082  30.560  31.452  1.00  0.00     0.029 A 
ATOM     63  C   UNL A   1      45.234  29.192  31.223  1.00  0.00     0.049 A 
ATOM     64  H   UNL A   1      45.150  27.762  32.772  1.00  0.00     0.167 HD
ATOM     65  C   UNL A   1      45.199  27.161  29.802  1.00  0.00     0.074 A 
ATOM     66  C   UNL A   1      44.612  26.156  30.679  1.00  0.00     0.031 C 
ATOM     67  C   UNL A   1      45.582  28.453  30.024  1.00  0.00     0.034 A 
BRANCH  54  68
ATOM     68  C   UNL A   1      42.740  27.791  34.614  1.00  0.00     0.023 A 
ATOM     69  C   UNL A   1      43.515  26.645  34.356  1.00  0.00     0.031 A 
ATOM     70  C   UNL A   1      41.874  27.704  35.728  1.00  0.00     0.131 A 
ATOM     71  C   UNL A   1      43.334  25.466  35.098  1.00  0.00     0.055 A 
ATOM     72  C   UNL A   1      41.762  26.557  36.519  1.00  0.00     0.041 A 
ATOM     73  F   UNL A   1      41.019  28.677  36.062  1.00  0.00    -0.206 F 
ATOM     74  C   UNL A   1      42.466  25.414  36.185  1.00  0.00     0.022 A 
BRANCH  71  75
ATOM     75  S   UNL A   1      44.085  23.942  34.470  1.00  0.00     0.124 S 
ATOM     76  O   UNL A   1      43.563  22.952  35.407  1.00  0.00    -0.237 OA
ATOM     77  O   UNL A   1      43.556  23.888  33.112  1.00  0.00    -0.237 OA
ATOM     78  O   UNL A   1      45.517  24.204  34.576  1.00  0.00    -0.744 OA
ENDBRANCH  71  75
ENDBRANCH  54  68
BRANCH  55  79
ATOM     79  C   UNL A   1      42.684  24.229  27.032  1.00  0.00     0.023 A 
ATOM     80  C   UNL A   1      43.596  23.593  26.170  1.00  0.00     0.031 A 
ATOM     81  C   UNL A   1      41.556  23.475  27.433  1.00  0.00     0.131 A 
ATOM     82  C   UNL A   1      43.350  22.274  25.727  1.00  0.00     0.055 A 
ATOM     83  C   UNL A   1      41.300  22.184  26.968  1.00  0.00     0.041 A 
ATOM     84  F   UNL A   1      40.698  23.940  28.355  1.00  0.00    -0.206 F 
ATOM     85  C   UNL A   1      42.202  21.575  26.113  1.00  0.00     0.022 A 
BRANCH  82  86
ATOM     86  S   UNL A   1      44.592  21.404  24.723  1.00  0.00     0.124 S 
ATOM     87  O   UNL A   1      44.569  22.160  23.477  1.00  0.00    -0.237 OA
ATOM     88  O   UNL A   1      45.794  21.529  25.539  1.00  0.00    -0.237 OA
ATOM     89  O   UNL A   1      44.059  20.044  24.628  1.00  0.00    -0.744 OA
ENDBRANCH  82  86
ENDBRANCH  55  79
BRANCH  67  90
ATOM     90  C   UNL A   1      46.149  29.249  28.870  1.00  0.00     0.023 A 
ATOM     91  C   UNL A   1      47.524  29.331  28.556  1.00  0.00     0.031 A 
ATOM     92  C   UNL A   1      45.239  29.848  27.979  1.00  0.00     0.131 A 
ATOM     93  C   UNL A   1      47.941  30.006  27.394  1.00  0.00     0.055 A 
ATOM     94  C   UNL A   1      45.656  30.503  26.821  1.00  0.00     0.041 A 
ATOM     95  F   UNL A   1      43.916  29.772  28.203  1.00  0.00    -0.206 F 
ATOM     96  C   UNL A   1      47.012  30.590  26.528  1.00  0.00     0.022 A 
BRANCH  93  97
ATOM     97  S   UNL A   1      49.712  30.137  26.993  1.00  0.00     0.124 S 
ATOM     98  O   UNL A   1      49.867  31.524  26.569  1.00  0.00    -0.237 OA
ATOM     99  O   UNL A   1      50.347  29.780  28.259  1.00  0.00    -0.237 OA
ATOM    100  O   UNL A   1      49.891  29.151  25.926  1.00  0.00    -0.744 OA
ENDBRANCH  93  97
ENDBRANCH  67  90
ENDBRANCH  41  42
ENDBRANCH  34  36
ENDBRANCH  33  34
ENDBRANCH  32  33
ENDBRANCH  31  32
ENDBRANCH  30  31
ENDBRANCH  29  30
ENDBRANCH   1  29
TORSDOF 24
ENDMDL
MODEL 2
REMARK VINA RESULT:      -7.9      4.682      8.139
REMARK SMILES CC1=C[C@@H]([C@@H]2N=N[C@H](S)N2/N=C/c2ccc(C(=O)OCCOCCOCCOC(=O)c3ccc(-c4c5nc(c(-c6cc(S(=O)(=O)[O-])ccc6F)c6ccc([nH]6)c(-c6cc(S(=O)(=O)[O-])ccc6F)c6nc(c(-c7cc(S(=O)(=O)[O-])ccc7F)c7ccc4[nH]7)C=C6)C=C5)cc3)cc2)N=N1
REMARK SMILES IDX 23 1 22 2 21 3 20 4 19 5 17 6 18 7 16 8 13 9 14 10 95 11
REMARK SMILES IDX 15 12 94 13 12 14 11 15 10 16 5 17 6 18 7 19 8 20 4 21 1 22
REMARK SMILES IDX 2 23 3 24 97 25 96 26 9 27 24 29 25 30 26 31 27 32 28 33
REMARK SMILES IDX 29 34 30 35 31 36 32 37 93 38 33 39 92 40 34 41 35 42 36 43
REMARK SMILES IDX 86 44 37 45 91 46 85 47 87 48 38 49 90 50 84 51 83 52 39 54
REMARK SMILES IDX 71 55 51 56 70 57 52 58 55 59 69 60 88 61 53 62 54 63 68 65
REMARK SMILES IDX 89 66 56 67 40 68 41 69 49 70 42 71 48 72 50 73 47 74 43 75
REMARK SMILES IDX 44 76 45 77 46 78 72 79 73 80 81 81 74 82 80 83 82 84 79 85
REMARK SMILES IDX 75 86 76 87 77 88 78 89 57 90 58 91 66 92 59 93 65 94 67 95
REMARK SMILES IDX 64 96 60 97 61 98 62 99 63 100
REMARK H PARENT 9 28 87 53 55 64
REMARK Flexibility Score: inf
ROOT
ATOM      1  C   UNL A   1      34.208  33.488  33.225  1.00  0.00     0.188 C 
ENDROOT
BRANCH   1   2
ATOM      2  O   UNL A   1      34.234  32.446  32.257  1.00  0.00    -0.376 OA
BRANCH   2   3
ATOM      3  C   UNL A   1      35.477  31.957  31.777  1.00  0.00     0.202 C 
BRANCH   3   4
ATOM      4  C   UNL A   1      35.657  31.756  30.263  1.00  0.00     0.261 C 
BRANCH   4   5
ATOM      5  O   UNL A   1      34.741  32.509  29.451  1.00  0.00    -0.460 OA
BRANCH   5   6
ATOM      6  C   UNL A   1      34.896  32.376  28.113  1.00  0.00     0.338 C 
ATOM      7  O   UNL A   1      35.538  33.098  27.369  1.00  0.00    -0.246 OA
BRANCH   6   8
ATOM      8  C   UNL A   1      34.301  31.099  27.655  1.00  0.00     0.060 A 
ATOM      9  C   UNL A   1      33.041  28.754  26.836  1.00  0.00    -0.005 A 
ATOM     10  C   UNL A   1      32.317  29.949  26.867  1.00  0.00     0.010 A 
ATOM     11  C   UNL A   1      34.398  28.728  27.172  1.00  0.00     0.010 A 
ATOM     12  C   UNL A   1      32.945  31.115  27.298  1.00  0.00     0.016 A 
ATOM     13  C   UNL A   1      35.038  29.910  27.565  1.00  0.00     0.016 A 
BRANCH   9  14
ATOM     14  C   UNL A   1      32.306  27.522  26.496  1.00  0.00     0.141 C 
ATOM     15  N   UNL A   1      32.936  26.412  26.274  1.00  0.00    -0.180 NA
BRANCH  15  16
ATOM     16  N   UNL A   1      32.192  25.286  26.053  1.00  0.00    -0.233 NA
ATOM     17  C   UNL A   1      32.316  24.210  27.052  1.00  0.00     0.274 C 
ATOM     18  N   UNL A   1      30.990  23.561  27.220  1.00  0.00    -0.161 NA
ATOM     19  N   UNL A   1      30.129  24.147  26.527  1.00  0.00    -0.153 NA
ATOM     20  C   UNL A   1      30.744  25.261  25.777  1.00  0.00     0.298 C 
BRANCH  17  21
ATOM     21  C   UNL A   1      33.388  23.164  26.658  1.00  0.00     0.201 C 
ATOM     22  C   UNL A   1      34.967  23.289  23.310  1.00  0.00     0.068 C 
ATOM     23  C   UNL A   1      34.247  23.043  24.585  1.00  0.00     0.058 C 
ATOM     24  C   UNL A   1      34.444  23.676  25.739  1.00  0.00     0.031 C 
ATOM     25  N   UNL A   1      33.259  22.095  24.667  1.00  0.00    -0.160 NA
ATOM     26  N   UNL A   1      32.766  22.081  25.832  1.00  0.00    -0.177 NA
ENDBRANCH  17  21
BRANCH  20  27
ATOM     27  S   UNL A   1      30.454  25.164  23.972  1.00  0.00    -0.128 SA
ATOM     28  H   UNL A   1      29.571  26.132  23.603  1.00  0.00     0.106 HD
ENDBRANCH  20  27
ENDBRANCH  15  16
ENDBRANCH   9  14
ENDBRANCH   6   8
ENDBRANCH   5   6
ENDBRANCH   4   5
ENDBRANCH   3   4
ENDBRANCH   2   3
ENDBRANCH   1   2
BRANCH   1  29
ATOM     29  C   UNL A   1      34.577  34.944  32.861  1.00  0.00     0.188 C 
BRANCH  29  30
ATOM     30  O   UNL A   1      35.848  35.395  33.309  1.00  0.00    -0.376 OA
BRANCH  30  31
ATOM     31  C   UNL A   1      36.967  34.707  32.757  1.00  0.00     0.202 C 
BRANCH  31  32
ATOM     32  C   UNL A   1      38.039  34.354  33.785  1.00  0.00     0.261 C 
BRANCH  32  33
ATOM     33  O   UNL A   1      38.497  33.006  33.719  1.00  0.00    -0.460 OA
BRANCH  33  34
ATOM     34  C   UNL A   1      37.944  32.147  34.604  1.00  0.00     0.338 C 
ATOM     35  O   UNL A   1      36.998  32.363  35.338  1.00  0.00    -0.246 OA
BRANCH  34  36
ATOM     36  C   UNL A   1      38.714  30.897  34.584  1.00  0.00     0.060 A 
ATOM     37  C   UNL A   1      39.846  30.815  35.400  1.00  0.00     0.016 A 
ATOM     38  C   UNL A   1      38.438  29.932  33.605  1.00  0.00     0.016 A 
ATOM     39  C   UNL A   1      40.798  29.854  35.120  1.00  0.00     0.010 A 
ATOM     40  C   UNL A   1      39.395  28.987  33.316  1.00  0.00     0.010 A 
ATOM     41  C   UNL A   1      40.597  29.008  34.027  1.00  0.00    -0.014 A 
BRANCH  41  42
ATOM     42  C   UNL A   1      41.716  28.218  33.548  1.00  0.00     0.031 A 
ATOM     43  C   UNL A   1      42.295  27.239  34.487  1.00  0.00     0.074 A 
ATOM     44  C   UNL A   1      42.067  28.265  32.246  1.00  0.00     0.049 A 
ATOM     45  N   UNL A   1      43.530  27.117  34.846  1.00  0.00    -0.248 NA
ATOM     46  C   UNL A   1      41.377  26.314  35.168  1.00  0.00     0.031 C 
ATOM     47  C   UNL A   1      41.344  28.960  31.173  1.00  0.00     0.029 A 
ATOM     48  N   UNL A   1      43.047  27.588  31.582  1.00  0.00    -0.354 N 
ATOM     49  C   UNL A   1      43.585  25.963  35.619  1.00  0.00     0.074 A 
ATOM     50  C   UNL A   1      42.224  25.613  35.920  1.00  0.00     0.031 C 
ATOM     51  C   UNL A   1      41.767  28.488  29.983  1.00  0.00     0.029 A 
ATOM     52  C   UNL A   1      42.853  27.548  30.207  1.00  0.00     0.049 A 
ATOM     53  H   UNL A   1      43.816  27.169  32.032  1.00  0.00     0.167 HD
ATOM     54  C   UNL A   1      44.740  25.258  35.756  1.00  0.00     0.034 A 
ATOM     55  C   UNL A   1      43.466  26.736  29.310  1.00  0.00     0.034 A 
ATOM     56  C   UNL A   1      45.894  26.072  35.448  1.00  0.00     0.049 A 
ATOM     57  C   UNL A   1      44.721  26.243  29.923  1.00  0.00     0.074 A 
ATOM     58  C   UNL A   1      46.381  27.274  35.926  1.00  0.00     0.029 A 
ATOM     59  N   UNL A   1      46.585  25.829  34.284  1.00  0.00    -0.354 N 
ATOM     60  N   UNL A   1      45.744  27.004  30.201  1.00  0.00    -0.248 NA
ATOM     61  C   UNL A   1      44.711  24.956  30.602  1.00  0.00     0.031 C 
ATOM     62  C   UNL A   1      46.992  27.907  34.805  1.00  0.00     0.029 A 
ATOM     63  C   UNL A   1      46.876  27.045  33.715  1.00  0.00     0.049 A 
ATOM     64  H   UNL A   1      46.827  24.946  33.923  1.00  0.00     0.167 HD
ATOM     65  C   UNL A   1      46.265  26.490  31.377  1.00  0.00     0.074 A 
ATOM     66  C   UNL A   1      45.681  25.160  31.497  1.00  0.00     0.031 C 
ATOM     67  C   UNL A   1      46.888  27.297  32.286  1.00  0.00     0.034 A 
BRANCH  54  68
ATOM     68  C   UNL A   1      44.807  23.749  35.844  1.00  0.00     0.023 A 
ATOM     69  C   UNL A   1      45.447  23.200  36.970  1.00  0.00     0.031 A 
ATOM     70  C   UNL A   1      44.553  22.845  34.785  1.00  0.00     0.131 A 
ATOM     71  C   UNL A   1      45.901  21.871  36.970  1.00  0.00     0.055 A 
ATOM     72  C   UNL A   1      44.928  21.499  34.826  1.00  0.00     0.041 A 
ATOM     73  F   UNL A   1      44.019  23.223  33.618  1.00  0.00    -0.206 F 
ATOM     74  C   UNL A   1      45.640  21.012  35.907  1.00  0.00     0.022 A 
BRANCH  71  75
ATOM     75  S   UNL A   1      47.035  21.359  38.286  1.00  0.00     0.124 S 
ATOM     76  O   UNL A   1      46.630  19.973  38.497  1.00  0.00    -0.237 OA
ATOM     77  O   UNL A   1      48.334  21.564  37.655  1.00  0.00    -0.237 OA
ATOM     78  O   UNL A   1      46.717  22.274  39.379  1.00  0.00    -0.744 OA
ENDBRANCH  71  75
ENDBRANCH  54  68
BRANCH  55  79
ATOM     79  C   UNL A   1      42.867  26.186  28.068  1.00  0.00     0.023 A 
ATOM     80  C   UNL A   1      42.295  24.902  28.010  1.00  0.00     0.031 A 
ATOM     81  C   UNL A   1      42.678  27.018  26.939  1.00  0.00     0.131 A 
ATOM     82  C   UNL A   1      41.595  24.491  26.853  1.00  0.00     0.055 A 
ATOM     83  C   UNL A   1      42.013  26.597  25.787  1.00  0.00     0.041 A 
ATOM     84  F   UNL A   1      43.067  28.304  26.947  1.00  0.00    -0.206 F 
ATOM     85  C   UNL A   1      41.463  25.328  25.742  1.00  0.00     0.022 A 
BRANCH  82  86
ATOM     86  S   UNL A   1      40.742  22.884  26.829  1.00  0.00     0.124 S 
ATOM     87  O   UNL A   1      39.360  23.271  26.573  1.00  0.00    -0.237 OA
ATOM     88  O   UNL A   1      41.432  22.183  25.751  1.00  0.00    -0.237 OA
ATOM     89  O   UNL A   1      40.995  22.346  28.166  1.00  0.00    -0.744 OA
ENDBRANCH  82  86
ENDBRANCH  55  79
BRANCH  67  90
ATOM     90  C   UNL A   1      47.371  28.657  31.835  1.00  0.00     0.023 A 
ATOM     91  C   UNL A   1      46.553  29.805  31.744  1.00  0.00     0.031 A 
ATOM     92  C   UNL A   1      48.750  28.819  31.608  1.00  0.00     0.131 A 
ATOM     93  C   UNL A   1      47.122  31.051  31.421  1.00  0.00     0.055 A 
ATOM     94  C   UNL A   1      49.312  30.058  31.304  1.00  0.00     0.041 A 
ATOM     95  F   UNL A   1      49.586  27.772  31.717  1.00  0.00    -0.206 F 
ATOM     96  C   UNL A   1      48.497  31.179  31.203  1.00  0.00     0.022 A 
BRANCH  93  97
ATOM     97  S   UNL A   1      46.072  32.531  31.279  1.00  0.00     0.124 S 
ATOM     98  O   UNL A   1      46.744  33.511  32.126  1.00  0.00    -0.237 OA
ATOM     99  O   UNL A   1      46.101  32.799  29.844  1.00  0.00    -0.237 OA
ATOM    100  O   UNL A   1      44.776  32.077  31.786  1.00  0.00    -0.744 OA
ENDBRANCH  93  97
ENDBRANCH  67  90
ENDBRANCH  41  42
ENDBRANCH  34  36
ENDBRANCH  33  34
ENDBRANCH  32  33
ENDBRANCH  31  32
ENDBRANCH  30  31
ENDBRANCH  29  30
ENDBRANCH   1  29
TORSDOF 24
ENDMDL
MODEL 3
REMARK VINA RESULT:      -7.8      4.472     10.500
REMARK SMILES CC1=C[C@@H]([C@@H]2N=N[C@H](S)N2/N=C/c2ccc(C(=O)OCCOCCOCCOC(=O)c3ccc(-c4c5nc(c(-c6cc(S(=O)(=O)[O-])ccc6F)c6ccc([nH]6)c(-c6cc(S(=O)(=O)[O-])ccc6F)c6nc(c(-c7cc(S(=O)(=O)[O-])ccc7F)c7ccc4[nH]7)C=C6)C=C5)cc3)cc2)N=N1
REMARK SMILES IDX 23 1 22 2 21 3 20 4 19 5 17 6 18 7 16 8 13 9 14 10 95 11
REMARK SMILES IDX 15 12 94 13 12 14 11 15 10 16 5 17 6 18 7 19 8 20 4 21 1 22
REMARK SMILES IDX 2 23 3 24 97 25 96 26 9 27 24 29 25 30 26 31 27 32 28 33
REMARK SMILES IDX 29 34 30 35 31 36 32 37 93 38 33 39 92 40 34 41 35 42 36 43
REMARK SMILES IDX 86 44 37 45 91 46 85 47 87 48 38 49 90 50 84 51 83 52 39 54
REMARK SMILES IDX 71 55 51 56 70 57 52 58 55 59 69 60 88 61 53 62 54 63 68 65
REMARK SMILES IDX 89 66 56 67 40 68 41 69 49 70 42 71 48 72 50 73 47 74 43 75
REMARK SMILES IDX 44 76 45 77 46 78 72 79 73 80 81 81 74 82 80 83 82 84 79 85
REMARK SMILES IDX 75 86 76 87 77 88 78 89 57 90 58 91 66 92 59 93 65 94 67 95
REMARK SMILES IDX 64 96 60 97 61 98 62 99 63 100
REMARK H PARENT 9 28 87 53 55 64
REMARK Flexibility Score: inf
ROOT
ATOM      1  C   UNL A   1      31.115  27.976  23.894  1.00  0.00     0.188 C 
ENDROOT
BRANCH   1   2
ATOM      2  O   UNL A   1      30.797  26.740  23.265  1.00  0.00    -0.376 OA
BRANCH   2   3
ATOM      3  C   UNL A   1      31.826  25.799  22.994  1.00  0.00     0.202 C 
BRANCH   3   4
ATOM      4  C   UNL A   1      31.457  24.311  22.894  1.00  0.00     0.261 C 
BRANCH   4   5
ATOM      5  O   UNL A   1      32.518  23.466  22.416  1.00  0.00    -0.460 OA
BRANCH   5   6
ATOM      6  C   UNL A   1      32.744  22.342  23.135  1.00  0.00     0.338 C 
ATOM      7  O   UNL A   1      32.150  21.280  23.049  1.00  0.00    -0.246 OA
BRANCH   6   8
ATOM      8  C   UNL A   1      33.959  22.502  23.966  1.00  0.00     0.060 A 
ATOM      9  C   UNL A   1      36.281  22.933  25.443  1.00  0.00    -0.005 A 
ATOM     10  C   UNL A   1      35.665  24.010  24.802  1.00  0.00     0.010 A 
ATOM     11  C   UNL A   1      35.726  21.651  25.385  1.00  0.00     0.010 A 
ATOM     12  C   UNL A   1      34.516  23.787  24.046  1.00  0.00     0.016 A 
ATOM     13  C   UNL A   1      34.548  21.437  24.659  1.00  0.00     0.016 A 
BRANCH   9  14
ATOM     14  C   UNL A   1      37.562  23.189  26.125  1.00  0.00     0.141 C 
ATOM     15  N   UNL A   1      38.624  22.514  25.821  1.00  0.00    -0.180 NA
BRANCH  15  16
ATOM     16  N   UNL A   1      39.801  22.862  26.427  1.00  0.00    -0.233 NA
ATOM     17  C   UNL A   1      41.017  22.192  25.934  1.00  0.00     0.274 C 
ATOM     18  N   UNL A   1      42.141  23.161  25.967  1.00  0.00    -0.161 NA
ATOM     19  N   UNL A   1      41.735  24.286  26.332  1.00  0.00    -0.153 NA
ATOM     20  C   UNL A   1      40.287  24.240  26.618  1.00  0.00     0.298 C 
BRANCH  17  21
ATOM     21  C   UNL A   1      41.364  20.927  26.758  1.00  0.00     0.201 C 
ATOM     22  C   UNL A   1      43.981  18.592  25.569  1.00  0.00     0.068 C 
ATOM     23  C   UNL A   1      42.790  19.358  26.013  1.00  0.00     0.058 C 
ATOM     24  C   UNL A   1      42.793  20.510  26.679  1.00  0.00     0.031 C 
ATOM     25  N   UNL A   1      41.522  18.911  25.741  1.00  0.00    -0.160 NA
ATOM     26  N   UNL A   1      40.667  19.734  26.182  1.00  0.00    -0.177 NA
ENDBRANCH  17  21
BRANCH  20  27
ATOM     27  S   UNL A   1      39.863  24.824  28.301  1.00  0.00    -0.128 SA
ATOM     28  H   UNL A   1      39.275  26.049  28.221  1.00  0.00     0.106 HD
ENDBRANCH  20  27
ENDBRANCH  15  16
ENDBRANCH   9  14
ENDBRANCH   6   8
ENDBRANCH   5   6
ENDBRANCH   4   5
ENDBRANCH   3   4
ENDBRANCH   2   3
ENDBRANCH   1   2
BRANCH   1  29
ATOM     29  C   UNL A   1      32.576  28.396  24.169  1.00  0.00     0.188 C 
BRANCH  29  30
ATOM     30  O   UNL A   1      32.924  28.586  25.533  1.00  0.00    -0.376 OA
BRANCH  30  31
ATOM     31  C   UNL A   1      32.010  29.375  26.290  1.00  0.00     0.202 C 
BRANCH  31  32
ATOM     32  C   UNL A   1      32.685  30.437  27.156  1.00  0.00     0.261 C 
BRANCH  32  33
ATOM     33  O   UNL A   1      33.998  30.094  27.591  1.00  0.00    -0.460 OA
BRANCH  33  34
ATOM     34  C   UNL A   1      34.830  31.129  27.840  1.00  0.00     0.338 C 
ATOM     35  O   UNL A   1      34.647  32.298  27.557  1.00  0.00    -0.246 OA
BRANCH  34  36
ATOM     36  C   UNL A   1      36.048  30.606  28.473  1.00  0.00     0.060 A 
ATOM     37  C   UNL A   1      36.617  31.352  29.508  1.00  0.00     0.016 A 
ATOM     38  C   UNL A   1      36.719  29.522  27.888  1.00  0.00     0.016 A 
ATOM     39  C   UNL A   1      37.938  31.122  29.844  1.00  0.00     0.010 A 
ATOM     40  C   UNL A   1      38.038  29.306  28.211  1.00  0.00     0.010 A 
ATOM     41  C   UNL A   1      38.654  30.157  29.131  1.00  0.00    -0.014 A 
BRANCH  41  42
ATOM     42  C   UNL A   1      40.098  30.129  29.265  1.00  0.00     0.031 A 
ATOM     43  C   UNL A   1      40.828  29.149  28.438  1.00  0.00     0.074 A 
ATOM     44  C   UNL A   1      40.729  31.086  29.976  1.00  0.00     0.049 A 
ATOM     45  N   UNL A   1      41.678  28.258  28.827  1.00  0.00    -0.248 NA
ATOM     46  C   UNL A   1      40.529  29.105  26.999  1.00  0.00     0.031 C 
ATOM     47  C   UNL A   1      40.115  32.285  30.560  1.00  0.00     0.029 A 
ATOM     48  N   UNL A   1      42.063  31.272  30.197  1.00  0.00    -0.354 N 
ATOM     49  C   UNL A   1      42.192  27.694  27.665  1.00  0.00     0.074 A 
ATOM     50  C   UNL A   1      41.337  28.127  26.594  1.00  0.00     0.031 C 
ATOM     51  C   UNL A   1      41.084  33.171  30.861  1.00  0.00     0.029 A 
ATOM     52  C   UNL A   1      42.379  32.565  30.594  1.00  0.00     0.049 A 
ATOM     53  H   UNL A   1      42.733  30.561  30.087  1.00  0.00     0.167 HD
ATOM     54  C   UNL A   1      43.416  27.102  27.648  1.00  0.00     0.034 A 
ATOM     55  C   UNL A   1      43.604  33.145  30.616  1.00  0.00     0.034 A 
ATOM     56  C   UNL A   1      43.836  26.721  28.977  1.00  0.00     0.049 A 
ATOM     57  C   UNL A   1      44.620  32.068  30.631  1.00  0.00     0.074 A 
ATOM     58  C   UNL A   1      43.291  25.931  29.972  1.00  0.00     0.029 A 
ATOM     59  N   UNL A   1      44.849  27.430  29.581  1.00  0.00    -0.354 N 
ATOM     60  N   UNL A   1      44.795  31.246  31.628  1.00  0.00    -0.248 NA
ATOM     61  C   UNL A   1      45.199  31.632  29.368  1.00  0.00     0.031 C 
ATOM     62  C   UNL A   1      43.688  26.539  31.198  1.00  0.00     0.029 A 
ATOM     63  C   UNL A   1      44.482  27.643  30.887  1.00  0.00     0.049 A 
ATOM     64  H   UNL A   1      45.684  27.730  29.156  1.00  0.00     0.167 HD
ATOM     65  C   UNL A   1      45.121  30.034  31.043  1.00  0.00     0.074 A 
ATOM     66  C   UNL A   1      45.489  30.365  29.673  1.00  0.00     0.031 C 
ATOM     67  C   UNL A   1      44.782  28.850  31.635  1.00  0.00     0.034 A 
BRANCH  54  68
ATOM     68  C   UNL A   1      44.374  27.171  26.478  1.00  0.00     0.023 A 
ATOM     69  C   UNL A   1      44.765  25.949  25.898  1.00  0.00     0.031 A 
ATOM     70  C   UNL A   1      45.135  28.300  26.095  1.00  0.00     0.131 A 
ATOM     71  C   UNL A   1      45.911  25.865  25.090  1.00  0.00     0.055 A 
ATOM     72  C   UNL A   1      46.222  28.224  25.219  1.00  0.00     0.041 A 
ATOM     73  F   UNL A   1      44.940  29.518  26.611  1.00  0.00    -0.206 F 
ATOM     74  C   UNL A   1      46.641  26.996  24.740  1.00  0.00     0.022 A 
BRANCH  71  75
ATOM     75  S   UNL A   1      46.555  24.218  24.698  1.00  0.00     0.124 S 
ATOM     76  O   UNL A   1      45.410  23.608  24.032  1.00  0.00    -0.237 OA
ATOM     77  O   UNL A   1      47.699  24.541  23.853  1.00  0.00    -0.237 OA
ATOM     78  O   UNL A   1      46.881  23.664  26.009  1.00  0.00    -0.744 OA
ENDBRANCH  71  75
ENDBRANCH  54  68
BRANCH  55  79
ATOM     79  C   UNL A   1      43.905  34.577  30.362  1.00  0.00     0.023 A 
ATOM     80  C   UNL A   1      44.212  35.069  29.081  1.00  0.00     0.031 A 
ATOM     81  C   UNL A   1      43.701  35.539  31.381  1.00  0.00     0.131 A 
ATOM     82  C   UNL A   1      44.329  36.461  28.866  1.00  0.00     0.055 A 
ATOM     83  C   UNL A   1      43.848  36.910  31.171  1.00  0.00     0.041 A 
ATOM     84  F   UNL A   1      43.275  35.181  32.603  1.00  0.00    -0.206 F 
ATOM     85  C   UNL A   1      44.160  37.378  29.907  1.00  0.00     0.022 A 
BRANCH  82  86
ATOM     86  S   UNL A   1      44.593  37.103  27.185  1.00  0.00     0.124 S 
ATOM     87  O   UNL A   1      43.401  37.916  26.972  1.00  0.00    -0.237 OA
ATOM     88  O   UNL A   1      45.855  37.822  27.322  1.00  0.00    -0.237 OA
ATOM     89  O   UNL A   1      44.667  35.892  26.366  1.00  0.00    -0.744 OA
ENDBRANCH  82  86
ENDBRANCH  55  79
BRANCH  67  90
ATOM     90  C   UNL A   1      44.425  28.851  33.104  1.00  0.00     0.023 A 
ATOM     91  C   UNL A   1      43.120  29.036  33.609  1.00  0.00     0.031 A 
ATOM     92  C   UNL A   1      45.441  28.527  34.023  1.00  0.00     0.131 A 
ATOM     93  C   UNL A   1      42.874  28.907  34.989  1.00  0.00     0.055 A 
ATOM     94  C   UNL A   1      45.190  28.386  35.387  1.00  0.00     0.041 A 
ATOM     95  F   UNL A   1      46.697  28.303  33.600  1.00  0.00    -0.206 F 
ATOM     96  C   UNL A   1      43.904  28.582  35.877  1.00  0.00     0.022 A 
BRANCH  93  97
ATOM     97  S   UNL A   1      41.198  29.165  35.652  1.00  0.00     0.124 S 
ATOM     98  O   UNL A   1      41.049  28.097  36.633  1.00  0.00    -0.237 OA
ATOM     99  O   UNL A   1      41.278  30.521  36.188  1.00  0.00    -0.237 OA
ATOM    100  O   UNL A   1      40.343  29.030  34.470  1.00  0.00    -0.744 OA
ENDBRANCH  93  97
ENDBRANCH  67  90
ENDBRANCH  41  42
ENDBRANCH  34  36
ENDBRANCH  33  34
ENDBRANCH  32  33
ENDBRANCH  31  32
ENDBRANCH  30  31
ENDBRANCH  29  30
ENDBRANCH   1  29
TORSDOF 24
ENDMDL
