MODEL 1
REMARK VINA RESULT:     -11.2      0.000      0.000
REMARK SMILES O=C(OCCOCCOCCOC(=O)[C@H]1CC=CC[C@H]1c1nc2cc(Br)ccc2o1)c1ccc(-c2c3nc(c(-c4cc(S(=O)(=O)[O-])ccc4F)c4ccc([nH]4)c(-c4cc(S(=O)(=O)[O-])ccc4F)c4nc(c(-c5cc(S(=O)(=O)[O-])ccc5F)c5ccc2[nH]5)C=C4)C=C3)cc1
REMARK SMILES IDX 7 1 6 2 5 3 4 4 3 5 2 6 1 7 31 8 32 9 93 10 33 11 92 12
REMARK SMILES IDX 34 13 35 14 36 15 86 16 37 17 91 18 85 19 87 20 38 21 90 22
REMARK SMILES IDX 84 23 83 24 39 26 71 27 51 28 70 29 52 30 55 31 69 32 88 33
REMARK SMILES IDX 53 34 54 35 68 37 89 38 56 39 40 40 41 41 49 42 42 43 48 44
REMARK SMILES IDX 50 45 47 46 43 47 44 48 45 49 46 50 72 51 73 52 81 53 74 54
REMARK SMILES IDX 80 55 82 56 79 57 75 58 76 59 77 60 78 61 57 62 58 63 66 64
REMARK SMILES IDX 59 65 65 66 67 67 64 68 60 69 61 70 62 71 63 72 8 73 9 74
REMARK SMILES IDX 10 75 11 76 12 77 13 78 14 79 15 80 16 81 20 82 17 83 19 84
REMARK SMILES IDX 18 85 21 86 22 87 30 88 23 89 29 90 24 91 28 92 25 93 27 94
REMARK SMILES IDX 26 95
REMARK H PARENT 87 25 55 36
REMARK Flexibility Score: inf
ROOT
ATOM      1  C   UNL A   1      35.114  21.498  25.290  1.00  0.00     0.188 C 
ENDROOT
BRANCH   1   2
ATOM      2  O   UNL A   1      36.267  20.714  25.048  1.00  0.00    -0.376 OA
BRANCH   2   3
ATOM      3  C   UNL A   1      37.427  21.459  24.716  1.00  0.00     0.202 C 
BRANCH   3   4
ATOM      4  C   UNL A   1      38.667  21.086  25.529  1.00  0.00     0.261 C 
BRANCH   4   5
ATOM      5  O   UNL A   1      39.135  22.004  26.545  1.00  0.00    -0.460 OA
BRANCH   5   6
ATOM      6  C   UNL A   1      40.319  22.665  26.609  1.00  0.00     0.338 C 
ATOM      7  O   UNL A   1      41.374  22.102  26.378  1.00  0.00    -0.246 OA
BRANCH   6   8
ATOM      8  C   UNL A   1      40.319  24.052  27.108  1.00  0.00     0.060 A 
ATOM      9  C   UNL A   1      41.367  24.387  27.962  1.00  0.00     0.016 A 
ATOM     10  C   UNL A   1      39.301  24.972  26.825  1.00  0.00     0.016 A 
ATOM     11  C   UNL A   1      41.324  25.600  28.624  1.00  0.00     0.010 A 
ATOM     12  C   UNL A   1      39.267  26.198  27.501  1.00  0.00     0.010 A 
ATOM     13  C   UNL A   1      40.271  26.501  28.423  1.00  0.00    -0.014 A 
BRANCH  13  14
ATOM     14  C   UNL A   1      40.443  27.797  29.092  1.00  0.00     0.031 A 
ATOM     15  C   UNL A   1      41.564  28.628  28.567  1.00  0.00     0.074 A 
ATOM     16  C   UNL A   1      39.707  28.269  30.116  1.00  0.00     0.049 A 
ATOM     17  N   UNL A   1      42.480  29.252  29.240  1.00  0.00    -0.248 NA
ATOM     18  C   UNL A   1      41.698  28.737  27.107  1.00  0.00     0.031 C 
ATOM     19  C   UNL A   1      38.419  27.763  30.582  1.00  0.00     0.029 A 
ATOM     20  N   UNL A   1      39.930  29.374  30.907  1.00  0.00    -0.354 N 
ATOM     21  C   UNL A   1      43.236  29.939  28.296  1.00  0.00     0.074 A 
ATOM     22  C   UNL A   1      42.768  29.520  26.998  1.00  0.00     0.031 C 
ATOM     23  C   UNL A   1      37.883  28.665  31.433  1.00  0.00     0.029 A 
ATOM     24  C   UNL A   1      38.822  29.767  31.631  1.00  0.00     0.049 A 
ATOM     25  H   UNL A   1      40.797  29.838  30.951  1.00  0.00     0.167 HD
ATOM     26  C   UNL A   1      44.086  30.950  28.619  1.00  0.00     0.034 A 
ATOM     27  C   UNL A   1      38.609  30.954  32.249  1.00  0.00     0.034 A 
ATOM     28  C   UNL A   1      44.532  30.967  29.985  1.00  0.00     0.049 A 
ATOM     29  C   UNL A   1      39.868  31.691  32.525  1.00  0.00     0.074 A 
ATOM     30  C   UNL A   1      45.718  30.807  30.664  1.00  0.00     0.029 A 
ATOM     31  N   UNL A   1      43.564  31.067  30.938  1.00  0.00    -0.354 N 
ATOM     32  N   UNL A   1      40.700  31.417  33.488  1.00  0.00    -0.248 NA
ATOM     33  C   UNL A   1      40.345  32.683  31.565  1.00  0.00     0.031 C 
ATOM     34  C   UNL A   1      45.427  30.905  32.058  1.00  0.00     0.029 A 
ATOM     35  C   UNL A   1      44.067  31.139  32.214  1.00  0.00     0.049 A 
ATOM     36  H   UNL A   1      42.600  31.085  30.732  1.00  0.00     0.167 HD
ATOM     37  C   UNL A   1      41.922  31.874  33.048  1.00  0.00     0.074 A 
ATOM     38  C   UNL A   1      41.616  32.795  31.959  1.00  0.00     0.031 C 
ATOM     39  C   UNL A   1      43.096  31.213  33.299  1.00  0.00     0.034 A 
BRANCH  26  40
ATOM     40  C   UNL A   1      44.261  32.142  27.710  1.00  0.00     0.023 A 
ATOM     41  C   UNL A   1      43.703  33.395  28.044  1.00  0.00     0.031 A 
ATOM     42  C   UNL A   1      45.172  32.141  26.639  1.00  0.00     0.131 A 
ATOM     43  C   UNL A   1      43.992  34.551  27.313  1.00  0.00     0.055 A 
ATOM     44  C   UNL A   1      45.520  33.312  25.953  1.00  0.00     0.041 A 
ATOM     45  F   UNL A   1      45.777  31.011  26.243  1.00  0.00    -0.206 F 
ATOM     46  C   UNL A   1      44.922  34.525  26.281  1.00  0.00     0.022 A 
BRANCH  43  47
ATOM     47  S   UNL A   1      43.133  36.101  27.691  1.00  0.00     0.124 S 
ATOM     48  O   UNL A   1      41.736  35.683  27.671  1.00  0.00    -0.237 OA
ATOM     49  O   UNL A   1      43.677  36.434  29.006  1.00  0.00    -0.237 OA
ATOM     50  O   UNL A   1      43.550  36.993  26.613  1.00  0.00    -0.744 OA
ENDBRANCH  43  47
ENDBRANCH  26  40
BRANCH  27  51
ATOM     51  C   UNL A   1      37.293  31.620  32.367  1.00  0.00     0.023 A 
ATOM     52  C   UNL A   1      36.638  32.063  31.202  1.00  0.00     0.031 A 
ATOM     53  C   UNL A   1      36.768  32.040  33.598  1.00  0.00     0.131 A 
ATOM     54  C   UNL A   1      35.509  32.882  31.277  1.00  0.00     0.055 A 
ATOM     55  C   UNL A   1      35.644  32.870  33.673  1.00  0.00     0.041 A 
ATOM     56  F   UNL A   1      37.361  31.691  34.750  1.00  0.00    -0.206 F 
ATOM     57  C   UNL A   1      35.008  33.296  32.508  1.00  0.00     0.022 A 
BRANCH  54  58
ATOM     58  S   UNL A   1      34.696  33.406  29.745  1.00  0.00     0.124 S 
ATOM     59  O   UNL A   1      34.348  32.134  29.117  1.00  0.00    -0.237 OA
ATOM     60  O   UNL A   1      33.575  34.187  30.254  1.00  0.00    -0.237 OA
ATOM     61  O   UNL A   1      35.739  34.163  29.056  1.00  0.00    -0.744 OA
ENDBRANCH  54  58
ENDBRANCH  27  51
BRANCH  39  62
ATOM     62  C   UNL A   1      43.295  30.435  34.587  1.00  0.00     0.023 A 
ATOM     63  C   UNL A   1      42.731  29.144  34.693  1.00  0.00     0.031 A 
ATOM     64  C   UNL A   1      43.999  30.886  35.720  1.00  0.00     0.131 A 
ATOM     65  C   UNL A   1      42.835  28.390  35.874  1.00  0.00     0.055 A 
ATOM     66  C   UNL A   1      44.234  30.066  36.829  1.00  0.00     0.041 A 
ATOM     67  F   UNL A   1      44.429  32.149  35.848  1.00  0.00    -0.206 F 
ATOM     68  C   UNL A   1      43.629  28.823  36.928  1.00  0.00     0.022 A 
BRANCH  65  69
ATOM     69  S   UNL A   1      41.899  26.853  36.083  1.00  0.00     0.124 S 
ATOM     70  O   UNL A   1      41.165  26.749  34.824  1.00  0.00    -0.237 OA
ATOM     71  O   UNL A   1      42.964  25.870  36.266  1.00  0.00    -0.237 OA
ATOM     72  O   UNL A   1      41.074  27.102  37.261  1.00  0.00    -0.744 OA
ENDBRANCH  65  69
ENDBRANCH  39  62
ENDBRANCH  13  14
ENDBRANCH   6   8
ENDBRANCH   5   6
ENDBRANCH   4   5
ENDBRANCH   3   4
ENDBRANCH   2   3
ENDBRANCH   1   2
BRANCH   1  73
ATOM     73  C   UNL A   1      33.851  20.772  24.827  1.00  0.00     0.188 C 
BRANCH  73  74
ATOM     74  O   UNL A   1      32.652  21.539  24.767  1.00  0.00    -0.376 OA
BRANCH  74  75
ATOM     75  C   UNL A   1      31.942  21.767  25.982  1.00  0.00     0.202 C 
BRANCH  75  76
ATOM     76  C   UNL A   1      31.713  23.193  26.514  1.00  0.00     0.261 C 
BRANCH  76  77
ATOM     77  O   UNL A   1      31.706  24.301  25.605  1.00  0.00    -0.463 OA
BRANCH  77  78
ATOM     78  C   UNL A   1      32.174  25.453  26.148  1.00  0.00     0.310 C 
ATOM     79  O   UNL A   1      31.592  26.086  27.025  1.00  0.00    -0.252 OA
BRANCH  78  80
ATOM     80  C   UNL A   1      33.470  25.948  25.521  1.00  0.00     0.115 C 
ATOM     81  C   UNL A   1      34.636  24.951  25.563  1.00  0.00     0.043 C 
ATOM     82  C   UNL A   1      33.213  26.547  24.118  1.00  0.00     0.094 C 
ATOM     83  C   UNL A   1      35.031  24.361  24.242  1.00  0.00    -0.030 C 
ATOM     84  C   UNL A   1      33.153  25.473  23.028  1.00  0.00     0.041 C 
ATOM     85  C   UNL A   1      34.358  24.584  23.106  1.00  0.00    -0.030 C 
BRANCH  82  86
ATOM     86  C   UNL A   1      31.996  27.403  24.147  1.00  0.00     0.199 A 
ATOM     87  N   UNL A   1      31.915  28.708  24.331  1.00  0.00    -0.213 NA
ATOM     88  O   UNL A   1      30.867  26.823  23.627  1.00  0.00    -0.440 OA
ATOM     89  C   UNL A   1      30.651  29.015  23.900  1.00  0.00     0.111 A 
ATOM     90  C   UNL A   1      30.009  27.866  23.474  1.00  0.00     0.154 A 
ATOM     91  C   UNL A   1      29.983  30.243  23.819  1.00  0.00     0.048 A 
ATOM     92  C   UNL A   1      28.725  27.822  22.949  1.00  0.00     0.050 A 
ATOM     93  C   UNL A   1      28.676  30.233  23.317  1.00  0.00     0.020 A 
ATOM     94  C   UNL A   1      28.060  29.052  22.883  1.00  0.00     0.019 A 
ATOM     95  Br  UNL A   1      27.714  31.863  23.230  1.00  0.00    -0.051 Br
ENDBRANCH  82  86
ENDBRANCH  78  80
ENDBRANCH  77  78
ENDBRANCH  76  77
ENDBRANCH  75  76
ENDBRANCH  74  75
ENDBRANCH  73  74
ENDBRANCH   1  73
TORSDOF 21
ENDMDL
MODEL 2
REMARK VINA RESULT:     -11.2      4.754      8.422
REMARK SMILES O=C(OCCOCCOCCOC(=O)[C@H]1CC=CC[C@H]1c1nc2cc(Br)ccc2o1)c1ccc(-c2c3nc(c(-c4cc(S(=O)(=O)[O-])ccc4F)c4ccc([nH]4)c(-c4cc(S(=O)(=O)[O-])ccc4F)c4nc(c(-c5cc(S(=O)(=O)[O-])ccc5F)c5ccc2[nH]5)C=C4)C=C3)cc1
REMARK SMILES IDX 7 1 6 2 5 3 4 4 3 5 2 6 1 7 31 8 32 9 93 10 33 11 92 12
REMARK SMILES IDX 34 13 35 14 36 15 86 16 37 17 91 18 85 19 87 20 38 21 90 22
REMARK SMILES IDX 84 23 83 24 39 26 71 27 51 28 70 29 52 30 55 31 69 32 88 33
REMARK SMILES IDX 53 34 54 35 68 37 89 38 56 39 40 40 41 41 49 42 42 43 48 44
REMARK SMILES IDX 50 45 47 46 43 47 44 48 45 49 46 50 72 51 73 52 81 53 74 54
REMARK SMILES IDX 80 55 82 56 79 57 75 58 76 59 77 60 78 61 57 62 58 63 66 64
REMARK SMILES IDX 59 65 65 66 67 67 64 68 60 69 61 70 62 71 63 72 8 73 9 74
REMARK SMILES IDX 10 75 11 76 12 77 13 78 14 79 15 80 16 81 20 82 17 83 19 84
REMARK SMILES IDX 18 85 21 86 22 87 30 88 23 89 29 90 24 91 28 92 25 93 27 94
REMARK SMILES IDX 26 95
REMARK H PARENT 87 25 55 36
REMARK Flexibility Score: inf
ROOT
ATOM      1  C   UNL A   1      44.122  18.805  25.001  1.00  0.00     0.188 C 
ENDROOT
BRANCH   1   2
ATOM      2  O   UNL A   1      43.468  19.318  26.146  1.00  0.00    -0.376 OA
BRANCH   2   3
ATOM      3  C   UNL A   1      42.063  19.460  26.008  1.00  0.00     0.202 C 
BRANCH   3   4
ATOM      4  C   UNL A   1      41.572  20.908  26.052  1.00  0.00     0.261 C 
BRANCH   4   5
ATOM      5  O   UNL A   1      40.288  21.188  26.657  1.00  0.00    -0.460 OA
BRANCH   5   6
ATOM      6  C   UNL A   1      39.508  22.290  26.518  1.00  0.00     0.338 C 
ATOM      7  O   UNL A   1      38.615  22.335  25.690  1.00  0.00    -0.246 OA
BRANCH   6   8
ATOM      8  C   UNL A   1      39.854  23.494  27.293  1.00  0.00     0.060 A 
ATOM      9  C   UNL A   1      38.958  24.556  27.194  1.00  0.00     0.016 A 
ATOM     10  C   UNL A   1      41.042  23.624  28.025  1.00  0.00     0.016 A 
ATOM     11  C   UNL A   1      39.315  25.781  27.728  1.00  0.00     0.010 A 
ATOM     12  C   UNL A   1      41.395  24.869  28.561  1.00  0.00     0.010 A 
ATOM     13  C   UNL A   1      40.537  25.957  28.389  1.00  0.00    -0.014 A 
BRANCH  13  14
ATOM     14  C   UNL A   1      40.705  27.275  29.016  1.00  0.00     0.031 A 
ATOM     15  C   UNL A   1      41.872  28.058  28.520  1.00  0.00     0.074 A 
ATOM     16  C   UNL A   1      39.927  27.804  29.980  1.00  0.00     0.049 A 
ATOM     17  N   UNL A   1      42.767  28.688  29.217  1.00  0.00    -0.248 NA
ATOM     18  C   UNL A   1      42.087  28.104  27.066  1.00  0.00     0.031 C 
ATOM     19  C   UNL A   1      38.604  27.347  30.394  1.00  0.00     0.029 A 
ATOM     20  N   UNL A   1      40.135  28.934  30.737  1.00  0.00    -0.354 N 
ATOM     21  C   UNL A   1      43.588  29.319  28.289  1.00  0.00     0.074 A 
ATOM     22  C   UNL A   1      43.180  28.859  26.985  1.00  0.00     0.031 C 
ATOM     23  C   UNL A   1      38.047  28.294  31.179  1.00  0.00     0.029 A 
ATOM     24  C   UNL A   1      39.001  29.381  31.384  1.00  0.00     0.049 A 
ATOM     25  H   UNL A   1      41.010  29.380  30.810  1.00  0.00     0.167 HD
ATOM     26  C   UNL A   1      44.446  30.322  28.618  1.00  0.00     0.034 A 
ATOM     27  C   UNL A   1      38.785  30.597  31.942  1.00  0.00     0.034 A 
ATOM     28  C   UNL A   1      44.818  30.384  30.004  1.00  0.00     0.049 A 
ATOM     29  C   UNL A   1      40.045  31.316  32.257  1.00  0.00     0.074 A 
ATOM     30  C   UNL A   1      45.962  30.225  30.752  1.00  0.00     0.029 A 
ATOM     31  N   UNL A   1      43.803  30.544  30.898  1.00  0.00    -0.354 N 
ATOM     32  N   UNL A   1      40.818  31.063  33.275  1.00  0.00    -0.248 NA
ATOM     33  C   UNL A   1      40.597  32.257  31.287  1.00  0.00     0.031 C 
ATOM     34  C   UNL A   1      45.600  30.386  32.124  1.00  0.00     0.029 A 
ATOM     35  C   UNL A   1      44.240  30.657  32.197  1.00  0.00     0.049 A 
ATOM     36  H   UNL A   1      42.853  30.576  30.641  1.00  0.00     0.167 HD
ATOM     37  C   UNL A   1      42.072  31.474  32.884  1.00  0.00     0.074 A 
ATOM     38  C   UNL A   1      41.847  32.356  31.744  1.00  0.00     0.031 C 
ATOM     39  C   UNL A   1      43.214  30.796  33.224  1.00  0.00     0.034 A 
BRANCH  26  40
ATOM     40  C   UNL A   1      44.698  31.472  27.674  1.00  0.00     0.023 A 
ATOM     41  C   UNL A   1      44.007  32.694  27.821  1.00  0.00     0.031 A 
ATOM     42  C   UNL A   1      45.782  31.483  26.779  1.00  0.00     0.131 A 
ATOM     43  C   UNL A   1      44.343  33.827  27.074  1.00  0.00     0.055 A 
ATOM     44  C   UNL A   1      46.167  32.638  26.084  1.00  0.00     0.041 A 
ATOM     45  F   UNL A   1      46.522  30.383  26.570  1.00  0.00    -0.206 F 
ATOM     46  C   UNL A   1      45.440  33.817  26.222  1.00  0.00     0.022 A 
BRANCH  43  47
ATOM     47  S   UNL A   1      43.328  35.324  27.192  1.00  0.00     0.124 S 
ATOM     48  O   UNL A   1      44.340  36.360  27.369  1.00  0.00    -0.237 OA
ATOM     49  O   UNL A   1      42.640  35.323  25.903  1.00  0.00    -0.237 OA
ATOM     50  O   UNL A   1      42.470  35.064  28.344  1.00  0.00    -0.744 OA
ENDBRANCH  43  47
ENDBRANCH  26  40
BRANCH  27  51
ATOM     51  C   UNL A   1      37.482  31.297  31.963  1.00  0.00     0.023 A 
ATOM     52  C   UNL A   1      36.922  31.748  30.752  1.00  0.00     0.031 A 
ATOM     53  C   UNL A   1      36.881  31.738  33.151  1.00  0.00     0.131 A 
ATOM     54  C   UNL A   1      35.813  32.597  30.742  1.00  0.00     0.055 A 
ATOM     55  C   UNL A   1      35.776  32.597  33.142  1.00  0.00     0.041 A 
ATOM     56  F   UNL A   1      37.381  31.382  34.345  1.00  0.00    -0.206 F 
ATOM     57  C   UNL A   1      35.235  33.032  31.932  1.00  0.00     0.022 A 
BRANCH  54  58
ATOM     58  S   UNL A   1      35.125  33.130  29.153  1.00  0.00     0.124 S 
ATOM     59  O   UNL A   1      34.249  32.018  28.794  1.00  0.00    -0.237 OA
ATOM     60  O   UNL A   1      34.452  34.370  29.521  1.00  0.00    -0.237 OA
ATOM     61  O   UNL A   1      36.309  33.274  28.309  1.00  0.00    -0.744 OA
ENDBRANCH  54  58
ENDBRANCH  27  51
BRANCH  39  62
ATOM     62  C   UNL A   1      43.325  30.067  34.550  1.00  0.00     0.023 A 
ATOM     63  C   UNL A   1      42.772  28.772  34.659  1.00  0.00     0.031 A 
ATOM     64  C   UNL A   1      43.935  30.568  35.716  1.00  0.00     0.131 A 
ATOM     65  C   UNL A   1      42.796  28.060  35.870  1.00  0.00     0.055 A 
ATOM     66  C   UNL A   1      44.096  29.791  36.868  1.00  0.00     0.041 A 
ATOM     67  F   UNL A   1      44.338  31.841  35.831  1.00  0.00    -0.206 F 
ATOM     68  C   UNL A   1      43.501  28.543  36.966  1.00  0.00     0.022 A 
BRANCH  65  69
ATOM     69  S   UNL A   1      41.867  26.518  36.064  1.00  0.00     0.124 S 
ATOM     70  O   UNL A   1      42.925  25.510  36.115  1.00  0.00    -0.237 OA
ATOM     71  O   UNL A   1      41.160  26.743  37.322  1.00  0.00    -0.237 OA
ATOM     72  O   UNL A   1      41.020  26.466  34.876  1.00  0.00    -0.744 OA
ENDBRANCH  65  69
ENDBRANCH  39  62
ENDBRANCH  13  14
ENDBRANCH   6   8
ENDBRANCH   5   6
ENDBRANCH   4   5
ENDBRANCH   3   4
ENDBRANCH   2   3
ENDBRANCH   1   2
BRANCH   1  73
ATOM     73  C   UNL A   1      45.615  18.610  25.265  1.00  0.00     0.188 C 
BRANCH  73  74
ATOM     74  O   UNL A   1      46.401  19.788  25.421  1.00  0.00    -0.376 OA
BRANCH  74  75
ATOM     75  C   UNL A   1      45.851  21.024  24.971  1.00  0.00     0.202 C 
BRANCH  75  76
ATOM     76  C   UNL A   1      45.595  22.185  25.950  1.00  0.00     0.261 C 
BRANCH  76  77
ATOM     77  O   UNL A   1      46.497  23.297  25.987  1.00  0.00    -0.463 OA
BRANCH  77  78
ATOM     78  C   UNL A   1      46.288  24.200  24.996  1.00  0.00     0.310 C 
ATOM     79  O   UNL A   1      46.717  24.076  23.851  1.00  0.00    -0.252 OA
BRANCH  78  80
ATOM     80  C   UNL A   1      45.525  25.440  25.442  1.00  0.00     0.115 C 
ATOM     81  C   UNL A   1      44.509  25.208  26.569  1.00  0.00     0.043 C 
ATOM     82  C   UNL A   1      46.490  26.619  25.706  1.00  0.00     0.094 C 
ATOM     83  C   UNL A   1      44.872  25.799  27.899  1.00  0.00    -0.030 C 
ATOM     84  C   UNL A   1      47.114  26.560  27.103  1.00  0.00     0.041 C 
ATOM     85  C   UNL A   1      46.047  26.394  28.143  1.00  0.00    -0.030 C 
BRANCH  82  86
ATOM     86  C   UNL A   1      47.511  26.691  24.625  1.00  0.00     0.199 A 
ATOM     87  N   UNL A   1      47.383  27.189  23.409  1.00  0.00    -0.213 NA
ATOM     88  O   UNL A   1      48.804  26.495  25.035  1.00  0.00    -0.440 OA
ATOM     89  C   UNL A   1      48.678  27.339  22.986  1.00  0.00     0.111 A 
ATOM     90  C   UNL A   1      49.546  26.913  23.976  1.00  0.00     0.154 A 
ATOM     91  C   UNL A   1      49.200  27.845  21.790  1.00  0.00     0.048 A 
ATOM     92  C   UNL A   1      50.930  26.953  23.888  1.00  0.00     0.050 A 
ATOM     93  C   UNL A   1      50.593  27.878  21.657  1.00  0.00     0.020 A 
ATOM     94  C   UNL A   1      51.443  27.450  22.684  1.00  0.00     0.019 A 
ATOM     95  Br  UNL A   1      51.346  28.514  20.039  1.00  0.00    -0.051 Br
ENDBRANCH  82  86
ENDBRANCH  78  80
ENDBRANCH  77  78
ENDBRANCH  76  77
ENDBRANCH  75  76
ENDBRANCH  74  75
ENDBRANCH  73  74
ENDBRANCH   1  73
TORSDOF 21
ENDMDL
MODEL 3
REMARK VINA RESULT:     -11.1      3.491      5.336
REMARK SMILES O=C(OCCOCCOCCOC(=O)[C@H]1CC=CC[C@H]1c1nc2cc(Br)ccc2o1)c1ccc(-c2c3nc(c(-c4cc(S(=O)(=O)[O-])ccc4F)c4ccc([nH]4)c(-c4cc(S(=O)(=O)[O-])ccc4F)c4nc(c(-c5cc(S(=O)(=O)[O-])ccc5F)c5ccc2[nH]5)C=C4)C=C3)cc1
REMARK SMILES IDX 7 1 6 2 5 3 4 4 3 5 2 6 1 7 31 8 32 9 93 10 33 11 92 12
REMARK SMILES IDX 34 13 35 14 36 15 86 16 37 17 91 18 85 19 87 20 38 21 90 22
REMARK SMILES IDX 84 23 83 24 39 26 71 27 51 28 70 29 52 30 55 31 69 32 88 33
REMARK SMILES IDX 53 34 54 35 68 37 89 38 56 39 40 40 41 41 49 42 42 43 48 44
REMARK SMILES IDX 50 45 47 46 43 47 44 48 45 49 46 50 72 51 73 52 81 53 74 54
REMARK SMILES IDX 80 55 82 56 79 57 75 58 76 59 77 60 78 61 57 62 58 63 66 64
REMARK SMILES IDX 59 65 65 66 67 67 64 68 60 69 61 70 62 71 63 72 8 73 9 74
REMARK SMILES IDX 10 75 11 76 12 77 13 78 14 79 15 80 16 81 20 82 17 83 19 84
REMARK SMILES IDX 18 85 21 86 22 87 30 88 23 89 29 90 24 91 28 92 25 93 27 94
REMARK SMILES IDX 26 95
REMARK H PARENT 87 25 55 36
REMARK Flexibility Score: inf
ROOT
ATOM      1  C   UNL A   1      40.823  21.594  27.514  1.00  0.00     0.188 C 
ENDROOT
BRANCH   1   2
ATOM      2  O   UNL A   1      41.472  20.336  27.498  1.00  0.00    -0.376 OA
BRANCH   2   3
ATOM      3  C   UNL A   1      41.306  19.603  26.296  1.00  0.00     0.202 C 
BRANCH   3   4
ATOM      4  C   UNL A   1      42.564  18.866  25.832  1.00  0.00     0.261 C 
BRANCH   4   5
ATOM      5  O   UNL A   1      43.805  19.603  25.731  1.00  0.00    -0.460 OA
BRANCH   5   6
ATOM      6  C   UNL A   1      44.118  20.625  24.895  1.00  0.00     0.338 C 
ATOM      7  O   UNL A   1      44.600  20.421  23.795  1.00  0.00    -0.246 OA
BRANCH   6   8
ATOM      8  C   UNL A   1      43.998  22.004  25.401  1.00  0.00     0.060 A 
ATOM      9  C   UNL A   1      44.464  22.216  26.696  1.00  0.00     0.016 A 
ATOM     10  C   UNL A   1      43.385  23.038  24.681  1.00  0.00     0.016 A 
ATOM     11  C   UNL A   1      44.205  23.429  27.307  1.00  0.00     0.010 A 
ATOM     12  C   UNL A   1      43.126  24.263  25.309  1.00  0.00     0.010 A 
ATOM     13  C   UNL A   1      43.516  24.448  26.637  1.00  0.00    -0.014 A 
BRANCH  13  14
ATOM     14  C   UNL A   1      43.442  25.717  27.372  1.00  0.00     0.031 A 
ATOM     15  C   UNL A   1      44.703  26.512  27.377  1.00  0.00     0.074 A 
ATOM     16  C   UNL A   1      42.369  26.193  28.034  1.00  0.00     0.049 A 
ATOM     17  N   UNL A   1      45.288  27.078  28.386  1.00  0.00    -0.248 NA
ATOM     18  C   UNL A   1      45.418  26.653  26.099  1.00  0.00     0.031 C 
ATOM     19  C   UNL A   1      40.989  25.732  27.921  1.00  0.00     0.029 A 
ATOM     20  N   UNL A   1      42.287  27.266  28.892  1.00  0.00    -0.354 N 
ATOM     21  C   UNL A   1      46.380  27.756  27.855  1.00  0.00     0.074 A 
ATOM     22  C   UNL A   1      46.462  27.392  26.462  1.00  0.00     0.031 C 
ATOM     23  C   UNL A   1      40.182  26.633  28.523  1.00  0.00     0.029 A 
ATOM     24  C   UNL A   1      40.994  27.687  29.126  1.00  0.00     0.049 A 
ATOM     25  H   UNL A   1      43.076  27.690  29.300  1.00  0.00     0.167 HD
ATOM     26  C   UNL A   1      47.057  28.719  28.534  1.00  0.00     0.034 A 
ATOM     27  C   UNL A   1      40.585  28.866  29.655  1.00  0.00     0.034 A 
ATOM     28  C   UNL A   1      46.915  28.681  29.963  1.00  0.00     0.049 A 
ATOM     29  C   UNL A   1      41.647  29.540  30.444  1.00  0.00     0.074 A 
ATOM     30  C   UNL A   1      47.722  28.453  31.054  1.00  0.00     0.029 A 
ATOM     31  N   UNL A   1      45.649  28.798  30.450  1.00  0.00    -0.354 N 
ATOM     32  N   UNL A   1      42.012  29.206  31.648  1.00  0.00    -0.248 NA
ATOM     33  C   UNL A   1      42.499  30.536  29.799  1.00  0.00     0.031 C 
ATOM     34  C   UNL A   1      46.897  28.526  32.217  1.00  0.00     0.029 A 
ATOM     35  C   UNL A   1      45.597  28.815  31.823  1.00  0.00     0.049 A 
ATOM     36  H   UNL A   1      44.851  28.864  29.876  1.00  0.00     0.167 HD
ATOM     37  C   UNL A   1      43.320  29.621  31.755  1.00  0.00     0.074 A 
ATOM     38  C   UNL A   1      43.506  30.582  30.674  1.00  0.00     0.031 C 
ATOM     39  C   UNL A   1      44.274  28.902  32.429  1.00  0.00     0.034 A 
BRANCH  26  40
ATOM     40  C   UNL A   1      47.618  29.926  27.822  1.00  0.00     0.023 A 
ATOM     41  C   UNL A   1      46.828  31.078  27.617  1.00  0.00     0.031 A 
ATOM     42  C   UNL A   1      48.991  30.067  27.554  1.00  0.00     0.131 A 
ATOM     43  C   UNL A   1      47.369  32.266  27.118  1.00  0.00     0.055 A 
ATOM     44  C   UNL A   1      49.548  31.280  27.125  1.00  0.00     0.041 A 
ATOM     45  F   UNL A   1      49.842  29.045  27.728  1.00  0.00    -0.206 F 
ATOM     46  C   UNL A   1      48.735  32.386  26.894  1.00  0.00     0.022 A 
BRANCH  43  47
ATOM     47  S   UNL A   1      46.284  33.665  26.732  1.00  0.00     0.124 S 
ATOM     48  O   UNL A   1      45.361  33.651  27.861  1.00  0.00    -0.237 OA
ATOM     49  O   UNL A   1      47.229  34.779  26.698  1.00  0.00    -0.237 OA
ATOM     50  O   UNL A   1      45.714  33.307  25.435  1.00  0.00    -0.744 OA
ENDBRANCH  43  47
ENDBRANCH  26  40
BRANCH  27  51
ATOM     51  C   UNL A   1      39.353  29.585  29.262  1.00  0.00     0.023 A 
ATOM     52  C   UNL A   1      38.529  30.137  30.262  1.00  0.00     0.031 A 
ATOM     53  C   UNL A   1      38.842  29.549  27.957  1.00  0.00     0.131 A 
ATOM     54  C   UNL A   1      37.258  30.631  29.958  1.00  0.00     0.055 A 
ATOM     55  C   UNL A   1      37.564  30.034  27.653  1.00  0.00     0.041 A 
ATOM     56  F   UNL A   1      39.552  29.003  26.958  1.00  0.00    -0.206 F 
ATOM     57  C   UNL A   1      36.764  30.578  28.657  1.00  0.00     0.022 A 
BRANCH  54  58
ATOM     58  S   UNL A   1      36.250  31.347  31.282  1.00  0.00     0.124 S 
ATOM     59  O   UNL A   1      35.118  31.911  30.553  1.00  0.00    -0.237 OA
ATOM     60  O   UNL A   1      35.955  30.175  32.099  1.00  0.00    -0.237 OA
ATOM     61  O   UNL A   1      37.144  32.334  31.884  1.00  0.00    -0.744 OA
ENDBRANCH  54  58
ENDBRANCH  27  51
BRANCH  39  62
ATOM     62  C   UNL A   1      43.914  28.083  33.655  1.00  0.00     0.023 A 
ATOM     63  C   UNL A   1      44.094  26.683  33.611  1.00  0.00     0.031 A 
ATOM     64  C   UNL A   1      43.399  28.592  34.862  1.00  0.00     0.131 A 
ATOM     65  C   UNL A   1      43.735  25.860  34.691  1.00  0.00     0.055 A 
ATOM     66  C   UNL A   1      43.197  27.786  35.988  1.00  0.00     0.041 A 
ATOM     67  F   UNL A   1      43.000  29.864  34.998  1.00  0.00    -0.206 F 
ATOM     68  C   UNL A   1      43.334  26.410  35.903  1.00  0.00     0.022 A 
BRANCH  65  69
ATOM     69  S   UNL A   1      43.734  24.056  34.529  1.00  0.00     0.124 S 
ATOM     70  O   UNL A   1      44.846  23.655  35.389  1.00  0.00    -0.237 OA
ATOM     71  O   UNL A   1      42.405  23.706  35.026  1.00  0.00    -0.237 OA
ATOM     72  O   UNL A   1      43.944  23.831  33.102  1.00  0.00    -0.744 OA
ENDBRANCH  65  69
ENDBRANCH  39  62
ENDBRANCH  13  14
ENDBRANCH   6   8
ENDBRANCH   5   6
ENDBRANCH   4   5
ENDBRANCH   3   4
ENDBRANCH   2   3
ENDBRANCH   1   2
BRANCH   1  73
ATOM     73  C   UNL A   1      40.190  21.901  26.157  1.00  0.00     0.188 C 
BRANCH  73  74
ATOM     74  O   UNL A   1      38.805  22.235  26.153  1.00  0.00    -0.376 OA
BRANCH  74  75
ATOM     75  C   UNL A   1      37.950  21.529  25.257  1.00  0.00     0.202 C 
BRANCH  75  76
ATOM     76  C   UNL A   1      36.896  22.268  24.413  1.00  0.00     0.261 C 
BRANCH  76  77
ATOM     77  O   UNL A   1      35.750  22.846  25.051  1.00  0.00    -0.463 OA
BRANCH  77  78
ATOM     78  C   UNL A   1      34.933  23.516  24.199  1.00  0.00     0.310 C 
ATOM     79  O   UNL A   1      35.187  23.709  23.013  1.00  0.00    -0.252 OA
BRANCH  78  80
ATOM     80  C   UNL A   1      33.685  24.084  24.861  1.00  0.00     0.115 C 
ATOM     81  C   UNL A   1      33.518  25.605  24.737  1.00  0.00     0.043 C 
ATOM     82  C   UNL A   1      32.427  23.284  24.449  1.00  0.00     0.094 C 
ATOM     83  C   UNL A   1      32.409  26.063  23.837  1.00  0.00    -0.030 C 
ATOM     84  C   UNL A   1      31.861  23.740  23.101  1.00  0.00     0.041 C 
ATOM     85  C   UNL A   1      31.674  25.227  23.092  1.00  0.00    -0.030 C 
BRANCH  82  86
ATOM     86  C   UNL A   1      32.720  21.825  24.484  1.00  0.00     0.199 A 
ATOM     87  N   UNL A   1      32.831  21.035  25.536  1.00  0.00    -0.213 NA
ATOM     88  O   UNL A   1      32.560  21.173  23.288  1.00  0.00    -0.440 OA
ATOM     89  C   UNL A   1      32.731  19.776  25.004  1.00  0.00     0.111 A 
ATOM     90  C   UNL A   1      32.570  19.859  23.632  1.00  0.00     0.154 A 
ATOM     91  C   UNL A   1      32.748  18.518  25.617  1.00  0.00     0.048 A 
ATOM     92  C   UNL A   1      32.409  18.771  22.786  1.00  0.00     0.050 A 
ATOM     93  C   UNL A   1      32.613  17.396  24.790  1.00  0.00     0.020 A 
ATOM     94  C   UNL A   1      32.438  17.516  23.405  1.00  0.00     0.019 A 
ATOM     95  Br  UNL A   1      32.674  15.670  25.567  1.00  0.00    -0.051 Br
ENDBRANCH  82  86
ENDBRANCH  78  80
ENDBRANCH  77  78
ENDBRANCH  76  77
ENDBRANCH  75  76
ENDBRANCH  74  75
ENDBRANCH  73  74
ENDBRANCH   1  73
TORSDOF 21
ENDMDL
