MODEL 1
REMARK VINA RESULT:     -10.4      0.000      0.000
REMARK SMILES Cc1cc(NC(=O)[C@@H]2[C@@H](C(=O)OCCOCCOCCOC(=O)c3ccc(-c4c5nc(c(-c6cc(S(=O)(=O)[O-])ccc6F)c6ccc([nH]6)c(-c6cc(S(=O)(=O)[O-])ccc6F)c6nc(c(-c7cc(S(=O)(=O)[O-])ccc7F)c7ccc4[nH]7)C=C6)C=C5)cc3)C2(C)C)on1
REMARK SMILES IDX 17 1 16 2 15 3 14 4 13 5 12 6 10 7 11 8 9 9 8 10 87 11 88 12
REMARK SMILES IDX 89 13 6 14 5 15 7 17 4 18 1 19 2 20 3 21 91 22 90 23 18 24
REMARK SMILES IDX 19 25 20 26 21 27 22 28 23 29 24 30 25 31 86 32 26 33 85 34
REMARK SMILES IDX 27 35 28 36 29 37 79 38 30 39 84 40 78 41 80 42 31 43 83 44
REMARK SMILES IDX 77 45 76 46 32 48 64 49 44 50 63 51 45 52 48 53 62 54 81 55
REMARK SMILES IDX 46 56 47 57 61 59 82 60 49 61 33 62 34 63 42 64 35 65 41 66
REMARK SMILES IDX 43 67 40 68 36 69 37 70 38 71 39 72 65 73 66 74 74 75 67 76
REMARK SMILES IDX 73 77 75 78 72 79 68 80 69 81 70 82 71 83 50 84 51 85 59 86
REMARK SMILES IDX 52 87 58 88 60 89 57 90 53 91 54 92 55 93 56 94
REMARK H PARENT 5 16 80 47 48 58
REMARK Flexibility Score: inf
ROOT
ATOM      1  C   UNL A   1      32.410  28.872  22.800  1.00  0.00     0.188 C 
ENDROOT
BRANCH   1   2
ATOM      2  C   UNL A   1      33.580  28.044  22.238  1.00  0.00     0.188 C 
BRANCH   2   3
ATOM      3  O   UNL A   1      33.334  26.681  21.886  1.00  0.00    -0.376 OA
BRANCH   3   4
ATOM      4  C   UNL A   1      33.791  25.651  22.763  1.00  0.00     0.202 C 
BRANCH   4   5
ATOM      5  C   UNL A   1      33.086  25.543  24.116  1.00  0.00     0.261 C 
BRANCH   5   6
ATOM      6  O   UNL A   1      31.698  25.227  23.940  1.00  0.00    -0.463 OA
BRANCH   6   7
ATOM      7  C   UNL A   1      31.394  23.909  23.968  1.00  0.00     0.310 C 
ATOM      8  O   UNL A   1      30.647  23.333  23.191  1.00  0.00    -0.252 OA
BRANCH   7   9
ATOM      9  C   UNL A   1      32.177  23.164  24.990  1.00  0.00     0.118 C 
ATOM     10  C   UNL A   1      31.812  21.718  25.172  1.00  0.00     0.100 C 
ATOM     11  C   UNL A   1      31.669  22.656  26.355  1.00  0.00    -0.009 C 
ATOM     12  C   UNL A   1      30.252  22.959  26.798  1.00  0.00     0.013 C 
ATOM     13  C   UNL A   1      32.616  22.630  27.531  1.00  0.00     0.013 C 
BRANCH  10  14
ATOM     14  C   UNL A   1      32.713  20.585  24.838  1.00  0.00     0.231 C 
ATOM     15  N   UNL A   1      34.079  20.523  24.831  1.00  0.00    -0.294 N 
ATOM     16  H   UNL A   1      34.423  19.601  24.861  1.00  0.00     0.173 HD
ATOM     17  O   UNL A   1      32.150  19.501  24.651  1.00  0.00    -0.274 OA
BRANCH  15  18
ATOM     18  C   UNL A   1      35.064  21.461  24.790  1.00  0.00     0.231 A 
ATOM     19  C   UNL A   1      37.735  23.705  25.866  1.00  0.00     0.070 C 
ATOM     20  C   UNL A   1      36.707  22.866  25.207  1.00  0.00     0.083 A 
ATOM     21  C   UNL A   1      35.980  21.789  25.760  1.00  0.00     0.096 A 
ATOM     22  N   UNL A   1      36.321  23.112  23.949  1.00  0.00    -0.083 NA
ATOM     23  O   UNL A   1      35.310  22.200  23.687  1.00  0.00    -0.338 OA
ENDBRANCH  15  18
ENDBRANCH  10  14
ENDBRANCH   7   9
ENDBRANCH   6   7
ENDBRANCH   5   6
ENDBRANCH   4   5
ENDBRANCH   3   4
ENDBRANCH   2   3
ENDBRANCH   1   2
BRANCH   1  24
ATOM     24  O   UNL A   1      32.442  29.006  24.211  1.00  0.00    -0.376 OA
BRANCH  24  25
ATOM     25  C   UNL A   1      31.276  29.534  24.821  1.00  0.00     0.202 C 
BRANCH  25  26
ATOM     26  C   UNL A   1      31.511  30.559  25.938  1.00  0.00     0.261 C 
BRANCH  26  27
ATOM     27  O   UNL A   1      32.846  30.621  26.464  1.00  0.00    -0.460 OA
BRANCH  27  28
ATOM     28  C   UNL A   1      33.211  31.743  27.131  1.00  0.00     0.338 C 
ATOM     29  O   UNL A   1      32.558  32.761  27.260  1.00  0.00    -0.246 OA
BRANCH  28  30
ATOM     30  C   UNL A   1      34.472  31.426  27.838  1.00  0.00     0.060 A 
ATOM     31  C   UNL A   1      34.722  30.113  28.256  1.00  0.00     0.016 A 
ATOM     32  C   UNL A   1      35.433  32.423  28.026  1.00  0.00     0.016 A 
ATOM     33  C   UNL A   1      35.943  29.793  28.859  1.00  0.00     0.010 A 
ATOM     34  C   UNL A   1      36.642  32.106  28.649  1.00  0.00     0.010 A 
ATOM     35  C   UNL A   1      36.902  30.792  29.075  1.00  0.00    -0.014 A 
BRANCH  35  36
ATOM     36  C   UNL A   1      38.137  30.520  29.852  1.00  0.00     0.031 A 
ATOM     37  C   UNL A   1      39.148  29.563  29.289  1.00  0.00     0.074 A 
ATOM     38  C   UNL A   1      38.329  31.071  31.064  1.00  0.00     0.049 A 
ATOM     39  N   UNL A   1      40.228  29.073  29.839  1.00  0.00    -0.248 NA
ATOM     40  C   UNL A   1      38.898  29.093  27.918  1.00  0.00     0.031 C 
ATOM     41  C   UNL A   1      37.447  32.051  31.695  1.00  0.00     0.029 A 
ATOM     42  N   UNL A   1      39.322  30.865  31.989  1.00  0.00    -0.354 N 
ATOM     43  C   UNL A   1      40.785  28.228  28.886  1.00  0.00     0.074 A 
ATOM     44  C   UNL A   1      39.907  28.255  27.735  1.00  0.00     0.031 C 
ATOM     45  C   UNL A   1      37.930  32.349  32.915  1.00  0.00     0.029 A 
ATOM     46  C   UNL A   1      39.126  31.545  33.169  1.00  0.00     0.049 A 
ATOM     47  H   UNL A   1      40.101  30.286  31.824  1.00  0.00     0.167 HD
ATOM     48  C   UNL A   1      41.926  27.498  28.966  1.00  0.00     0.034 A 
ATOM     49  C   UNL A   1      39.808  31.493  34.331  1.00  0.00     0.034 A 
ATOM     50  C   UNL A   1      42.775  27.462  30.131  1.00  0.00     0.049 A 
ATOM     51  C   UNL A   1      40.993  30.564  34.446  1.00  0.00     0.074 A 
ATOM     52  C   UNL A   1      43.978  26.799  30.303  1.00  0.00     0.029 A 
ATOM     53  N   UNL A   1      42.496  28.092  31.337  1.00  0.00    -0.354 N 
ATOM     54  N   UNL A   1      41.530  29.787  33.532  1.00  0.00    -0.248 NA
ATOM     55  C   UNL A   1      41.654  30.493  35.757  1.00  0.00     0.031 C 
ATOM     56  C   UNL A   1      44.382  26.960  31.634  1.00  0.00     0.029 A 
ATOM     57  C   UNL A   1      43.472  27.786  32.274  1.00  0.00     0.049 A 
ATOM     58  H   UNL A   1      41.718  28.673  31.503  1.00  0.00     0.167 HD
ATOM     59  C   UNL A   1      42.604  29.154  34.154  1.00  0.00     0.074 A 
ATOM     60  C   UNL A   1      42.644  29.645  35.517  1.00  0.00     0.031 C 
ATOM     61  C   UNL A   1      43.483  28.255  33.641  1.00  0.00     0.034 A 
BRANCH  48  62
ATOM     62  C   UNL A   1      42.271  26.631  27.781  1.00  0.00     0.023 A 
ATOM     63  C   UNL A   1      41.908  25.274  27.725  1.00  0.00     0.031 A 
ATOM     64  C   UNL A   1      43.018  27.159  26.712  1.00  0.00     0.131 A 
ATOM     65  C   UNL A   1      42.361  24.471  26.667  1.00  0.00     0.055 A 
ATOM     66  C   UNL A   1      43.399  26.373  25.623  1.00  0.00     0.041 A 
ATOM     67  F   UNL A   1      43.411  28.442  26.721  1.00  0.00    -0.206 F 
ATOM     68  C   UNL A   1      43.086  25.017  25.605  1.00  0.00     0.022 A 
BRANCH  65  69
ATOM     69  S   UNL A   1      42.127  22.677  26.781  1.00  0.00     0.124 S 
ATOM     70  O   UNL A   1      42.855  22.358  28.007  1.00  0.00    -0.237 OA
ATOM     71  O   UNL A   1      40.675  22.553  26.852  1.00  0.00    -0.237 OA
ATOM     72  O   UNL A   1      42.739  22.172  25.553  1.00  0.00    -0.744 OA
ENDBRANCH  65  69
ENDBRANCH  48  62
BRANCH  49  73
ATOM     73  C   UNL A   1      39.365  32.296  35.505  1.00  0.00     0.023 A 
ATOM     74  C   UNL A   1      39.787  33.625  35.671  1.00  0.00     0.031 A 
ATOM     75  C   UNL A   1      38.554  31.731  36.505  1.00  0.00     0.131 A 
ATOM     76  C   UNL A   1      39.421  34.335  36.825  1.00  0.00     0.055 A 
ATOM     77  C   UNL A   1      38.155  32.457  37.628  1.00  0.00     0.041 A 
ATOM     78  F   UNL A   1      38.132  30.461  36.399  1.00  0.00    -0.206 F 
ATOM     79  C   UNL A   1      38.596  33.766  37.798  1.00  0.00     0.022 A 
BRANCH  76  80
ATOM     80  S   UNL A   1      40.094  36.002  37.068  1.00  0.00     0.124 S 
ATOM     81  O   UNL A   1      39.268  36.499  38.163  1.00  0.00    -0.237 OA
ATOM     82  O   UNL A   1      41.489  35.725  37.393  1.00  0.00    -0.237 OA
ATOM     83  O   UNL A   1      39.875  36.651  35.777  1.00  0.00    -0.744 OA
ENDBRANCH  76  80
ENDBRANCH  49  73
BRANCH  61  84
ATOM     84  C   UNL A   1      44.577  27.763  34.556  1.00  0.00     0.023 A 
ATOM     85  C   UNL A   1      44.417  26.609  35.345  1.00  0.00     0.031 A 
ATOM     86  C   UNL A   1      45.797  28.458  34.641  1.00  0.00     0.131 A 
ATOM     87  C   UNL A   1      45.444  26.208  36.213  1.00  0.00     0.055 A 
ATOM     88  C   UNL A   1      46.835  28.024  35.467  1.00  0.00     0.041 A 
ATOM     89  F   UNL A   1      46.003  29.567  33.913  1.00  0.00    -0.206 F 
ATOM     90  C   UNL A   1      46.658  26.897  36.265  1.00  0.00     0.022 A 
BRANCH  87  91
ATOM     91  S   UNL A   1      45.151  24.806  37.326  1.00  0.00     0.124 S 
ATOM     92  O   UNL A   1      44.139  25.343  38.230  1.00  0.00    -0.237 OA
ATOM     93  O   UNL A   1      44.698  23.765  36.409  1.00  0.00    -0.237 OA
ATOM     94  O   UNL A   1      46.460  24.569  37.932  1.00  0.00    -0.744 OA
ENDBRANCH  87  91
ENDBRANCH  61  84
ENDBRANCH  35  36
ENDBRANCH  28  30
ENDBRANCH  27  28
ENDBRANCH  26  27
ENDBRANCH  25  26
ENDBRANCH  24  25
ENDBRANCH   1  24
TORSDOF 22
ENDMDL
MODEL 2
REMARK VINA RESULT:     -10.4      1.471      2.459
REMARK SMILES Cc1cc(NC(=O)[C@@H]2[C@@H](C(=O)OCCOCCOCCOC(=O)c3ccc(-c4c5nc(c(-c6cc(S(=O)(=O)[O-])ccc6F)c6ccc([nH]6)c(-c6cc(S(=O)(=O)[O-])ccc6F)c6nc(c(-c7cc(S(=O)(=O)[O-])ccc7F)c7ccc4[nH]7)C=C6)C=C5)cc3)C2(C)C)on1
REMARK SMILES IDX 17 1 16 2 15 3 14 4 13 5 12 6 10 7 11 8 9 9 8 10 87 11 88 12
REMARK SMILES IDX 89 13 6 14 5 15 7 17 4 18 1 19 2 20 3 21 91 22 90 23 18 24
REMARK SMILES IDX 19 25 20 26 21 27 22 28 23 29 24 30 25 31 86 32 26 33 85 34
REMARK SMILES IDX 27 35 28 36 29 37 79 38 30 39 84 40 78 41 80 42 31 43 83 44
REMARK SMILES IDX 77 45 76 46 32 48 64 49 44 50 63 51 45 52 48 53 62 54 81 55
REMARK SMILES IDX 46 56 47 57 61 59 82 60 49 61 33 62 34 63 42 64 35 65 41 66
REMARK SMILES IDX 43 67 40 68 36 69 37 70 38 71 39 72 65 73 66 74 74 75 67 76
REMARK SMILES IDX 73 77 75 78 72 79 68 80 69 81 70 82 71 83 50 84 51 85 59 86
REMARK SMILES IDX 52 87 58 88 60 89 57 90 53 91 54 92 55 93 56 94
REMARK H PARENT 5 16 80 47 48 58
REMARK Flexibility Score: inf
ROOT
ATOM      1  C   UNL A   1      30.818  27.082  24.041  1.00  0.00     0.188 C 
ENDROOT
BRANCH   1   2
ATOM      2  C   UNL A   1      29.710  26.275  24.742  1.00  0.00     0.188 C 
BRANCH   2   3
ATOM      3  O   UNL A   1      29.976  25.756  26.047  1.00  0.00    -0.376 OA
BRANCH   3   4
ATOM      4  C   UNL A   1      31.049  24.830  26.214  1.00  0.00     0.202 C 
BRANCH   4   5
ATOM      5  C   UNL A   1      30.994  23.560  25.365  1.00  0.00     0.261 C 
BRANCH   5   6
ATOM      6  O   UNL A   1      31.840  23.683  24.213  1.00  0.00    -0.463 OA
BRANCH   6   7
ATOM      7  C   UNL A   1      33.165  23.552  24.447  1.00  0.00     0.310 C 
ATOM      8  O   UNL A   1      33.870  24.361  25.032  1.00  0.00    -0.252 OA
BRANCH   7   9
ATOM      9  C   UNL A   1      33.691  22.226  24.025  1.00  0.00     0.118 C 
ATOM     10  C   UNL A   1      32.696  21.101  24.003  1.00  0.00     0.100 C 
ATOM     11  C   UNL A   1      33.899  20.986  24.919  1.00  0.00    -0.009 C 
ATOM     12  C   UNL A   1      33.616  21.067  26.405  1.00  0.00     0.013 C 
ATOM     13  C   UNL A   1      35.052  20.055  24.631  1.00  0.00     0.013 C 
BRANCH  10  14
ATOM     14  C   UNL A   1      32.252  20.407  22.766  1.00  0.00     0.231 C 
ATOM     15  N   UNL A   1      32.163  19.071  22.494  1.00  0.00    -0.294 N 
ATOM     16  H   UNL A   1      31.576  18.872  21.729  1.00  0.00     0.173 HD
ATOM     17  O   UNL A   1      31.782  21.142  21.890  1.00  0.00    -0.274 OA
BRANCH  15  18
ATOM     18  C   UNL A   1      32.711  17.957  23.052  1.00  0.00     0.231 A 
ATOM     19  C   UNL A   1      33.603  15.420  25.520  1.00  0.00     0.070 C 
ATOM     20  C   UNL A   1      33.348  16.305  24.360  1.00  0.00     0.083 A 
ATOM     21  C   UNL A   1      32.452  17.393  24.277  1.00  0.00     0.096 A 
ATOM     22  N   UNL A   1      34.037  16.161  23.220  1.00  0.00    -0.083 NA
ATOM     23  O   UNL A   1      33.604  17.186  22.394  1.00  0.00    -0.338 OA
ENDBRANCH  15  18
ENDBRANCH  10  14
ENDBRANCH   7   9
ENDBRANCH   6   7
ENDBRANCH   5   6
ENDBRANCH   4   5
ENDBRANCH   3   4
ENDBRANCH   2   3
ENDBRANCH   1   2
BRANCH   1  24
ATOM     24  O   UNL A   1      30.918  28.419  24.502  1.00  0.00    -0.376 OA
BRANCH  24  25
ATOM     25  C   UNL A   1      31.679  28.626  25.681  1.00  0.00     0.202 C 
BRANCH  25  26
ATOM     26  C   UNL A   1      31.625  30.040  26.273  1.00  0.00     0.261 C 
BRANCH  26  27
ATOM     27  O   UNL A   1      32.804  30.841  26.093  1.00  0.00    -0.460 OA
BRANCH  27  28
ATOM     28  C   UNL A   1      32.984  31.894  26.927  1.00  0.00     0.338 C 
ATOM     29  O   UNL A   1      32.213  32.815  27.118  1.00  0.00    -0.246 OA
BRANCH  28  30
ATOM     30  C   UNL A   1      34.208  31.612  27.710  1.00  0.00     0.060 A 
ATOM     31  C   UNL A   1      35.100  32.651  28.002  1.00  0.00     0.016 A 
ATOM     32  C   UNL A   1      34.434  30.326  28.209  1.00  0.00     0.016 A 
ATOM     33  C   UNL A   1      36.220  32.405  28.803  1.00  0.00     0.010 A 
ATOM     34  C   UNL A   1      35.564  30.078  28.990  1.00  0.00     0.010 A 
ATOM     35  C   UNL A   1      36.468  31.114  29.285  1.00  0.00    -0.014 A 
BRANCH  35  36
ATOM     36  C   UNL A   1      37.726  30.787  30.002  1.00  0.00     0.031 A 
ATOM     37  C   UNL A   1      38.681  29.812  29.377  1.00  0.00     0.074 A 
ATOM     38  C   UNL A   1      37.987  31.306  31.216  1.00  0.00     0.049 A 
ATOM     39  N   UNL A   1      39.767  29.277  29.870  1.00  0.00    -0.248 NA
ATOM     40  C   UNL A   1      38.358  29.378  28.009  1.00  0.00     0.031 C 
ATOM     41  C   UNL A   1      37.164  32.300  31.904  1.00  0.00     0.029 A 
ATOM     42  N   UNL A   1      39.011  31.050  32.093  1.00  0.00    -0.354 N 
ATOM     43  C   UNL A   1      40.256  28.435  28.879  1.00  0.00     0.074 A 
ATOM     44  C   UNL A   1      39.331  28.513  27.767  1.00  0.00     0.031 C 
ATOM     45  C   UNL A   1      37.708  32.557  33.107  1.00  0.00     0.029 A 
ATOM     46  C   UNL A   1      38.887  31.711  33.293  1.00  0.00     0.049 A 
ATOM     47  H   UNL A   1      39.764  30.450  31.883  1.00  0.00     0.167 HD
ATOM     48  C   UNL A   1      41.376  27.668  28.895  1.00  0.00     0.034 A 
ATOM     49  C   UNL A   1      39.616  31.613  34.423  1.00  0.00     0.034 A 
ATOM     50  C   UNL A   1      42.272  27.582  30.021  1.00  0.00     0.049 A 
ATOM     51  C   UNL A   1      40.775  30.645  34.469  1.00  0.00     0.074 A 
ATOM     52  C   UNL A   1      43.459  26.877  30.128  1.00  0.00     0.029 A 
ATOM     53  N   UNL A   1      42.064  28.194  31.250  1.00  0.00    -0.354 N 
ATOM     54  N   UNL A   1      41.247  29.872  33.518  1.00  0.00    -0.248 NA
ATOM     55  C   UNL A   1      41.488  30.526  35.749  1.00  0.00     0.031 C 
ATOM     56  C   UNL A   1      43.924  26.998  31.443  1.00  0.00     0.029 A 
ATOM     57  C   UNL A   1      43.069  27.838  32.138  1.00  0.00     0.049 A 
ATOM     58  H   UNL A   1      41.313  28.795  31.460  1.00  0.00     0.167 HD
ATOM     59  C   UNL A   1      42.325  29.192  34.080  1.00  0.00     0.074 A 
ATOM     60  C   UNL A   1      42.439  29.653  35.449  1.00  0.00     0.031 C 
ATOM     61  C   UNL A   1      43.153  28.278  33.512  1.00  0.00     0.034 A 
BRANCH  48  62
ATOM     62  C   UNL A   1      41.641  26.816  27.678  1.00  0.00     0.023 A 
ATOM     63  C   UNL A   1      41.267  25.462  27.627  1.00  0.00     0.031 A 
ATOM     64  C   UNL A   1      42.326  27.354  26.574  1.00  0.00     0.131 A 
ATOM     65  C   UNL A   1      41.650  24.672  26.532  1.00  0.00     0.055 A 
ATOM     66  C   UNL A   1      42.635  26.582  25.453  1.00  0.00     0.041 A 
ATOM     67  F   UNL A   1      42.727  28.635  26.576  1.00  0.00    -0.206 F 
ATOM     68  C   UNL A   1      42.313  25.228  25.435  1.00  0.00     0.022 A 
BRANCH  65  69
ATOM     69  S   UNL A   1      41.411  22.877  26.635  1.00  0.00     0.124 S 
ATOM     70  O   UNL A   1      42.079  22.560  27.896  1.00  0.00    -0.237 OA
ATOM     71  O   UNL A   1      39.958  22.752  26.635  1.00  0.00    -0.237 OA
ATOM     72  O   UNL A   1      42.083  22.372  25.439  1.00  0.00    -0.744 OA
ENDBRANCH  65  69
ENDBRANCH  48  62
BRANCH  49  73
ATOM     73  C   UNL A   1      39.249  32.405  35.631  1.00  0.00     0.023 A 
ATOM     74  C   UNL A   1      39.694  33.727  35.790  1.00  0.00     0.031 A 
ATOM     75  C   UNL A   1      38.489  31.835  36.668  1.00  0.00     0.131 A 
ATOM     76  C   UNL A   1      39.403  34.425  36.972  1.00  0.00     0.055 A 
ATOM     77  C   UNL A   1      38.162  32.549  37.821  1.00  0.00     0.041 A 
ATOM     78  F   UNL A   1      38.047  30.571  36.569  1.00  0.00    -0.206 F 
ATOM     79  C   UNL A   1      38.627  33.851  37.983  1.00  0.00     0.022 A 
BRANCH  76  80
ATOM     80  S   UNL A   1      40.107  36.081  37.199  1.00  0.00     0.124 S 
ATOM     81  O   UNL A   1      41.479  35.772  37.584  1.00  0.00    -0.237 OA
ATOM     82  O   UNL A   1      39.930  36.673  35.877  1.00  0.00    -0.237 OA
ATOM     83  O   UNL A   1      39.278  36.663  38.254  1.00  0.00    -0.744 OA
ENDBRANCH  76  80
ENDBRANCH  49  73
BRANCH  61  84
ATOM     84  C   UNL A   1      44.269  27.733  34.370  1.00  0.00     0.023 A 
ATOM     85  C   UNL A   1      44.142  26.512  35.056  1.00  0.00     0.031 A 
ATOM     86  C   UNL A   1      45.474  28.445  34.502  1.00  0.00     0.131 A 
ATOM     87  C   UNL A   1      45.189  26.060  35.876  1.00  0.00     0.055 A 
ATOM     88  C   UNL A   1      46.532  27.964  35.275  1.00  0.00     0.041 A 
ATOM     89  F   UNL A   1      45.647  29.617  33.870  1.00  0.00    -0.206 F 
ATOM     90  C   UNL A   1      46.389  26.769  35.975  1.00  0.00     0.022 A 
BRANCH  87  91
ATOM     91  S   UNL A   1      44.939  24.561  36.866  1.00  0.00     0.124 S 
ATOM     92  O   UNL A   1      44.570  23.583  35.847  1.00  0.00    -0.237 OA
ATOM     93  O   UNL A   1      46.246  24.372  37.487  1.00  0.00    -0.237 OA
ATOM     94  O   UNL A   1      43.865  24.931  37.786  1.00  0.00    -0.744 OA
ENDBRANCH  87  91
ENDBRANCH  61  84
ENDBRANCH  35  36
ENDBRANCH  28  30
ENDBRANCH  27  28
ENDBRANCH  26  27
ENDBRANCH  25  26
ENDBRANCH  24  25
ENDBRANCH   1  24
TORSDOF 22
ENDMDL
MODEL 3
REMARK VINA RESULT:     -10.3      5.150     10.159
REMARK SMILES Cc1cc(NC(=O)[C@@H]2[C@@H](C(=O)OCCOCCOCCOC(=O)c3ccc(-c4c5nc(c(-c6cc(S(=O)(=O)[O-])ccc6F)c6ccc([nH]6)c(-c6cc(S(=O)(=O)[O-])ccc6F)c6nc(c(-c7cc(S(=O)(=O)[O-])ccc7F)c7ccc4[nH]7)C=C6)C=C5)cc3)C2(C)C)on1
REMARK SMILES IDX 17 1 16 2 15 3 14 4 13 5 12 6 10 7 11 8 9 9 8 10 87 11 88 12
REMARK SMILES IDX 89 13 6 14 5 15 7 17 4 18 1 19 2 20 3 21 91 22 90 23 18 24
REMARK SMILES IDX 19 25 20 26 21 27 22 28 23 29 24 30 25 31 86 32 26 33 85 34
REMARK SMILES IDX 27 35 28 36 29 37 79 38 30 39 84 40 78 41 80 42 31 43 83 44
REMARK SMILES IDX 77 45 76 46 32 48 64 49 44 50 63 51 45 52 48 53 62 54 81 55
REMARK SMILES IDX 46 56 47 57 61 59 82 60 49 61 33 62 34 63 42 64 35 65 41 66
REMARK SMILES IDX 43 67 40 68 36 69 37 70 38 71 39 72 65 73 66 74 74 75 67 76
REMARK SMILES IDX 73 77 75 78 72 79 68 80 69 81 70 82 71 83 50 84 51 85 59 86
REMARK SMILES IDX 52 87 58 88 60 89 57 90 53 91 54 92 55 93 56 94
REMARK H PARENT 5 16 80 47 48 58
REMARK Flexibility Score: inf
ROOT
ATOM      1  C   UNL A   1      33.466  21.625  23.908  1.00  0.00     0.188 C 
ENDROOT
BRANCH   1   2
ATOM      2  C   UNL A   1      32.184  21.121  24.596  1.00  0.00     0.188 C 
BRANCH   2   3
ATOM      3  O   UNL A   1      31.515  22.000  25.503  1.00  0.00    -0.376 OA
BRANCH   3   4
ATOM      4  C   UNL A   1      32.288  22.707  26.472  1.00  0.00     0.202 C 
BRANCH   4   5
ATOM      5  C   UNL A   1      31.787  24.098  26.863  1.00  0.00     0.261 C 
BRANCH   5   6
ATOM      6  O   UNL A   1      31.471  24.869  25.695  1.00  0.00    -0.463 OA
BRANCH   6   7
ATOM      7  C   UNL A   1      30.467  25.764  25.842  1.00  0.00     0.310 C 
ATOM      8  O   UNL A   1      29.459  25.600  26.512  1.00  0.00    -0.252 OA
BRANCH   7   9
ATOM      9  C   UNL A   1      30.767  27.069  25.194  1.00  0.00     0.118 C 
ATOM     10  C   UNL A   1      31.951  27.088  24.270  1.00  0.00     0.100 C 
ATOM     11  C   UNL A   1      31.967  27.993  25.487  1.00  0.00    -0.009 C 
ATOM     12  C   UNL A   1      32.956  27.630  26.575  1.00  0.00     0.013 C 
ATOM     13  C   UNL A   1      31.786  29.489  25.388  1.00  0.00     0.013 C 
BRANCH  10  14
ATOM     14  C   UNL A   1      31.856  27.308  22.803  1.00  0.00     0.231 C 
ATOM     15  N   UNL A   1      31.065  28.167  22.094  1.00  0.00    -0.294 N 
ATOM     16  H   UNL A   1      31.393  28.329  21.181  1.00  0.00     0.173 HD
ATOM     17  O   UNL A   1      32.701  26.712  22.126  1.00  0.00    -0.274 OA
BRANCH  15  18
ATOM     18  C   UNL A   1      29.919  28.845  22.379  1.00  0.00     0.231 A 
ATOM     19  C   UNL A   1      27.652  31.571  23.247  1.00  0.00     0.070 C 
ATOM     20  C   UNL A   1      28.372  30.335  22.862  1.00  0.00     0.083 A 
ATOM     21  C   UNL A   1      29.727  30.200  22.485  1.00  0.00     0.096 A 
ATOM     22  N   UNL A   1      27.760  29.145  22.890  1.00  0.00    -0.083 NA
ATOM     23  O   UNL A   1      28.735  28.219  22.552  1.00  0.00    -0.338 OA
ENDBRANCH  15  18
ENDBRANCH  10  14
ENDBRANCH   7   9
ENDBRANCH   6   7
ENDBRANCH   5   6
ENDBRANCH   4   5
ENDBRANCH   3   4
ENDBRANCH   2   3
ENDBRANCH   1   2
BRANCH   1  24
ATOM     24  O   UNL A   1      34.620  20.876  24.251  1.00  0.00    -0.376 OA
BRANCH  24  25
ATOM     25  C   UNL A   1      34.930  20.790  25.633  1.00  0.00     0.202 C 
BRANCH  25  26
ATOM     26  C   UNL A   1      35.977  21.786  26.148  1.00  0.00     0.261 C 
BRANCH  26  27
ATOM     27  O   UNL A   1      37.146  21.949  25.329  1.00  0.00    -0.460 OA
BRANCH  27  28
ATOM     28  C   UNL A   1      38.330  21.518  25.827  1.00  0.00     0.338 C 
ATOM     29  O   UNL A   1      38.798  20.399  25.734  1.00  0.00    -0.246 OA
BRANCH  28  30
ATOM     30  C   UNL A   1      39.037  22.714  26.337  1.00  0.00     0.060 A 
ATOM     31  C   UNL A   1      38.605  23.991  25.956  1.00  0.00     0.016 A 
ATOM     32  C   UNL A   1      40.089  22.566  27.245  1.00  0.00     0.016 A 
ATOM     33  C   UNL A   1      39.223  25.125  26.492  1.00  0.00     0.010 A 
ATOM     34  C   UNL A   1      40.719  23.700  27.761  1.00  0.00     0.010 A 
ATOM     35  C   UNL A   1      40.295  24.986  27.383  1.00  0.00    -0.014 A 
BRANCH  35  36
ATOM     36  C   UNL A   1      41.072  26.163  27.845  1.00  0.00     0.031 A 
ATOM     37  C   UNL A   1      40.354  27.259  28.578  1.00  0.00     0.074 A 
ATOM     38  C   UNL A   1      42.383  26.281  27.566  1.00  0.00     0.049 A 
ATOM     39  N   UNL A   1      40.790  28.431  28.958  1.00  0.00    -0.248 NA
ATOM     40  C   UNL A   1      38.949  26.993  28.923  1.00  0.00     0.031 C 
ATOM     41  C   UNL A   1      43.200  25.265  26.906  1.00  0.00     0.029 A 
ATOM     42  N   UNL A   1      43.251  27.322  27.787  1.00  0.00    -0.354 N 
ATOM     43  C   UNL A   1      39.712  29.051  29.580  1.00  0.00     0.074 A 
ATOM     44  C   UNL A   1      38.596  28.131  29.501  1.00  0.00     0.031 C 
ATOM     45  C   UNL A   1      44.450  25.740  26.760  1.00  0.00     0.029 A 
ATOM     46  C   UNL A   1      44.507  27.111  27.269  1.00  0.00     0.049 A 
ATOM     47  H   UNL A   1      42.997  28.142  28.270  1.00  0.00     0.167 HD
ATOM     48  C   UNL A   1      39.660  30.275  30.164  1.00  0.00     0.034 A 
ATOM     49  C   UNL A   1      45.567  27.940  27.182  1.00  0.00     0.034 A 
ATOM     50  C   UNL A   1      40.774  31.189  30.210  1.00  0.00     0.049 A 
ATOM     51  C   UNL A   1      45.442  29.350  27.710  1.00  0.00     0.074 A 
ATOM     52  C   UNL A   1      40.848  32.430  30.818  1.00  0.00     0.029 A 
ATOM     53  N   UNL A   1      42.002  30.976  29.596  1.00  0.00    -0.354 N 
ATOM     54  N   UNL A   1      44.427  29.920  28.320  1.00  0.00    -0.248 NA
ATOM     55  C   UNL A   1      46.601  30.233  27.522  1.00  0.00     0.031 C 
ATOM     56  C   UNL A   1      42.087  33.001  30.503  1.00  0.00     0.029 A 
ATOM     57  C   UNL A   1      42.817  32.086  29.761  1.00  0.00     0.049 A 
ATOM     58  H   UNL A   1      42.257  30.157  29.114  1.00  0.00     0.167 HD
ATOM     59  C   UNL A   1      44.837  31.220  28.607  1.00  0.00     0.074 A 
ATOM     60  C   UNL A   1      46.192  31.348  28.111  1.00  0.00     0.031 C 
ATOM     61  C   UNL A   1      44.157  32.215  29.233  1.00  0.00     0.034 A 
BRANCH  48  62
ATOM     62  C   UNL A   1      38.332  30.708  30.732  1.00  0.00     0.023 A 
ATOM     63  C   UNL A   1      37.374  31.377  29.950  1.00  0.00     0.031 A 
ATOM     64  C   UNL A   1      38.040  30.493  32.091  1.00  0.00     0.131 A 
ATOM     65  C   UNL A   1      36.208  31.879  30.549  1.00  0.00     0.055 A 
ATOM     66  C   UNL A   1      36.843  30.926  32.663  1.00  0.00     0.041 A 
ATOM     67  F   UNL A   1      38.925  29.879  32.892  1.00  0.00    -0.206 F 
ATOM     68  C   UNL A   1      35.927  31.639  31.896  1.00  0.00     0.022 A 
BRANCH  65  69
ATOM     69  S   UNL A   1      35.147  32.986  29.581  1.00  0.00     0.124 S 
ATOM     70  O   UNL A   1      36.038  34.117  29.338  1.00  0.00    -0.237 OA
ATOM     71  O   UNL A   1      34.820  32.170  28.417  1.00  0.00    -0.237 OA
ATOM     72  O   UNL A   1      34.030  33.266  30.483  1.00  0.00    -0.744 OA
ENDBRANCH  65  69
ENDBRANCH  48  62
BRANCH  49  73
ATOM     73  C   UNL A   1      46.824  27.494  26.520  1.00  0.00     0.023 A 
ATOM     74  C   UNL A   1      47.049  27.741  25.156  1.00  0.00     0.031 A 
ATOM     75  C   UNL A   1      47.798  26.767  27.228  1.00  0.00     0.131 A 
ATOM     76  C   UNL A   1      48.204  27.241  24.536  1.00  0.00     0.055 A 
ATOM     77  C   UNL A   1      48.968  26.312  26.618  1.00  0.00     0.041 A 
ATOM     78  F   UNL A   1      47.626  26.496  28.532  1.00  0.00    -0.206 F 
ATOM     79  C   UNL A   1      49.173  26.541  25.261  1.00  0.00     0.022 A 
BRANCH  76  80
ATOM     80  S   UNL A   1      48.397  27.465  22.746  1.00  0.00     0.124 S 
ATOM     81  O   UNL A   1      49.699  28.116  22.666  1.00  0.00    -0.237 OA
ATOM     82  O   UNL A   1      48.336  26.091  22.258  1.00  0.00    -0.237 OA
ATOM     83  O   UNL A   1      47.256  28.303  22.383  1.00  0.00    -0.744 OA
ENDBRANCH  76  80
ENDBRANCH  49  73
BRANCH  61  84
ATOM     84  C   UNL A   1      44.882  33.523  29.435  1.00  0.00     0.023 A 
ATOM     85  C   UNL A   1      44.836  34.548  28.473  1.00  0.00     0.031 A 
ATOM     86  C   UNL A   1      45.629  33.747  30.605  1.00  0.00     0.131 A 
ATOM     87  C   UNL A   1      45.558  35.734  28.680  1.00  0.00     0.055 A 
ATOM     88  C   UNL A   1      46.300  34.949  30.831  1.00  0.00     0.041 A 
ATOM     89  F   UNL A   1      45.709  32.801  31.555  1.00  0.00    -0.206 F 
ATOM     90  C   UNL A   1      46.274  35.948  29.861  1.00  0.00     0.022 A 
BRANCH  87  91
ATOM     91  S   UNL A   1      45.602  36.974  27.357  1.00  0.00     0.124 S 
ATOM     92  O   UNL A   1      46.591  36.409  26.446  1.00  0.00    -0.237 OA
ATOM     93  O   UNL A   1      44.223  36.976  26.881  1.00  0.00    -0.237 OA
ATOM     94  O   UNL A   1      46.019  38.195  28.045  1.00  0.00    -0.744 OA
ENDBRANCH  87  91
ENDBRANCH  61  84
ENDBRANCH  35  36
ENDBRANCH  28  30
ENDBRANCH  27  28
ENDBRANCH  26  27
ENDBRANCH  25  26
ENDBRANCH  24  25
ENDBRANCH   1  24
TORSDOF 22
ENDMDL
