MODEL 1
REMARK VINA RESULT:      -9.3      0.000      0.000
REMARK SMILES C[C@@H](O)[C@@H](NC(=O)CN(C)C(=O)c1cccs1)C(=O)OCCOCCOCCOC(=O)c1ccc(-c2c3nc(c(-c4cc(S(=O)(=O)[O-])ccc4F)c4ccc([nH]4)c(-c4cc(S(=O)(=O)[O-])ccc4F)c4nc(c(-c5cc(S(=O)(=O)[O-])ccc5F)c5ccc2[nH]5)C=C4)C=C3)cc1
REMARK SMILES IDX 24 1 23 2 22 3 21 4 20 5 18 6 19 7 4 8 2 9 1 10 3 11 5 13
REMARK SMILES IDX 6 14 7 16 8 17 9 18 10 19 11 20 12 21 13 22 14 23 17 24
REMARK SMILES IDX 15 25 16 26 25 27 26 28 27 29 28 30 29 31 30 32 31 33 32 34
REMARK SMILES IDX 33 35 94 36 34 37 93 38 35 39 36 40 37 41 87 42 38 43 92 44
REMARK SMILES IDX 86 45 88 46 39 47 91 48 85 49 84 50 40 52 72 53 52 54 71 55
REMARK SMILES IDX 53 56 56 57 70 58 89 59 54 60 55 61 69 63 90 64 57 65 41 66
REMARK SMILES IDX 42 67 50 68 43 69 49 70 51 71 48 72 44 73 45 74 46 75 47 76
REMARK SMILES IDX 73 77 74 78 82 79 75 80 81 81 83 82 80 83 76 84 77 85 78 86
REMARK SMILES IDX 79 87 58 88 59 89 67 90 60 91 66 92 68 93 65 94 61 95 62 96
REMARK SMILES IDX 63 97 64 98
REMARK H PARENT 3 12 5 15 88 51 56 62
REMARK Flexibility Score: inf
ROOT
ATOM      1  C   UNL A   1      34.212  29.282  27.747  1.00  0.00     0.188 C 
ENDROOT
BRANCH   1   2
ATOM      2  O   UNL A   1      34.889  28.582  26.710  1.00  0.00    -0.376 OA
BRANCH   2   3
ATOM      3  C   UNL A   1      34.061  27.677  25.977  1.00  0.00     0.202 C 
BRANCH   3   4
ATOM      4  C   UNL A   1      33.712  28.194  24.577  1.00  0.00     0.261 C 
BRANCH   4   5
ATOM      5  O   UNL A   1      32.392  27.723  24.217  1.00  0.00    -0.462 OA
BRANCH   5   6
ATOM      6  C   UNL A   1      31.383  28.056  25.059  1.00  0.00     0.331 C 
ATOM      7  O   UNL A   1      31.361  29.100  25.703  1.00  0.00    -0.250 OA
BRANCH   6   8
ATOM      8  C   UNL A   1      30.405  26.896  25.315  1.00  0.00     0.221 C 
BRANCH   8   9
ATOM      9  C   UNL A   1      29.766  26.129  24.134  1.00  0.00     0.145 C 
ATOM     10  C   UNL A   1      28.316  26.575  23.900  1.00  0.00     0.041 C 
BRANCH   9  11
ATOM     11  O   UNL A   1      30.487  26.316  22.920  1.00  0.00    -0.391 OA
ATOM     12  H   UNL A   1      31.365  25.910  22.999  1.00  0.00     0.211 HD
ENDBRANCH   9  11
ENDBRANCH   8   9
BRANCH   8  13
ATOM     13  N   UNL A   1      30.887  25.983  26.368  1.00  0.00    -0.339 N 
ATOM     14  C   UNL A   1      31.589  24.814  26.310  1.00  0.00     0.240 C 
ATOM     15  H   UNL A   1      30.661  26.270  27.282  1.00  0.00     0.164 HD
ATOM     16  O   UNL A   1      31.446  24.049  27.267  1.00  0.00    -0.273 OA
BRANCH  14  17
ATOM     17  C   UNL A   1      32.532  24.464  25.142  1.00  0.00     0.219 C 
BRANCH  17  18
ATOM     18  N   UNL A   1      33.614  23.503  25.380  1.00  0.00    -0.332 N 
ATOM     19  C   UNL A   1      33.999  23.200  26.752  1.00  0.00     0.147 C 
BRANCH  18  20
ATOM     20  C   UNL A   1      34.091  22.744  24.293  1.00  0.00     0.264 C 
ATOM     21  O   UNL A   1      34.725  23.238  23.379  1.00  0.00    -0.268 OA
BRANCH  20  22
ATOM     22  C   UNL A   1      33.717  21.334  24.308  1.00  0.00     0.092 A 
ATOM     23  C   UNL A   1      32.527  20.755  23.907  1.00  0.00     0.025 A 
ATOM     24  S   UNL A   1      34.803  20.181  24.947  1.00  0.00    -0.139 S 
ATOM     25  C   UNL A   1      32.463  19.373  24.245  1.00  0.00     0.012 A 
ATOM     26  C   UNL A   1      33.631  18.936  24.830  1.00  0.00     0.065 A 
ENDBRANCH  20  22
ENDBRANCH  18  20
ENDBRANCH  17  18
ENDBRANCH  14  17
ENDBRANCH   8  13
ENDBRANCH   6   8
ENDBRANCH   5   6
ENDBRANCH   4   5
ENDBRANCH   3   4
ENDBRANCH   2   3
ENDBRANCH   1   2
BRANCH   1  27
ATOM     27  C   UNL A   1      34.400  30.788  27.680  1.00  0.00     0.188 C 
BRANCH  27  28
ATOM     28  O   UNL A   1      33.618  31.481  26.702  1.00  0.00    -0.376 OA
BRANCH  28  29
ATOM     29  C   UNL A   1      32.409  32.024  27.263  1.00  0.00     0.202 C 
BRANCH  29  30
ATOM     30  C   UNL A   1      32.352  33.562  27.350  1.00  0.00     0.261 C 
BRANCH  30  31
ATOM     31  O   UNL A   1      32.533  34.007  28.709  1.00  0.00    -0.460 OA
BRANCH  31  32
ATOM     32  C   UNL A   1      33.536  34.902  28.907  1.00  0.00     0.338 C 
ATOM     33  O   UNL A   1      33.441  36.116  28.831  1.00  0.00    -0.246 OA
BRANCH  32  34
ATOM     34  C   UNL A   1      34.715  34.208  29.503  1.00  0.00     0.060 A 
ATOM     35  C   UNL A   1      34.460  33.238  30.484  1.00  0.00     0.016 A 
ATOM     36  C   UNL A   1      36.024  34.399  29.044  1.00  0.00     0.016 A 
ATOM     37  C   UNL A   1      35.503  32.486  31.028  1.00  0.00     0.010 A 
ATOM     38  C   UNL A   1      37.072  33.648  29.594  1.00  0.00     0.010 A 
ATOM     39  C   UNL A   1      36.820  32.712  30.612  1.00  0.00    -0.014 A 
BRANCH  39  40
ATOM     40  C   UNL A   1      37.942  32.162  31.415  1.00  0.00     0.031 A 
ATOM     41  C   UNL A   1      38.741  31.038  30.810  1.00  0.00     0.074 A 
ATOM     42  C   UNL A   1      38.274  32.652  32.623  1.00  0.00     0.049 A 
ATOM     43  N   UNL A   1      39.747  30.367  31.305  1.00  0.00    -0.248 NA
ATOM     44  C   UNL A   1      38.339  30.617  29.459  1.00  0.00     0.031 C 
ATOM     45  C   UNL A   1      37.612  33.765  33.302  1.00  0.00     0.029 A 
ATOM     46  N   UNL A   1      39.261  32.263  33.498  1.00  0.00    -0.354 N 
ATOM     47  C   UNL A   1      40.102  29.446  30.324  1.00  0.00     0.074 A 
ATOM     48  C   UNL A   1      39.175  29.619  29.227  1.00  0.00     0.031 C 
ATOM     49  C   UNL A   1      38.202  33.959  34.497  1.00  0.00     0.029 A 
ATOM     50  C   UNL A   1      39.266  32.970  34.678  1.00  0.00     0.049 A 
ATOM     51  H   UNL A   1      39.904  31.546  33.298  1.00  0.00     0.167 HD
ATOM     52  C   UNL A   1      41.114  28.545  30.329  1.00  0.00     0.034 A 
ATOM     53  C   UNL A   1      40.028  32.819  35.782  1.00  0.00     0.034 A 
ATOM     54  C   UNL A   1      42.016  28.356  31.434  1.00  0.00     0.049 A 
ATOM     55  C   UNL A   1      41.090  31.743  35.805  1.00  0.00     0.074 A 
ATOM     56  C   UNL A   1      43.069  27.465  31.547  1.00  0.00     0.029 A 
ATOM     57  N   UNL A   1      41.962  29.063  32.628  1.00  0.00    -0.354 N 
ATOM     58  N   UNL A   1      41.420  30.883  34.868  1.00  0.00    -0.248 NA
ATOM     59  C   UNL A   1      41.885  31.620  37.037  1.00  0.00     0.031 C 
ATOM     60  C   UNL A   1      43.613  27.593  32.830  1.00  0.00     0.029 A 
ATOM     61  C   UNL A   1      42.943  28.608  33.494  1.00  0.00     0.049 A 
ATOM     62  H   UNL A   1      41.320  29.782  32.829  1.00  0.00     0.167 HD
ATOM     63  C   UNL A   1      42.479  30.140  35.388  1.00  0.00     0.074 A 
ATOM     64  C   UNL A   1      42.736  30.656  36.717  1.00  0.00     0.031 C 
ATOM     65  C   UNL A   1      43.182  29.129  34.818  1.00  0.00     0.034 A 
BRANCH  52  66
ATOM     66  C   UNL A   1      41.239  27.665  29.113  1.00  0.00     0.023 A 
ATOM     67  C   UNL A   1      42.237  27.886  28.147  1.00  0.00     0.031 A 
ATOM     68  C   UNL A   1      40.303  26.645  28.877  1.00  0.00     0.131 A 
ATOM     69  C   UNL A   1      42.225  27.151  26.952  1.00  0.00     0.055 A 
ATOM     70  C   UNL A   1      40.344  25.864  27.721  1.00  0.00     0.041 A 
ATOM     71  F   UNL A   1      39.312  26.411  29.753  1.00  0.00    -0.206 F 
ATOM     72  C   UNL A   1      41.299  26.126  26.743  1.00  0.00     0.022 A 
BRANCH  69  73
ATOM     73  S   UNL A   1      43.337  27.661  25.613  1.00  0.00     0.124 S 
ATOM     74  O   UNL A   1      42.394  27.895  24.521  1.00  0.00    -0.237 OA
ATOM     75  O   UNL A   1      43.978  28.846  26.169  1.00  0.00    -0.237 OA
ATOM     76  O   UNL A   1      44.211  26.504  25.434  1.00  0.00    -0.744 OA
ENDBRANCH  69  73
ENDBRANCH  52  66
BRANCH  53  77
ATOM     77  C   UNL A   1      39.795  33.662  36.990  1.00  0.00     0.023 A 
ATOM     78  C   UNL A   1      39.107  33.166  38.107  1.00  0.00     0.031 A 
ATOM     79  C   UNL A   1      40.194  35.011  37.005  1.00  0.00     0.131 A 
ATOM     80  C   UNL A   1      38.795  34.024  39.175  1.00  0.00     0.055 A 
ATOM     81  C   UNL A   1      39.922  35.848  38.089  1.00  0.00     0.041 A 
ATOM     82  F   UNL A   1      40.850  35.537  35.959  1.00  0.00    -0.206 F 
ATOM     83  C   UNL A   1      39.207  35.359  39.178  1.00  0.00     0.022 A 
BRANCH  80  84
ATOM     84  S   UNL A   1      37.768  33.391  40.531  1.00  0.00     0.124 S 
ATOM     85  O   UNL A   1      37.528  34.600  41.311  1.00  0.00    -0.237 OA
ATOM     86  O   UNL A   1      36.619  32.849  39.814  1.00  0.00    -0.237 OA
ATOM     87  O   UNL A   1      38.625  32.395  41.172  1.00  0.00    -0.744 OA
ENDBRANCH  80  84
ENDBRANCH  53  77
BRANCH  65  88
ATOM     88  C   UNL A   1      44.327  28.550  35.609  1.00  0.00     0.023 A 
ATOM     89  C   UNL A   1      44.131  27.540  36.566  1.00  0.00     0.031 A 
ATOM     90  C   UNL A   1      45.636  29.015  35.392  1.00  0.00     0.131 A 
ATOM     91  C   UNL A   1      45.224  27.053  37.300  1.00  0.00     0.055 A 
ATOM     92  C   UNL A   1      46.725  28.495  36.091  1.00  0.00     0.041 A 
ATOM     93  F   UNL A   1      45.877  29.977  34.488  1.00  0.00    -0.206 F 
ATOM     94  C   UNL A   1      46.521  27.515  37.059  1.00  0.00     0.022 A 
BRANCH  91  95
ATOM     95  S   UNL A   1      44.923  25.848  38.622  1.00  0.00     0.124 S 
ATOM     96  O   UNL A   1      46.228  25.779  39.273  1.00  0.00    -0.237 OA
ATOM     97  O   UNL A   1      43.860  26.485  39.391  1.00  0.00    -0.237 OA
ATOM     98  O   UNL A   1      44.526  24.639  37.901  1.00  0.00    -0.744 OA
ENDBRANCH  91  95
ENDBRANCH  65  88
ENDBRANCH  39  40
ENDBRANCH  32  34
ENDBRANCH  31  32
ENDBRANCH  30  31
ENDBRANCH  29  30
ENDBRANCH  28  29
ENDBRANCH  27  28
ENDBRANCH   1  27
TORSDOF 27
ENDMDL
MODEL 2
REMARK VINA RESULT:      -8.7      2.085      3.693
REMARK SMILES C[C@@H](O)[C@@H](NC(=O)CN(C)C(=O)c1cccs1)C(=O)OCCOCCOCCOC(=O)c1ccc(-c2c3nc(c(-c4cc(S(=O)(=O)[O-])ccc4F)c4ccc([nH]4)c(-c4cc(S(=O)(=O)[O-])ccc4F)c4nc(c(-c5cc(S(=O)(=O)[O-])ccc5F)c5ccc2[nH]5)C=C4)C=C3)cc1
REMARK SMILES IDX 24 1 23 2 22 3 21 4 20 5 18 6 19 7 4 8 2 9 1 10 3 11 5 13
REMARK SMILES IDX 6 14 7 16 8 17 9 18 10 19 11 20 12 21 13 22 14 23 17 24
REMARK SMILES IDX 15 25 16 26 25 27 26 28 27 29 28 30 29 31 30 32 31 33 32 34
REMARK SMILES IDX 33 35 94 36 34 37 93 38 35 39 36 40 37 41 87 42 38 43 92 44
REMARK SMILES IDX 86 45 88 46 39 47 91 48 85 49 84 50 40 52 72 53 52 54 71 55
REMARK SMILES IDX 53 56 56 57 70 58 89 59 54 60 55 61 69 63 90 64 57 65 41 66
REMARK SMILES IDX 42 67 50 68 43 69 49 70 51 71 48 72 44 73 45 74 46 75 47 76
REMARK SMILES IDX 73 77 74 78 82 79 75 80 81 81 83 82 80 83 76 84 77 85 78 86
REMARK SMILES IDX 79 87 58 88 59 89 67 90 60 91 66 92 68 93 65 94 61 95 62 96
REMARK SMILES IDX 63 97 64 98
REMARK H PARENT 3 12 5 15 88 51 56 62
REMARK Flexibility Score: inf
ROOT
ATOM      1  C   UNL A   1      34.116  29.091  27.710  1.00  0.00     0.188 C 
ENDROOT
BRANCH   1   2
ATOM      2  O   UNL A   1      34.324  28.302  26.545  1.00  0.00    -0.376 OA
BRANCH   2   3
ATOM      3  C   UNL A   1      33.122  27.937  25.863  1.00  0.00     0.202 C 
BRANCH   3   4
ATOM      4  C   UNL A   1      32.076  27.319  26.797  1.00  0.00     0.261 C 
BRANCH   4   5
ATOM      5  O   UNL A   1      31.593  26.087  26.213  1.00  0.00    -0.462 OA
BRANCH   5   6
ATOM      6  C   UNL A   1      32.526  25.282  25.647  1.00  0.00     0.331 C 
ATOM      7  O   UNL A   1      33.540  24.915  26.231  1.00  0.00    -0.250 OA
BRANCH   6   8
ATOM      8  C   UNL A   1      32.314  25.084  24.136  1.00  0.00     0.221 C 
BRANCH   8   9
ATOM      9  C   UNL A   1      30.971  24.543  23.593  1.00  0.00     0.145 C 
ATOM     10  C   UNL A   1      31.079  23.058  23.221  1.00  0.00     0.041 C 
BRANCH   9  11
ATOM     11  O   UNL A   1      29.913  24.686  24.536  1.00  0.00    -0.391 OA
ATOM     12  H   UNL A   1      30.252  25.117  25.338  1.00  0.00     0.211 HD
ENDBRANCH   9  11
ENDBRANCH   8   9
BRANCH   8  13
ATOM     13  N   UNL A   1      32.804  26.232  23.350  1.00  0.00    -0.339 N 
ATOM     14  C   UNL A   1      32.184  27.054  22.455  1.00  0.00     0.240 C 
ATOM     15  H   UNL A   1      33.754  26.443  23.499  1.00  0.00     0.164 HD
ATOM     16  O   UNL A   1      32.917  27.600  21.626  1.00  0.00    -0.273 OA
BRANCH  14  17
ATOM     17  C   UNL A   1      30.667  27.322  22.479  1.00  0.00     0.219 C 
BRANCH  17  18
ATOM     18  N   UNL A   1      30.182  28.548  23.123  1.00  0.00    -0.332 N 
ATOM     19  C   UNL A   1      31.152  29.509  23.629  1.00  0.00     0.147 C 
BRANCH  18  20
ATOM     20  C   UNL A   1      28.810  28.858  23.034  1.00  0.00     0.264 C 
ATOM     21  O   UNL A   1      27.941  28.088  23.397  1.00  0.00    -0.268 OA
BRANCH  20  22
ATOM     22  C   UNL A   1      28.504  30.143  22.414  1.00  0.00     0.092 A 
ATOM     23  C   UNL A   1      28.432  30.455  21.069  1.00  0.00     0.025 A 
ATOM     24  S   UNL A   1      28.247  31.514  23.400  1.00  0.00    -0.139 S 
ATOM     25  C   UNL A   1      28.291  31.854  20.850  1.00  0.00     0.012 A 
ATOM     26  C   UNL A   1      28.192  32.550  22.035  1.00  0.00     0.065 A 
ENDBRANCH  20  22
ENDBRANCH  18  20
ENDBRANCH  17  18
ENDBRANCH  14  17
ENDBRANCH   8  13
ENDBRANCH   6   8
ENDBRANCH   5   6
ENDBRANCH   4   5
ENDBRANCH   3   4
ENDBRANCH   2   3
ENDBRANCH   1   2
BRANCH   1  27
ATOM     27  C   UNL A   1      34.367  30.573  27.489  1.00  0.00     0.188 C 
BRANCH  27  28
ATOM     28  O   UNL A   1      33.535  31.218  26.520  1.00  0.00    -0.376 OA
BRANCH  28  29
ATOM     29  C   UNL A   1      32.287  31.657  27.087  1.00  0.00     0.202 C 
BRANCH  29  30
ATOM     30  C   UNL A   1      32.153  33.179  27.290  1.00  0.00     0.261 C 
BRANCH  30  31
ATOM     31  O   UNL A   1      32.572  33.560  28.616  1.00  0.00    -0.460 OA
BRANCH  31  32
ATOM     32  C   UNL A   1      33.593  34.455  28.676  1.00  0.00     0.338 C 
ATOM     33  O   UNL A   1      33.505  35.657  28.493  1.00  0.00    -0.246 OA
BRANCH  32  34
ATOM     34  C   UNL A   1      34.795  33.802  29.271  1.00  0.00     0.060 A 
ATOM     35  C   UNL A   1      34.575  32.722  30.140  1.00  0.00     0.016 A 
ATOM     36  C   UNL A   1      36.105  34.142  28.909  1.00  0.00     0.016 A 
ATOM     37  C   UNL A   1      35.651  32.006  30.670  1.00  0.00     0.010 A 
ATOM     38  C   UNL A   1      37.184  33.426  29.445  1.00  0.00     0.010 A 
ATOM     39  C   UNL A   1      36.963  32.376  30.354  1.00  0.00    -0.014 A 
BRANCH  39  40
ATOM     40  C   UNL A   1      38.086  31.842  31.164  1.00  0.00     0.031 A 
ATOM     41  C   UNL A   1      38.908  30.732  30.563  1.00  0.00     0.074 A 
ATOM     42  C   UNL A   1      38.400  32.332  32.377  1.00  0.00     0.049 A 
ATOM     43  N   UNL A   1      39.920  30.076  31.064  1.00  0.00    -0.248 NA
ATOM     44  C   UNL A   1      38.524  30.310  29.206  1.00  0.00     0.031 C 
ATOM     45  C   UNL A   1      37.715  33.432  33.054  1.00  0.00     0.029 A 
ATOM     46  N   UNL A   1      39.385  31.956  33.259  1.00  0.00    -0.354 N 
ATOM     47  C   UNL A   1      40.298  29.164  30.083  1.00  0.00     0.074 A 
ATOM     48  C   UNL A   1      39.378  29.326  28.978  1.00  0.00     0.031 C 
ATOM     49  C   UNL A   1      38.291  33.631  34.255  1.00  0.00     0.029 A 
ATOM     50  C   UNL A   1      39.369  32.658  34.442  1.00  0.00     0.049 A 
ATOM     51  H   UNL A   1      40.041  31.250  33.063  1.00  0.00     0.167 HD
ATOM     52  C   UNL A   1      41.324  28.279  30.094  1.00  0.00     0.034 A 
ATOM     53  C   UNL A   1      40.123  32.515  35.551  1.00  0.00     0.034 A 
ATOM     54  C   UNL A   1      42.220  28.100  31.205  1.00  0.00     0.049 A 
ATOM     55  C   UNL A   1      41.202  31.456  35.581  1.00  0.00     0.074 A 
ATOM     56  C   UNL A   1      43.285  27.226  31.324  1.00  0.00     0.029 A 
ATOM     57  N   UNL A   1      42.144  28.802  32.402  1.00  0.00    -0.354 N 
ATOM     58  N   UNL A   1      41.553  30.605  34.644  1.00  0.00    -0.248 NA
ATOM     59  C   UNL A   1      41.988  31.342  36.818  1.00  0.00     0.031 C 
ATOM     60  C   UNL A   1      43.817  27.358  32.613  1.00  0.00     0.029 A 
ATOM     61  C   UNL A   1      43.124  28.360  33.275  1.00  0.00     0.049 A 
ATOM     62  H   UNL A   1      41.489  29.510  32.600  1.00  0.00     0.167 HD
ATOM     63  C   UNL A   1      42.620  29.877  35.170  1.00  0.00     0.074 A 
ATOM     64  C   UNL A   1      42.857  30.392  36.502  1.00  0.00     0.031 C 
ATOM     65  C   UNL A   1      43.343  28.879  34.603  1.00  0.00     0.034 A 
BRANCH  52  66
ATOM     66  C   UNL A   1      41.474  27.406  28.875  1.00  0.00     0.023 A 
ATOM     67  C   UNL A   1      42.463  27.660  27.907  1.00  0.00     0.031 A 
ATOM     68  C   UNL A   1      40.569  26.357  28.640  1.00  0.00     0.131 A 
ATOM     69  C   UNL A   1      42.471  26.927  26.711  1.00  0.00     0.055 A 
ATOM     70  C   UNL A   1      40.632  25.581  27.482  1.00  0.00     0.041 A 
ATOM     71  F   UNL A   1      39.589  26.091  29.517  1.00  0.00    -0.206 F 
ATOM     72  C   UNL A   1      41.576  25.874  26.502  1.00  0.00     0.022 A 
BRANCH  69  73
ATOM     73  S   UNL A   1      43.563  27.475  25.370  1.00  0.00     0.124 S 
ATOM     74  O   UNL A   1      44.435  26.313  25.208  1.00  0.00    -0.237 OA
ATOM     75  O   UNL A   1      42.625  27.727  24.283  1.00  0.00    -0.237 OA
ATOM     76  O   UNL A   1      44.214  28.661  25.922  1.00  0.00    -0.744 OA
ENDBRANCH  69  73
ENDBRANCH  52  66
BRANCH  53  77
ATOM     77  C   UNL A   1      39.867  33.350  36.760  1.00  0.00     0.023 A 
ATOM     78  C   UNL A   1      39.087  32.875  37.827  1.00  0.00     0.031 A 
ATOM     79  C   UNL A   1      40.337  34.675  36.825  1.00  0.00     0.131 A 
ATOM     80  C   UNL A   1      38.761  33.731  38.891  1.00  0.00     0.055 A 
ATOM     81  C   UNL A   1      40.048  35.507  37.908  1.00  0.00     0.041 A 
ATOM     82  F   UNL A   1      41.081  35.180  35.830  1.00  0.00    -0.206 F 
ATOM     83  C   UNL A   1      39.245  35.041  38.944  1.00  0.00     0.022 A 
BRANCH  80  84
ATOM     84  S   UNL A   1      37.623  33.134  40.173  1.00  0.00     0.124 S 
ATOM     85  O   UNL A   1      37.576  34.274  41.083  1.00  0.00    -0.237 OA
ATOM     86  O   UNL A   1      36.411  32.875  39.405  1.00  0.00    -0.237 OA
ATOM     87  O   UNL A   1      38.293  31.945  40.697  1.00  0.00    -0.744 OA
ENDBRANCH  80  84
ENDBRANCH  53  77
BRANCH  65  88
ATOM     88  C   UNL A   1      44.491  28.316  35.402  1.00  0.00     0.023 A 
ATOM     89  C   UNL A   1      44.324  27.222  36.268  1.00  0.00     0.031 A 
ATOM     90  C   UNL A   1      45.773  28.880  35.284  1.00  0.00     0.131 A 
ATOM     91  C   UNL A   1      45.415  26.751  37.015  1.00  0.00     0.055 A 
ATOM     92  C   UNL A   1      46.864  28.379  35.993  1.00  0.00     0.041 A 
ATOM     93  F   UNL A   1      45.986  29.925  34.468  1.00  0.00    -0.206 F 
ATOM     94  C   UNL A   1      46.686  27.314  36.873  1.00  0.00     0.022 A 
BRANCH  91  95
ATOM     95  S   UNL A   1      45.142  25.428  38.225  1.00  0.00     0.124 S 
ATOM     96  O   UNL A   1      43.960  25.906  38.937  1.00  0.00    -0.237 OA
ATOM     97  O   UNL A   1      44.943  24.261  37.373  1.00  0.00    -0.237 OA
ATOM     98  O   UNL A   1      46.376  25.419  39.009  1.00  0.00    -0.744 OA
ENDBRANCH  91  95
ENDBRANCH  65  88
ENDBRANCH  39  40
ENDBRANCH  32  34
ENDBRANCH  31  32
ENDBRANCH  30  31
ENDBRANCH  29  30
ENDBRANCH  28  29
ENDBRANCH  27  28
ENDBRANCH   1  27
TORSDOF 27
ENDMDL
MODEL 3
REMARK VINA RESULT:      -8.6      2.619      9.247
REMARK SMILES C[C@@H](O)[C@@H](NC(=O)CN(C)C(=O)c1cccs1)C(=O)OCCOCCOCCOC(=O)c1ccc(-c2c3nc(c(-c4cc(S(=O)(=O)[O-])ccc4F)c4ccc([nH]4)c(-c4cc(S(=O)(=O)[O-])ccc4F)c4nc(c(-c5cc(S(=O)(=O)[O-])ccc5F)c5ccc2[nH]5)C=C4)C=C3)cc1
REMARK SMILES IDX 24 1 23 2 22 3 21 4 20 5 18 6 19 7 4 8 2 9 1 10 3 11 5 13
REMARK SMILES IDX 6 14 7 16 8 17 9 18 10 19 11 20 12 21 13 22 14 23 17 24
REMARK SMILES IDX 15 25 16 26 25 27 26 28 27 29 28 30 29 31 30 32 31 33 32 34
REMARK SMILES IDX 33 35 94 36 34 37 93 38 35 39 36 40 37 41 87 42 38 43 92 44
REMARK SMILES IDX 86 45 88 46 39 47 91 48 85 49 84 50 40 52 72 53 52 54 71 55
REMARK SMILES IDX 53 56 56 57 70 58 89 59 54 60 55 61 69 63 90 64 57 65 41 66
REMARK SMILES IDX 42 67 50 68 43 69 49 70 51 71 48 72 44 73 45 74 46 75 47 76
REMARK SMILES IDX 73 77 74 78 82 79 75 80 81 81 83 82 80 83 76 84 77 85 78 86
REMARK SMILES IDX 79 87 58 88 59 89 67 90 60 91 66 92 68 93 65 94 61 95 62 96
REMARK SMILES IDX 63 97 64 98
REMARK H PARENT 3 12 5 15 88 51 56 62
REMARK Flexibility Score: inf
ROOT
ATOM      1  C   UNL A   1      39.318  23.655  26.398  1.00  0.00     0.188 C 
ENDROOT
BRANCH   1   2
ATOM      2  O   UNL A   1      37.915  23.823  26.234  1.00  0.00    -0.376 OA
BRANCH   2   3
ATOM      3  C   UNL A   1      37.238  22.658  25.757  1.00  0.00     0.202 C 
BRANCH   3   4
ATOM      4  C   UNL A   1      35.787  22.576  26.245  1.00  0.00     0.261 C 
BRANCH   4   5
ATOM      5  O   UNL A   1      35.208  21.332  25.789  1.00  0.00    -0.462 OA
BRANCH   5   6
ATOM      6  C   UNL A   1      34.258  21.426  24.825  1.00  0.00     0.331 C 
ATOM      7  O   UNL A   1      34.415  22.061  23.788  1.00  0.00    -0.250 OA
BRANCH   6   8
ATOM      8  C   UNL A   1      32.893  20.874  25.269  1.00  0.00     0.221 C 
BRANCH   8   9
ATOM      9  C   UNL A   1      32.618  19.352  25.264  1.00  0.00     0.145 C 
ATOM     10  C   UNL A   1      33.196  18.687  24.007  1.00  0.00     0.041 C 
BRANCH   9  11
ATOM     11  O   UNL A   1      33.173  18.703  26.403  1.00  0.00    -0.391 OA
ATOM     12  H   UNL A   1      32.474  18.542  27.057  1.00  0.00     0.211 HD
ENDBRANCH   9  11
ENDBRANCH   8   9
BRANCH   8  13
ATOM     13  N   UNL A   1      32.408  21.517  26.505  1.00  0.00    -0.339 N 
ATOM     14  C   UNL A   1      31.838  22.736  26.735  1.00  0.00     0.240 C 
ATOM     15  H   UNL A   1      32.515  20.966  27.313  1.00  0.00     0.164 HD
ATOM     16  O   UNL A   1      31.967  23.186  27.876  1.00  0.00    -0.273 OA
BRANCH  14  17
ATOM     17  C   UNL A   1      31.051  23.506  25.657  1.00  0.00     0.219 C 
BRANCH  17  18
ATOM     18  N   UNL A   1      31.762  24.505  24.851  1.00  0.00    -0.332 N 
ATOM     19  C   UNL A   1      32.957  25.132  25.399  1.00  0.00     0.147 C 
BRANCH  18  20
ATOM     20  C   UNL A   1      31.396  24.664  23.499  1.00  0.00     0.264 C 
ATOM     21  O   UNL A   1      31.637  23.822  22.655  1.00  0.00    -0.268 OA
BRANCH  20  22
ATOM     22  C   UNL A   1      30.764  25.937  23.173  1.00  0.00     0.092 A 
ATOM     23  C   UNL A   1      31.230  26.942  22.344  1.00  0.00     0.025 A 
ATOM     24  S   UNL A   1      29.283  26.357  23.912  1.00  0.00    -0.139 S 
ATOM     25  C   UNL A   1      30.424  28.113  22.418  1.00  0.00     0.012 A 
ATOM     26  C   UNL A   1      29.339  27.936  23.248  1.00  0.00     0.065 A 
ENDBRANCH  20  22
ENDBRANCH  18  20
ENDBRANCH  17  18
ENDBRANCH  14  17
ENDBRANCH   8  13
ENDBRANCH   6   8
ENDBRANCH   5   6
ENDBRANCH   4   5
ENDBRANCH   3   4
ENDBRANCH   2   3
ENDBRANCH   1   2
BRANCH   1  27
ATOM     27  C   UNL A   1      39.729  22.212  26.642  1.00  0.00     0.188 C 
BRANCH  27  28
ATOM     28  O   UNL A   1      41.102  21.994  26.981  1.00  0.00    -0.376 OA
BRANCH  28  29
ATOM     29  C   UNL A   1      41.968  22.138  25.842  1.00  0.00     0.202 C 
BRANCH  29  30
ATOM     30  C   UNL A   1      42.700  23.491  25.735  1.00  0.00     0.261 C 
BRANCH  30  31
ATOM     31  O   UNL A   1      44.085  23.301  25.386  1.00  0.00    -0.460 OA
BRANCH  31  32
ATOM     32  C   UNL A   1      44.953  23.246  26.430  1.00  0.00     0.338 C 
ATOM     33  O   UNL A   1      46.014  22.643  26.451  1.00  0.00    -0.246 OA
BRANCH  32  34
ATOM     34  C   UNL A   1      44.563  24.252  27.460  1.00  0.00     0.060 A 
ATOM     35  C   UNL A   1      43.933  23.773  28.619  1.00  0.00     0.016 A 
ATOM     36  C   UNL A   1      44.903  25.608  27.368  1.00  0.00     0.016 A 
ATOM     37  C   UNL A   1      43.614  24.642  29.665  1.00  0.00     0.010 A 
ATOM     38  C   UNL A   1      44.578  26.480  28.416  1.00  0.00     0.010 A 
ATOM     39  C   UNL A   1      43.902  26.007  29.554  1.00  0.00    -0.014 A 
BRANCH  39  40
ATOM     40  C   UNL A   1      43.273  26.963  30.500  1.00  0.00     0.031 A 
ATOM     41  C   UNL A   1      43.937  27.152  31.839  1.00  0.00     0.074 A 
ATOM     42  C   UNL A   1      42.172  27.671  30.187  1.00  0.00     0.049 A 
ATOM     43  N   UNL A   1      43.583  27.901  32.849  1.00  0.00    -0.248 NA
ATOM     44  C   UNL A   1      45.170  26.380  32.060  1.00  0.00     0.031 C 
ATOM     45  C   UNL A   1      41.458  27.616  28.913  1.00  0.00     0.029 A 
ATOM     46  N   UNL A   1      41.459  28.579  30.933  1.00  0.00    -0.354 N 
ATOM     47  C   UNL A   1      44.552  27.695  33.826  1.00  0.00     0.074 A 
ATOM     48  C   UNL A   1      45.482  26.719  33.299  1.00  0.00     0.031 C 
ATOM     49  C   UNL A   1      40.398  28.443  28.972  1.00  0.00     0.029 A 
ATOM     50  C   UNL A   1      40.343  29.067  30.295  1.00  0.00     0.049 A 
ATOM     51  H   UNL A   1      41.722  28.854  31.840  1.00  0.00     0.167 HD
ATOM     52  C   UNL A   1      44.667  28.273  35.046  1.00  0.00     0.034 A 
ATOM     53  C   UNL A   1      39.380  29.902  30.738  1.00  0.00     0.034 A 
ATOM     54  C   UNL A   1      43.726  29.222  35.577  1.00  0.00     0.049 A 
ATOM     55  C   UNL A   1      39.474  30.463  32.139  1.00  0.00     0.074 A 
ATOM     56  C   UNL A   1      43.742  29.860  36.805  1.00  0.00     0.029 A 
ATOM     57  N   UNL A   1      42.585  29.659  34.916  1.00  0.00    -0.354 N 
ATOM     58  N   UNL A   1      40.400  30.265  33.050  1.00  0.00    -0.248 NA
ATOM     59  C   UNL A   1      38.394  31.363  32.569  1.00  0.00     0.031 C 
ATOM     60  C   UNL A   1      42.582  30.637  36.909  1.00  0.00     0.029 A 
ATOM     61  C   UNL A   1      41.875  30.535  35.721  1.00  0.00     0.049 A 
ATOM     62  H   UNL A   1      42.320  29.385  34.008  1.00  0.00     0.167 HD
ATOM     63  C   UNL A   1      40.026  31.040  34.147  1.00  0.00     0.074 A 
ATOM     64  C   UNL A   1      38.796  31.711  33.783  1.00  0.00     0.031 C 
ATOM     65  C   UNL A   1      40.646  31.190  35.345  1.00  0.00     0.034 A 
BRANCH  52  66
ATOM     66  C   UNL A   1      45.831  27.831  35.894  1.00  0.00     0.023 A 
ATOM     67  C   UNL A   1      45.715  26.761  36.800  1.00  0.00     0.031 A 
ATOM     68  C   UNL A   1      47.046  28.536  35.853  1.00  0.00     0.131 A 
ATOM     69  C   UNL A   1      46.766  26.481  37.685  1.00  0.00     0.055 A 
ATOM     70  C   UNL A   1      48.116  28.201  36.684  1.00  0.00     0.041 A 
ATOM     71  F   UNL A   1      47.200  29.583  35.027  1.00  0.00    -0.206 F 
ATOM     72  C   UNL A   1      47.974  27.180  37.618  1.00  0.00     0.022 A 
BRANCH  69  73
ATOM     73  S   UNL A   1      46.471  25.299  39.029  1.00  0.00     0.124 S 
ATOM     74  O   UNL A   1      47.604  25.569  39.912  1.00  0.00    -0.237 OA
ATOM     75  O   UNL A   1      45.163  25.705  39.526  1.00  0.00    -0.237 OA
ATOM     76  O   UNL A   1      46.510  24.001  38.359  1.00  0.00    -0.744 OA
ENDBRANCH  69  73
ENDBRANCH  52  66
BRANCH  53  77
ATOM     77  C   UNL A   1      38.204  30.231  29.881  1.00  0.00     0.023 A 
ATOM     78  C   UNL A   1      37.826  31.561  29.635  1.00  0.00     0.031 A 
ATOM     79  C   UNL A   1      37.391  29.207  29.362  1.00  0.00     0.131 A 
ATOM     80  C   UNL A   1      36.642  31.833  28.930  1.00  0.00     0.055 A 
ATOM     81  C   UNL A   1      36.239  29.483  28.622  1.00  0.00     0.041 A 
ATOM     82  F   UNL A   1      37.703  27.919  29.573  1.00  0.00    -0.206 F 
ATOM     83  C   UNL A   1      35.852  30.803  28.414  1.00  0.00     0.022 A 
BRANCH  80  84
ATOM     84  S   UNL A   1      36.102  33.558  28.767  1.00  0.00     0.124 S 
ATOM     85  O   UNL A   1      37.337  34.284  29.041  1.00  0.00    -0.237 OA
ATOM     86  O   UNL A   1      35.627  33.597  27.388  1.00  0.00    -0.237 OA
ATOM     87  O   UNL A   1      35.062  33.688  29.785  1.00  0.00    -0.744 OA
ENDBRANCH  80  84
ENDBRANCH  53  77
BRANCH  65  88
ATOM     88  C   UNL A   1      40.031  32.155  36.327  1.00  0.00     0.023 A 
ATOM     89  C   UNL A   1      38.991  31.771  37.190  1.00  0.00     0.031 A 
ATOM     90  C   UNL A   1      40.502  33.477  36.401  1.00  0.00     0.131 A 
ATOM     91  C   UNL A   1      38.429  32.712  38.066  1.00  0.00     0.055 A 
ATOM     92  C   UNL A   1      39.972  34.396  37.306  1.00  0.00     0.041 A 
ATOM     93  F   UNL A   1      41.496  33.893  35.600  1.00  0.00    -0.206 F 
ATOM     94  C   UNL A   1      38.921  34.018  38.139  1.00  0.00     0.022 A 
BRANCH  91  95
ATOM     95  S   UNL A   1      36.999  32.227  39.072  1.00  0.00     0.124 S 
ATOM     96  O   UNL A   1      36.938  30.787  38.838  1.00  0.00    -0.237 OA
ATOM     97  O   UNL A   1      37.406  32.637  40.411  1.00  0.00    -0.237 OA
ATOM     98  O   UNL A   1      35.897  32.996  38.497  1.00  0.00    -0.744 OA
ENDBRANCH  91  95
ENDBRANCH  65  88
ENDBRANCH  39  40
ENDBRANCH  32  34
ENDBRANCH  31  32
ENDBRANCH  30  31
ENDBRANCH  29  30
ENDBRANCH  28  29
ENDBRANCH  27  28
ENDBRANCH   1  27
TORSDOF 27
ENDMDL
