MODEL 1
REMARK VINA RESULT:     -10.8      0.000      0.000
REMARK SMILES Cc1nn(C)cc1C[NH+]1CCN(C(=O)Cn2ccc(C(=O)OCCOCCOCCOC(=O)c3ccc(-c4c5nc(c(-c6cc(S(=O)(=O)[O-])ccc6F)c6ccc([nH]6)c(-c6cc(S(=O)(=O)[O-])ccc6F)c6nc(c(-c7cc(S(=O)(=O)[O-])ccc7F)c7ccc4[nH]7)C=C6)C=C5)cc3)n2)CC1
REMARK SMILES IDX 26 1 25 2 24 3 23 4 22 5 20 6 21 7 19 8 16 9 17 10 97 11
REMARK SMILES IDX 18 12 15 13 13 14 9 15 10 16 99 17 11 19 98 20 12 21 14 22
REMARK SMILES IDX 8 23 7 24 1 25 2 26 3 27 4 28 6 29 5 30 27 31 28 32 29 33
REMARK SMILES IDX 30 34 31 35 32 36 33 37 34 38 35 39 96 40 36 41 95 42 37 43
REMARK SMILES IDX 38 44 39 45 89 46 40 47 94 48 88 49 90 50 41 51 93 52 87 53
REMARK SMILES IDX 86 54 42 56 74 57 54 58 73 59 55 60 58 61 72 62 91 63 56 64
REMARK SMILES IDX 57 65 71 67 92 68 59 69 43 70 44 71 52 72 45 73 51 74 53 75
REMARK SMILES IDX 50 76 46 77 47 78 48 79 49 80 75 81 76 82 84 83 77 84 83 85
REMARK SMILES IDX 85 86 82 87 78 88 79 89 80 90 81 91 60 92 61 93 69 94 62 95
REMARK SMILES IDX 68 96 70 97 67 98 63 99 64 100 65 101 66 102
REMARK H PARENT 9 18 90 55 58 66
REMARK Flexibility Score: inf
ROOT
ATOM      1  C   UNL A   1      31.583  28.312  26.785  1.00  0.00     0.188 C 
ENDROOT
BRANCH   1   2
ATOM      2  O   UNL A   1      32.670  27.395  26.729  1.00  0.00    -0.376 OA
BRANCH   2   3
ATOM      3  C   UNL A   1      32.525  26.165  26.033  1.00  0.00     0.202 C 
BRANCH   3   4
ATOM      4  C   UNL A   1      32.150  24.888  26.808  1.00  0.00     0.261 C 
BRANCH   4   5
ATOM      5  O   UNL A   1      30.759  24.524  26.758  1.00  0.00    -0.458 OA
BRANCH   5   6
ATOM      6  C   UNL A   1      30.476  23.183  26.776  1.00  0.00     0.358 C 
ATOM      7  O   UNL A   1      29.579  22.684  27.445  1.00  0.00    -0.244 OA
BRANCH   6   8
ATOM      8  C   UNL A   1      31.297  22.428  25.807  1.00  0.00     0.170 A 
ATOM      9  N   UNL A   1      32.346  22.012  23.986  1.00  0.00    -0.262 N 
ATOM     10  C   UNL A   1      32.771  21.050  24.857  1.00  0.00     0.110 A 
ATOM     11  N   UNL A   1      31.458  22.863  24.541  1.00  0.00    -0.165 NA
ATOM     12  C   UNL A   1      32.098  21.273  26.035  1.00  0.00     0.057 A 
BRANCH   9  13
ATOM     13  C   UNL A   1      32.911  22.349  22.681  1.00  0.00     0.244 C 
BRANCH  13  14
ATOM     14  C   UNL A   1      33.798  23.581  22.702  1.00  0.00     0.244 C 
ATOM     15  N   UNL A   1      32.086  27.527  21.945  1.00  0.00    -0.328 N 
ATOM     16  C   UNL A   1      33.530  27.310  22.050  1.00  0.00     0.284 C 
ATOM     17  C   UNL A   1      31.413  26.340  21.414  1.00  0.00     0.284 C 
ATOM     18  H   UNL A   1      31.965  28.257  21.243  1.00  0.00     0.348 HD
ATOM     19  C   UNL A   1      33.972  26.008  22.737  1.00  0.00     0.181 C 
ATOM     20  C   UNL A   1      31.803  24.977  22.022  1.00  0.00     0.181 C 
ATOM     21  N   UNL A   1      33.220  24.808  22.360  1.00  0.00    -0.330 N 
ATOM     22  O   UNL A   1      34.990  23.504  23.010  1.00  0.00    -0.273 OA
BRANCH  15  23
ATOM     23  C   UNL A   1      31.433  28.208  23.070  1.00  0.00     0.302 C 
BRANCH  23  24
ATOM     24  C   UNL A   1      30.135  28.851  22.728  1.00  0.00     0.047 A 
ATOM     25  C   UNL A   1      28.365  27.193  23.750  1.00  0.00     0.069 C 
ATOM     26  C   UNL A   1      28.810  28.391  22.995  1.00  0.00     0.068 A 
ATOM     27  N   UNL A   1      27.890  29.171  22.412  1.00  0.00    -0.178 NA
ATOM     28  N   UNL A   1      28.606  30.151  21.839  1.00  0.00    -0.275 N 
ATOM     29  C   UNL A   1      29.937  30.071  22.112  1.00  0.00     0.118 A 
ATOM     30  C   UNL A   1      27.969  31.074  20.932  1.00  0.00     0.173 C 
ENDBRANCH  23  24
ENDBRANCH  15  23
ENDBRANCH  13  14
ENDBRANCH   9  13
ENDBRANCH   6   8
ENDBRANCH   5   6
ENDBRANCH   4   5
ENDBRANCH   3   4
ENDBRANCH   2   3
ENDBRANCH   1   2
BRANCH   1  31
ATOM     31  C   UNL A   1      31.773  29.796  26.401  1.00  0.00     0.188 C 
BRANCH  31  32
ATOM     32  O   UNL A   1      33.112  30.263  26.419  1.00  0.00    -0.376 OA
BRANCH  32  33
ATOM     33  C   UNL A   1      33.502  31.051  27.539  1.00  0.00     0.202 C 
BRANCH  33  34
ATOM     34  C   UNL A   1      34.950  31.539  27.553  1.00  0.00     0.261 C 
BRANCH  34  35
ATOM     35  O   UNL A   1      35.551  31.587  28.839  1.00  0.00    -0.460 OA
BRANCH  35  36
ATOM     36  C   UNL A   1      36.748  32.206  28.895  1.00  0.00     0.338 C 
ATOM     37  O   UNL A   1      37.071  33.238  28.337  1.00  0.00    -0.246 OA
BRANCH  36  38
ATOM     38  C   UNL A   1      37.650  31.375  29.694  1.00  0.00     0.060 A 
ATOM     39  C   UNL A   1      38.871  31.934  30.078  1.00  0.00     0.016 A 
ATOM     40  C   UNL A   1      37.388  30.001  29.797  1.00  0.00     0.016 A 
ATOM     41  C   UNL A   1      39.907  31.080  30.387  1.00  0.00     0.010 A 
ATOM     42  C   UNL A   1      38.428  29.153  30.075  1.00  0.00     0.010 A 
ATOM     43  C   UNL A   1      39.689  29.704  30.289  1.00  0.00    -0.014 A 
BRANCH  43  44
ATOM     44  C   UNL A   1      40.825  28.823  30.439  1.00  0.00     0.031 A 
ATOM     45  C   UNL A   1      41.206  28.570  31.838  1.00  0.00     0.074 A 
ATOM     46  C   UNL A   1      41.378  28.192  29.388  1.00  0.00     0.049 A 
ATOM     47  N   UNL A   1      42.281  28.946  32.442  1.00  0.00    -0.248 NA
ATOM     48  C   UNL A   1      40.191  27.976  32.721  1.00  0.00     0.031 C 
ATOM     49  C   UNL A   1      40.870  28.150  28.014  1.00  0.00     0.029 A 
ATOM     50  N   UNL A   1      42.441  27.343  29.357  1.00  0.00    -0.354 N 
ATOM     51  C   UNL A   1      42.192  28.388  33.711  1.00  0.00     0.074 A 
ATOM     52  C   UNL A   1      40.810  28.044  33.898  1.00  0.00     0.031 C 
ATOM     53  C   UNL A   1      41.486  27.150  27.349  1.00  0.00     0.029 A 
ATOM     54  C   UNL A   1      42.495  26.557  28.214  1.00  0.00     0.049 A 
ATOM     55  H   UNL A   1      43.108  27.291  30.079  1.00  0.00     0.167 HD
ATOM     56  C   UNL A   1      43.307  27.971  34.366  1.00  0.00     0.034 A 
ATOM     57  C   UNL A   1      43.242  25.437  28.033  1.00  0.00     0.034 A 
ATOM     58  C   UNL A   1      44.497  28.596  33.820  1.00  0.00     0.049 A 
ATOM     59  C   UNL A   1      44.353  25.481  29.019  1.00  0.00     0.074 A 
ATOM     60  C   UNL A   1      44.871  29.907  33.576  1.00  0.00     0.029 A 
ATOM     61  N   UNL A   1      45.380  27.826  33.090  1.00  0.00    -0.354 N 
ATOM     62  N   UNL A   1      45.315  26.362  28.988  1.00  0.00    -0.248 NA
ATOM     63  C   UNL A   1      44.165  24.826  30.306  1.00  0.00     0.031 C 
ATOM     64  C   UNL A   1      45.612  29.866  32.360  1.00  0.00     0.029 A 
ATOM     65  C   UNL A   1      45.714  28.533  31.962  1.00  0.00     0.049 A 
ATOM     66  H   UNL A   1      45.710  26.932  33.336  1.00  0.00     0.167 HD
ATOM     67  C   UNL A   1      45.555  26.684  30.315  1.00  0.00     0.074 A 
ATOM     68  C   UNL A   1      44.906  25.624  31.081  1.00  0.00     0.031 C 
ATOM     69  C   UNL A   1      45.999  27.925  30.675  1.00  0.00     0.034 A 
BRANCH  56  70
ATOM     70  C   UNL A   1      43.358  26.703  35.199  1.00  0.00     0.023 A 
ATOM     71  C   UNL A   1      44.054  25.619  34.641  1.00  0.00     0.031 A 
ATOM     72  C   UNL A   1      42.540  26.392  36.313  1.00  0.00     0.131 A 
ATOM     73  C   UNL A   1      43.803  24.305  35.065  1.00  0.00     0.055 A 
ATOM     74  C   UNL A   1      42.358  25.089  36.785  1.00  0.00     0.041 A 
ATOM     75  F   UNL A   1      41.802  27.297  36.963  1.00  0.00    -0.206 F 
ATOM     76  C   UNL A   1      42.955  24.029  36.131  1.00  0.00     0.022 A 
BRANCH  73  77
ATOM     77  S   UNL A   1      44.436  22.959  34.038  1.00  0.00     0.124 S 
ATOM     78  O   UNL A   1      43.412  22.891  33.001  1.00  0.00    -0.237 OA
ATOM     79  O   UNL A   1      45.735  23.483  33.631  1.00  0.00    -0.237 OA
ATOM     80  O   UNL A   1      44.478  21.825  34.957  1.00  0.00    -0.744 OA
ENDBRANCH  73  77
ENDBRANCH  56  70
BRANCH  57  81
ATOM     81  C   UNL A   1      42.866  24.228  27.252  1.00  0.00     0.023 A 
ATOM     82  C   UNL A   1      43.767  23.587  26.379  1.00  0.00     0.031 A 
ATOM     83  C   UNL A   1      41.656  23.547  27.523  1.00  0.00     0.131 A 
ATOM     84  C   UNL A   1      43.438  22.333  25.812  1.00  0.00     0.055 A 
ATOM     85  C   UNL A   1      41.326  22.322  26.941  1.00  0.00     0.041 A 
ATOM     86  F   UNL A   1      40.783  24.005  28.432  1.00  0.00    -0.206 F 
ATOM     87  C   UNL A   1      42.222  21.704  26.086  1.00  0.00     0.022 A 
BRANCH  84  88
ATOM     88  S   UNL A   1      44.653  21.441  24.792  1.00  0.00     0.124 S 
ATOM     89  O   UNL A   1      44.072  20.106  24.715  1.00  0.00    -0.237 OA
ATOM     90  O   UNL A   1      44.660  22.220  23.559  1.00  0.00    -0.237 OA
ATOM     91  O   UNL A   1      45.885  21.531  25.576  1.00  0.00    -0.744 OA
ENDBRANCH  84  88
ENDBRANCH  57  81
BRANCH  69  92
ATOM     92  C   UNL A   1      46.608  28.818  29.612  1.00  0.00     0.023 A 
ATOM     93  C   UNL A   1      45.880  29.702  28.786  1.00  0.00     0.031 A 
ATOM     94  C   UNL A   1      48.012  28.843  29.516  1.00  0.00     0.131 A 
ATOM     95  C   UNL A   1      46.559  30.554  27.894  1.00  0.00     0.055 A 
ATOM     96  C   UNL A   1      48.682  29.702  28.645  1.00  0.00     0.041 A 
ATOM     97  F   UNL A   1      48.765  28.050  30.297  1.00  0.00    -0.206 F 
ATOM     98  C   UNL A   1      47.957  30.556  27.824  1.00  0.00     0.022 A 
BRANCH  95  99
ATOM     99  S   UNL A   1      45.634  31.672  26.795  1.00  0.00     0.124 S 
ATOM    100  O   UNL A   1      46.023  33.001  27.249  1.00  0.00    -0.237 OA
ATOM    101  O   UNL A   1      46.117  31.280  25.473  1.00  0.00    -0.237 OA
ATOM    102  O   UNL A   1      44.236  31.322  27.056  1.00  0.00    -0.744 OA
ENDBRANCH  95  99
ENDBRANCH  69  92
ENDBRANCH  43  44
ENDBRANCH  36  38
ENDBRANCH  35  36
ENDBRANCH  34  35
ENDBRANCH  33  34
ENDBRANCH  32  33
ENDBRANCH  31  32
ENDBRANCH   1  31
TORSDOF 24
ENDMDL
MODEL 2
REMARK VINA RESULT:     -10.4      3.806      8.271
REMARK SMILES Cc1nn(C)cc1C[NH+]1CCN(C(=O)Cn2ccc(C(=O)OCCOCCOCCOC(=O)c3ccc(-c4c5nc(c(-c6cc(S(=O)(=O)[O-])ccc6F)c6ccc([nH]6)c(-c6cc(S(=O)(=O)[O-])ccc6F)c6nc(c(-c7cc(S(=O)(=O)[O-])ccc7F)c7ccc4[nH]7)C=C6)C=C5)cc3)n2)CC1
REMARK SMILES IDX 26 1 25 2 24 3 23 4 22 5 20 6 21 7 19 8 16 9 17 10 97 11
REMARK SMILES IDX 18 12 15 13 13 14 9 15 10 16 99 17 11 19 98 20 12 21 14 22
REMARK SMILES IDX 8 23 7 24 1 25 2 26 3 27 4 28 6 29 5 30 27 31 28 32 29 33
REMARK SMILES IDX 30 34 31 35 32 36 33 37 34 38 35 39 96 40 36 41 95 42 37 43
REMARK SMILES IDX 38 44 39 45 89 46 40 47 94 48 88 49 90 50 41 51 93 52 87 53
REMARK SMILES IDX 86 54 42 56 74 57 54 58 73 59 55 60 58 61 72 62 91 63 56 64
REMARK SMILES IDX 57 65 71 67 92 68 59 69 43 70 44 71 52 72 45 73 51 74 53 75
REMARK SMILES IDX 50 76 46 77 47 78 48 79 49 80 75 81 76 82 84 83 77 84 83 85
REMARK SMILES IDX 85 86 82 87 78 88 79 89 80 90 81 91 60 92 61 93 69 94 62 95
REMARK SMILES IDX 68 96 70 97 67 98 63 99 64 100 65 101 66 102
REMARK H PARENT 9 18 90 55 58 66
REMARK Flexibility Score: inf
ROOT
ATOM      1  C   UNL A   1      31.765  29.327  26.962  1.00  0.00     0.188 C 
ENDROOT
BRANCH   1   2
ATOM      2  O   UNL A   1      33.037  28.892  27.427  1.00  0.00    -0.376 OA
BRANCH   2   3
ATOM      3  C   UNL A   1      34.008  28.421  26.504  1.00  0.00     0.202 C 
BRANCH   3   4
ATOM      4  C   UNL A   1      34.090  29.044  25.097  1.00  0.00     0.261 C 
BRANCH   4   5
ATOM      5  O   UNL A   1      34.439  28.133  24.040  1.00  0.00    -0.458 OA
BRANCH   5   6
ATOM      6  C   UNL A   1      33.584  28.081  22.970  1.00  0.00     0.358 C 
ATOM      7  O   UNL A   1      33.926  28.296  21.813  1.00  0.00    -0.244 OA
BRANCH   6   8
ATOM      8  C   UNL A   1      32.235  27.622  23.357  1.00  0.00     0.170 A 
ATOM      9  N   UNL A   1      30.730  26.337  24.177  1.00  0.00    -0.262 N 
ATOM     10  C   UNL A   1      30.095  27.531  23.981  1.00  0.00     0.110 A 
ATOM     11  N   UNL A   1      32.028  26.370  23.813  1.00  0.00    -0.165 NA
ATOM     12  C   UNL A   1      31.030  28.377  23.432  1.00  0.00     0.057 A 
BRANCH   9  13
ATOM     13  C   UNL A   1      30.247  25.182  24.931  1.00  0.00     0.244 C 
BRANCH  13  14
ATOM     14  C   UNL A   1      31.262  24.633  25.918  1.00  0.00     0.244 C 
ATOM     15  N   UNL A   1      33.942  21.393  24.735  1.00  0.00    -0.328 N 
ATOM     16  C   UNL A   1      33.855  21.870  26.117  1.00  0.00     0.284 C 
ATOM     17  C   UNL A   1      32.662  21.554  24.043  1.00  0.00     0.284 C 
ATOM     18  H   UNL A   1      34.105  20.389  24.797  1.00  0.00     0.348 HD
ATOM     19  C   UNL A   1      33.231  23.260  26.318  1.00  0.00     0.181 C 
ATOM     20  C   UNL A   1      31.940  22.908  24.199  1.00  0.00     0.181 C 
ATOM     21  N   UNL A   1      32.032  23.534  25.523  1.00  0.00    -0.330 N 
ATOM     22  O   UNL A   1      31.405  25.140  27.034  1.00  0.00    -0.273 OA
BRANCH  15  23
ATOM     23  C   UNL A   1      35.150  21.755  23.983  1.00  0.00     0.302 C 
BRANCH  23  24
ATOM     24  C   UNL A   1      36.425  21.464  24.693  1.00  0.00     0.047 A 
ATOM     25  C   UNL A   1      37.217  23.845  25.489  1.00  0.00     0.069 C 
ATOM     26  C   UNL A   1      37.332  22.375  25.314  1.00  0.00     0.068 A 
ATOM     27  N   UNL A   1      38.445  21.757  25.732  1.00  0.00    -0.178 NA
ATOM     28  N   UNL A   1      38.227  20.463  25.446  1.00  0.00    -0.275 N 
ATOM     29  C   UNL A   1      36.983  20.227  24.946  1.00  0.00     0.118 A 
ATOM     30  C   UNL A   1      39.302  19.508  25.562  1.00  0.00     0.173 C 
ENDBRANCH  23  24
ENDBRANCH  15  23
ENDBRANCH  13  14
ENDBRANCH   9  13
ENDBRANCH   6   8
ENDBRANCH   5   6
ENDBRANCH   4   5
ENDBRANCH   3   4
ENDBRANCH   2   3
ENDBRANCH   1   2
BRANCH   1  31
ATOM     31  C   UNL A   1      31.537  30.789  26.516  1.00  0.00     0.188 C 
BRANCH  31  32
ATOM     32  O   UNL A   1      32.411  31.745  27.095  1.00  0.00    -0.376 OA
BRANCH  32  33
ATOM     33  C   UNL A   1      31.915  33.073  27.224  1.00  0.00     0.202 C 
BRANCH  33  34
ATOM     34  C   UNL A   1      32.947  34.152  27.548  1.00  0.00     0.261 C 
BRANCH  34  35
ATOM     35  O   UNL A   1      32.592  35.014  28.620  1.00  0.00    -0.460 OA
BRANCH  35  36
ATOM     36  C   UNL A   1      33.403  34.963  29.696  1.00  0.00     0.338 C 
ATOM     37  O   UNL A   1      33.362  35.673  30.684  1.00  0.00    -0.246 OA
BRANCH  36  38
ATOM     38  C   UNL A   1      34.423  33.943  29.448  1.00  0.00     0.060 A 
ATOM     39  C   UNL A   1      34.566  32.930  30.398  1.00  0.00     0.016 A 
ATOM     40  C   UNL A   1      35.377  34.173  28.445  1.00  0.00     0.016 A 
ATOM     41  C   UNL A   1      35.771  32.265  30.462  1.00  0.00     0.010 A 
ATOM     42  C   UNL A   1      36.586  33.532  28.530  1.00  0.00     0.010 A 
ATOM     43  C   UNL A   1      36.790  32.645  29.584  1.00  0.00    -0.014 A 
BRANCH  43  44
ATOM     44  C   UNL A   1      38.102  32.071  29.776  1.00  0.00     0.031 A 
ATOM     45  C   UNL A   1      38.191  30.647  29.414  1.00  0.00     0.074 A 
ATOM     46  C   UNL A   1      39.162  32.823  30.121  1.00  0.00     0.049 A 
ATOM     47  N   UNL A   1      38.384  29.644  30.201  1.00  0.00    -0.248 NA
ATOM     48  C   UNL A   1      37.851  30.275  28.032  1.00  0.00     0.031 C 
ATOM     49  C   UNL A   1      39.222  34.284  30.200  1.00  0.00     0.029 A 
ATOM     50  N   UNL A   1      40.450  32.441  30.342  1.00  0.00    -0.354 N 
ATOM     51  C   UNL A   1      38.466  28.541  29.361  1.00  0.00     0.074 A 
ATOM     52  C   UNL A   1      37.883  28.947  28.113  1.00  0.00     0.031 C 
ATOM     53  C   UNL A   1      40.516  34.669  30.227  1.00  0.00     0.029 A 
ATOM     54  C   UNL A   1      41.362  33.486  30.270  1.00  0.00     0.049 A 
ATOM     55  H   UNL A   1      40.710  31.512  30.535  1.00  0.00     0.167 HD
ATOM     56  C   UNL A   1      39.287  27.501  29.660  1.00  0.00     0.034 A 
ATOM     57  C   UNL A   1      42.711  33.380  30.150  1.00  0.00     0.034 A 
ATOM     58  C   UNL A   1      39.625  27.491  31.071  1.00  0.00     0.049 A 
ATOM     59  C   UNL A   1      43.092  32.024  30.625  1.00  0.00     0.074 A 
ATOM     60  C   UNL A   1      38.883  27.520  32.239  1.00  0.00     0.029 A 
ATOM     61  N   UNL A   1      40.911  27.819  31.451  1.00  0.00    -0.354 N 
ATOM     62  N   UNL A   1      42.977  31.632  31.864  1.00  0.00    -0.248 NA
ATOM     63  C   UNL A   1      43.188  30.948  29.649  1.00  0.00     0.031 C 
ATOM     64  C   UNL A   1      39.634  28.326  33.142  1.00  0.00     0.029 A 
ATOM     65  C   UNL A   1      40.823  28.689  32.509  1.00  0.00     0.049 A 
ATOM     66  H   UNL A   1      41.740  27.488  31.037  1.00  0.00     0.167 HD
ATOM     67  C   UNL A   1      42.555  30.314  31.788  1.00  0.00     0.074 A 
ATOM     68  C   UNL A   1      42.818  29.914  30.409  1.00  0.00     0.031 C 
ATOM     69  C   UNL A   1      41.765  29.765  32.760  1.00  0.00     0.034 A 
BRANCH  56  70
ATOM     70  C   UNL A   1      40.105  26.759  28.618  1.00  0.00     0.023 A 
ATOM     71  C   UNL A   1      41.178  27.465  28.051  1.00  0.00     0.031 A 
ATOM     72  C   UNL A   1      39.732  25.572  27.940  1.00  0.00     0.131 A 
ATOM     73  C   UNL A   1      41.709  27.094  26.806  1.00  0.00     0.055 A 
ATOM     74  C   UNL A   1      40.322  25.162  26.741  1.00  0.00     0.041 A 
ATOM     75  F   UNL A   1      38.730  24.782  28.334  1.00  0.00    -0.206 F 
ATOM     76  C   UNL A   1      41.286  25.949  26.142  1.00  0.00     0.022 A 
BRANCH  73  77
ATOM     77  S   UNL A   1      42.800  28.273  25.977  1.00  0.00     0.124 S 
ATOM     78  O   UNL A   1      44.103  27.851  26.478  1.00  0.00    -0.237 OA
ATOM     79  O   UNL A   1      42.526  27.991  24.572  1.00  0.00    -0.237 OA
ATOM     80  O   UNL A   1      42.328  29.567  26.460  1.00  0.00    -0.744 OA
ENDBRANCH  73  77
ENDBRANCH  56  70
BRANCH  57  81
ATOM     81  C   UNL A   1      43.615  34.283  29.389  1.00  0.00     0.023 A 
ATOM     82  C   UNL A   1      44.138  33.935  28.128  1.00  0.00     0.031 A 
ATOM     83  C   UNL A   1      43.810  35.621  29.806  1.00  0.00     0.131 A 
ATOM     84  C   UNL A   1      44.827  34.897  27.353  1.00  0.00     0.055 A 
ATOM     85  C   UNL A   1      44.512  36.560  29.048  1.00  0.00     0.041 A 
ATOM     86  F   UNL A   1      43.249  36.093  30.930  1.00  0.00    -0.206 F 
ATOM     87  C   UNL A   1      45.018  36.202  27.811  1.00  0.00     0.022 A 
BRANCH  84  88
ATOM     88  S   UNL A   1      45.386  34.489  25.669  1.00  0.00     0.124 S 
ATOM     89  O   UNL A   1      44.125  34.327  24.956  1.00  0.00    -0.237 OA
ATOM     90  O   UNL A   1      46.190  35.653  25.314  1.00  0.00    -0.237 OA
ATOM     91  O   UNL A   1      46.150  33.255  25.855  1.00  0.00    -0.744 OA
ENDBRANCH  84  88
ENDBRANCH  57  81
BRANCH  69  92
ATOM     92  C   UNL A   1      41.677  30.457  34.105  1.00  0.00     0.023 A 
ATOM     93  C   UNL A   1      40.598  31.261  34.531  1.00  0.00     0.031 A 
ATOM     94  C   UNL A   1      42.698  30.191  35.036  1.00  0.00     0.131 A 
ATOM     95  C   UNL A   1      40.579  31.781  35.839  1.00  0.00     0.055 A 
ATOM     96  C   UNL A   1      42.667  30.692  36.337  1.00  0.00     0.041 A 
ATOM     97  F   UNL A   1      43.738  29.406  34.705  1.00  0.00    -0.206 F 
ATOM     98  C   UNL A   1      41.610  31.496  36.742  1.00  0.00     0.022 A 
BRANCH  95  99
ATOM     99  S   UNL A   1      39.213  32.851  36.391  1.00  0.00     0.124 S 
ATOM    100  O   UNL A   1      39.317  34.017  35.524  1.00  0.00    -0.237 OA
ATOM    101  O   UNL A   1      38.045  32.000  36.182  1.00  0.00    -0.237 OA
ATOM    102  O   UNL A   1      39.531  33.106  37.798  1.00  0.00    -0.744 OA
ENDBRANCH  95  99
ENDBRANCH  69  92
ENDBRANCH  43  44
ENDBRANCH  36  38
ENDBRANCH  35  36
ENDBRANCH  34  35
ENDBRANCH  33  34
ENDBRANCH  32  33
ENDBRANCH  31  32
ENDBRANCH   1  31
TORSDOF 24
ENDMDL
MODEL 3
REMARK VINA RESULT:     -10.3      2.373      4.717
REMARK SMILES Cc1nn(C)cc1C[NH+]1CCN(C(=O)Cn2ccc(C(=O)OCCOCCOCCOC(=O)c3ccc(-c4c5nc(c(-c6cc(S(=O)(=O)[O-])ccc6F)c6ccc([nH]6)c(-c6cc(S(=O)(=O)[O-])ccc6F)c6nc(c(-c7cc(S(=O)(=O)[O-])ccc7F)c7ccc4[nH]7)C=C6)C=C5)cc3)n2)CC1
REMARK SMILES IDX 26 1 25 2 24 3 23 4 22 5 20 6 21 7 19 8 16 9 17 10 97 11
REMARK SMILES IDX 18 12 15 13 13 14 9 15 10 16 99 17 11 19 98 20 12 21 14 22
REMARK SMILES IDX 8 23 7 24 1 25 2 26 3 27 4 28 6 29 5 30 27 31 28 32 29 33
REMARK SMILES IDX 30 34 31 35 32 36 33 37 34 38 35 39 96 40 36 41 95 42 37 43
REMARK SMILES IDX 38 44 39 45 89 46 40 47 94 48 88 49 90 50 41 51 93 52 87 53
REMARK SMILES IDX 86 54 42 56 74 57 54 58 73 59 55 60 58 61 72 62 91 63 56 64
REMARK SMILES IDX 57 65 71 67 92 68 59 69 43 70 44 71 52 72 45 73 51 74 53 75
REMARK SMILES IDX 50 76 46 77 47 78 48 79 49 80 75 81 76 82 84 83 77 84 83 85
REMARK SMILES IDX 85 86 82 87 78 88 79 89 80 90 81 91 60 92 61 93 69 94 62 95
REMARK SMILES IDX 68 96 70 97 67 98 63 99 64 100 65 101 66 102
REMARK H PARENT 9 18 90 55 58 66
REMARK Flexibility Score: inf
ROOT
ATOM      1  C   UNL A   1      33.003  28.979  26.462  1.00  0.00     0.188 C 
ENDROOT
BRANCH   1   2
ATOM      2  O   UNL A   1      34.081  28.425  25.717  1.00  0.00    -0.376 OA
BRANCH   2   3
ATOM      3  C   UNL A   1      33.948  28.224  24.317  1.00  0.00     0.202 C 
BRANCH   3   4
ATOM      4  C   UNL A   1      33.097  29.200  23.483  1.00  0.00     0.261 C 
BRANCH   4   5
ATOM      5  O   UNL A   1      31.959  28.618  22.825  1.00  0.00    -0.458 OA
BRANCH   5   6
ATOM      6  C   UNL A   1      30.813  28.508  23.568  1.00  0.00     0.358 C 
ATOM      7  O   UNL A   1      29.983  29.404  23.679  1.00  0.00    -0.244 OA
BRANCH   6   8
ATOM      8  C   UNL A   1      30.634  27.150  24.119  1.00  0.00     0.170 A 
ATOM      9  N   UNL A   1      30.555  25.009  24.149  1.00  0.00    -0.262 N 
ATOM     10  C   UNL A   1      30.556  25.373  25.465  1.00  0.00     0.110 A 
ATOM     11  N   UNL A   1      30.609  26.068  23.314  1.00  0.00    -0.165 NA
ATOM     12  C   UNL A   1      30.583  26.748  25.484  1.00  0.00     0.057 A 
BRANCH   9  13
ATOM     13  C   UNL A   1      30.749  23.673  23.590  1.00  0.00     0.244 C 
BRANCH  13  14
ATOM     14  C   UNL A   1      31.463  22.719  24.531  1.00  0.00     0.244 C 
ATOM     15  N   UNL A   1      35.808  22.311  24.360  1.00  0.00    -0.328 N 
ATOM     16  C   UNL A   1      34.973  21.430  25.178  1.00  0.00     0.284 C 
ATOM     17  C   UNL A   1      35.084  22.768  23.173  1.00  0.00     0.284 C 
ATOM     18  H   UNL A   1      36.573  21.730  24.017  1.00  0.00     0.348 HD
ATOM     19  C   UNL A   1      33.557  21.937  25.494  1.00  0.00     0.181 C 
ATOM     20  C   UNL A   1      33.642  23.277  23.378  1.00  0.00     0.181 C 
ATOM     21  N   UNL A   1      32.843  22.554  24.373  1.00  0.00    -0.330 N 
ATOM     22  O   UNL A   1      30.847  22.108  25.408  1.00  0.00    -0.273 OA
BRANCH  15  23
ATOM     23  C   UNL A   1      36.610  23.314  25.071  1.00  0.00     0.302 C 
BRANCH  23  24
ATOM     24  C   UNL A   1      37.835  22.772  25.721  1.00  0.00     0.047 A 
ATOM     25  C   UNL A   1      38.814  24.865  26.981  1.00  0.00     0.069 C 
ATOM     26  C   UNL A   1      38.802  23.455  26.518  1.00  0.00     0.068 A 
ATOM     27  N   UNL A   1      39.844  22.666  26.815  1.00  0.00    -0.178 NA
ATOM     28  N   UNL A   1      39.520  21.480  26.276  1.00  0.00    -0.275 N 
ATOM     29  C   UNL A   1      38.273  21.463  25.728  1.00  0.00     0.118 A 
ATOM     30  C   UNL A   1      40.502  20.425  26.209  1.00  0.00     0.173 C 
ENDBRANCH  23  24
ENDBRANCH  15  23
ENDBRANCH  13  14
ENDBRANCH   9  13
ENDBRANCH   6   8
ENDBRANCH   5   6
ENDBRANCH   4   5
ENDBRANCH   3   4
ENDBRANCH   2   3
ENDBRANCH   1   2
BRANCH   1  31
ATOM     31  C   UNL A   1      33.015  30.461  26.899  1.00  0.00     0.188 C 
BRANCH  31  32
ATOM     32  O   UNL A   1      34.158  30.869  27.635  1.00  0.00    -0.376 OA
BRANCH  32  33
ATOM     33  C   UNL A   1      34.220  32.239  28.016  1.00  0.00     0.202 C 
BRANCH  33  34
ATOM     34  C   UNL A   1      35.618  32.842  28.150  1.00  0.00     0.261 C 
BRANCH  34  35
ATOM     35  O   UNL A   1      36.055  33.044  29.486  1.00  0.00    -0.460 OA
BRANCH  35  36
ATOM     36  C   UNL A   1      36.205  31.923  30.221  1.00  0.00     0.338 C 
ATOM     37  O   UNL A   1      35.486  31.532  31.121  1.00  0.00    -0.246 OA
BRANCH  36  38
ATOM     38  C   UNL A   1      37.450  31.274  29.808  1.00  0.00     0.060 A 
ATOM     39  C   UNL A   1      37.441  29.883  29.683  1.00  0.00     0.016 A 
ATOM     40  C   UNL A   1      38.639  32.018  29.831  1.00  0.00     0.016 A 
ATOM     41  C   UNL A   1      38.642  29.215  29.777  1.00  0.00     0.010 A 
ATOM     42  C   UNL A   1      39.829  31.350  29.955  1.00  0.00     0.010 A 
ATOM     43  C   UNL A   1      39.803  29.958  30.003  1.00  0.00    -0.014 A 
BRANCH  43  44
ATOM     44  C   UNL A   1      41.027  29.241  30.279  1.00  0.00     0.031 A 
ATOM     45  C   UNL A   1      41.337  29.116  31.712  1.00  0.00     0.074 A 
ATOM     46  C   UNL A   1      41.727  28.632  29.306  1.00  0.00     0.049 A 
ATOM     47  N   UNL A   1      42.312  29.659  32.358  1.00  0.00    -0.248 NA
ATOM     48  C   UNL A   1      40.346  28.443  32.565  1.00  0.00     0.031 C 
ATOM     49  C   UNL A   1      41.326  28.451  27.909  1.00  0.00     0.029 A 
ATOM     50  N   UNL A   1      42.888  27.928  29.395  1.00  0.00    -0.354 N 
ATOM     51  C   UNL A   1      42.204  29.164  33.651  1.00  0.00     0.074 A 
ATOM     52  C   UNL A   1      40.867  28.654  33.772  1.00  0.00     0.031 C 
ATOM     53  C   UNL A   1      42.109  27.505  27.347  1.00  0.00     0.029 A 
ATOM     54  C   UNL A   1      43.121  27.095  28.309  1.00  0.00     0.049 A 
ATOM     55  H   UNL A   1      43.504  28.002  30.159  1.00  0.00     0.167 HD
ATOM     56  C   UNL A   1      43.315  28.931  34.399  1.00  0.00     0.034 A 
ATOM     57  C   UNL A   1      44.014  26.073  28.245  1.00  0.00     0.034 A 
ATOM     58  C   UNL A   1      44.452  29.674  33.892  1.00  0.00     0.049 A 
ATOM     59  C   UNL A   1      45.038  26.314  29.294  1.00  0.00     0.074 A 
ATOM     60  C   UNL A   1      44.674  31.008  33.590  1.00  0.00     0.029 A 
ATOM     61  N   UNL A   1      45.473  28.987  33.268  1.00  0.00    -0.354 N 
ATOM     62  N   UNL A   1      45.881  27.309  29.269  1.00  0.00    -0.248 NA
ATOM     63  C   UNL A   1      44.845  25.710  30.606  1.00  0.00     0.031 C 
ATOM     64  C   UNL A   1      45.498  30.998  32.428  1.00  0.00     0.029 A 
ATOM     65  C   UNL A   1      45.795  29.670  32.121  1.00  0.00     0.049 A 
ATOM     66  H   UNL A   1      45.895  28.158  33.589  1.00  0.00     0.167 HD
ATOM     67  C   UNL A   1      45.985  27.730  30.585  1.00  0.00     0.074 A 
ATOM     68  C   UNL A   1      45.422  26.638  31.374  1.00  0.00     0.031 C 
ATOM     69  C   UNL A   1      46.244  29.036  30.895  1.00  0.00     0.034 A 
BRANCH  56  70
ATOM     70  C   UNL A   1      43.466  27.727  35.312  1.00  0.00     0.023 A 
ATOM     71  C   UNL A   1      43.844  27.996  36.637  1.00  0.00     0.031 A 
ATOM     72  C   UNL A   1      43.571  26.372  34.912  1.00  0.00     0.131 A 
ATOM     73  C   UNL A   1      44.445  27.006  37.431  1.00  0.00     0.055 A 
ATOM     74  C   UNL A   1      44.093  25.372  35.737  1.00  0.00     0.041 A 
ATOM     75  F   UNL A   1      43.261  25.938  33.687  1.00  0.00    -0.206 F 
ATOM     76  C   UNL A   1      44.577  25.694  36.989  1.00  0.00     0.022 A 
BRANCH  73  77
ATOM     77  S   UNL A   1      45.251  27.534  38.959  1.00  0.00     0.124 S 
ATOM     78  O   UNL A   1      44.593  26.675  39.937  1.00  0.00    -0.237 OA
ATOM     79  O   UNL A   1      46.650  27.234  38.675  1.00  0.00    -0.237 OA
ATOM     80  O   UNL A   1      44.918  28.953  39.043  1.00  0.00    -0.744 OA
ENDBRANCH  73  77
ENDBRANCH  56  70
BRANCH  57  81
ATOM     81  C   UNL A   1      43.849  24.785  27.519  1.00  0.00     0.023 A 
ATOM     82  C   UNL A   1      44.563  24.489  26.342  1.00  0.00     0.031 A 
ATOM     83  C   UNL A   1      43.128  23.718  28.105  1.00  0.00     0.131 A 
ATOM     84  C   UNL A   1      44.527  23.183  25.797  1.00  0.00     0.055 A 
ATOM     85  C   UNL A   1      43.076  22.439  27.550  1.00  0.00     0.041 A 
ATOM     86  F   UNL A   1      42.514  23.856  29.291  1.00  0.00    -0.206 F 
ATOM     87  C   UNL A   1      43.784  22.164  26.394  1.00  0.00     0.022 A 
BRANCH  84  88
ATOM     88  S   UNL A   1      45.555  22.764  24.354  1.00  0.00     0.124 S 
ATOM     89  O   UNL A   1      46.427  21.724  24.887  1.00  0.00    -0.237 OA
ATOM     90  O   UNL A   1      44.562  22.340  23.374  1.00  0.00    -0.237 OA
ATOM     91  O   UNL A   1      46.225  24.025  24.036  1.00  0.00    -0.744 OA
ENDBRANCH  84  88
ENDBRANCH  57  81
BRANCH  69  92
ATOM     92  C   UNL A   1      46.808  29.942  29.819  1.00  0.00     0.023 A 
ATOM     93  C   UNL A   1      46.037  30.634  28.859  1.00  0.00     0.031 A 
ATOM     94  C   UNL A   1      48.193  30.194  29.847  1.00  0.00     0.131 A 
ATOM     95  C   UNL A   1      46.660  31.523  27.962  1.00  0.00     0.055 A 
ATOM     96  C   UNL A   1      48.803  31.089  28.969  1.00  0.00     0.041 A 
ATOM     97  F   UNL A   1      48.978  29.592  30.756  1.00  0.00    -0.206 F 
ATOM     98  C   UNL A   1      48.040  31.752  28.018  1.00  0.00     0.022 A 
BRANCH  95  99
ATOM     99  S   UNL A   1      45.686  32.393  26.694  1.00  0.00     0.124 S 
ATOM    100  O   UNL A   1      45.710  31.483  25.557  1.00  0.00    -0.237 OA
ATOM    101  O   UNL A   1      44.394  32.560  27.353  1.00  0.00    -0.237 OA
ATOM    102  O   UNL A   1      46.429  33.640  26.494  1.00  0.00    -0.744 OA
ENDBRANCH  95  99
ENDBRANCH  69  92
ENDBRANCH  43  44
ENDBRANCH  36  38
ENDBRANCH  35  36
ENDBRANCH  34  35
ENDBRANCH  33  34
ENDBRANCH  32  33
ENDBRANCH  31  32
ENDBRANCH   1  31
TORSDOF 24
ENDMDL
