MODEL 1
REMARK VINA RESULT:      -8.4      0.000      0.000
REMARK SMILES CS(=O)(=O)N(Cc1ccc(Cl)cc1)c1ccc(C(=O)Nc2ccccc2C(=O)OCCOCCOCCOC(=O)c2ccc(-c3c4nc(c(-c5cc(S(=O)(=O)[O-])ccc5F)c5ccc([nH]5)c(-c5cc(S(=O)(=O)[O-])ccc5F)c5nc(c(-c6cc(S(=O)(=O)[O-])ccc6F)c6ccc3[nH]6)C=C5)C=C4)cc2)cc1
REMARK SMILES IDX 33 1 32 2 31 3 30 4 29 5 27 6 28 7 26 8 21 9 22 10 23 11
REMARK SMILES IDX 25 12 24 13 20 14 18 15 19 16 17 18 14 19 15 20 105 21 16 22
REMARK SMILES IDX 104 23 5 24 2 25 1 26 3 27 4 28 6 29 7 30 8 31 13 32 9 33
REMARK SMILES IDX 12 34 10 35 11 36 34 37 35 38 36 39 37 40 38 41 39 42 40 43
REMARK SMILES IDX 41 44 42 45 103 46 43 47 102 48 44 49 45 50 46 51 96 52
REMARK SMILES IDX 47 53 101 54 95 55 97 56 48 57 100 58 94 59 93 60 49 62
REMARK SMILES IDX 81 63 61 64 80 65 62 66 65 67 79 68 98 69 63 70 64 71 78 73
REMARK SMILES IDX 99 74 66 75 50 76 51 77 59 78 52 79 58 80 60 81 57 82 53 83
REMARK SMILES IDX 54 84 55 85 56 86 82 87 83 88 91 89 84 90 90 91 92 92 89 93
REMARK SMILES IDX 85 94 86 95 87 96 88 97 67 98 68 99 76 100 69 101 75 102
REMARK SMILES IDX 77 103 74 104 70 105 71 106 72 107 73 108
REMARK H PARENT 20 17 97 61 65 72
REMARK Flexibility Score: inf
ROOT
ATOM      1  C   UNL A   1      42.016  29.692  26.926  1.00  0.00     0.188 C 
ENDROOT
BRANCH   1   2
ATOM      2  O   UNL A   1      43.339  29.378  27.310  1.00  0.00    -0.376 OA
BRANCH   2   3
ATOM      3  C   UNL A   1      43.682  29.373  28.681  1.00  0.00     0.202 C 
BRANCH   3   4
ATOM      4  C   UNL A   1      44.526  28.279  29.338  1.00  0.00     0.261 C 
BRANCH   4   5
ATOM      5  O   UNL A   1      44.647  27.018  28.661  1.00  0.00    -0.460 OA
BRANCH   5   6
ATOM      6  C   UNL A   1      43.717  26.086  29.009  1.00  0.00     0.340 C 
ATOM      7  O   UNL A   1      43.694  25.500  30.083  1.00  0.00    -0.246 OA
BRANCH   6   8
ATOM      8  C   UNL A   1      42.610  25.961  28.016  1.00  0.00     0.083 A 
ATOM      9  C   UNL A   1      42.671  26.216  26.629  1.00  0.00     0.056 A 
ATOM     10  C   UNL A   1      41.469  26.197  25.894  1.00  0.00     0.027 A 
ATOM     11  C   UNL A   1      40.253  25.846  26.485  1.00  0.00     0.002 A 
ATOM     12  C   UNL A   1      41.370  25.615  28.598  1.00  0.00     0.018 A 
ATOM     13  C   UNL A   1      40.205  25.545  27.837  1.00  0.00     0.001 A 
BRANCH   9  14
ATOM     14  N   UNL A   1      43.813  26.451  25.830  1.00  0.00    -0.321 N 
ATOM     15  C   UNL A   1      44.735  25.602  25.263  1.00  0.00     0.255 C 
ATOM     16  O   UNL A   1      45.740  26.053  24.715  1.00  0.00    -0.269 OA
ATOM     17  H   UNL A   1      43.981  27.403  25.644  1.00  0.00     0.170 HD
BRANCH  15  18
ATOM     18  C   UNL A   1      44.517  24.142  25.261  1.00  0.00     0.040 A 
ATOM     19  C   UNL A   1      43.812  21.480  25.901  1.00  0.00     0.052 A 
ATOM     20  C   UNL A   1      45.000  22.072  26.373  1.00  0.00     0.028 A 
ATOM     21  C   UNL A   1      43.064  22.231  24.982  1.00  0.00     0.028 A 
ATOM     22  C   UNL A   1      45.374  23.372  26.033  1.00  0.00     0.016 A 
ATOM     23  C   UNL A   1      43.413  23.548  24.654  1.00  0.00     0.016 A 
BRANCH  19  24
ATOM     24  N   UNL A   1      43.451  20.104  26.298  1.00  0.00    -0.266 N 
BRANCH  24  25
ATOM     25  S   UNL A   1      43.871  18.848  25.235  1.00  0.00     0.232 S 
ATOM     26  C   UNL A   1      45.551  18.401  25.624  1.00  0.00     0.183 C 
ATOM     27  O   UNL A   1      43.895  19.421  23.901  1.00  0.00    -0.207 OA
ATOM     28  O   UNL A   1      43.044  17.698  25.529  1.00  0.00    -0.207 OA
ENDBRANCH  24  25
BRANCH  24  29
ATOM     29  C   UNL A   1      42.243  19.927  27.155  1.00  0.00     0.170 C 
BRANCH  29  30
ATOM     30  C   UNL A   1      40.973  20.484  26.506  1.00  0.00    -0.027 A 
ATOM     31  C   UNL A   1      40.143  19.667  25.711  1.00  0.00     0.007 A 
ATOM     32  C   UNL A   1      40.541  21.783  26.808  1.00  0.00     0.007 A 
ATOM     33  C   UNL A   1      38.851  20.068  25.378  1.00  0.00     0.021 A 
ATOM     34  C   UNL A   1      39.261  22.205  26.426  1.00  0.00     0.021 A 
ATOM     35  C   UNL A   1      38.409  21.331  25.751  1.00  0.00     0.041 A 
ATOM     36  Cl  UNL A   1      36.790  21.799  25.408  1.00  0.00    -0.084 Cl
ENDBRANCH  29  30
ENDBRANCH  24  29
ENDBRANCH  19  24
ENDBRANCH  15  18
ENDBRANCH   9  14
ENDBRANCH   6   8
ENDBRANCH   5   6
ENDBRANCH   4   5
ENDBRANCH   3   4
ENDBRANCH   2   3
ENDBRANCH   1   2
BRANCH   1  37
ATOM     37  C   UNL A   1      40.867  29.333  27.894  1.00  0.00     0.188 C 
BRANCH  37  38
ATOM     38  O   UNL A   1      39.629  28.895  27.380  1.00  0.00    -0.376 OA
BRANCH  38  39
ATOM     39  C   UNL A   1      38.451  29.061  28.148  1.00  0.00     0.202 C 
BRANCH  39  40
ATOM     40  C   UNL A   1      38.351  28.842  29.673  1.00  0.00     0.261 C 
BRANCH  40  41
ATOM     41  O   UNL A   1      38.552  29.969  30.534  1.00  0.00    -0.460 OA
BRANCH  41  42
ATOM     42  C   UNL A   1      37.652  30.110  31.544  1.00  0.00     0.338 C 
ATOM     43  O   UNL A   1      36.658  29.425  31.728  1.00  0.00    -0.246 OA
BRANCH  42  44
ATOM     44  C   UNL A   1      38.190  31.060  32.546  1.00  0.00     0.060 A 
ATOM     45  C   UNL A   1      39.291  30.660  33.322  1.00  0.00     0.016 A 
ATOM     46  C   UNL A   1      37.646  32.334  32.710  1.00  0.00     0.016 A 
ATOM     47  C   UNL A   1      39.831  31.520  34.280  1.00  0.00     0.010 A 
ATOM     48  C   UNL A   1      38.165  33.183  33.698  1.00  0.00     0.010 A 
ATOM     49  C   UNL A   1      39.238  32.767  34.511  1.00  0.00    -0.014 A 
BRANCH  49  50
ATOM     50  C   UNL A   1      39.584  33.517  35.747  1.00  0.00     0.031 A 
ATOM     51  C   UNL A   1      40.685  34.544  35.663  1.00  0.00     0.074 A 
ATOM     52  C   UNL A   1      38.919  33.339  36.904  1.00  0.00     0.049 A 
ATOM     53  N   UNL A   1      41.196  35.299  36.599  1.00  0.00    -0.248 NA
ATOM     54  C   UNL A   1      41.288  34.739  34.334  1.00  0.00     0.031 C 
ATOM     55  C   UNL A   1      37.796  32.426  37.103  1.00  0.00     0.029 A 
ATOM     56  N   UNL A   1      39.098  33.923  38.134  1.00  0.00    -0.354 N 
ATOM     57  C   UNL A   1      42.184  36.056  35.977  1.00  0.00     0.074 A 
ATOM     58  C   UNL A   1      42.225  35.637  34.592  1.00  0.00     0.031 C 
ATOM     59  C   UNL A   1      37.393  32.504  38.383  1.00  0.00     0.029 A 
ATOM     60  C   UNL A   1      38.253  33.442  39.107  1.00  0.00     0.049 A 
ATOM     61  H   UNL A   1      39.770  34.622  38.305  1.00  0.00     0.167 HD
ATOM     62  C   UNL A   1      42.978  37.019  36.506  1.00  0.00     0.034 A 
ATOM     63  C   UNL A   1      38.198  33.707  40.430  1.00  0.00     0.034 A 
ATOM     64  C   UNL A   1      42.941  37.419  37.891  1.00  0.00     0.049 A 
ATOM     65  C   UNL A   1      39.167  34.708  41.022  1.00  0.00     0.074 A 
ATOM     66  C   UNL A   1      43.698  38.386  38.529  1.00  0.00     0.029 A 
ATOM     67  N   UNL A   1      42.113  36.864  38.859  1.00  0.00    -0.354 N 
ATOM     68  N   UNL A   1      40.095  35.419  40.422  1.00  0.00    -0.248 NA
ATOM     69  C   UNL A   1      39.074  34.946  42.469  1.00  0.00     0.031 C 
ATOM     70  C   UNL A   1      43.390  38.358  39.892  1.00  0.00     0.029 A 
ATOM     71  C   UNL A   1      42.370  37.441  40.093  1.00  0.00     0.049 A 
ATOM     72  H   UNL A   1      41.442  36.163  38.692  1.00  0.00     0.167 HD
ATOM     73  C   UNL A   1      40.667  36.215  41.415  1.00  0.00     0.074 A 
ATOM     74  C   UNL A   1      39.967  35.907  42.645  1.00  0.00     0.031 C 
ATOM     75  C   UNL A   1      41.675  37.121  41.319  1.00  0.00     0.034 A 
BRANCH  62  76
ATOM     76  C   UNL A   1      43.995  37.660  35.591  1.00  0.00     0.023 A 
ATOM     77  C   UNL A   1      43.669  38.752  34.767  1.00  0.00     0.031 A 
ATOM     78  C   UNL A   1      45.305  37.152  35.522  1.00  0.00     0.131 A 
ATOM     79  C   UNL A   1      44.617  39.254  33.863  1.00  0.00     0.055 A 
ATOM     80  C   UNL A   1      46.268  37.711  34.681  1.00  0.00     0.041 A 
ATOM     81  F   UNL A   1      45.667  36.093  36.263  1.00  0.00    -0.206 F 
ATOM     82  C   UNL A   1      45.923  38.759  33.834  1.00  0.00     0.022 A 
BRANCH  79  83
ATOM     83  S   UNL A   1      44.078  40.462  32.622  1.00  0.00     0.124 S 
ATOM     84  O   UNL A   1      44.544  39.842  31.384  1.00  0.00    -0.237 OA
ATOM     85  O   UNL A   1      42.633  40.492  32.817  1.00  0.00    -0.237 OA
ATOM     86  O   UNL A   1      44.785  41.683  33.002  1.00  0.00    -0.744 OA
ENDBRANCH  79  83
ENDBRANCH  62  76
BRANCH  63  87
ATOM     87  C   UNL A   1      37.229  32.988  41.314  1.00  0.00     0.023 A 
ATOM     88  C   UNL A   1      35.945  33.501  41.559  1.00  0.00     0.031 A 
ATOM     89  C   UNL A   1      37.609  31.818  41.995  1.00  0.00     0.131 A 
ATOM     90  C   UNL A   1      35.108  32.878  42.500  1.00  0.00     0.055 A 
ATOM     91  C   UNL A   1      36.749  31.165  42.881  1.00  0.00     0.041 A 
ATOM     92  F   UNL A   1      38.830  31.289  41.811  1.00  0.00    -0.206 F 
ATOM     93  C   UNL A   1      35.495  31.703  43.149  1.00  0.00     0.022 A 
BRANCH  90  94
ATOM     94  S   UNL A   1      33.546  33.686  42.947  1.00  0.00     0.124 S 
ATOM     95  O   UNL A   1      34.008  34.765  43.812  1.00  0.00    -0.237 OA
ATOM     96  O   UNL A   1      33.026  34.084  41.643  1.00  0.00    -0.237 OA
ATOM     97  O   UNL A   1      32.795  32.625  43.617  1.00  0.00    -0.744 OA
ENDBRANCH  90  94
ENDBRANCH  63  87
BRANCH  75  98
ATOM     98  C   UNL A   1      42.044  37.884  42.573  1.00  0.00     0.023 A 
ATOM     99  C   UNL A   1      43.041  37.431  43.454  1.00  0.00     0.031 A 
ATOM    100  C   UNL A   1      41.374  39.078  42.897  1.00  0.00     0.131 A 
ATOM    101  C   UNL A   1      43.289  38.126  44.649  1.00  0.00     0.055 A 
ATOM    102  C   UNL A   1      41.677  39.805  44.050  1.00  0.00     0.041 A 
ATOM    103  F   UNL A   1      40.410  39.561  42.096  1.00  0.00    -0.206 F 
ATOM    104  C   UNL A   1      42.628  39.321  44.942  1.00  0.00     0.022 A 
BRANCH 101 105
ATOM    105  S   UNL A   1      44.404  37.384  45.873  1.00  0.00     0.124 S 
ATOM    106  O   UNL A   1      45.450  38.395  45.980  1.00  0.00    -0.237 OA
ATOM    107  O   UNL A   1      43.536  37.238  47.037  1.00  0.00    -0.237 OA
ATOM    108  O   UNL A   1      44.815  36.129  45.246  1.00  0.00    -0.744 OA
ENDBRANCH 101 105
ENDBRANCH  75  98
ENDBRANCH  49  50
ENDBRANCH  42  44
ENDBRANCH  41  42
ENDBRANCH  40  41
ENDBRANCH  39  40
ENDBRANCH  38  39
ENDBRANCH  37  38
ENDBRANCH   1  37
TORSDOF 26
ENDMDL
MODEL 2
REMARK VINA RESULT:      -8.3      6.553     15.298
REMARK SMILES CS(=O)(=O)N(Cc1ccc(Cl)cc1)c1ccc(C(=O)Nc2ccccc2C(=O)OCCOCCOCCOC(=O)c2ccc(-c3c4nc(c(-c5cc(S(=O)(=O)[O-])ccc5F)c5ccc([nH]5)c(-c5cc(S(=O)(=O)[O-])ccc5F)c5nc(c(-c6cc(S(=O)(=O)[O-])ccc6F)c6ccc3[nH]6)C=C5)C=C4)cc2)cc1
REMARK SMILES IDX 33 1 32 2 31 3 30 4 29 5 27 6 28 7 26 8 21 9 22 10 23 11
REMARK SMILES IDX 25 12 24 13 20 14 18 15 19 16 17 18 14 19 15 20 105 21 16 22
REMARK SMILES IDX 104 23 5 24 2 25 1 26 3 27 4 28 6 29 7 30 8 31 13 32 9 33
REMARK SMILES IDX 12 34 10 35 11 36 34 37 35 38 36 39 37 40 38 41 39 42 40 43
REMARK SMILES IDX 41 44 42 45 103 46 43 47 102 48 44 49 45 50 46 51 96 52
REMARK SMILES IDX 47 53 101 54 95 55 97 56 48 57 100 58 94 59 93 60 49 62
REMARK SMILES IDX 81 63 61 64 80 65 62 66 65 67 79 68 98 69 63 70 64 71 78 73
REMARK SMILES IDX 99 74 66 75 50 76 51 77 59 78 52 79 58 80 60 81 57 82 53 83
REMARK SMILES IDX 54 84 55 85 56 86 82 87 83 88 91 89 84 90 90 91 92 92 89 93
REMARK SMILES IDX 85 94 86 95 87 96 88 97 67 98 68 99 76 100 69 101 75 102
REMARK SMILES IDX 77 103 74 104 70 105 71 106 72 107 73 108
REMARK H PARENT 20 17 97 61 65 72
REMARK Flexibility Score: inf
ROOT
ATOM      1  C   UNL A   1      41.955  40.704  29.844  1.00  0.00     0.188 C 
ENDROOT
BRANCH   1   2
ATOM      2  O   UNL A   1      41.341  40.876  28.584  1.00  0.00    -0.376 OA
BRANCH   2   3
ATOM      3  C   UNL A   1      41.766  40.089  27.489  1.00  0.00     0.202 C 
BRANCH   3   4
ATOM      4  C   UNL A   1      42.986  40.423  26.630  1.00  0.00     0.261 C 
BRANCH   4   5
ATOM      5  O   UNL A   1      43.831  39.343  26.203  1.00  0.00    -0.460 OA
BRANCH   5   6
ATOM      6  C   UNL A   1      44.598  38.792  27.184  1.00  0.00     0.340 C 
ATOM      7  O   UNL A   1      45.171  39.431  28.055  1.00  0.00    -0.246 OA
BRANCH   6   8
ATOM      8  C   UNL A   1      44.544  37.300  27.204  1.00  0.00     0.083 A 
ATOM      9  C   UNL A   1      45.359  36.404  26.480  1.00  0.00     0.056 A 
ATOM     10  C   UNL A   1      45.034  35.032  26.513  1.00  0.00     0.027 A 
ATOM     11  C   UNL A   1      43.996  34.543  27.309  1.00  0.00     0.002 A 
ATOM     12  C   UNL A   1      43.493  36.788  27.998  1.00  0.00     0.018 A 
ATOM     13  C   UNL A   1      43.230  35.421  28.060  1.00  0.00     0.001 A 
BRANCH   9  14
ATOM     14  N   UNL A   1      46.526  36.686  25.735  1.00  0.00    -0.321 N 
ATOM     15  C   UNL A   1      47.842  36.851  26.105  1.00  0.00     0.255 C 
ATOM     16  O   UNL A   1      48.673  37.235  25.284  1.00  0.00    -0.269 OA
ATOM     17  H   UNL A   1      46.369  36.783  24.768  1.00  0.00     0.170 HD
BRANCH  15  18
ATOM     18  C   UNL A   1      48.287  36.530  27.475  1.00  0.00     0.040 A 
ATOM     19  C   UNL A   1      49.706  36.310  29.910  1.00  0.00     0.052 A 
ATOM     20  C   UNL A   1      49.990  35.486  28.804  1.00  0.00     0.028 A 
ATOM     21  C   UNL A   1      48.590  37.152  29.791  1.00  0.00     0.028 A 
ATOM     22  C   UNL A   1      49.270  35.562  27.611  1.00  0.00     0.016 A 
ATOM     23  C   UNL A   1      47.877  37.259  28.589  1.00  0.00     0.016 A 
BRANCH  19  24
ATOM     24  N   UNL A   1      50.502  36.203  31.149  1.00  0.00    -0.266 N 
BRANCH  24  25
ATOM     25  S   UNL A   1      51.422  37.556  31.606  1.00  0.00     0.232 S 
ATOM     26  C   UNL A   1      52.856  37.568  30.551  1.00  0.00     0.183 C 
ATOM     27  O   UNL A   1      51.902  37.299  32.952  1.00  0.00    -0.207 OA
ATOM     28  O   UNL A   1      50.662  38.752  31.310  1.00  0.00    -0.207 OA
ENDBRANCH  24  25
BRANCH  24  29
ATOM     29  C   UNL A   1      50.999  34.851  31.537  1.00  0.00     0.170 C 
BRANCH  29  30
ATOM     30  C   UNL A   1      49.954  34.038  32.307  1.00  0.00    -0.027 A 
ATOM     31  C   UNL A   1      49.119  34.648  33.267  1.00  0.00     0.007 A 
ATOM     32  C   UNL A   1      49.717  32.699  31.969  1.00  0.00     0.007 A 
ATOM     33  C   UNL A   1      47.980  34.000  33.740  1.00  0.00     0.021 A 
ATOM     34  C   UNL A   1      48.600  32.030  32.487  1.00  0.00     0.021 A 
ATOM     35  C   UNL A   1      47.717  32.697  33.336  1.00  0.00     0.041 A 
ATOM     36  Cl  UNL A   1      46.272  31.923  33.858  1.00  0.00    -0.084 Cl
ENDBRANCH  29  30
ENDBRANCH  24  29
ENDBRANCH  19  24
ENDBRANCH  15  18
ENDBRANCH   9  14
ENDBRANCH   6   8
ENDBRANCH   5   6
ENDBRANCH   4   5
ENDBRANCH   3   4
ENDBRANCH   2   3
ENDBRANCH   1   2
BRANCH   1  37
ATOM     37  C   UNL A   1      42.059  41.927  30.782  1.00  0.00     0.188 C 
BRANCH  37  38
ATOM     38  O   UNL A   1      41.565  41.842  32.100  1.00  0.00    -0.376 OA
BRANCH  38  39
ATOM     39  C   UNL A   1      42.389  42.223  33.185  1.00  0.00     0.202 C 
BRANCH  39  40
ATOM     40  C   UNL A   1      43.004  41.249  34.214  1.00  0.00     0.261 C 
BRANCH  40  41
ATOM     41  O   UNL A   1      42.908  39.843  33.956  1.00  0.00    -0.460 OA
BRANCH  41  42
ATOM     42  C   UNL A   1      43.850  39.067  34.556  1.00  0.00     0.338 C 
ATOM     43  O   UNL A   1      44.327  39.236  35.666  1.00  0.00    -0.246 OA
BRANCH  42  44
ATOM     44  C   UNL A   1      44.034  37.827  33.765  1.00  0.00     0.060 A 
ATOM     45  C   UNL A   1      43.815  37.880  32.378  1.00  0.00     0.016 A 
ATOM     46  C   UNL A   1      44.439  36.633  34.363  1.00  0.00     0.016 A 
ATOM     47  C   UNL A   1      43.973  36.738  31.592  1.00  0.00     0.010 A 
ATOM     48  C   UNL A   1      44.562  35.477  33.578  1.00  0.00     0.010 A 
ATOM     49  C   UNL A   1      44.297  35.516  32.195  1.00  0.00    -0.014 A 
BRANCH  49  50
ATOM     50  C   UNL A   1      44.118  34.257  31.424  1.00  0.00     0.031 A 
ATOM     51  C   UNL A   1      42.763  33.599  31.457  1.00  0.00     0.074 A 
ATOM     52  C   UNL A   1      45.103  33.729  30.674  1.00  0.00     0.049 A 
ATOM     53  N   UNL A   1      42.362  32.484  30.904  1.00  0.00    -0.248 NA
ATOM     54  C   UNL A   1      41.720  34.300  32.224  1.00  0.00     0.031 C 
ATOM     55  C   UNL A   1      46.437  34.300  30.505  1.00  0.00     0.029 A 
ATOM     56  N   UNL A   1      45.129  32.586  29.912  1.00  0.00    -0.354 N 
ATOM     57  C   UNL A   1      41.023  32.346  31.258  1.00  0.00     0.074 A 
ATOM     58  C   UNL A   1      40.695  33.472  32.108  1.00  0.00     0.031 C 
ATOM     59  C   UNL A   1      47.155  33.498  29.699  1.00  0.00     0.029 A 
ATOM     60  C   UNL A   1      46.347  32.336  29.324  1.00  0.00     0.049 A 
ATOM     61  H   UNL A   1      44.347  31.999  29.797  1.00  0.00     0.167 HD
ATOM     62  C   UNL A   1      40.143  31.378  30.902  1.00  0.00     0.034 A 
ATOM     63  C   UNL A   1      46.768  31.281  28.594  1.00  0.00     0.034 A 
ATOM     64  C   UNL A   1      40.484  30.252  30.068  1.00  0.00     0.049 A 
ATOM     65  C   UNL A   1      45.799  30.157  28.298  1.00  0.00     0.074 A 
ATOM     66  C   UNL A   1      39.668  29.218  29.643  1.00  0.00     0.029 A 
ATOM     67  N   UNL A   1      41.746  30.002  29.543  1.00  0.00    -0.354 N 
ATOM     68  N   UNL A   1      44.535  30.040  28.636  1.00  0.00    -0.248 NA
ATOM     69  C   UNL A   1      46.314  29.026  27.512  1.00  0.00     0.031 C 
ATOM     70  C   UNL A   1      40.453  28.302  28.935  1.00  0.00     0.029 A 
ATOM     71  C   UNL A   1      41.738  28.811  28.833  1.00  0.00     0.049 A 
ATOM     72  H   UNL A   1      42.531  30.585  29.658  1.00  0.00     0.167 HD
ATOM     73  C   UNL A   1      44.098  28.841  28.071  1.00  0.00     0.074 A 
ATOM     74  C   UNL A   1      45.229  28.285  27.358  1.00  0.00     0.031 C 
ATOM     75  C   UNL A   1      42.873  28.255  28.132  1.00  0.00     0.034 A 
BRANCH  62  76
ATOM     76  C   UNL A   1      38.746  31.468  31.467  1.00  0.00     0.023 A 
ATOM     77  C   UNL A   1      37.677  31.999  30.724  1.00  0.00     0.031 A 
ATOM     78  C   UNL A   1      38.485  31.041  32.782  1.00  0.00     0.131 A 
ATOM     79  C   UNL A   1      36.417  32.153  31.322  1.00  0.00     0.055 A 
ATOM     80  C   UNL A   1      37.209  31.119  33.342  1.00  0.00     0.041 A 
ATOM     81  F   UNL A   1      39.470  30.552  33.550  1.00  0.00    -0.206 F 
ATOM     82  C   UNL A   1      36.168  31.691  32.616  1.00  0.00     0.022 A 
BRANCH  79  83
ATOM     83  S   UNL A   1      35.146  33.100  30.437  1.00  0.00     0.124 S 
ATOM     84  O   UNL A   1      34.631  32.101  29.504  1.00  0.00    -0.237 OA
ATOM     85  O   UNL A   1      34.244  33.497  31.511  1.00  0.00    -0.237 OA
ATOM     86  O   UNL A   1      35.899  34.189  29.819  1.00  0.00    -0.744 OA
ENDBRANCH  79  83
ENDBRANCH  62  76
BRANCH  63  87
ATOM     87  C   UNL A   1      48.185  31.194  28.123  1.00  0.00     0.023 A 
ATOM     88  C   UNL A   1      49.128  30.395  28.788  1.00  0.00     0.031 A 
ATOM     89  C   UNL A   1      48.634  31.982  27.047  1.00  0.00     0.131 A 
ATOM     90  C   UNL A   1      50.480  30.441  28.407  1.00  0.00     0.055 A 
ATOM     91  C   UNL A   1      49.967  31.974  26.631  1.00  0.00     0.041 A 
ATOM     92  F   UNL A   1      47.780  32.776  26.382  1.00  0.00    -0.206 F 
ATOM     93  C   UNL A   1      50.902  31.211  27.322  1.00  0.00     0.022 A 
BRANCH  90  94
ATOM     94  S   UNL A   1      51.701  29.561  29.421  1.00  0.00     0.124 S 
ATOM     95  O   UNL A   1      51.125  28.223  29.484  1.00  0.00    -0.237 OA
ATOM     96  O   UNL A   1      52.915  29.702  28.625  1.00  0.00    -0.237 OA
ATOM     97  O   UNL A   1      51.695  30.304  30.681  1.00  0.00    -0.744 OA
ENDBRANCH  90  94
ENDBRANCH  63  87
BRANCH  75  98
ATOM     98  C   UNL A   1      42.680  26.968  27.360  1.00  0.00     0.023 A 
ATOM     99  C   UNL A   1      42.967  25.712  27.923  1.00  0.00     0.031 A 
ATOM    100  C   UNL A   1      42.217  27.003  26.032  1.00  0.00     0.131 A 
ATOM    101  C   UNL A   1      42.855  24.552  27.140  1.00  0.00     0.055 A 
ATOM    102  C   UNL A   1      42.037  25.839  25.283  1.00  0.00     0.041 A 
ATOM    103  F   UNL A   1      41.929  28.173  25.438  1.00  0.00    -0.206 F 
ATOM    104  C   UNL A   1      42.372  24.606  25.830  1.00  0.00     0.022 A 
BRANCH 101 105
ATOM    105  S   UNL A   1      43.462  22.982  27.818  1.00  0.00     0.124 S 
ATOM    106  O   UNL A   1      42.383  22.608  28.726  1.00  0.00    -0.237 OA
ATOM    107  O   UNL A   1      43.602  22.159  26.621  1.00  0.00    -0.237 OA
ATOM    108  O   UNL A   1      44.719  23.351  28.466  1.00  0.00    -0.744 OA
ENDBRANCH 101 105
ENDBRANCH  75  98
ENDBRANCH  49  50
ENDBRANCH  42  44
ENDBRANCH  41  42
ENDBRANCH  40  41
ENDBRANCH  39  40
ENDBRANCH  38  39
ENDBRANCH  37  38
ENDBRANCH   1  37
TORSDOF 26
ENDMDL
MODEL 3
REMARK VINA RESULT:      -8.2      7.336     14.286
REMARK SMILES CS(=O)(=O)N(Cc1ccc(Cl)cc1)c1ccc(C(=O)Nc2ccccc2C(=O)OCCOCCOCCOC(=O)c2ccc(-c3c4nc(c(-c5cc(S(=O)(=O)[O-])ccc5F)c5ccc([nH]5)c(-c5cc(S(=O)(=O)[O-])ccc5F)c5nc(c(-c6cc(S(=O)(=O)[O-])ccc6F)c6ccc3[nH]6)C=C5)C=C4)cc2)cc1
REMARK SMILES IDX 33 1 32 2 31 3 30 4 29 5 27 6 28 7 26 8 21 9 22 10 23 11
REMARK SMILES IDX 25 12 24 13 20 14 18 15 19 16 17 18 14 19 15 20 105 21 16 22
REMARK SMILES IDX 104 23 5 24 2 25 1 26 3 27 4 28 6 29 7 30 8 31 13 32 9 33
REMARK SMILES IDX 12 34 10 35 11 36 34 37 35 38 36 39 37 40 38 41 39 42 40 43
REMARK SMILES IDX 41 44 42 45 103 46 43 47 102 48 44 49 45 50 46 51 96 52
REMARK SMILES IDX 47 53 101 54 95 55 97 56 48 57 100 58 94 59 93 60 49 62
REMARK SMILES IDX 81 63 61 64 80 65 62 66 65 67 79 68 98 69 63 70 64 71 78 73
REMARK SMILES IDX 99 74 66 75 50 76 51 77 59 78 52 79 58 80 60 81 57 82 53 83
REMARK SMILES IDX 54 84 55 85 56 86 82 87 83 88 91 89 84 90 90 91 92 92 89 93
REMARK SMILES IDX 85 94 86 95 87 96 88 97 67 98 68 99 76 100 69 101 75 102
REMARK SMILES IDX 77 103 74 104 70 105 71 106 72 107 73 108
REMARK H PARENT 20 17 97 61 65 72
REMARK Flexibility Score: inf
ROOT
ATOM      1  C   UNL A   1      42.810  37.953  28.768  1.00  0.00     0.188 C 
ENDROOT
BRANCH   1   2
ATOM      2  O   UNL A   1      43.251  38.013  27.427  1.00  0.00    -0.376 OA
BRANCH   2   3
ATOM      3  C   UNL A   1      42.891  39.119  26.625  1.00  0.00     0.202 C 
BRANCH   3   4
ATOM      4  C   UNL A   1      42.595  40.511  27.186  1.00  0.00     0.261 C 
BRANCH   4   5
ATOM      5  O   UNL A   1      43.566  41.548  26.972  1.00  0.00    -0.460 OA
BRANCH   5   6
ATOM      6  C   UNL A   1      44.499  41.274  26.019  1.00  0.00     0.340 C 
ATOM      7  O   UNL A   1      44.279  41.274  24.815  1.00  0.00    -0.246 OA
BRANCH   6   8
ATOM      8  C   UNL A   1      45.879  41.134  26.571  1.00  0.00     0.083 A 
ATOM      9  C   UNL A   1      46.611  42.094  27.301  1.00  0.00     0.056 A 
ATOM     10  C   UNL A   1      47.964  41.824  27.589  1.00  0.00     0.027 A 
ATOM     11  C   UNL A   1      48.557  40.606  27.251  1.00  0.00     0.002 A 
ATOM     12  C   UNL A   1      46.497  39.909  26.231  1.00  0.00     0.018 A 
ATOM     13  C   UNL A   1      47.820  39.643  26.580  1.00  0.00     0.001 A 
BRANCH   9  14
ATOM     14  N   UNL A   1      46.154  43.315  27.847  1.00  0.00    -0.321 N 
ATOM     15  C   UNL A   1      45.896  44.543  27.281  1.00  0.00     0.255 C 
ATOM     16  O   UNL A   1      45.635  45.511  27.993  1.00  0.00    -0.269 OA
ATOM     17  H   UNL A   1      45.987  43.281  28.817  1.00  0.00     0.170 HD
BRANCH  15  18
ATOM     18  C   UNL A   1      45.886  44.711  25.815  1.00  0.00     0.040 A 
ATOM     19  C   UNL A   1      45.978  44.326  23.016  1.00  0.00     0.052 A 
ATOM     20  C   UNL A   1      47.147  44.459  23.789  1.00  0.00     0.028 A 
ATOM     21  C   UNL A   1      44.761  44.533  23.683  1.00  0.00     0.028 A 
ATOM     22  C   UNL A   1      47.111  44.686  25.166  1.00  0.00     0.016 A 
ATOM     23  C   UNL A   1      44.709  44.733  25.069  1.00  0.00     0.016 A 
BRANCH  19  24
ATOM     24  N   UNL A   1      46.065  44.073  21.563  1.00  0.00    -0.266 N 
BRANCH  24  25
ATOM     25  S   UNL A   1      46.119  42.453  21.054  1.00  0.00     0.232 S 
ATOM     26  C   UNL A   1      47.227  41.614  22.168  1.00  0.00     0.183 C 
ATOM     27  O   UNL A   1      46.761  42.448  19.752  1.00  0.00    -0.207 OA
ATOM     28  O   UNL A   1      44.808  41.869  21.232  1.00  0.00    -0.207 OA
ENDBRANCH  24  25
BRANCH  24  29
ATOM     29  C   UNL A   1      46.747  45.099  20.723  1.00  0.00     0.170 C 
BRANCH  29  30
ATOM     30  C   UNL A   1      45.786  46.175  20.210  1.00  0.00    -0.027 A 
ATOM     31  C   UNL A   1      45.786  47.473  20.759  1.00  0.00     0.007 A 
ATOM     32  C   UNL A   1      44.985  45.925  19.087  1.00  0.00     0.007 A 
ATOM     33  C   UNL A   1      45.150  48.527  20.107  1.00  0.00     0.021 A 
ATOM     34  C   UNL A   1      44.302  46.975  18.462  1.00  0.00     0.021 A 
ATOM     35  C   UNL A   1      44.421  48.276  18.951  1.00  0.00     0.041 A 
ATOM     36  Cl  UNL A   1      43.698  49.586  18.103  1.00  0.00    -0.084 Cl
ENDBRANCH  29  30
ENDBRANCH  24  29
ENDBRANCH  19  24
ENDBRANCH  15  18
ENDBRANCH   9  14
ENDBRANCH   6   8
ENDBRANCH   5   6
ENDBRANCH   4   5
ENDBRANCH   3   4
ENDBRANCH   2   3
ENDBRANCH   1   2
BRANCH   1  37
ATOM     37  C   UNL A   1      43.842  37.611  29.865  1.00  0.00     0.188 C 
BRANCH  37  38
ATOM     38  O   UNL A   1      45.218  37.794  29.613  1.00  0.00    -0.376 OA
BRANCH  38  39
ATOM     39  C   UNL A   1      45.764  39.100  29.615  1.00  0.00     0.202 C 
BRANCH  39  40
ATOM     40  C   UNL A   1      45.114  40.330  30.285  1.00  0.00     0.261 C 
BRANCH  40  41
ATOM     41  O   UNL A   1      45.564  40.706  31.592  1.00  0.00    -0.460 OA
BRANCH  41  42
ATOM     42  C   UNL A   1      46.265  39.760  32.271  1.00  0.00     0.338 C 
ATOM     43  O   UNL A   1      47.475  39.730  32.430  1.00  0.00    -0.246 OA
BRANCH  42  44
ATOM     44  C   UNL A   1      45.319  38.895  33.016  1.00  0.00     0.060 A 
ATOM     45  C   UNL A   1      44.029  39.385  33.276  1.00  0.00     0.016 A 
ATOM     46  C   UNL A   1      45.677  37.612  33.434  1.00  0.00     0.016 A 
ATOM     47  C   UNL A   1      43.105  38.609  33.975  1.00  0.00     0.010 A 
ATOM     48  C   UNL A   1      44.760  36.848  34.169  1.00  0.00     0.010 A 
ATOM     49  C   UNL A   1      43.481  37.355  34.472  1.00  0.00    -0.014 A 
BRANCH  49  50
ATOM     50  C   UNL A   1      42.632  36.697  35.500  1.00  0.00     0.031 A 
ATOM     51  C   UNL A   1      41.667  35.634  35.040  1.00  0.00     0.074 A 
ATOM     52  C   UNL A   1      42.736  36.988  36.810  1.00  0.00     0.049 A 
ATOM     53  N   UNL A   1      40.798  34.941  35.727  1.00  0.00    -0.248 NA
ATOM     54  C   UNL A   1      41.693  35.313  33.603  1.00  0.00     0.031 C 
ATOM     55  C   UNL A   1      43.670  37.948  37.393  1.00  0.00     0.029 A 
ATOM     56  N   UNL A   1      42.040  36.500  37.890  1.00  0.00    -0.354 N 
ATOM     57  C   UNL A   1      40.168  34.106  34.809  1.00  0.00     0.074 A 
ATOM     58  C   UNL A   1      40.730  34.411  33.510  1.00  0.00     0.031 C 
ATOM     59  C   UNL A   1      43.483  37.986  38.724  1.00  0.00     0.029 A 
ATOM     60  C   UNL A   1      42.389  37.083  39.086  1.00  0.00     0.049 A 
ATOM     61  H   UNL A   1      41.355  35.797  37.815  1.00  0.00     0.167 HD
ATOM     62  C   UNL A   1      39.217  33.165  35.026  1.00  0.00     0.034 A 
ATOM     63  C   UNL A   1      41.867  36.928  40.322  1.00  0.00     0.034 A 
ATOM     64  C   UNL A   1      38.652  32.880  36.322  1.00  0.00     0.049 A 
ATOM     65  C   UNL A   1      40.730  35.948  40.524  1.00  0.00     0.074 A 
ATOM     66  C   UNL A   1      37.687  31.944  36.654  1.00  0.00     0.029 A 
ATOM     67  N   UNL A   1      38.987  33.536  37.500  1.00  0.00    -0.354 N 
ATOM     68  N   UNL A   1      40.146  35.163  39.648  1.00  0.00    -0.248 NA
ATOM     69  C   UNL A   1      40.190  35.830  41.886  1.00  0.00     0.031 C 
ATOM     70  C   UNL A   1      37.379  32.092  38.010  1.00  0.00     0.029 A 
ATOM     71  C   UNL A   1      38.220  33.052  38.549  1.00  0.00     0.049 A 
ATOM     72  H   UNL A   1      39.669  34.241  37.578  1.00  0.00     0.167 HD
ATOM     73  C   UNL A   1      39.197  34.432  40.363  1.00  0.00     0.074 A 
ATOM     74  C   UNL A   1      39.302  34.860  41.743  1.00  0.00     0.031 C 
ATOM     75  C   UNL A   1      38.322  33.491  39.922  1.00  0.00     0.034 A 
BRANCH  62  76
ATOM     76  C   UNL A   1      38.688  32.422  33.823  1.00  0.00     0.023 A 
ATOM     77  C   UNL A   1      37.640  32.932  33.036  1.00  0.00     0.031 A 
ATOM     78  C   UNL A   1      39.224  31.170  33.472  1.00  0.00     0.131 A 
ATOM     79  C   UNL A   1      37.115  32.164  31.986  1.00  0.00     0.055 A 
ATOM     80  C   UNL A   1      38.754  30.449  32.373  1.00  0.00     0.041 A 
ATOM     81  F   UNL A   1      40.207  30.618  34.201  1.00  0.00    -0.206 F 
ATOM     82  C   UNL A   1      37.684  30.938  31.631  1.00  0.00     0.022 A 
BRANCH  79  83
ATOM     83  S   UNL A   1      35.586  32.720  31.183  1.00  0.00     0.124 S 
ATOM     84  O   UNL A   1      34.583  32.364  32.183  1.00  0.00    -0.237 OA
ATOM     85  O   UNL A   1      35.828  34.146  30.999  1.00  0.00    -0.237 OA
ATOM     86  O   UNL A   1      35.538  31.930  29.954  1.00  0.00    -0.744 OA
ENDBRANCH  79  83
ENDBRANCH  62  76
BRANCH  63  87
ATOM     87  C   UNL A   1      42.367  37.744  41.471  1.00  0.00     0.023 A 
ATOM     88  C   UNL A   1      43.354  37.255  42.341  1.00  0.00     0.031 A 
ATOM     89  C   UNL A   1      41.797  38.997  41.764  1.00  0.00     0.131 A 
ATOM     90  C   UNL A   1      43.704  37.985  43.488  1.00  0.00     0.055 A 
ATOM     91  C   UNL A   1      42.195  39.749  42.871  1.00  0.00     0.041 A 
ATOM     92  F   UNL A   1      40.839  39.510  40.976  1.00  0.00    -0.206 F 
ATOM     93  C   UNL A   1      43.144  39.238  43.750  1.00  0.00     0.022 A 
BRANCH  90  94
ATOM     94  S   UNL A   1      44.825  37.226  44.697  1.00  0.00     0.124 S 
ATOM     95  O   UNL A   1      44.522  37.990  45.901  1.00  0.00    -0.237 OA
ATOM     96  O   UNL A   1      44.383  35.836  44.689  1.00  0.00    -0.237 OA
ATOM     97  O   UNL A   1      46.150  37.459  44.125  1.00  0.00    -0.744 OA
ENDBRANCH  90  94
ENDBRANCH  63  87
BRANCH  75  98
ATOM     98  C   UNL A   1      37.444  32.820  40.957  1.00  0.00     0.023 A 
ATOM     99  C   UNL A   1      36.120  33.233  41.190  1.00  0.00     0.031 A 
ATOM    100  C   UNL A   1      37.949  31.761  41.732  1.00  0.00     0.131 A 
ATOM    101  C   UNL A   1      35.373  32.639  42.220  1.00  0.00     0.055 A 
ATOM    102  C   UNL A   1      37.175  31.124  42.704  1.00  0.00     0.041 A 
ATOM    103  F   UNL A   1      39.206  31.323  41.558  1.00  0.00    -0.206 F 
ATOM    104  C   UNL A   1      35.884  31.573  42.964  1.00  0.00     0.022 A 
BRANCH 101 105
ATOM    105  S   UNL A   1      33.763  33.356  42.653  1.00  0.00     0.124 S 
ATOM    106  O   UNL A   1      33.149  32.277  43.420  1.00  0.00    -0.237 OA
ATOM    107  O   UNL A   1      34.144  34.542  43.412  1.00  0.00    -0.237 OA
ATOM    108  O   UNL A   1      33.147  33.624  41.355  1.00  0.00    -0.744 OA
ENDBRANCH 101 105
ENDBRANCH  75  98
ENDBRANCH  49  50
ENDBRANCH  42  44
ENDBRANCH  41  42
ENDBRANCH  40  41
ENDBRANCH  39  40
ENDBRANCH  38  39
ENDBRANCH  37  38
ENDBRANCH   1  37
TORSDOF 26
ENDMDL
