MODEL 1
REMARK VINA RESULT:      -9.6      0.000      0.000
REMARK SMILES C[C@H](C1CC1)n1c(SCC(=O)OCCOCCOCCOC(=O)c2ccc(-c3c4nc(c(-c5cc(S(=O)(=O)[O-])ccc5F)c5ccc([nH]5)c(-c5cc(S(=O)(=O)[O-])ccc5F)c5nc(c(-c6cc(S(=O)(=O)[O-])ccc6F)c6ccc3[nH]6)C=C5)C=C4)cc2)nc2cc(Cl)c(Cl)cc21
REMARK SMILES IDX 16 1 15 2 14 3 13 4 12 5 10 6 11 7 9 8 8 9 7 10 6 11 95 12
REMARK SMILES IDX 87 13 88 14 94 15 89 16 92 17 90 18 93 19 91 20 2 21 1 22
REMARK SMILES IDX 3 23 4 24 5 25 17 26 18 27 19 28 20 29 21 30 22 31 23 32
REMARK SMILES IDX 24 33 25 34 86 35 26 36 85 37 27 38 28 39 29 40 79 41 30 42
REMARK SMILES IDX 84 43 78 44 80 45 31 46 83 47 77 48 76 49 32 51 64 52 44 53
REMARK SMILES IDX 63 54 45 55 48 56 62 57 81 58 46 59 47 60 61 62 82 63 49 64
REMARK SMILES IDX 33 65 34 66 42 67 35 68 41 69 43 70 40 71 36 72 37 73 38 74
REMARK SMILES IDX 39 75 65 76 66 77 74 78 67 79 73 80 75 81 72 82 68 83 69 84
REMARK SMILES IDX 70 85 71 86 50 87 51 88 59 89 52 90 58 91 60 92 57 93 53 94
REMARK SMILES IDX 54 95 55 96 56 97
REMARK H PARENT 80 50 48 61
REMARK Flexibility Score: inf
ROOT
ATOM      1  C   UNL A   1      34.069  33.874  27.977  1.00  0.00     0.188 C 
ENDROOT
BRANCH   1   2
ATOM      2  O   UNL A   1      34.019  32.718  28.811  1.00  0.00    -0.376 OA
BRANCH   2   3
ATOM      3  C   UNL A   1      34.407  31.475  28.214  1.00  0.00     0.202 C 
BRANCH   3   4
ATOM      4  C   UNL A   1      33.292  30.702  27.488  1.00  0.00     0.261 C 
BRANCH   4   5
ATOM      5  O   UNL A   1      33.798  30.216  26.229  1.00  0.00    -0.463 OA
BRANCH   5   6
ATOM      6  C   UNL A   1      33.100  29.229  25.610  1.00  0.00     0.316 C 
ATOM      7  O   UNL A   1      32.415  29.418  24.611  1.00  0.00    -0.251 OA
BRANCH   6   8
ATOM      8  C   UNL A   1      33.424  27.843  26.155  1.00  0.00     0.200 C 
BRANCH   8   9
ATOM      9  S   UNL A   1      33.991  26.647  24.940  1.00  0.00    -0.076 SA
BRANCH   9  10
ATOM     10  C   UNL A   1      32.936  25.242  24.974  1.00  0.00     0.169 A 
ATOM     11  N   UNL A   1      32.331  24.648  23.885  1.00  0.00    -0.316 N 
ATOM     12  C   UNL A   1      32.545  23.276  24.010  1.00  0.00     0.071 A 
ATOM     13  N   UNL A   1      33.125  24.336  25.922  1.00  0.00    -0.222 NA
ATOM     14  C   UNL A   1      32.874  23.117  25.343  1.00  0.00     0.091 A 
ATOM     15  C   UNL A   1      32.357  22.201  23.128  1.00  0.00     0.050 A 
ATOM     16  C   UNL A   1      32.940  21.820  25.873  1.00  0.00     0.052 A 
ATOM     17  C   UNL A   1      32.448  20.913  23.659  1.00  0.00     0.061 A 
ATOM     18  C   UNL A   1      32.713  20.723  25.020  1.00  0.00     0.061 A 
ATOM     19  Cl  UNL A   1      32.190  19.596  22.565  1.00  0.00    -0.083 Cl
ATOM     20  Cl  UNL A   1      32.785  19.142  25.720  1.00  0.00    -0.083 Cl
BRANCH  11  21
ATOM     21  C   UNL A   1      31.296  25.114  22.966  1.00  0.00     0.090 C 
ATOM     22  C   UNL A   1      31.808  25.788  21.721  1.00  0.00     0.032 C 
BRANCH  21  23
ATOM     23  C   UNL A   1      30.035  25.681  23.546  1.00  0.00     0.012 C 
ATOM     24  C   UNL A   1      29.832  26.451  24.832  1.00  0.00     0.006 C 
ATOM     25  C   UNL A   1      29.831  27.165  23.532  1.00  0.00     0.006 C 
ENDBRANCH  21  23
ENDBRANCH  11  21
ENDBRANCH   9  10
ENDBRANCH   8   9
ENDBRANCH   6   8
ENDBRANCH   5   6
ENDBRANCH   4   5
ENDBRANCH   3   4
ENDBRANCH   2   3
ENDBRANCH   1   2
BRANCH   1  26
ATOM     26  C   UNL A   1      33.213  35.070  28.424  1.00  0.00     0.188 C 
BRANCH  26  27
ATOM     27  O   UNL A   1      32.548  34.968  29.669  1.00  0.00    -0.376 OA
BRANCH  27  28
ATOM     28  C   UNL A   1      32.990  35.774  30.751  1.00  0.00     0.202 C 
BRANCH  28  29
ATOM     29  C   UNL A   1      32.406  35.529  32.148  1.00  0.00     0.261 C 
BRANCH  29  30
ATOM     30  O   UNL A   1      33.220  34.591  32.883  1.00  0.00    -0.460 OA
BRANCH  30  31
ATOM     31  C   UNL A   1      34.467  35.066  33.199  1.00  0.00     0.338 C 
ATOM     32  O   UNL A   1      34.718  35.972  33.945  1.00  0.00    -0.246 OA
BRANCH  31  33
ATOM     33  C   UNL A   1      35.460  34.043  32.765  1.00  0.00     0.060 A 
ATOM     34  C   UNL A   1      36.349  33.401  33.638  1.00  0.00     0.016 A 
ATOM     35  C   UNL A   1      35.635  33.930  31.391  1.00  0.00     0.016 A 
ATOM     36  C   UNL A   1      37.521  32.797  33.140  1.00  0.00     0.010 A 
ATOM     37  C   UNL A   1      36.809  33.360  30.910  1.00  0.00     0.010 A 
ATOM     38  C   UNL A   1      37.817  32.870  31.777  1.00  0.00    -0.014 A 
BRANCH  38  39
ATOM     39  C   UNL A   1      39.120  32.487  31.169  1.00  0.00     0.031 A 
ATOM     40  C   UNL A   1      39.065  31.200  30.463  1.00  0.00     0.074 A 
ATOM     41  C   UNL A   1      40.323  33.111  31.081  1.00  0.00     0.049 A 
ATOM     42  N   UNL A   1      39.187  30.073  31.077  1.00  0.00    -0.248 NA
ATOM     43  C   UNL A   1      38.687  31.099  29.050  1.00  0.00     0.031 C 
ATOM     44  C   UNL A   1      40.740  34.413  31.609  1.00  0.00     0.029 A 
ATOM     45  N   UNL A   1      41.439  32.716  30.362  1.00  0.00    -0.354 N 
ATOM     46  C   UNL A   1      39.188  29.135  30.074  1.00  0.00     0.074 A 
ATOM     47  C   UNL A   1      38.543  29.772  28.947  1.00  0.00     0.031 C 
ATOM     48  C   UNL A   1      41.906  34.796  31.018  1.00  0.00     0.029 A 
ATOM     49  C   UNL A   1      42.390  33.715  30.166  1.00  0.00     0.049 A 
ATOM     50  H   UNL A   1      41.552  31.800  30.017  1.00  0.00     0.167 HD
ATOM     51  C   UNL A   1      40.025  28.063  30.131  1.00  0.00     0.034 A 
ATOM     52  C   UNL A   1      43.609  33.618  29.575  1.00  0.00     0.034 A 
ATOM     53  C   UNL A   1      40.808  28.068  31.351  1.00  0.00     0.049 A 
ATOM     54  C   UNL A   1      44.170  32.305  29.960  1.00  0.00     0.074 A 
ATOM     55  C   UNL A   1      40.520  28.045  32.701  1.00  0.00     0.029 A 
ATOM     56  N   UNL A   1      42.095  28.544  31.235  1.00  0.00    -0.354 N 
ATOM     57  N   UNL A   1      44.515  32.006  31.182  1.00  0.00    -0.248 NA
ATOM     58  C   UNL A   1      44.108  31.174  29.045  1.00  0.00     0.031 C 
ATOM     59  C   UNL A   1      41.557  28.781  33.345  1.00  0.00     0.029 A 
ATOM     60  C   UNL A   1      42.484  29.194  32.388  1.00  0.00     0.049 A 
ATOM     61  H   UNL A   1      42.661  28.437  30.437  1.00  0.00     0.167 HD
ATOM     62  C   UNL A   1      44.144  30.686  31.302  1.00  0.00     0.074 A 
ATOM     63  C   UNL A   1      44.161  30.180  29.935  1.00  0.00     0.031 C 
ATOM     64  C   UNL A   1      43.507  30.240  32.426  1.00  0.00     0.034 A 
BRANCH  51  65
ATOM     65  C   UNL A   1      40.383  27.223  28.940  1.00  0.00     0.023 A 
ATOM     66  C   UNL A   1      41.386  27.581  28.024  1.00  0.00     0.031 A 
ATOM     67  C   UNL A   1      39.775  25.974  28.736  1.00  0.00     0.131 A 
ATOM     68  C   UNL A   1      41.658  26.808  26.894  1.00  0.00     0.055 A 
ATOM     69  C   UNL A   1      40.118  25.147  27.659  1.00  0.00     0.041 A 
ATOM     70  F   UNL A   1      38.842  25.516  29.585  1.00  0.00    -0.206 F 
ATOM     71  C   UNL A   1      41.044  25.576  26.711  1.00  0.00     0.022 A 
BRANCH  68  72
ATOM     72  S   UNL A   1      42.757  27.462  25.607  1.00  0.00     0.124 S 
ATOM     73  O   UNL A   1      44.027  27.547  26.317  1.00  0.00    -0.237 OA
ATOM     74  O   UNL A   1      42.667  26.425  24.581  1.00  0.00    -0.237 OA
ATOM     75  O   UNL A   1      42.135  28.735  25.251  1.00  0.00    -0.744 OA
ENDBRANCH  68  72
ENDBRANCH  51  65
BRANCH  52  76
ATOM     76  C   UNL A   1      44.278  34.478  28.563  1.00  0.00     0.023 A 
ATOM     77  C   UNL A   1      45.671  34.690  28.598  1.00  0.00     0.031 A 
ATOM     78  C   UNL A   1      43.526  35.336  27.734  1.00  0.00     0.131 A 
ATOM     79  C   UNL A   1      46.252  35.745  27.862  1.00  0.00     0.055 A 
ATOM     80  C   UNL A   1      44.109  36.370  26.989  1.00  0.00     0.041 A 
ATOM     81  F   UNL A   1      42.190  35.222  27.671  1.00  0.00    -0.206 F 
ATOM     82  C   UNL A   1      45.479  36.586  27.060  1.00  0.00     0.022 A 
BRANCH  79  83
ATOM     83  S   UNL A   1      48.037  36.088  27.951  1.00  0.00     0.124 S 
ATOM     84  O   UNL A   1      48.521  35.580  26.669  1.00  0.00    -0.237 OA
ATOM     85  O   UNL A   1      48.055  37.538  28.099  1.00  0.00    -0.237 OA
ATOM     86  O   UNL A   1      48.465  35.321  29.115  1.00  0.00    -0.744 OA
ENDBRANCH  79  83
ENDBRANCH  52  76
BRANCH  64  87
ATOM     87  C   UNL A   1      43.678  31.018  33.731  1.00  0.00     0.023 A 
ATOM     88  C   UNL A   1      42.669  31.933  34.089  1.00  0.00     0.031 A 
ATOM     89  C   UNL A   1      44.821  31.003  34.556  1.00  0.00     0.131 A 
ATOM     90  C   UNL A   1      42.842  32.808  35.175  1.00  0.00     0.055 A 
ATOM     91  C   UNL A   1      44.973  31.842  35.666  1.00  0.00     0.041 A 
ATOM     92  F   UNL A   1      45.864  30.213  34.306  1.00  0.00    -0.206 F 
ATOM     93  C   UNL A   1      43.988  32.766  35.970  1.00  0.00     0.022 A 
BRANCH  90  94
ATOM     94  S   UNL A   1      41.622  34.093  35.539  1.00  0.00     0.124 S 
ATOM     95  O   UNL A   1      40.418  33.562  34.907  1.00  0.00    -0.237 OA
ATOM     96  O   UNL A   1      41.610  34.101  37.001  1.00  0.00    -0.237 OA
ATOM     97  O   UNL A   1      42.178  35.292  34.918  1.00  0.00    -0.744 OA
ENDBRANCH  90  94
ENDBRANCH  64  87
ENDBRANCH  38  39
ENDBRANCH  31  33
ENDBRANCH  30  31
ENDBRANCH  29  30
ENDBRANCH  28  29
ENDBRANCH  27  28
ENDBRANCH  26  27
ENDBRANCH   1  26
TORSDOF 24
ENDMDL
MODEL 2
REMARK VINA RESULT:      -9.2      3.530      8.088
REMARK SMILES C[C@H](C1CC1)n1c(SCC(=O)OCCOCCOCCOC(=O)c2ccc(-c3c4nc(c(-c5cc(S(=O)(=O)[O-])ccc5F)c5ccc([nH]5)c(-c5cc(S(=O)(=O)[O-])ccc5F)c5nc(c(-c6cc(S(=O)(=O)[O-])ccc6F)c6ccc3[nH]6)C=C5)C=C4)cc2)nc2cc(Cl)c(Cl)cc21
REMARK SMILES IDX 16 1 15 2 14 3 13 4 12 5 10 6 11 7 9 8 8 9 7 10 6 11 95 12
REMARK SMILES IDX 87 13 88 14 94 15 89 16 92 17 90 18 93 19 91 20 2 21 1 22
REMARK SMILES IDX 3 23 4 24 5 25 17 26 18 27 19 28 20 29 21 30 22 31 23 32
REMARK SMILES IDX 24 33 25 34 86 35 26 36 85 37 27 38 28 39 29 40 79 41 30 42
REMARK SMILES IDX 84 43 78 44 80 45 31 46 83 47 77 48 76 49 32 51 64 52 44 53
REMARK SMILES IDX 63 54 45 55 48 56 62 57 81 58 46 59 47 60 61 62 82 63 49 64
REMARK SMILES IDX 33 65 34 66 42 67 35 68 41 69 43 70 40 71 36 72 37 73 38 74
REMARK SMILES IDX 39 75 65 76 66 77 74 78 67 79 73 80 75 81 72 82 68 83 69 84
REMARK SMILES IDX 70 85 71 86 50 87 51 88 59 89 52 90 58 91 60 92 57 93 53 94
REMARK SMILES IDX 54 95 55 96 56 97
REMARK H PARENT 80 50 48 61
REMARK Flexibility Score: inf
ROOT
ATOM      1  C   UNL A   1      34.998  33.448  28.528  1.00  0.00     0.188 C 
ENDROOT
BRANCH   1   2
ATOM      2  O   UNL A   1      34.596  32.617  27.440  1.00  0.00    -0.376 OA
BRANCH   2   3
ATOM      3  C   UNL A   1      34.488  31.214  27.707  1.00  0.00     0.202 C 
BRANCH   3   4
ATOM      4  C   UNL A   1      33.312  30.490  27.027  1.00  0.00     0.261 C 
BRANCH   4   5
ATOM      5  O   UNL A   1      33.298  29.113  27.452  1.00  0.00    -0.463 OA
BRANCH   5   6
ATOM      6  C   UNL A   1      32.209  28.368  27.130  1.00  0.00     0.316 C 
ATOM      7  O   UNL A   1      31.401  27.969  27.961  1.00  0.00    -0.251 OA
BRANCH   6   8
ATOM      8  C   UNL A   1      31.985  28.265  25.626  1.00  0.00     0.200 C 
BRANCH   8   9
ATOM      9  S   UNL A   1      33.184  27.272  24.730  1.00  0.00    -0.076 SA
BRANCH   9  10
ATOM     10  C   UNL A   1      33.122  25.617  25.319  1.00  0.00     0.169 A 
ATOM     11  N   UNL A   1      32.176  24.668  24.991  1.00  0.00    -0.316 N 
ATOM     12  C   UNL A   1      32.872  23.501  24.683  1.00  0.00     0.071 A 
ATOM     13  N   UNL A   1      34.261  25.016  25.628  1.00  0.00    -0.222 NA
ATOM     14  C   UNL A   1      34.116  23.704  25.252  1.00  0.00     0.091 A 
ATOM     15  C   UNL A   1      32.483  22.290  24.091  1.00  0.00     0.050 A 
ATOM     16  C   UNL A   1      35.010  22.625  25.324  1.00  0.00     0.052 A 
ATOM     17  C   UNL A   1      33.388  21.228  24.146  1.00  0.00     0.061 A 
ATOM     18  C   UNL A   1      34.629  21.386  24.776  1.00  0.00     0.061 A 
ATOM     19  Cl  UNL A   1      32.885  19.733  23.434  1.00  0.00    -0.083 Cl
ATOM     20  Cl  UNL A   1      35.754  20.078  24.905  1.00  0.00    -0.083 Cl
BRANCH  11  21
ATOM     21  C   UNL A   1      30.744  24.576  25.270  1.00  0.00     0.090 C 
ATOM     22  C   UNL A   1      29.898  25.628  24.602  1.00  0.00     0.032 C 
BRANCH  21  23
ATOM     23  C   UNL A   1      30.315  24.166  26.647  1.00  0.00     0.012 C 
ATOM     24  C   UNL A   1      29.446  23.005  27.075  1.00  0.00     0.006 C 
ATOM     25  C   UNL A   1      30.916  22.940  27.262  1.00  0.00     0.006 C 
ENDBRANCH  21  23
ENDBRANCH  11  21
ENDBRANCH   9  10
ENDBRANCH   8   9
ENDBRANCH   6   8
ENDBRANCH   5   6
ENDBRANCH   4   5
ENDBRANCH   3   4
ENDBRANCH   2   3
ENDBRANCH   1   2
BRANCH   1  26
ATOM     26  C   UNL A   1      33.906  33.800  29.551  1.00  0.00     0.188 C 
BRANCH  26  27
ATOM     27  O   UNL A   1      33.056  34.890  29.248  1.00  0.00    -0.376 OA
BRANCH  27  28
ATOM     28  C   UNL A   1      33.294  36.141  29.877  1.00  0.00     0.202 C 
BRANCH  28  29
ATOM     29  C   UNL A   1      32.442  36.537  31.090  1.00  0.00     0.261 C 
BRANCH  29  30
ATOM     30  O   UNL A   1      32.878  35.834  32.272  1.00  0.00    -0.460 OA
BRANCH  30  31
ATOM     31  C   UNL A   1      34.013  36.354  32.841  1.00  0.00     0.338 C 
ATOM     32  O   UNL A   1      34.131  37.444  33.328  1.00  0.00    -0.246 OA
BRANCH  31  33
ATOM     33  C   UNL A   1      34.950  35.222  33.090  1.00  0.00     0.060 A 
ATOM     34  C   UNL A   1      34.901  34.408  34.230  1.00  0.00     0.016 A 
ATOM     35  C   UNL A   1      36.049  35.161  32.243  1.00  0.00     0.016 A 
ATOM     36  C   UNL A   1      36.033  33.667  34.623  1.00  0.00     0.010 A 
ATOM     37  C   UNL A   1      37.173  34.453  32.653  1.00  0.00     0.010 A 
ATOM     38  C   UNL A   1      37.220  33.771  33.894  1.00  0.00    -0.014 A 
BRANCH  38  39
ATOM     39  C   UNL A   1      38.537  33.236  34.334  1.00  0.00     0.031 A 
ATOM     40  C   UNL A   1      38.925  33.704  35.672  1.00  0.00     0.074 A 
ATOM     41  C   UNL A   1      39.415  32.359  33.783  1.00  0.00     0.049 A 
ATOM     42  N   UNL A   1      39.490  34.846  35.864  1.00  0.00    -0.248 NA
ATOM     43  C   UNL A   1      38.533  32.993  36.894  1.00  0.00     0.031 C 
ATOM     44  C   UNL A   1      39.348  31.651  32.502  1.00  0.00     0.029 A 
ATOM     45  N   UNL A   1      40.557  31.820  34.355  1.00  0.00    -0.354 N 
ATOM     46  C   UNL A   1      39.783  34.862  37.205  1.00  0.00     0.074 A 
ATOM     47  C   UNL A   1      38.887  33.902  37.809  1.00  0.00     0.031 C 
ATOM     48  C   UNL A   1      40.253  30.633  32.490  1.00  0.00     0.029 A 
ATOM     49  C   UNL A   1      41.056  30.692  33.708  1.00  0.00     0.049 A 
ATOM     50  H   UNL A   1      40.982  32.205  35.155  1.00  0.00     0.167 HD
ATOM     51  C   UNL A   1      40.961  35.383  37.649  1.00  0.00     0.034 A 
ATOM     52  C   UNL A   1      42.189  29.994  33.979  1.00  0.00     0.034 A 
ATOM     53  C   UNL A   1      41.752  35.908  36.554  1.00  0.00     0.049 A 
ATOM     54  C   UNL A   1      43.218  30.981  34.372  1.00  0.00     0.074 A 
ATOM     55  C   UNL A   1      41.569  36.878  35.589  1.00  0.00     0.029 A 
ATOM     56  N   UNL A   1      42.762  35.090  36.097  1.00  0.00    -0.354 N 
ATOM     57  N   UNL A   1      43.716  31.860  33.549  1.00  0.00    -0.248 NA
ATOM     58  C   UNL A   1      43.529  31.208  35.776  1.00  0.00     0.031 C 
ATOM     59  C   UNL A   1      42.293  36.444  34.440  1.00  0.00     0.029 A 
ATOM     60  C   UNL A   1      42.945  35.247  34.739  1.00  0.00     0.049 A 
ATOM     61  H   UNL A   1      43.283  34.475  36.664  1.00  0.00     0.167 HD
ATOM     62  C   UNL A   1      43.870  32.979  34.335  1.00  0.00     0.074 A 
ATOM     63  C   UNL A   1      43.997  32.456  35.689  1.00  0.00     0.031 C 
ATOM     64  C   UNL A   1      43.507  34.213  33.870  1.00  0.00     0.034 A 
BRANCH  51  65
ATOM     65  C   UNL A   1      41.538  35.096  39.004  1.00  0.00     0.023 A 
ATOM     66  C   UNL A   1      42.181  33.889  39.323  1.00  0.00     0.031 A 
ATOM     67  C   UNL A   1      41.536  36.079  40.006  1.00  0.00     0.131 A 
ATOM     68  C   UNL A   1      42.658  33.627  40.608  1.00  0.00     0.055 A 
ATOM     69  C   UNL A   1      42.106  35.858  41.266  1.00  0.00     0.041 A 
ATOM     70  F   UNL A   1      40.994  37.286  39.784  1.00  0.00    -0.206 F 
ATOM     71  C   UNL A   1      42.645  34.615  41.585  1.00  0.00     0.022 A 
BRANCH  68  72
ATOM     72  S   UNL A   1      43.219  31.955  41.032  1.00  0.00     0.124 S 
ATOM     73  O   UNL A   1      43.573  31.420  39.723  1.00  0.00    -0.237 OA
ATOM     74  O   UNL A   1      44.335  32.232  41.933  1.00  0.00    -0.237 OA
ATOM     75  O   UNL A   1      42.047  31.361  41.671  1.00  0.00    -0.744 OA
ENDBRANCH  68  72
ENDBRANCH  51  65
BRANCH  52  76
ATOM     76  C   UNL A   1      42.433  28.532  34.099  1.00  0.00     0.023 A 
ATOM     77  C   UNL A   1      42.029  27.821  35.248  1.00  0.00     0.031 A 
ATOM     78  C   UNL A   1      43.323  27.874  33.225  1.00  0.00     0.131 A 
ATOM     79  C   UNL A   1      42.541  26.532  35.507  1.00  0.00     0.055 A 
ATOM     80  C   UNL A   1      43.815  26.586  33.476  1.00  0.00     0.041 A 
ATOM     81  F   UNL A   1      43.782  28.494  32.127  1.00  0.00    -0.206 F 
ATOM     82  C   UNL A   1      43.433  25.912  34.629  1.00  0.00     0.022 A 
BRANCH  79  83
ATOM     83  S   UNL A   1      42.097  25.626  37.020  1.00  0.00     0.124 S 
ATOM     84  O   UNL A   1      40.666  25.896  37.143  1.00  0.00    -0.237 OA
ATOM     85  O   UNL A   1      42.449  24.257  36.664  1.00  0.00    -0.237 OA
ATOM     86  O   UNL A   1      42.929  26.254  38.041  1.00  0.00    -0.744 OA
ENDBRANCH  79  83
ENDBRANCH  52  76
BRANCH  64  87
ATOM     87  C   UNL A   1      43.449  34.447  32.360  1.00  0.00     0.023 A 
ATOM     88  C   UNL A   1      44.657  34.710  31.687  1.00  0.00     0.031 A 
ATOM     89  C   UNL A   1      42.275  34.555  31.587  1.00  0.00     0.131 A 
ATOM     90  C   UNL A   1      44.661  35.108  30.340  1.00  0.00     0.055 A 
ATOM     91  C   UNL A   1      42.281  34.907  30.233  1.00  0.00     0.041 A 
ATOM     92  F   UNL A   1      41.064  34.372  32.111  1.00  0.00    -0.206 F 
ATOM     93  C   UNL A   1      43.478  35.206  29.605  1.00  0.00     0.022 A 
BRANCH  90  94
ATOM     94  S   UNL A   1      46.194  35.603  29.518  1.00  0.00     0.124 S 
ATOM     95  O   UNL A   1      45.705  36.131  28.247  1.00  0.00    -0.237 OA
ATOM     96  O   UNL A   1      46.732  36.599  30.443  1.00  0.00    -0.237 OA
ATOM     97  O   UNL A   1      46.961  34.364  29.427  1.00  0.00    -0.744 OA
ENDBRANCH  90  94
ENDBRANCH  64  87
ENDBRANCH  38  39
ENDBRANCH  31  33
ENDBRANCH  30  31
ENDBRANCH  29  30
ENDBRANCH  28  29
ENDBRANCH  27  28
ENDBRANCH  26  27
ENDBRANCH   1  26
TORSDOF 24
ENDMDL
MODEL 3
REMARK VINA RESULT:      -9.1      2.510      6.676
REMARK SMILES C[C@H](C1CC1)n1c(SCC(=O)OCCOCCOCCOC(=O)c2ccc(-c3c4nc(c(-c5cc(S(=O)(=O)[O-])ccc5F)c5ccc([nH]5)c(-c5cc(S(=O)(=O)[O-])ccc5F)c5nc(c(-c6cc(S(=O)(=O)[O-])ccc6F)c6ccc3[nH]6)C=C5)C=C4)cc2)nc2cc(Cl)c(Cl)cc21
REMARK SMILES IDX 16 1 15 2 14 3 13 4 12 5 10 6 11 7 9 8 8 9 7 10 6 11 95 12
REMARK SMILES IDX 87 13 88 14 94 15 89 16 92 17 90 18 93 19 91 20 2 21 1 22
REMARK SMILES IDX 3 23 4 24 5 25 17 26 18 27 19 28 20 29 21 30 22 31 23 32
REMARK SMILES IDX 24 33 25 34 86 35 26 36 85 37 27 38 28 39 29 40 79 41 30 42
REMARK SMILES IDX 84 43 78 44 80 45 31 46 83 47 77 48 76 49 32 51 64 52 44 53
REMARK SMILES IDX 63 54 45 55 48 56 62 57 81 58 46 59 47 60 61 62 82 63 49 64
REMARK SMILES IDX 33 65 34 66 42 67 35 68 41 69 43 70 40 71 36 72 37 73 38 74
REMARK SMILES IDX 39 75 65 76 66 77 74 78 67 79 73 80 75 81 72 82 68 83 69 84
REMARK SMILES IDX 70 85 71 86 50 87 51 88 59 89 52 90 58 91 60 92 57 93 53 94
REMARK SMILES IDX 54 95 55 96 56 97
REMARK H PARENT 80 50 48 61
REMARK Flexibility Score: inf
ROOT
ATOM      1  C   UNL A   1      33.167  33.470  27.628  1.00  0.00     0.188 C 
ENDROOT
BRANCH   1   2
ATOM      2  O   UNL A   1      31.783  33.198  27.411  1.00  0.00    -0.376 OA
BRANCH   2   3
ATOM      3  C   UNL A   1      31.461  31.945  26.798  1.00  0.00     0.202 C 
BRANCH   3   4
ATOM      4  C   UNL A   1      32.545  30.856  26.887  1.00  0.00     0.261 C 
BRANCH   4   5
ATOM      5  O   UNL A   1      31.993  29.603  26.435  1.00  0.00    -0.463 OA
BRANCH   5   6
ATOM      6  C   UNL A   1      32.767  28.830  25.630  1.00  0.00     0.316 C 
ATOM      7  O   UNL A   1      33.686  29.278  24.954  1.00  0.00    -0.251 OA
BRANCH   6   8
ATOM      8  C   UNL A   1      32.513  27.339  25.819  1.00  0.00     0.200 C 
BRANCH   8   9
ATOM      9  S   UNL A   1      33.971  26.291  25.747  1.00  0.00    -0.076 SA
BRANCH   9  10
ATOM     10  C   UNL A   1      33.493  24.617  25.992  1.00  0.00     0.169 A 
ATOM     11  N   UNL A   1      32.399  23.990  25.433  1.00  0.00    -0.316 N 
ATOM     12  C   UNL A   1      32.850  22.769  24.937  1.00  0.00     0.071 A 
ATOM     13  N   UNL A   1      34.439  23.722  26.234  1.00  0.00    -0.222 NA
ATOM     14  C   UNL A   1      34.048  22.570  25.598  1.00  0.00     0.091 A 
ATOM     15  C   UNL A   1      32.266  21.809  24.096  1.00  0.00     0.050 A 
ATOM     16  C   UNL A   1      34.674  21.319  25.502  1.00  0.00     0.052 A 
ATOM     17  C   UNL A   1      32.908  20.574  23.987  1.00  0.00     0.061 A 
ATOM     18  C   UNL A   1      34.087  20.323  24.699  1.00  0.00     0.061 A 
ATOM     19  Cl  UNL A   1      32.162  19.392  22.967  1.00  0.00    -0.083 Cl
ATOM     20  Cl  UNL A   1      34.882  18.788  24.625  1.00  0.00    -0.083 Cl
BRANCH  11  21
ATOM     21  C   UNL A   1      30.962  24.184  25.612  1.00  0.00     0.090 C 
ATOM     22  C   UNL A   1      30.309  23.232  26.580  1.00  0.00     0.032 C 
BRANCH  21  23
ATOM     23  C   UNL A   1      30.143  24.566  24.416  1.00  0.00     0.012 C 
ATOM     24  C   UNL A   1      29.667  25.933  23.976  1.00  0.00     0.006 C 
ATOM     25  C   UNL A   1      30.805  25.284  23.280  1.00  0.00     0.006 C 
ENDBRANCH  21  23
ENDBRANCH  11  21
ENDBRANCH   9  10
ENDBRANCH   8   9
ENDBRANCH   6   8
ENDBRANCH   5   6
ENDBRANCH   4   5
ENDBRANCH   3   4
ENDBRANCH   2   3
ENDBRANCH   1   2
BRANCH   1  26
ATOM     26  C   UNL A   1      33.529  34.112  28.977  1.00  0.00     0.188 C 
BRANCH  26  27
ATOM     27  O   UNL A   1      32.529  34.873  29.626  1.00  0.00    -0.376 OA
BRANCH  27  28
ATOM     28  C   UNL A   1      32.906  36.054  30.320  1.00  0.00     0.202 C 
BRANCH  28  29
ATOM     29  C   UNL A   1      33.149  35.983  31.832  1.00  0.00     0.261 C 
BRANCH  29  30
ATOM     30  O   UNL A   1      34.431  35.385  32.116  1.00  0.00    -0.460 OA
BRANCH  30  31
ATOM     31  C   UNL A   1      34.350  34.173  32.754  1.00  0.00     0.338 C 
ATOM     32  O   UNL A   1      33.368  33.496  32.875  1.00  0.00    -0.246 OA
BRANCH  31  33
ATOM     33  C   UNL A   1      35.741  33.668  32.937  1.00  0.00     0.060 A 
ATOM     34  C   UNL A   1      36.884  34.372  32.535  1.00  0.00     0.016 A 
ATOM     35  C   UNL A   1      35.845  32.334  33.310  1.00  0.00     0.016 A 
ATOM     36  C   UNL A   1      38.101  33.693  32.329  1.00  0.00     0.010 A 
ATOM     37  C   UNL A   1      37.040  31.664  33.074  1.00  0.00     0.010 A 
ATOM     38  C   UNL A   1      38.160  32.306  32.492  1.00  0.00    -0.014 A 
BRANCH  38  39
ATOM     39  C   UNL A   1      39.306  31.452  32.079  1.00  0.00     0.031 A 
ATOM     40  C   UNL A   1      40.106  30.981  33.218  1.00  0.00     0.074 A 
ATOM     41  C   UNL A   1      39.721  30.970  30.878  1.00  0.00     0.049 A 
ATOM     42  N   UNL A   1      41.028  31.703  33.756  1.00  0.00    -0.248 NA
ATOM     43  C   UNL A   1      39.791  29.740  33.934  1.00  0.00     0.031 C 
ATOM     44  C   UNL A   1      39.155  31.177  29.543  1.00  0.00     0.029 A 
ATOM     45  N   UNL A   1      40.734  30.058  30.629  1.00  0.00    -0.354 N 
ATOM     46  C   UNL A   1      41.599  30.882  34.697  1.00  0.00     0.074 A 
ATOM     47  C   UNL A   1      40.605  29.874  34.988  1.00  0.00     0.031 C 
ATOM     48  C   UNL A   1      39.671  30.260  28.678  1.00  0.00     0.029 A 
ATOM     49  C   UNL A   1      40.700  29.482  29.361  1.00  0.00     0.049 A 
ATOM     50  H   UNL A   1      41.424  29.835  31.295  1.00  0.00     0.167 HD
ATOM     51  C   UNL A   1      42.948  30.882  34.886  1.00  0.00     0.034 A 
ATOM     52  C   UNL A   1      41.588  28.622  28.799  1.00  0.00     0.034 A 
ATOM     53  C   UNL A   1      43.602  31.850  34.027  1.00  0.00     0.049 A 
ATOM     54  C   UNL A   1      42.934  29.042  29.245  1.00  0.00     0.074 A 
ATOM     55  C   UNL A   1      43.523  33.216  33.850  1.00  0.00     0.029 A 
ATOM     56  N   UNL A   1      44.178  31.342  32.883  1.00  0.00    -0.354 N 
ATOM     57  N   UNL A   1      43.487  30.166  28.886  1.00  0.00    -0.248 NA
ATOM     58  C   UNL A   1      43.603  28.349  30.338  1.00  0.00     0.031 C 
ATOM     59  C   UNL A   1      43.802  33.461  32.474  1.00  0.00     0.029 A 
ATOM     60  C   UNL A   1      44.097  32.250  31.847  1.00  0.00     0.049 A 
ATOM     61  H   UNL A   1      44.592  30.451  32.813  1.00  0.00     0.167 HD
ATOM     62  C   UNL A   1      44.153  30.570  30.021  1.00  0.00     0.074 A 
ATOM     63  C   UNL A   1      44.405  29.334  30.750  1.00  0.00     0.031 C 
ATOM     64  C   UNL A   1      44.101  31.872  30.434  1.00  0.00     0.034 A 
BRANCH  51  65
ATOM     65  C   UNL A   1      43.691  29.777  35.577  1.00  0.00     0.023 A 
ATOM     66  C   UNL A   1      44.193  29.892  36.884  1.00  0.00     0.031 A 
ATOM     67  C   UNL A   1      43.843  28.523  34.964  1.00  0.00     0.131 A 
ATOM     68  C   UNL A   1      44.931  28.868  37.481  1.00  0.00     0.055 A 
ATOM     69  C   UNL A   1      44.493  27.458  35.600  1.00  0.00     0.041 A 
ATOM     70  F   UNL A   1      43.351  28.294  33.737  1.00  0.00    -0.206 F 
ATOM     71  C   UNL A   1      45.069  27.636  36.855  1.00  0.00     0.022 A 
BRANCH  68  72
ATOM     72  S   UNL A   1      45.790  29.180  39.047  1.00  0.00     0.124 S 
ATOM     73  O   UNL A   1      45.816  30.637  39.087  1.00  0.00    -0.237 OA
ATOM     74  O   UNL A   1      44.905  28.530  40.010  1.00  0.00    -0.237 OA
ATOM     75  O   UNL A   1      47.081  28.522  38.858  1.00  0.00    -0.744 OA
ENDBRANCH  68  72
ENDBRANCH  51  65
BRANCH  52  76
ATOM     76  C   UNL A   1      41.382  27.358  28.043  1.00  0.00     0.023 A 
ATOM     77  C   UNL A   1      41.865  26.130  28.539  1.00  0.00     0.031 A 
ATOM     78  C   UNL A   1      40.976  27.382  26.693  1.00  0.00     0.131 A 
ATOM     79  C   UNL A   1      41.965  25.006  27.691  1.00  0.00     0.055 A 
ATOM     80  C   UNL A   1      41.059  26.258  25.859  1.00  0.00     0.041 A 
ATOM     81  F   UNL A   1      40.536  28.520  26.135  1.00  0.00    -0.206 F 
ATOM     82  C   UNL A   1      41.566  25.065  26.354  1.00  0.00     0.022 A 
BRANCH  79  83
ATOM     83  S   UNL A   1      42.657  23.432  28.286  1.00  0.00     0.124 S 
ATOM     84  O   UNL A   1      43.299  22.895  27.088  1.00  0.00    -0.237 OA
ATOM     85  O   UNL A   1      43.564  23.882  29.335  1.00  0.00    -0.237 OA
ATOM     86  O   UNL A   1      41.479  22.697  28.732  1.00  0.00    -0.744 OA
ENDBRANCH  79  83
ENDBRANCH  52  76
BRANCH  64  87
ATOM     87  C   UNL A   1      43.787  32.962  29.408  1.00  0.00     0.023 A 
ATOM     88  C   UNL A   1      44.811  33.346  28.521  1.00  0.00     0.031 A 
ATOM     89  C   UNL A   1      42.599  33.719  29.347  1.00  0.00     0.131 A 
ATOM     90  C   UNL A   1      44.653  34.457  27.675  1.00  0.00     0.055 A 
ATOM     91  C   UNL A   1      42.425  34.797  28.472  1.00  0.00     0.041 A 
ATOM     92  F   UNL A   1      41.569  33.485  30.158  1.00  0.00    -0.206 F 
ATOM     93  C   UNL A   1      43.462  35.185  27.642  1.00  0.00     0.022 A 
BRANCH  90  94
ATOM     94  S   UNL A   1      46.021  35.053  26.654  1.00  0.00     0.124 S 
ATOM     95  O   UNL A   1      45.700  36.470  26.506  1.00  0.00    -0.237 OA
ATOM     96  O   UNL A   1      47.183  34.759  27.492  1.00  0.00    -0.237 OA
ATOM     97  O   UNL A   1      45.922  34.259  25.433  1.00  0.00    -0.744 OA
ENDBRANCH  90  94
ENDBRANCH  64  87
ENDBRANCH  38  39
ENDBRANCH  31  33
ENDBRANCH  30  31
ENDBRANCH  29  30
ENDBRANCH  28  29
ENDBRANCH  27  28
ENDBRANCH  26  27
ENDBRANCH   1  26
TORSDOF 24
ENDMDL
