MODEL 1
REMARK VINA RESULT:     -10.0      0.000      0.000
REMARK SMILES CC1(C)C[C@@](Cc2ccccc2)(C(=O)OCCOCCOCCOC(=O)c2ccc(-c3c4nc(c(-c5cc(S(=O)(=O)[O-])ccc5F)c5ccc([nH]5)c(-c5cc(S(=O)(=O)[O-])ccc5F)c5nc(c(-c6cc(S(=O)(=O)[O-])ccc6F)c6ccc3[nH]6)C=C5)C=C4)cc2)CCO1
REMARK SMILES IDX 20 1 19 2 18 3 17 4 16 5 15 6 13 7 14 8 5 9 1 10 2 11 3 12
REMARK SMILES IDX 4 13 92 14 91 15 90 16 6 17 7 18 8 19 12 20 9 21 11 22 10 23
REMARK SMILES IDX 21 24 22 25 23 26 24 27 25 28 26 29 27 30 28 31 89 32 29 33
REMARK SMILES IDX 88 34 30 35 31 36 32 37 82 38 33 39 87 40 81 41 83 42 34 43
REMARK SMILES IDX 86 44 80 45 79 46 35 48 67 49 47 50 66 51 48 52 51 53 65 54
REMARK SMILES IDX 84 55 49 56 50 57 64 59 85 60 52 61 36 62 37 63 45 64 38 65
REMARK SMILES IDX 44 66 46 67 43 68 39 69 40 70 41 71 42 72 68 73 69 74 77 75
REMARK SMILES IDX 70 76 76 77 78 78 75 79 71 80 72 81 73 82 74 83 53 84 54 85
REMARK SMILES IDX 62 86 55 87 61 88 63 89 60 90 56 91 57 92 58 93 59 94
REMARK H PARENT 83 47 51 58
REMARK Flexibility Score: inf
ROOT
ATOM      1  C   UNL A   1      31.682  28.700  27.272  1.00  0.00     0.188 C 
ENDROOT
BRANCH   1   2
ATOM      2  C   UNL A   1      31.466  27.555  26.270  1.00  0.00     0.188 C 
BRANCH   2   3
ATOM      3  O   UNL A   1      31.353  26.301  26.941  1.00  0.00    -0.376 OA
BRANCH   3   4
ATOM      4  C   UNL A   1      30.891  25.248  26.097  1.00  0.00     0.202 C 
BRANCH   4   5
ATOM      5  C   UNL A   1      31.519  23.893  26.432  1.00  0.00     0.261 C 
BRANCH   5   6
ATOM      6  O   UNL A   1      31.945  23.041  25.350  1.00  0.00    -0.463 OA
BRANCH   6   7
ATOM      7  C   UNL A   1      32.720  21.958  25.636  1.00  0.00     0.312 C 
ATOM      8  O   UNL A   1      33.028  21.655  26.778  1.00  0.00    -0.252 OA
BRANCH   7   9
ATOM      9  C   UNL A   1      33.152  21.209  24.342  1.00  0.00     0.077 C 
ATOM     10  C   UNL A   1      36.023  21.784  26.219  1.00  0.00     0.042 C 
ATOM     11  C   UNL A   1      35.584  21.957  24.745  1.00  0.00     0.064 C 
ATOM     12  C   UNL A   1      36.861  21.984  23.898  1.00  0.00     0.042 C 
ATOM     13  C   UNL A   1      34.655  20.797  24.354  1.00  0.00     0.054 C 
ATOM     14  O   UNL A   1      34.892  23.211  24.589  1.00  0.00    -0.376 OA
ATOM     15  C   UNL A   1      34.126  23.346  23.384  1.00  0.00     0.162 C 
ATOM     16  C   UNL A   1      33.086  22.226  23.183  1.00  0.00     0.047 C 
BRANCH   9  17
ATOM     17  C   UNL A   1      32.228  19.971  24.081  1.00  0.00     0.054 C 
BRANCH  17  18
ATOM     18  C   UNL A   1      32.951  18.673  24.395  1.00  0.00    -0.047 A 
ATOM     19  C   UNL A   1      32.768  18.029  25.626  1.00  0.00     0.004 A 
ATOM     20  C   UNL A   1      33.553  17.967  23.352  1.00  0.00     0.004 A 
ATOM     21  C   UNL A   1      32.962  16.654  25.716  1.00  0.00     0.000 A 
ATOM     22  C   UNL A   1      33.710  16.593  23.423  1.00  0.00     0.000 A 
ATOM     23  C   UNL A   1      33.338  15.937  24.585  1.00  0.00     0.000 A 
ENDBRANCH  17  18
ENDBRANCH   9  17
ENDBRANCH   7   9
ENDBRANCH   6   7
ENDBRANCH   5   6
ENDBRANCH   4   5
ENDBRANCH   3   4
ENDBRANCH   2   3
ENDBRANCH   1   2
BRANCH   1  24
ATOM     24  O   UNL A   1      32.752  29.602  26.995  1.00  0.00    -0.376 OA
BRANCH  24  25
ATOM     25  C   UNL A   1      32.436  30.985  27.027  1.00  0.00     0.202 C 
BRANCH  25  26
ATOM     26  C   UNL A   1      33.573  31.934  27.432  1.00  0.00     0.261 C 
BRANCH  26  27
ATOM     27  O   UNL A   1      33.273  33.344  27.341  1.00  0.00    -0.460 OA
BRANCH  27  28
ATOM     28  C   UNL A   1      33.320  34.012  28.526  1.00  0.00     0.338 C 
ATOM     29  O   UNL A   1      32.486  34.820  28.914  1.00  0.00    -0.246 OA
BRANCH  28  30
ATOM     30  C   UNL A   1      34.478  33.609  29.372  1.00  0.00     0.060 A 
ATOM     31  C   UNL A   1      35.739  34.108  29.017  1.00  0.00     0.016 A 
ATOM     32  C   UNL A   1      34.384  32.686  30.421  1.00  0.00     0.016 A 
ATOM     33  C   UNL A   1      36.894  33.652  29.663  1.00  0.00     0.010 A 
ATOM     34  C   UNL A   1      35.553  32.206  31.053  1.00  0.00     0.010 A 
ATOM     35  C   UNL A   1      36.822  32.657  30.654  1.00  0.00    -0.014 A 
BRANCH  35  36
ATOM     36  C   UNL A   1      38.094  31.977  31.057  1.00  0.00     0.031 A 
ATOM     37  C   UNL A   1      38.612  32.218  32.448  1.00  0.00     0.074 A 
ATOM     38  C   UNL A   1      38.760  31.114  30.264  1.00  0.00     0.049 A 
ATOM     39  N   UNL A   1      39.590  31.631  33.085  1.00  0.00    -0.248 NA
ATOM     40  C   UNL A   1      37.960  33.301  33.198  1.00  0.00     0.031 C 
ATOM     41  C   UNL A   1      38.458  30.881  28.866  1.00  0.00     0.029 A 
ATOM     42  N   UNL A   1      39.795  30.243  30.523  1.00  0.00    -0.354 N 
ATOM     43  C   UNL A   1      39.688  32.284  34.306  1.00  0.00     0.074 A 
ATOM     44  C   UNL A   1      38.664  33.309  34.319  1.00  0.00     0.031 C 
ATOM     45  C   UNL A   1      39.174  29.833  28.423  1.00  0.00     0.029 A 
ATOM     46  C   UNL A   1      40.070  29.377  29.481  1.00  0.00     0.049 A 
ATOM     47  H   UNL A   1      40.295  30.237  31.372  1.00  0.00     0.167 HD
ATOM     48  C   UNL A   1      40.569  32.071  35.314  1.00  0.00     0.034 A 
ATOM     49  C   UNL A   1      40.942  28.347  29.385  1.00  0.00     0.034 A 
ATOM     50  C   UNL A   1      41.629  31.095  35.271  1.00  0.00     0.049 A 
ATOM     51  C   UNL A   1      41.877  28.092  30.549  1.00  0.00     0.074 A 
ATOM     52  C   UNL A   1      42.593  30.828  36.229  1.00  0.00     0.029 A 
ATOM     53  N   UNL A   1      41.885  30.241  34.206  1.00  0.00    -0.354 N 
ATOM     54  N   UNL A   1      41.933  28.699  31.712  1.00  0.00    -0.248 NA
ATOM     55  C   UNL A   1      42.891  27.043  30.371  1.00  0.00     0.031 C 
ATOM     56  C   UNL A   1      43.467  29.863  35.717  1.00  0.00     0.029 A 
ATOM     57  C   UNL A   1      43.004  29.464  34.474  1.00  0.00     0.049 A 
ATOM     58  H   UNL A   1      41.350  30.193  33.381  1.00  0.00     0.167 HD
ATOM     59  C   UNL A   1      43.000  28.117  32.394  1.00  0.00     0.074 A 
ATOM     60  C   UNL A   1      43.514  27.067  31.539  1.00  0.00     0.031 C 
ATOM     61  C   UNL A   1      43.528  28.438  33.602  1.00  0.00     0.034 A 
BRANCH  48  62
ATOM     62  C   UNL A   1      40.466  32.994  36.501  1.00  0.00     0.023 A 
ATOM     63  C   UNL A   1      41.386  34.037  36.707  1.00  0.00     0.031 A 
ATOM     64  C   UNL A   1      39.476  32.781  37.476  1.00  0.00     0.131 A 
ATOM     65  C   UNL A   1      41.341  34.778  37.898  1.00  0.00     0.055 A 
ATOM     66  C   UNL A   1      39.389  33.574  38.620  1.00  0.00     0.041 A 
ATOM     67  F   UNL A   1      38.592  31.779  37.344  1.00  0.00    -0.206 F 
ATOM     68  C   UNL A   1      40.334  34.570  38.843  1.00  0.00     0.022 A 
BRANCH  65  69
ATOM     69  S   UNL A   1      42.705  35.919  38.260  1.00  0.00     0.124 S 
ATOM     70  O   UNL A   1      42.000  37.193  38.369  1.00  0.00    -0.237 OA
ATOM     71  O   UNL A   1      43.246  35.380  39.502  1.00  0.00    -0.237 OA
ATOM     72  O   UNL A   1      43.575  35.792  37.093  1.00  0.00    -0.744 OA
ENDBRANCH  65  69
ENDBRANCH  48  62
BRANCH  49  73
ATOM     73  C   UNL A   1      41.054  27.512  28.142  1.00  0.00     0.023 A 
ATOM     74  C   UNL A   1      40.676  26.154  28.128  1.00  0.00     0.031 A 
ATOM     75  C   UNL A   1      41.639  28.028  26.972  1.00  0.00     0.131 A 
ATOM     76  C   UNL A   1      40.935  25.357  26.997  1.00  0.00     0.055 A 
ATOM     77  C   UNL A   1      41.824  27.253  25.824  1.00  0.00     0.041 A 
ATOM     78  F   UNL A   1      42.050  29.305  26.923  1.00  0.00    -0.206 F 
ATOM     79  C   UNL A   1      41.487  25.904  25.838  1.00  0.00     0.022 A 
BRANCH  76  80
ATOM     80  S   UNL A   1      40.663  23.562  27.098  1.00  0.00     0.124 S 
ATOM     81  O   UNL A   1      41.300  23.096  25.872  1.00  0.00    -0.237 OA
ATOM     82  O   UNL A   1      41.341  23.221  28.344  1.00  0.00    -0.237 OA
ATOM     83  O   UNL A   1      39.207  23.439  27.131  1.00  0.00    -0.744 OA
ENDBRANCH  76  80
ENDBRANCH  49  73
BRANCH  61  84
ATOM     84  C   UNL A   1      44.716  27.628  34.067  1.00  0.00     0.023 A 
ATOM     85  C   UNL A   1      44.558  26.440  34.807  1.00  0.00     0.031 A 
ATOM     86  C   UNL A   1      46.024  28.069  33.801  1.00  0.00     0.131 A 
ATOM     87  C   UNL A   1      45.685  25.776  35.316  1.00  0.00     0.055 A 
ATOM     88  C   UNL A   1      47.143  27.367  34.254  1.00  0.00     0.041 A 
ATOM     89  F   UNL A   1      46.237  29.196  33.103  1.00  0.00    -0.206 F 
ATOM     90  C   UNL A   1      46.977  26.226  35.031  1.00  0.00     0.022 A 
BRANCH  87  91
ATOM     91  S   UNL A   1      45.439  24.390  36.461  1.00  0.00     0.124 S 
ATOM     92  O   UNL A   1      44.118  23.907  36.075  1.00  0.00    -0.237 OA
ATOM     93  O   UNL A   1      46.560  23.514  36.134  1.00  0.00    -0.237 OA
ATOM     94  O   UNL A   1      45.508  25.019  37.779  1.00  0.00    -0.744 OA
ENDBRANCH  87  91
ENDBRANCH  61  84
ENDBRANCH  35  36
ENDBRANCH  28  30
ENDBRANCH  27  28
ENDBRANCH  26  27
ENDBRANCH  25  26
ENDBRANCH  24  25
ENDBRANCH   1  24
TORSDOF 22
ENDMDL
MODEL 2
REMARK VINA RESULT:      -9.8      1.735      3.104
REMARK SMILES CC1(C)C[C@@](Cc2ccccc2)(C(=O)OCCOCCOCCOC(=O)c2ccc(-c3c4nc(c(-c5cc(S(=O)(=O)[O-])ccc5F)c5ccc([nH]5)c(-c5cc(S(=O)(=O)[O-])ccc5F)c5nc(c(-c6cc(S(=O)(=O)[O-])ccc6F)c6ccc3[nH]6)C=C5)C=C4)cc2)CCO1
REMARK SMILES IDX 20 1 19 2 18 3 17 4 16 5 15 6 13 7 14 8 5 9 1 10 2 11 3 12
REMARK SMILES IDX 4 13 92 14 91 15 90 16 6 17 7 18 8 19 12 20 9 21 11 22 10 23
REMARK SMILES IDX 21 24 22 25 23 26 24 27 25 28 26 29 27 30 28 31 89 32 29 33
REMARK SMILES IDX 88 34 30 35 31 36 32 37 82 38 33 39 87 40 81 41 83 42 34 43
REMARK SMILES IDX 86 44 80 45 79 46 35 48 67 49 47 50 66 51 48 52 51 53 65 54
REMARK SMILES IDX 84 55 49 56 50 57 64 59 85 60 52 61 36 62 37 63 45 64 38 65
REMARK SMILES IDX 44 66 46 67 43 68 39 69 40 70 41 71 42 72 68 73 69 74 77 75
REMARK SMILES IDX 70 76 76 77 78 78 75 79 71 80 72 81 73 82 74 83 53 84 54 85
REMARK SMILES IDX 62 86 55 87 61 88 63 89 60 90 56 91 57 92 58 93 59 94
REMARK H PARENT 83 47 51 58
REMARK Flexibility Score: inf
ROOT
ATOM      1  C   UNL A   1      32.722  29.567  25.307  1.00  0.00     0.188 C 
ENDROOT
BRANCH   1   2
ATOM      2  C   UNL A   1      32.854  28.135  25.848  1.00  0.00     0.188 C 
BRANCH   2   3
ATOM      3  O   UNL A   1      31.574  27.519  25.991  1.00  0.00    -0.376 OA
BRANCH   3   4
ATOM      4  C   UNL A   1      31.646  26.124  26.272  1.00  0.00     0.202 C 
BRANCH   4   5
ATOM      5  C   UNL A   1      33.075  25.577  26.229  1.00  0.00     0.261 C 
BRANCH   5   6
ATOM      6  O   UNL A   1      33.300  24.271  25.660  1.00  0.00    -0.463 OA
BRANCH   6   7
ATOM      7  C   UNL A   1      34.518  23.995  25.117  1.00  0.00     0.312 C 
ATOM      8  O   UNL A   1      35.550  24.503  25.527  1.00  0.00    -0.252 OA
BRANCH   7   9
ATOM      9  C   UNL A   1      34.399  22.994  23.932  1.00  0.00     0.077 C 
ATOM     10  C   UNL A   1      32.430  21.776  26.526  1.00  0.00     0.042 C 
ATOM     11  C   UNL A   1      33.496  21.211  25.556  1.00  0.00     0.064 C 
ATOM     12  C   UNL A   1      33.278  19.695  25.486  1.00  0.00     0.042 C 
ATOM     13  C   UNL A   1      33.336  21.881  24.183  1.00  0.00     0.054 C 
ATOM     14  O   UNL A   1      34.812  21.471  26.078  1.00  0.00    -0.376 OA
ATOM     15  C   UNL A   1      35.887  21.330  25.138  1.00  0.00     0.162 C 
ATOM     16  C   UNL A   1      35.720  22.196  23.874  1.00  0.00     0.047 C 
BRANCH   9  17
ATOM     17  C   UNL A   1      34.120  23.751  22.589  1.00  0.00     0.054 C 
BRANCH  17  18
ATOM     18  C   UNL A   1      33.188  24.930  22.810  1.00  0.00    -0.047 A 
ATOM     19  C   UNL A   1      33.655  26.246  22.691  1.00  0.00     0.004 A 
ATOM     20  C   UNL A   1      31.810  24.706  22.830  1.00  0.00     0.004 A 
ATOM     21  C   UNL A   1      32.765  27.261  22.356  1.00  0.00     0.000 A 
ATOM     22  C   UNL A   1      30.925  25.704  22.458  1.00  0.00     0.000 A 
ATOM     23  C   UNL A   1      31.423  26.960  22.149  1.00  0.00     0.000 A 
ENDBRANCH  17  18
ENDBRANCH   9  17
ENDBRANCH   7   9
ENDBRANCH   6   7
ENDBRANCH   5   6
ENDBRANCH   4   5
ENDBRANCH   3   4
ENDBRANCH   2   3
ENDBRANCH   1   2
BRANCH   1  24
ATOM     24  O   UNL A   1      32.882  30.625  26.248  1.00  0.00    -0.376 OA
BRANCH  24  25
ATOM     25  C   UNL A   1      31.693  31.263  26.689  1.00  0.00     0.202 C 
BRANCH  25  26
ATOM     26  C   UNL A   1      31.798  32.764  26.993  1.00  0.00     0.261 C 
BRANCH  26  27
ATOM     27  O   UNL A   1      33.135  33.267  27.209  1.00  0.00    -0.460 OA
BRANCH  27  28
ATOM     28  C   UNL A   1      33.280  34.037  28.322  1.00  0.00     0.338 C 
ATOM     29  O   UNL A   1      32.554  34.973  28.632  1.00  0.00    -0.246 OA
BRANCH  28  30
ATOM     30  C   UNL A   1      34.395  33.582  29.200  1.00  0.00     0.060 A 
ATOM     31  C   UNL A   1      35.649  34.177  29.008  1.00  0.00     0.016 A 
ATOM     32  C   UNL A   1      34.277  32.528  30.115  1.00  0.00     0.016 A 
ATOM     33  C   UNL A   1      36.778  33.694  29.680  1.00  0.00     0.010 A 
ATOM     34  C   UNL A   1      35.421  32.025  30.772  1.00  0.00     0.010 A 
ATOM     35  C   UNL A   1      36.689  32.579  30.532  1.00  0.00    -0.014 A 
BRANCH  35  36
ATOM     36  C   UNL A   1      37.964  31.911  30.946  1.00  0.00     0.031 A 
ATOM     37  C   UNL A   1      38.465  32.152  32.343  1.00  0.00     0.074 A 
ATOM     38  C   UNL A   1      38.647  31.059  30.156  1.00  0.00     0.049 A 
ATOM     39  N   UNL A   1      39.443  31.573  32.988  1.00  0.00    -0.248 NA
ATOM     40  C   UNL A   1      37.793  33.224  33.091  1.00  0.00     0.031 C 
ATOM     41  C   UNL A   1      38.362  30.829  28.754  1.00  0.00     0.029 A 
ATOM     42  N   UNL A   1      39.689  30.197  30.422  1.00  0.00    -0.354 N 
ATOM     43  C   UNL A   1      39.520  32.221  34.213  1.00  0.00     0.074 A 
ATOM     44  C   UNL A   1      38.485  33.235  34.218  1.00  0.00     0.031 C 
ATOM     45  C   UNL A   1      39.095  29.791  28.314  1.00  0.00     0.029 A 
ATOM     46  C   UNL A   1      39.984  29.339  29.379  1.00  0.00     0.049 A 
ATOM     47  H   UNL A   1      40.180  30.194  31.276  1.00  0.00     0.167 HD
ATOM     48  C   UNL A   1      40.393  32.013  35.229  1.00  0.00     0.034 A 
ATOM     49  C   UNL A   1      40.867  28.319  29.288  1.00  0.00     0.034 A 
ATOM     50  C   UNL A   1      41.464  31.049  35.193  1.00  0.00     0.049 A 
ATOM     51  C   UNL A   1      41.793  28.068  30.460  1.00  0.00     0.074 A 
ATOM     52  C   UNL A   1      42.420  30.787  36.159  1.00  0.00     0.029 A 
ATOM     53  N   UNL A   1      41.740  30.202  34.127  1.00  0.00    -0.354 N 
ATOM     54  N   UNL A   1      41.830  28.671  31.627  1.00  0.00    -0.248 NA
ATOM     55  C   UNL A   1      42.820  27.031  30.289  1.00  0.00     0.031 C 
ATOM     56  C   UNL A   1      43.311  29.834  35.652  1.00  0.00     0.029 A 
ATOM     57  C   UNL A   1      42.864  29.435  34.403  1.00  0.00     0.049 A 
ATOM     58  H   UNL A   1      41.214  30.152  33.295  1.00  0.00     0.167 HD
ATOM     59  C   UNL A   1      42.897  28.097  32.317  1.00  0.00     0.074 A 
ATOM     60  C   UNL A   1      43.431  27.057  31.464  1.00  0.00     0.031 C 
ATOM     61  C   UNL A   1      43.408  28.419  33.532  1.00  0.00     0.034 A 
BRANCH  48  62
ATOM     62  C   UNL A   1      40.268  32.929  36.418  1.00  0.00     0.023 A 
ATOM     63  C   UNL A   1      39.522  32.567  37.553  1.00  0.00     0.031 A 
ATOM     64  C   UNL A   1      40.846  34.210  36.386  1.00  0.00     0.131 A 
ATOM     65  C   UNL A   1      39.311  33.506  38.575  1.00  0.00     0.055 A 
ATOM     66  C   UNL A   1      40.699  35.110  37.441  1.00  0.00     0.041 A 
ATOM     67  F   UNL A   1      41.543  34.618  35.313  1.00  0.00    -0.206 F 
ATOM     68  C   UNL A   1      39.915  34.764  38.538  1.00  0.00     0.022 A 
BRANCH  65  69
ATOM     69  S   UNL A   1      38.118  33.110  39.883  1.00  0.00     0.124 S 
ATOM     70  O   UNL A   1      38.117  34.343  40.664  1.00  0.00    -0.237 OA
ATOM     71  O   UNL A   1      36.902  32.830  39.128  1.00  0.00    -0.237 OA
ATOM     72  O   UNL A   1      38.715  31.956  40.552  1.00  0.00    -0.744 OA
ENDBRANCH  65  69
ENDBRANCH  48  62
BRANCH  49  73
ATOM     73  C   UNL A   1      41.002  27.491  28.042  1.00  0.00     0.023 A 
ATOM     74  C   UNL A   1      40.578  26.147  28.000  1.00  0.00     0.031 A 
ATOM     75  C   UNL A   1      41.651  27.996  26.902  1.00  0.00     0.131 A 
ATOM     76  C   UNL A   1      40.856  25.350  26.873  1.00  0.00     0.055 A 
ATOM     77  C   UNL A   1      41.856  27.223  25.755  1.00  0.00     0.041 A 
ATOM     78  F   UNL A   1      42.108  29.258  26.882  1.00  0.00    -0.206 F 
ATOM     79  C   UNL A   1      41.473  25.888  25.743  1.00  0.00     0.022 A 
BRANCH  76  80
ATOM     80  S   UNL A   1      40.518  23.566  26.946  1.00  0.00     0.124 S 
ATOM     81  O   UNL A   1      39.131  23.507  26.501  1.00  0.00    -0.237 OA
ATOM     82  O   UNL A   1      41.512  23.030  26.021  1.00  0.00    -0.237 OA
ATOM     83  O   UNL A   1      40.738  23.233  28.352  1.00  0.00    -0.744 OA
ENDBRANCH  76  80
ENDBRANCH  49  73
BRANCH  61  84
ATOM     84  C   UNL A   1      44.600  27.620  34.006  1.00  0.00     0.023 A 
ATOM     85  C   UNL A   1      44.448  26.381  34.660  1.00  0.00     0.031 A 
ATOM     86  C   UNL A   1      45.903  28.119  33.837  1.00  0.00     0.131 A 
ATOM     87  C   UNL A   1      45.572  25.723  35.184  1.00  0.00     0.055 A 
ATOM     88  C   UNL A   1      47.023  27.427  34.302  1.00  0.00     0.041 A 
ATOM     89  F   UNL A   1      46.110  29.295  33.224  1.00  0.00    -0.206 F 
ATOM     90  C   UNL A   1      46.859  26.232  34.996  1.00  0.00     0.022 A 
BRANCH  87  91
ATOM     91  S   UNL A   1      45.319  24.257  36.225  1.00  0.00     0.124 S 
ATOM     92  O   UNL A   1      46.020  23.224  35.471  1.00  0.00    -0.237 OA
ATOM     93  O   UNL A   1      45.937  24.661  37.484  1.00  0.00    -0.237 OA
ATOM     94  O   UNL A   1      43.864  24.115  36.267  1.00  0.00    -0.744 OA
ENDBRANCH  87  91
ENDBRANCH  61  84
ENDBRANCH  35  36
ENDBRANCH  28  30
ENDBRANCH  27  28
ENDBRANCH  26  27
ENDBRANCH  25  26
ENDBRANCH  24  25
ENDBRANCH   1  24
TORSDOF 22
ENDMDL
MODEL 3
REMARK VINA RESULT:      -9.5      6.914     14.616
REMARK SMILES CC1(C)C[C@@](Cc2ccccc2)(C(=O)OCCOCCOCCOC(=O)c2ccc(-c3c4nc(c(-c5cc(S(=O)(=O)[O-])ccc5F)c5ccc([nH]5)c(-c5cc(S(=O)(=O)[O-])ccc5F)c5nc(c(-c6cc(S(=O)(=O)[O-])ccc6F)c6ccc3[nH]6)C=C5)C=C4)cc2)CCO1
REMARK SMILES IDX 20 1 19 2 18 3 17 4 16 5 15 6 13 7 14 8 5 9 1 10 2 11 3 12
REMARK SMILES IDX 4 13 92 14 91 15 90 16 6 17 7 18 8 19 12 20 9 21 11 22 10 23
REMARK SMILES IDX 21 24 22 25 23 26 24 27 25 28 26 29 27 30 28 31 89 32 29 33
REMARK SMILES IDX 88 34 30 35 31 36 32 37 82 38 33 39 87 40 81 41 83 42 34 43
REMARK SMILES IDX 86 44 80 45 79 46 35 48 67 49 47 50 66 51 48 52 51 53 65 54
REMARK SMILES IDX 84 55 49 56 50 57 64 59 85 60 52 61 36 62 37 63 45 64 38 65
REMARK SMILES IDX 44 66 46 67 43 68 39 69 40 70 41 71 42 72 68 73 69 74 77 75
REMARK SMILES IDX 70 76 76 77 78 78 75 79 71 80 72 81 73 82 74 83 53 84 54 85
REMARK SMILES IDX 62 86 55 87 61 88 63 89 60 90 56 91 57 92 58 93 59 94
REMARK H PARENT 83 47 51 58
REMARK Flexibility Score: inf
ROOT
ATOM      1  C   UNL A   1      47.448  38.077  25.533  1.00  0.00     0.188 C 
ENDROOT
BRANCH   1   2
ATOM      2  C   UNL A   1      47.279  39.603  25.487  1.00  0.00     0.188 C 
BRANCH   2   3
ATOM      3  O   UNL A   1      45.933  39.962  25.176  1.00  0.00    -0.376 OA
BRANCH   3   4
ATOM      4  C   UNL A   1      45.696  41.366  25.229  1.00  0.00     0.202 C 
BRANCH   4   5
ATOM      5  C   UNL A   1      44.260  41.716  25.631  1.00  0.00     0.261 C 
BRANCH   5   6
ATOM      6  O   UNL A   1      43.947  41.851  27.032  1.00  0.00    -0.463 OA
BRANCH   6   7
ATOM      7  C   UNL A   1      43.156  40.910  27.619  1.00  0.00     0.312 C 
ATOM      8  O   UNL A   1      41.954  40.844  27.417  1.00  0.00    -0.252 OA
BRANCH   7   9
ATOM      9  C   UNL A   1      43.978  39.985  28.563  1.00  0.00     0.077 C 
ATOM     10  C   UNL A   1      41.295  41.222  30.397  1.00  0.00     0.042 C 
ATOM     11  C   UNL A   1      42.822  41.064  30.596  1.00  0.00     0.064 C 
ATOM     12  C   UNL A   1      43.080  41.075  32.106  1.00  0.00     0.042 C 
ATOM     13  C   UNL A   1      43.285  39.754  29.940  1.00  0.00     0.054 C 
ATOM     14  O   UNL A   1      43.507  42.180  29.996  1.00  0.00    -0.376 OA
ATOM     15  C   UNL A   1      44.915  41.999  29.787  1.00  0.00     0.162 C 
ATOM     16  C   UNL A   1      45.260  40.752  28.950  1.00  0.00     0.047 C 
BRANCH   9  17
ATOM     17  C   UNL A   1      44.307  38.624  27.859  1.00  0.00     0.054 C 
BRANCH  17  18
ATOM     18  C   UNL A   1      43.205  37.606  28.097  1.00  0.00    -0.047 A 
ATOM     19  C   UNL A   1      42.463  37.088  27.027  1.00  0.00     0.004 A 
ATOM     20  C   UNL A   1      43.136  36.963  29.334  1.00  0.00     0.004 A 
ATOM     21  C   UNL A   1      41.877  35.832  27.143  1.00  0.00     0.000 A 
ATOM     22  C   UNL A   1      42.589  35.696  29.445  1.00  0.00     0.000 A 
ATOM     23  C   UNL A   1      42.029  35.108  28.321  1.00  0.00     0.000 A 
ENDBRANCH  17  18
ENDBRANCH   9  17
ENDBRANCH   7   9
ENDBRANCH   6   7
ENDBRANCH   5   6
ENDBRANCH   4   5
ENDBRANCH   3   4
ENDBRANCH   2   3
ENDBRANCH   1   2
BRANCH   1  24
ATOM     24  O   UNL A   1      47.470  37.472  26.824  1.00  0.00    -0.376 OA
BRANCH  24  25
ATOM     25  C   UNL A   1      48.253  38.123  27.813  1.00  0.00     0.202 C 
BRANCH  25  26
ATOM     26  C   UNL A   1      47.962  37.741  29.271  1.00  0.00     0.261 C 
BRANCH  26  27
ATOM     27  O   UNL A   1      46.637  37.226  29.531  1.00  0.00    -0.460 OA
BRANCH  27  28
ATOM     28  C   UNL A   1      46.549  36.406  30.614  1.00  0.00     0.338 C 
ATOM     29  O   UNL A   1      46.637  36.765  31.781  1.00  0.00    -0.246 OA
BRANCH  28  30
ATOM     30  C   UNL A   1      46.253  34.992  30.246  1.00  0.00     0.060 A 
ATOM     31  C   UNL A   1      46.026  34.714  28.892  1.00  0.00     0.016 A 
ATOM     32  C   UNL A   1      46.086  33.968  31.186  1.00  0.00     0.016 A 
ATOM     33  C   UNL A   1      45.587  33.448  28.487  1.00  0.00     0.010 A 
ATOM     34  C   UNL A   1      45.618  32.699  30.780  1.00  0.00     0.010 A 
ATOM     35  C   UNL A   1      45.328  32.439  29.431  1.00  0.00    -0.014 A 
BRANCH  35  36
ATOM     36  C   UNL A   1      44.550  31.241  28.979  1.00  0.00     0.031 A 
ATOM     37  C   UNL A   1      45.283  30.167  28.225  1.00  0.00     0.074 A 
ATOM     38  C   UNL A   1      43.248  31.048  29.268  1.00  0.00     0.049 A 
ATOM     39  N   UNL A   1      44.880  28.976  27.870  1.00  0.00    -0.248 NA
ATOM     40  C   UNL A   1      46.641  30.508  27.778  1.00  0.00     0.031 C 
ATOM     41  C   UNL A   1      42.382  32.043  29.870  1.00  0.00     0.029 A 
ATOM     42  N   UNL A   1      42.433  29.944  29.138  1.00  0.00    -0.354 N 
ATOM     43  C   UNL A   1      45.925  28.428  27.138  1.00  0.00     0.074 A 
ATOM     44  C   UNL A   1      46.981  29.419  27.107  1.00  0.00     0.031 C 
ATOM     45  C   UNL A   1      41.209  31.474  30.198  1.00  0.00     0.029 A 
ATOM     46  C   UNL A   1      41.196  30.090  29.738  1.00  0.00     0.049 A 
ATOM     47  H   UNL A   1      42.707  29.127  28.662  1.00  0.00     0.167 HD
ATOM     48  C   UNL A   1      45.989  27.223  26.522  1.00  0.00     0.034 A 
ATOM     49  C   UNL A   1      40.173  29.218  29.891  1.00  0.00     0.034 A 
ATOM     50  C   UNL A   1      44.911  26.265  26.499  1.00  0.00     0.049 A 
ATOM     51  C   UNL A   1      40.292  27.855  29.242  1.00  0.00     0.074 A 
ATOM     52  C   UNL A   1      44.868  25.031  25.874  1.00  0.00     0.029 A 
ATOM     53  N   UNL A   1      43.675  26.442  27.107  1.00  0.00    -0.354 N 
ATOM     54  N   UNL A   1      41.304  27.340  28.581  1.00  0.00    -0.248 NA
ATOM     55  C   UNL A   1      39.120  26.973  29.325  1.00  0.00     0.031 C 
ATOM     56  C   UNL A   1      43.588  24.493  26.047  1.00  0.00     0.029 A 
ATOM     57  C   UNL A   1      42.856  25.350  26.851  1.00  0.00     0.049 A 
ATOM     58  H   UNL A   1      43.416  27.228  27.642  1.00  0.00     0.167 HD
ATOM     59  C   UNL A   1      40.878  26.084  28.154  1.00  0.00     0.074 A 
ATOM     60  C   UNL A   1      39.548  25.892  28.690  1.00  0.00     0.031 C 
ATOM     61  C   UNL A   1      41.517  25.181  27.366  1.00  0.00     0.034 A 
BRANCH  48  62
ATOM     62  C   UNL A   1      47.245  26.934  25.741  1.00  0.00     0.023 A 
ATOM     63  C   UNL A   1      48.365  26.331  26.341  1.00  0.00     0.031 A 
ATOM     64  C   UNL A   1      47.347  27.332  24.397  1.00  0.00     0.131 A 
ATOM     65  C   UNL A   1      49.562  26.214  25.617  1.00  0.00     0.055 A 
ATOM     66  C   UNL A   1      48.515  27.140  23.660  1.00  0.00     0.041 A 
ATOM     67  F   UNL A   1      46.318  27.940  23.786  1.00  0.00    -0.206 F 
ATOM     68  C   UNL A   1      49.636  26.591  24.275  1.00  0.00     0.022 A 
BRANCH  65  69
ATOM     69  S   UNL A   1      51.060  25.697  26.499  1.00  0.00     0.124 S 
ATOM     70  O   UNL A   1      51.625  26.982  26.898  1.00  0.00    -0.237 OA
ATOM     71  O   UNL A   1      50.524  24.872  27.576  1.00  0.00    -0.237 OA
ATOM     72  O   UNL A   1      51.823  24.975  25.483  1.00  0.00    -0.744 OA
ENDBRANCH  65  69
ENDBRANCH  48  62
BRANCH  49  73
ATOM     73  C   UNL A   1      38.909  29.593  30.612  1.00  0.00     0.023 A 
ATOM     74  C   UNL A   1      37.927  30.403  30.007  1.00  0.00     0.031 A 
ATOM     75  C   UNL A   1      38.708  29.234  31.956  1.00  0.00     0.131 A 
ATOM     76  C   UNL A   1      36.829  30.865  30.756  1.00  0.00     0.055 A 
ATOM     77  C   UNL A   1      37.577  29.631  32.674  1.00  0.00     0.041 A 
ATOM     78  F   UNL A   1      39.616  28.488  32.606  1.00  0.00    -0.206 F 
ATOM     79  C   UNL A   1      36.637  30.465  32.079  1.00  0.00     0.022 A 
BRANCH  76  80
ATOM     80  S   UNL A   1      35.715  32.101  30.024  1.00  0.00     0.124 S 
ATOM     81  O   UNL A   1      36.613  33.232  29.826  1.00  0.00    -0.237 OA
ATOM     82  O   UNL A   1      35.262  31.423  28.814  1.00  0.00    -0.237 OA
ATOM     83  O   UNL A   1      34.690  32.288  31.049  1.00  0.00    -0.744 OA
ENDBRANCH  76  80
ENDBRANCH  49  73
BRANCH  61  84
ATOM     84  C   UNL A   1      40.776  23.901  27.055  1.00  0.00     0.023 A 
ATOM     85  C   UNL A   1      39.557  23.905  26.349  1.00  0.00     0.031 A 
ATOM     86  C   UNL A   1      41.274  22.665  27.502  1.00  0.00     0.131 A 
ATOM     87  C   UNL A   1      38.843  22.709  26.176  1.00  0.00     0.055 A 
ATOM     88  C   UNL A   1      40.591  21.469  27.268  1.00  0.00     0.041 A 
ATOM     89  F   UNL A   1      42.429  22.599  28.181  1.00  0.00    -0.206 F 
ATOM     90  C   UNL A   1      39.361  21.489  26.620  1.00  0.00     0.022 A 
BRANCH  87  91
ATOM     91  S   UNL A   1      37.169  22.783  25.478  1.00  0.00     0.124 S 
ATOM     92  O   UNL A   1      36.582  23.897  26.214  1.00  0.00    -0.237 OA
ATOM     93  O   UNL A   1      37.434  23.021  24.063  1.00  0.00    -0.237 OA
ATOM     94  O   UNL A   1      36.610  21.469  25.791  1.00  0.00    -0.744 OA
ENDBRANCH  87  91
ENDBRANCH  61  84
ENDBRANCH  35  36
ENDBRANCH  28  30
ENDBRANCH  27  28
ENDBRANCH  26  27
ENDBRANCH  25  26
ENDBRANCH  24  25
ENDBRANCH   1  24
TORSDOF 22
ENDMDL
