MODEL 1
REMARK VINA RESULT:      -8.4      0.000      0.000
REMARK SMILES COc1ccc2c(c1)c(Cc1nc(-c3ccc(C(=O)OCCOCCOCCOC(=O)c4ccc(-c5c6nc(c(-c7cc(S(=O)(=O)[O-])ccc7F)c7ccc([nH]7)c(-c7cc(S(=O)(=O)[O-])ccc7F)c7nc(c(-c8cc(S(=O)(=O)[O-])ccc8F)c8ccc5[nH]8)C=C7)C=C6)cc4)cc3)cs1)c(C)n2C(=O)c1ccc(Cl)cc1
REMARK SMILES IDX 24 1 23 2 22 3 21 4 20 5 18 6 19 7 17 8 14 9 15 10 96 11
REMARK SMILES IDX 16 12 95 13 13 14 11 15 12 16 98 17 97 18 10 19 9 20 3 21
REMARK SMILES IDX 4 22 8 23 5 24 7 25 6 26 101 27 99 28 100 29 2 30 1 31
REMARK SMILES IDX 102 32 103 33 104 34 105 35 110 36 106 37 109 38 107 39
REMARK SMILES IDX 108 40 25 41 26 42 27 43 28 44 29 45 30 46 31 47 32 48 33 49
REMARK SMILES IDX 94 50 34 51 93 52 35 53 36 54 37 55 87 56 38 57 92 58 86 59
REMARK SMILES IDX 88 60 39 61 91 62 85 63 84 64 40 66 72 67 52 68 71 69 53 70
REMARK SMILES IDX 56 71 70 72 89 73 54 74 55 75 69 77 90 78 57 79 41 80 42 81
REMARK SMILES IDX 50 82 43 83 49 84 51 85 48 86 44 87 45 88 46 89 47 90 73 91
REMARK SMILES IDX 74 92 82 93 75 94 81 95 83 96 80 97 76 98 77 99 78 100
REMARK SMILES IDX 79 101 58 102 59 103 67 104 60 105 66 106 68 107 65 108
REMARK SMILES IDX 61 109 62 110 63 111 64 112
REMARK H PARENT 88 65 56 76
REMARK Flexibility Score: inf
ROOT
ATOM      1  C   UNL A   1      38.652  32.520  32.989  1.00  0.00     0.188 C 
ENDROOT
BRANCH   1   2
ATOM      2  O   UNL A   1      38.539  33.334  34.129  1.00  0.00    -0.376 OA
BRANCH   2   3
ATOM      3  C   UNL A   1      39.429  34.432  34.192  1.00  0.00     0.202 C 
BRANCH   3   4
ATOM      4  C   UNL A   1      40.913  34.275  34.622  1.00  0.00     0.261 C 
BRANCH   4   5
ATOM      5  O   UNL A   1      41.181  33.864  35.998  1.00  0.00    -0.460 OA
BRANCH   5   6
ATOM      6  C   UNL A   1      41.232  32.513  36.229  1.00  0.00     0.338 C 
ATOM      7  O   UNL A   1      40.239  31.813  36.370  1.00  0.00    -0.246 OA
BRANCH   6   8
ATOM      8  C   UNL A   1      42.595  31.896  35.996  1.00  0.00     0.060 A 
ATOM      9  C   UNL A   1      45.297  30.805  36.137  1.00  0.00     0.001 A 
ATOM     10  C   UNL A   1      44.274  30.397  36.956  1.00  0.00     0.011 A 
ATOM     11  C   UNL A   1      44.950  31.826  35.245  1.00  0.00     0.011 A 
ATOM     12  C   UNL A   1      42.960  30.869  36.853  1.00  0.00     0.016 A 
ATOM     13  C   UNL A   1      43.615  32.380  35.183  1.00  0.00     0.016 A 
BRANCH   9  14
ATOM     14  C   UNL A   1      46.622  30.206  36.392  1.00  0.00     0.081 A 
ATOM     15  C   UNL A   1      48.497  29.145  35.834  1.00  0.00     0.098 A 
ATOM     16  N   UNL A   1      47.199  29.256  35.579  1.00  0.00    -0.241 NA
ATOM     17  S   UNL A   1      49.031  29.954  37.252  1.00  0.00    -0.126 S 
ATOM     18  C   UNL A   1      47.471  30.637  37.406  1.00  0.00     0.095 A 
BRANCH  15  19
ATOM     19  C   UNL A   1      49.513  28.422  34.981  1.00  0.00     0.105 C 
BRANCH  19  20
ATOM     20  C   UNL A   1      50.088  27.220  35.682  1.00  0.00    -0.012 A 
ATOM     21  C   UNL A   1      54.536  27.202  34.968  1.00  0.00     0.119 A 
ATOM     22  C   UNL A   1      54.801  25.690  35.811  1.00  0.00     0.048 A 
ATOM     23  C   UNL A   1      52.900  27.819  34.948  1.00  0.00     0.057 A 
ATOM     24  C   UNL A   1      53.235  24.777  36.713  1.00  0.00     0.031 A 
ATOM     25  C   UNL A   1      51.477  26.987  35.692  1.00  0.00     0.008 A 
ATOM     26  C   UNL A   1      51.605  25.511  36.542  1.00  0.00     0.057 A 
ATOM     27  N   UNL A   1      50.292  25.051  36.666  1.00  0.00    -0.280 N 
ATOM     28  C   UNL A   1      49.426  26.063  36.154  1.00  0.00     0.028 A 
ATOM     29  C   UNL A   1      47.961  25.820  35.912  1.00  0.00     0.065 C 
BRANCH  21  30
ATOM     30  O   UNL A   1      55.555  27.953  34.463  1.00  0.00    -0.497 OA
ATOM     31  C   UNL A   1      56.175  28.762  35.459  1.00  0.00     0.278 C 
ENDBRANCH  21  30
BRANCH  27  32
ATOM     32  C   UNL A   1      49.952  23.712  37.083  1.00  0.00     0.262 C 
ATOM     33  O   UNL A   1      50.711  22.775  36.833  1.00  0.00    -0.268 OA
BRANCH  32  34
ATOM     34  C   UNL A   1      48.749  23.313  37.865  1.00  0.00     0.040 A 
ATOM     35  C   UNL A   1      48.272  24.088  38.929  1.00  0.00     0.015 A 
ATOM     36  C   UNL A   1      48.074  22.132  37.511  1.00  0.00     0.015 A 
ATOM     37  C   UNL A   1      47.220  23.606  39.726  1.00  0.00     0.021 A 
ATOM     38  C   UNL A   1      47.006  21.670  38.291  1.00  0.00     0.021 A 
ATOM     39  C   UNL A   1      46.610  22.390  39.415  1.00  0.00     0.041 A 
ATOM     40  Cl  UNL A   1      45.381  21.757  40.443  1.00  0.00    -0.084 Cl
ENDBRANCH  32  34
ENDBRANCH  27  32
ENDBRANCH  19  20
ENDBRANCH  15  19
ENDBRANCH   9  14
ENDBRANCH   6   8
ENDBRANCH   5   6
ENDBRANCH   4   5
ENDBRANCH   3   4
ENDBRANCH   2   3
ENDBRANCH   1   2
BRANCH   1  41
ATOM     41  C   UNL A   1      37.919  31.155  33.044  1.00  0.00     0.188 C 
BRANCH  41  42
ATOM     42  O   UNL A   1      36.627  31.060  32.495  1.00  0.00    -0.376 OA
BRANCH  42  43
ATOM     43  C   UNL A   1      35.809  32.190  32.721  1.00  0.00     0.202 C 
BRANCH  43  44
ATOM     44  C   UNL A   1      34.696  32.586  31.700  1.00  0.00     0.261 C 
BRANCH  44  45
ATOM     45  O   UNL A   1      34.821  32.101  30.321  1.00  0.00    -0.460 OA
BRANCH  45  46
ATOM     46  C   UNL A   1      35.802  32.633  29.515  1.00  0.00     0.338 C 
ATOM     47  O   UNL A   1      36.071  33.824  29.449  1.00  0.00    -0.246 OA
BRANCH  46  48
ATOM     48  C   UNL A   1      36.767  31.546  29.056  1.00  0.00     0.060 A 
ATOM     49  C   UNL A   1      36.435  30.219  28.754  1.00  0.00     0.016 A 
ATOM     50  C   UNL A   1      38.124  31.823  29.190  1.00  0.00     0.016 A 
ATOM     51  C   UNL A   1      37.411  29.162  28.906  1.00  0.00     0.010 A 
ATOM     52  C   UNL A   1      39.069  30.774  29.243  1.00  0.00     0.010 A 
ATOM     53  C   UNL A   1      38.738  29.405  29.329  1.00  0.00    -0.014 A 
BRANCH  53  54
ATOM     54  C   UNL A   1      39.879  28.327  29.433  1.00  0.00     0.031 A 
ATOM     55  C   UNL A   1      40.197  28.299  30.879  1.00  0.00     0.074 A 
ATOM     56  C   UNL A   1      40.576  27.424  28.615  1.00  0.00     0.049 A 
ATOM     57  N   UNL A   1      41.123  29.024  31.418  1.00  0.00    -0.248 NA
ATOM     58  C   UNL A   1      39.223  27.764  31.840  1.00  0.00     0.031 C 
ATOM     59  C   UNL A   1      40.595  27.234  27.161  1.00  0.00     0.029 A 
ATOM     60  N   UNL A   1      41.493  26.384  28.926  1.00  0.00    -0.354 N 
ATOM     61  C   UNL A   1      41.046  28.742  32.771  1.00  0.00     0.074 A 
ATOM     62  C   UNL A   1      39.714  28.245  32.984  1.00  0.00     0.031 C 
ATOM     63  C   UNL A   1      41.045  26.021  26.748  1.00  0.00     0.029 A 
ATOM     64  C   UNL A   1      41.689  25.378  27.878  1.00  0.00     0.049 A 
ATOM     65  H   UNL A   1      41.965  26.342  29.789  1.00  0.00     0.167 HD
ATOM     66  C   UNL A   1      42.193  28.553  33.480  1.00  0.00     0.034 A 
ATOM     67  C   UNL A   1      42.678  24.417  27.682  1.00  0.00     0.034 A 
ATOM     68  C   UNL A   1      43.329  29.028  32.715  1.00  0.00     0.049 A 
ATOM     69  C   UNL A   1      43.806  24.775  28.533  1.00  0.00     0.074 A 
ATOM     70  C   UNL A   1      43.827  30.239  32.284  1.00  0.00     0.029 A 
ATOM     71  N   UNL A   1      43.821  28.079  31.862  1.00  0.00    -0.354 N 
ATOM     72  N   UNL A   1      44.552  25.813  28.297  1.00  0.00    -0.248 NA
ATOM     73  C   UNL A   1      43.670  24.341  29.904  1.00  0.00     0.031 C 
ATOM     74  C   UNL A   1      44.417  29.992  31.003  1.00  0.00     0.029 A 
ATOM     75  C   UNL A   1      44.373  28.624  30.740  1.00  0.00     0.049 A 
ATOM     76  H   UNL A   1      43.784  27.111  32.038  1.00  0.00     0.167 HD
ATOM     77  C   UNL A   1      44.570  26.465  29.514  1.00  0.00     0.074 A 
ATOM     78  C   UNL A   1      44.060  25.478  30.482  1.00  0.00     0.031 C 
ATOM     79  C   UNL A   1      44.664  27.827  29.567  1.00  0.00     0.034 A 
BRANCH  66  80
ATOM     80  C   UNL A   1      42.321  27.467  34.539  1.00  0.00     0.023 A 
ATOM     81  C   UNL A   1      43.162  26.340  34.421  1.00  0.00     0.031 A 
ATOM     82  C   UNL A   1      41.737  27.650  35.807  1.00  0.00     0.131 A 
ATOM     83  C   UNL A   1      43.354  25.434  35.473  1.00  0.00     0.055 A 
ATOM     84  C   UNL A   1      41.979  26.784  36.884  1.00  0.00     0.041 A 
ATOM     85  F   UNL A   1      40.947  28.706  36.053  1.00  0.00    -0.206 F 
ATOM     86  C   UNL A   1      42.784  25.662  36.719  1.00  0.00     0.022 A 
BRANCH  83  87
ATOM     87  S   UNL A   1      44.351  23.935  35.230  1.00  0.00     0.124 S 
ATOM     88  O   UNL A   1      43.327  22.917  35.027  1.00  0.00    -0.237 OA
ATOM     89  O   UNL A   1      45.134  24.296  34.051  1.00  0.00    -0.237 OA
ATOM     90  O   UNL A   1      45.113  23.825  36.471  1.00  0.00    -0.744 OA
ENDBRANCH  83  87
ENDBRANCH  66  80
BRANCH  67  91
ATOM     91  C   UNL A   1      42.592  23.000  27.170  1.00  0.00     0.023 A 
ATOM     92  C   UNL A   1      44.027  22.429  26.291  1.00  0.00     0.031 A 
ATOM     93  C   UNL A   1      41.205  21.890  27.193  1.00  0.00     0.131 A 
ATOM     94  C   UNL A   1      44.070  20.556  25.470  1.00  0.00     0.055 A 
ATOM     95  C   UNL A   1      41.180  20.249  26.457  1.00  0.00     0.041 A 
ATOM     96  F   UNL A   1      40.066  22.278  27.787  1.00  0.00    -0.206 F 
ATOM     97  C   UNL A   1      42.568  19.561  25.607  1.00  0.00     0.022 A 
BRANCH  94  98
ATOM     98  S   UNL A   1      45.320  19.351  24.436  1.00  0.00     0.124 S 
ATOM     99  O   UNL A   1      45.257  18.137  25.256  1.00  0.00    -0.237 OA
ATOM    100  O   UNL A   1      44.631  19.226  23.152  1.00  0.00    -0.237 OA
ATOM    101  O   UNL A   1      46.659  19.930  24.386  1.00  0.00    -0.744 OA
ENDBRANCH  94  98
ENDBRANCH  67  91
BRANCH  79 102
ATOM    102  C   UNL A   1      45.059  28.582  28.316  1.00  0.00     0.023 A 
ATOM    103  C   UNL A   1      46.425  28.592  28.037  1.00  0.00     0.031 A 
ATOM    104  C   UNL A   1      44.240  29.445  27.562  1.00  0.00     0.131 A 
ATOM    105  C   UNL A   1      46.954  29.497  27.114  1.00  0.00     0.055 A 
ATOM    106  C   UNL A   1      44.760  30.299  26.576  1.00  0.00     0.041 A 
ATOM    107  F   UNL A   1      42.935  29.554  27.817  1.00  0.00    -0.206 F 
ATOM    108  C   UNL A   1      46.133  30.344  26.365  1.00  0.00     0.022 A 
BRANCH 105 109
ATOM    109  S   UNL A   1      48.745  29.712  27.033  1.00  0.00     0.124 S 
ATOM    110  O   UNL A   1      49.175  29.247  28.348  1.00  0.00    -0.237 OA
ATOM    111  O   UNL A   1      49.102  28.848  25.909  1.00  0.00    -0.237 OA
ATOM    112  O   UNL A   1      48.915  31.143  26.790  1.00  0.00    -0.744 OA
ENDBRANCH 105 109
ENDBRANCH  79 102
ENDBRANCH  53  54
ENDBRANCH  46  48
ENDBRANCH  45  46
ENDBRANCH  44  45
ENDBRANCH  43  44
ENDBRANCH  42  43
ENDBRANCH  41  42
ENDBRANCH   1  41
TORSDOF 26
ENDMDL
MODEL 2
REMARK VINA RESULT:      -8.3      1.626      2.239
REMARK SMILES COc1ccc2c(c1)c(Cc1nc(-c3ccc(C(=O)OCCOCCOCCOC(=O)c4ccc(-c5c6nc(c(-c7cc(S(=O)(=O)[O-])ccc7F)c7ccc([nH]7)c(-c7cc(S(=O)(=O)[O-])ccc7F)c7nc(c(-c8cc(S(=O)(=O)[O-])ccc8F)c8ccc5[nH]8)C=C7)C=C6)cc4)cc3)cs1)c(C)n2C(=O)c1ccc(Cl)cc1
REMARK SMILES IDX 24 1 23 2 22 3 21 4 20 5 18 6 19 7 17 8 14 9 15 10 96 11
REMARK SMILES IDX 16 12 95 13 13 14 11 15 12 16 98 17 97 18 10 19 9 20 3 21
REMARK SMILES IDX 4 22 8 23 5 24 7 25 6 26 101 27 99 28 100 29 2 30 1 31
REMARK SMILES IDX 102 32 103 33 104 34 105 35 110 36 106 37 109 38 107 39
REMARK SMILES IDX 108 40 25 41 26 42 27 43 28 44 29 45 30 46 31 47 32 48 33 49
REMARK SMILES IDX 94 50 34 51 93 52 35 53 36 54 37 55 87 56 38 57 92 58 86 59
REMARK SMILES IDX 88 60 39 61 91 62 85 63 84 64 40 66 72 67 52 68 71 69 53 70
REMARK SMILES IDX 56 71 70 72 89 73 54 74 55 75 69 77 90 78 57 79 41 80 42 81
REMARK SMILES IDX 50 82 43 83 49 84 51 85 48 86 44 87 45 88 46 89 47 90 73 91
REMARK SMILES IDX 74 92 82 93 75 94 81 95 83 96 80 97 76 98 77 99 78 100
REMARK SMILES IDX 79 101 58 102 59 103 67 104 60 105 66 106 68 107 65 108
REMARK SMILES IDX 61 109 62 110 63 111 64 112
REMARK H PARENT 88 65 56 76
REMARK Flexibility Score: inf
ROOT
ATOM      1  C   UNL A   1      38.761  32.593  32.984  1.00  0.00     0.188 C 
ENDROOT
BRANCH   1   2
ATOM      2  O   UNL A   1      38.552  33.515  34.024  1.00  0.00    -0.376 OA
BRANCH   2   3
ATOM      3  C   UNL A   1      39.195  34.766  33.875  1.00  0.00     0.202 C 
BRANCH   3   4
ATOM      4  C   UNL A   1      40.667  35.002  34.309  1.00  0.00     0.261 C 
BRANCH   4   5
ATOM      5  O   UNL A   1      40.998  34.809  35.718  1.00  0.00    -0.460 OA
BRANCH   5   6
ATOM      6  C   UNL A   1      41.021  33.513  36.165  1.00  0.00     0.338 C 
ATOM      7  O   UNL A   1      40.014  32.852  36.374  1.00  0.00    -0.246 OA
BRANCH   6   8
ATOM      8  C   UNL A   1      42.384  32.856  36.091  1.00  0.00     0.060 A 
ATOM      9  C   UNL A   1      44.771  31.199  36.341  1.00  0.00     0.001 A 
ATOM     10  C   UNL A   1      43.535  30.699  36.021  1.00  0.00     0.011 A 
ATOM     11  C   UNL A   1      44.792  32.578  36.581  1.00  0.00     0.011 A 
ATOM     12  C   UNL A   1      42.397  31.494  35.838  1.00  0.00     0.016 A 
ATOM     13  C   UNL A   1      43.606  33.400  36.473  1.00  0.00     0.016 A 
BRANCH   9  14
ATOM     14  C   UNL A   1      45.858  30.213  36.503  1.00  0.00     0.081 A 
ATOM     15  C   UNL A   1      47.749  29.420  37.368  1.00  0.00     0.098 A 
ATOM     16  N   UNL A   1      47.098  30.522  37.017  1.00  0.00    -0.241 NA
ATOM     17  S   UNL A   1      47.036  27.952  36.832  1.00  0.00    -0.126 S 
ATOM     18  C   UNL A   1      45.692  28.852  36.275  1.00  0.00     0.095 A 
BRANCH  15  19
ATOM     19  C   UNL A   1      49.003  29.356  38.208  1.00  0.00     0.105 C 
BRANCH  19  20
ATOM     20  C   UNL A   1      50.108  28.600  37.520  1.00  0.00    -0.012 A 
ATOM     21  C   UNL A   1      51.067  30.749  33.679  1.00  0.00     0.119 A 
ATOM     22  C   UNL A   1      52.256  29.573  33.160  1.00  0.00     0.048 A 
ATOM     23  C   UNL A   1      50.325  30.487  35.240  1.00  0.00     0.057 A 
ATOM     24  C   UNL A   1      52.708  28.024  34.383  1.00  0.00     0.031 A 
ATOM     25  C   UNL A   1      50.668  29.076  36.319  1.00  0.00     0.008 A 
ATOM     26  C   UNL A   1      51.806  27.864  35.927  1.00  0.00     0.057 A 
ATOM     27  N   UNL A   1      51.546  26.823  36.821  1.00  0.00    -0.280 N 
ATOM     28  C   UNL A   1      50.549  27.273  37.737  1.00  0.00     0.028 A 
ATOM     29  C   UNL A   1      49.854  26.342  38.692  1.00  0.00     0.065 C 
BRANCH  21  30
ATOM     30  O   UNL A   1      50.813  31.896  32.987  1.00  0.00    -0.497 OA
ATOM     31  C   UNL A   1      49.972  31.671  31.859  1.00  0.00     0.278 C 
ENDBRANCH  21  30
BRANCH  27  32
ATOM     32  C   UNL A   1      52.093  25.495  36.679  1.00  0.00     0.262 C 
ATOM     33  O   UNL A   1      53.097  25.169  37.313  1.00  0.00    -0.268 OA
BRANCH  32  34
ATOM     34  C   UNL A   1      51.528  24.395  35.849  1.00  0.00     0.040 A 
ATOM     35  C   UNL A   1      50.543  24.633  34.883  1.00  0.00     0.015 A 
ATOM     36  C   UNL A   1      52.011  23.089  36.038  1.00  0.00     0.015 A 
ATOM     37  C   UNL A   1      49.940  23.551  34.220  1.00  0.00     0.021 A 
ATOM     38  C   UNL A   1      51.428  22.015  35.353  1.00  0.00     0.021 A 
ATOM     39  C   UNL A   1      50.371  22.248  34.476  1.00  0.00     0.041 A 
ATOM     40  Cl  UNL A   1      49.573  20.916  33.731  1.00  0.00    -0.084 Cl
ENDBRANCH  32  34
ENDBRANCH  27  32
ENDBRANCH  19  20
ENDBRANCH  15  19
ENDBRANCH   9  14
ENDBRANCH   6   8
ENDBRANCH   5   6
ENDBRANCH   4   5
ENDBRANCH   3   4
ENDBRANCH   2   3
ENDBRANCH   1   2
BRANCH   1  41
ATOM     41  C   UNL A   1      38.063  31.216  33.135  1.00  0.00     0.188 C 
BRANCH  41  42
ATOM     42  O   UNL A   1      36.746  31.072  32.667  1.00  0.00    -0.376 OA
BRANCH  42  43
ATOM     43  C   UNL A   1      35.901  32.172  32.942  1.00  0.00     0.202 C 
BRANCH  43  44
ATOM     44  C   UNL A   1      34.768  32.576  31.946  1.00  0.00     0.261 C 
BRANCH  44  45
ATOM     45  O   UNL A   1      34.885  32.135  30.553  1.00  0.00    -0.460 OA
BRANCH  45  46
ATOM     46  C   UNL A   1      35.908  32.637  29.780  1.00  0.00     0.338 C 
ATOM     47  O   UNL A   1      36.242  33.812  29.756  1.00  0.00    -0.246 OA
BRANCH  46  48
ATOM     48  C   UNL A   1      36.820  31.513  29.302  1.00  0.00     0.060 A 
ATOM     49  C   UNL A   1      36.451  30.175  29.107  1.00  0.00     0.016 A 
ATOM     50  C   UNL A   1      38.185  31.780  29.299  1.00  0.00     0.016 A 
ATOM     51  C   UNL A   1      37.428  29.116  29.234  1.00  0.00     0.010 A 
ATOM     52  C   UNL A   1      39.122  30.723  29.329  1.00  0.00     0.010 A 
ATOM     53  C   UNL A   1      38.790  29.366  29.524  1.00  0.00    -0.014 A 
BRANCH  53  54
ATOM     54  C   UNL A   1      39.928  28.281  29.589  1.00  0.00     0.031 A 
ATOM     55  C   UNL A   1      40.260  28.216  31.030  1.00  0.00     0.074 A 
ATOM     56  C   UNL A   1      40.611  27.396  28.742  1.00  0.00     0.049 A 
ATOM     57  N   UNL A   1      41.195  28.924  31.577  1.00  0.00    -0.248 NA
ATOM     58  C   UNL A   1      39.294  27.661  31.988  1.00  0.00     0.031 C 
ATOM     59  C   UNL A   1      40.615  27.241  27.283  1.00  0.00     0.029 A 
ATOM     60  N   UNL A   1      41.527  26.344  29.017  1.00  0.00    -0.354 N 
ATOM     61  C   UNL A   1      41.131  28.609  32.923  1.00  0.00     0.074 A 
ATOM     62  C   UNL A   1      39.800  28.113  33.138  1.00  0.00     0.031 C 
ATOM     63  C   UNL A   1      41.054  26.037  26.836  1.00  0.00     0.029 A 
ATOM     64  C   UNL A   1      41.708  25.363  27.943  1.00  0.00     0.049 A 
ATOM     65  H   UNL A   1      42.008  26.280  29.874  1.00  0.00     0.167 HD
ATOM     66  C   UNL A   1      42.284  28.398  33.615  1.00  0.00     0.034 A 
ATOM     67  C   UNL A   1      42.690  24.403  27.713  1.00  0.00     0.034 A 
ATOM     68  C   UNL A   1      43.415  28.887  32.850  1.00  0.00     0.049 A 
ATOM     69  C   UNL A   1      43.829  24.735  28.560  1.00  0.00     0.074 A 
ATOM     70  C   UNL A   1      43.913  30.106  32.443  1.00  0.00     0.029 A 
ATOM     71  N   UNL A   1      43.894  27.957  31.968  1.00  0.00    -0.354 N 
ATOM     72  N   UNL A   1      44.577  25.776  28.342  1.00  0.00    -0.248 NA
ATOM     73  C   UNL A   1      43.706  24.269  29.922  1.00  0.00     0.031 C 
ATOM     74  C   UNL A   1      44.489  29.888  31.151  1.00  0.00     0.029 A 
ATOM     75  C   UNL A   1      44.436  28.527  30.855  1.00  0.00     0.049 A 
ATOM     76  H   UNL A   1      43.854  26.985  32.121  1.00  0.00     0.167 HD
ATOM     77  C   UNL A   1      44.611  26.398  29.574  1.00  0.00     0.074 A 
ATOM     78  C   UNL A   1      44.106  25.390  30.523  1.00  0.00     0.031 C 
ATOM     79  C   UNL A   1      44.711  27.758  29.659  1.00  0.00     0.034 A 
BRANCH  66  80
ATOM     80  C   UNL A   1      42.419  27.287  34.646  1.00  0.00     0.023 A 
ATOM     81  C   UNL A   1      43.254  26.158  34.491  1.00  0.00     0.031 A 
ATOM     82  C   UNL A   1      41.850  27.441  35.924  1.00  0.00     0.131 A 
ATOM     83  C   UNL A   1      43.452  25.226  35.519  1.00  0.00     0.055 A 
ATOM     84  C   UNL A   1      42.100  26.547  36.977  1.00  0.00     0.041 A 
ATOM     85  F   UNL A   1      41.067  28.494  36.205  1.00  0.00    -0.206 F 
ATOM     86  C   UNL A   1      42.897  25.427  36.776  1.00  0.00     0.022 A 
BRANCH  83  87
ATOM     87  S   UNL A   1      44.439  23.729  35.228  1.00  0.00     0.124 S 
ATOM     88  O   UNL A   1      44.795  23.330  36.584  1.00  0.00    -0.237 OA
ATOM     89  O   UNL A   1      43.473  22.873  34.545  1.00  0.00    -0.237 OA
ATOM     90  O   UNL A   1      45.544  24.202  34.398  1.00  0.00    -0.744 OA
ENDBRANCH  83  87
ENDBRANCH  66  80
BRANCH  67  91
ATOM     91  C   UNL A   1      42.593  23.000  27.168  1.00  0.00     0.023 A 
ATOM     92  C   UNL A   1      44.048  22.413  26.335  1.00  0.00     0.031 A 
ATOM     93  C   UNL A   1      41.181  21.923  27.111  1.00  0.00     0.131 A 
ATOM     94  C   UNL A   1      44.082  20.557  25.475  1.00  0.00     0.055 A 
ATOM     95  C   UNL A   1      41.148  20.299  26.339  1.00  0.00     0.041 A 
ATOM     96  F   UNL A   1      40.028  22.326  27.667  1.00  0.00    -0.206 F 
ATOM     97  C   UNL A   1      42.553  19.595  25.531  1.00  0.00     0.022 A 
BRANCH  94  98
ATOM     98  S   UNL A   1      45.345  19.345  24.466  1.00  0.00     0.124 S 
ATOM     99  O   UNL A   1      45.179  18.100  25.223  1.00  0.00    -0.237 OA
ATOM    100  O   UNL A   1      44.736  19.306  23.138  1.00  0.00    -0.237 OA
ATOM    101  O   UNL A   1      46.707  19.865  24.527  1.00  0.00    -0.744 OA
ENDBRANCH  94  98
ENDBRANCH  67  91
BRANCH  79 102
ATOM    102  C   UNL A   1      45.096  28.542  28.423  1.00  0.00     0.023 A 
ATOM    103  C   UNL A   1      46.464  28.596  28.159  1.00  0.00     0.031 A 
ATOM    104  C   UNL A   1      44.260  29.390  27.672  1.00  0.00     0.131 A 
ATOM    105  C   UNL A   1      46.976  29.529  27.254  1.00  0.00     0.055 A 
ATOM    106  C   UNL A   1      44.764  30.273  26.703  1.00  0.00     0.041 A 
ATOM    107  F   UNL A   1      42.949  29.457  27.914  1.00  0.00    -0.206 F 
ATOM    108  C   UNL A   1      46.137  30.362  26.508  1.00  0.00     0.022 A 
BRANCH 105 109
ATOM    109  S   UNL A   1      48.760  29.799  27.195  1.00  0.00     0.124 S 
ATOM    110  O   UNL A   1      48.861  31.043  26.438  1.00  0.00    -0.237 OA
ATOM    111  O   UNL A   1      49.098  29.894  28.613  1.00  0.00    -0.237 OA
ATOM    112  O   UNL A   1      49.272  28.612  26.516  1.00  0.00    -0.744 OA
ENDBRANCH 105 109
ENDBRANCH  79 102
ENDBRANCH  53  54
ENDBRANCH  46  48
ENDBRANCH  45  46
ENDBRANCH  44  45
ENDBRANCH  43  44
ENDBRANCH  42  43
ENDBRANCH  41  42
ENDBRANCH   1  41
TORSDOF 26
ENDMDL
MODEL 3
REMARK VINA RESULT:      -8.2      8.483     14.113
REMARK SMILES COc1ccc2c(c1)c(Cc1nc(-c3ccc(C(=O)OCCOCCOCCOC(=O)c4ccc(-c5c6nc(c(-c7cc(S(=O)(=O)[O-])ccc7F)c7ccc([nH]7)c(-c7cc(S(=O)(=O)[O-])ccc7F)c7nc(c(-c8cc(S(=O)(=O)[O-])ccc8F)c8ccc5[nH]8)C=C7)C=C6)cc4)cc3)cs1)c(C)n2C(=O)c1ccc(Cl)cc1
REMARK SMILES IDX 24 1 23 2 22 3 21 4 20 5 18 6 19 7 17 8 14 9 15 10 96 11
REMARK SMILES IDX 16 12 95 13 13 14 11 15 12 16 98 17 97 18 10 19 9 20 3 21
REMARK SMILES IDX 4 22 8 23 5 24 7 25 6 26 101 27 99 28 100 29 2 30 1 31
REMARK SMILES IDX 102 32 103 33 104 34 105 35 110 36 106 37 109 38 107 39
REMARK SMILES IDX 108 40 25 41 26 42 27 43 28 44 29 45 30 46 31 47 32 48 33 49
REMARK SMILES IDX 94 50 34 51 93 52 35 53 36 54 37 55 87 56 38 57 92 58 86 59
REMARK SMILES IDX 88 60 39 61 91 62 85 63 84 64 40 66 72 67 52 68 71 69 53 70
REMARK SMILES IDX 56 71 70 72 89 73 54 74 55 75 69 77 90 78 57 79 41 80 42 81
REMARK SMILES IDX 50 82 43 83 49 84 51 85 48 86 44 87 45 88 46 89 47 90 73 91
REMARK SMILES IDX 74 92 82 93 75 94 81 95 83 96 80 97 76 98 77 99 78 100
REMARK SMILES IDX 79 101 58 102 59 103 67 104 60 105 66 106 68 107 65 108
REMARK SMILES IDX 61 109 62 110 63 111 64 112
REMARK H PARENT 88 65 56 76
REMARK Flexibility Score: inf
ROOT
ATOM      1  C   UNL A   1      36.179  31.887  28.560  1.00  0.00     0.188 C 
ENDROOT
BRANCH   1   2
ATOM      2  O   UNL A   1      35.197  31.468  29.473  1.00  0.00    -0.376 OA
BRANCH   2   3
ATOM      3  C   UNL A   1      35.038  32.280  30.620  1.00  0.00     0.202 C 
BRANCH   3   4
ATOM      4  C   UNL A   1      35.527  33.754  30.671  1.00  0.00     0.261 C 
BRANCH   4   5
ATOM      5  O   UNL A   1      35.159  34.551  31.838  1.00  0.00    -0.460 OA
BRANCH   5   6
ATOM      6  C   UNL A   1      35.405  33.985  33.062  1.00  0.00     0.338 C 
ATOM      7  O   UNL A   1      34.531  33.519  33.779  1.00  0.00    -0.246 OA
BRANCH   6   8
ATOM      8  C   UNL A   1      36.869  33.704  33.332  1.00  0.00     0.060 A 
ATOM      9  C   UNL A   1      39.494  33.022  34.405  1.00  0.00     0.001 A 
ATOM     10  C   UNL A   1      38.410  32.183  34.471  1.00  0.00     0.011 A 
ATOM     11  C   UNL A   1      39.230  34.261  33.812  1.00  0.00     0.011 A 
ATOM     12  C   UNL A   1      37.164  32.476  33.903  1.00  0.00     0.016 A 
ATOM     13  C   UNL A   1      37.925  34.609  33.292  1.00  0.00     0.016 A 
BRANCH   9  14
ATOM     14  C   UNL A   1      40.728  32.553  35.066  1.00  0.00     0.081 A 
ATOM     15  C   UNL A   1      42.830  32.735  35.773  1.00  0.00     0.098 A 
ATOM     16  N   UNL A   1      41.973  33.089  34.823  1.00  0.00    -0.241 NA
ATOM     17  S   UNL A   1      42.270  31.509  36.838  1.00  0.00    -0.126 S 
ATOM     18  C   UNL A   1      40.735  31.615  36.092  1.00  0.00     0.095 A 
BRANCH  15  19
ATOM     19  C   UNL A   1      44.198  33.334  36.007  1.00  0.00     0.105 C 
BRANCH  19  20
ATOM     20  C   UNL A   1      44.138  34.827  36.190  1.00  0.00    -0.012 A 
ATOM     21  C   UNL A   1      42.346  35.650  40.240  1.00  0.00     0.119 A 
ATOM     22  C   UNL A   1      42.356  37.390  40.041  1.00  0.00     0.048 A 
ATOM     23  C   UNL A   1      43.022  34.701  38.937  1.00  0.00     0.057 A 
ATOM     24  C   UNL A   1      43.155  38.184  38.359  1.00  0.00     0.031 A 
ATOM     25  C   UNL A   1      43.682  35.387  37.399  1.00  0.00     0.008 A 
ATOM     26  C   UNL A   1      43.749  37.065  37.086  1.00  0.00     0.057 A 
ATOM     27  N   UNL A   1      44.005  37.166  35.716  1.00  0.00    -0.280 N 
ATOM     28  C   UNL A   1      44.223  35.848  35.215  1.00  0.00     0.028 A 
ATOM     29  C   UNL A   1      44.294  35.549  33.743  1.00  0.00     0.065 C 
BRANCH  21  30
ATOM     30  O   UNL A   1      41.964  35.043  41.400  1.00  0.00    -0.497 OA
ATOM     31  C   UNL A   1      43.009  35.021  42.368  1.00  0.00     0.278 C 
ENDBRANCH  21  30
BRANCH  27  32
ATOM     32  C   UNL A   1      43.880  38.396  34.970  1.00  0.00     0.262 C 
ATOM     33  O   UNL A   1      42.877  38.605  34.288  1.00  0.00    -0.268 OA
BRANCH  32  34
ATOM     34  C   UNL A   1      44.851  39.524  34.966  1.00  0.00     0.040 A 
ATOM     35  C   UNL A   1      45.107  40.280  36.116  1.00  0.00     0.015 A 
ATOM     36  C   UNL A   1      45.533  39.825  33.775  1.00  0.00     0.015 A 
ATOM     37  C   UNL A   1      45.924  41.420  36.035  1.00  0.00     0.021 A 
ATOM     38  C   UNL A   1      46.370  40.945  33.705  1.00  0.00     0.021 A 
ATOM     39  C   UNL A   1      46.532  41.758  34.825  1.00  0.00     0.041 A 
ATOM     40  Cl  UNL A   1      47.461  43.203  34.702  1.00  0.00    -0.084 Cl
ENDBRANCH  32  34
ENDBRANCH  27  32
ENDBRANCH  19  20
ENDBRANCH  15  19
ENDBRANCH   9  14
ENDBRANCH   6   8
ENDBRANCH   5   6
ENDBRANCH   4   5
ENDBRANCH   3   4
ENDBRANCH   2   3
ENDBRANCH   1   2
BRANCH   1  41
ATOM     41  C   UNL A   1      37.192  30.808  28.096  1.00  0.00     0.188 C 
BRANCH  41  42
ATOM     42  O   UNL A   1      37.739  29.938  29.056  1.00  0.00    -0.376 OA
BRANCH  42  43
ATOM     43  C   UNL A   1      38.933  30.400  29.654  1.00  0.00     0.202 C 
BRANCH  43  44
ATOM     44  C   UNL A   1      38.890  31.372  30.875  1.00  0.00     0.261 C 
BRANCH  44  45
ATOM     45  O   UNL A   1      39.431  32.724  30.700  1.00  0.00    -0.460 OA
BRANCH  45  46
ATOM     46  C   UNL A   1      40.785  32.923  30.843  1.00  0.00     0.338 C 
ATOM     47  O   UNL A   1      41.596  32.032  31.049  1.00  0.00    -0.246 OA
BRANCH  46  48
ATOM     48  C   UNL A   1      41.187  34.290  30.303  1.00  0.00     0.060 A 
ATOM     49  C   UNL A   1      40.624  34.940  29.197  1.00  0.00     0.016 A 
ATOM     50  C   UNL A   1      42.375  34.826  30.790  1.00  0.00     0.016 A 
ATOM     51  C   UNL A   1      41.400  35.884  28.423  1.00  0.00     0.010 A 
ATOM     52  C   UNL A   1      43.068  35.816  30.058  1.00  0.00     0.010 A 
ATOM     53  C   UNL A   1      42.734  36.223  28.750  1.00  0.00    -0.014 A 
BRANCH  53  54
ATOM     54  C   UNL A   1      43.612  37.302  28.015  1.00  0.00     0.031 A 
ATOM     55  C   UNL A   1      44.913  36.620  27.829  1.00  0.00     0.074 A 
ATOM     56  C   UNL A   1      43.495  38.595  27.483  1.00  0.00     0.049 A 
ATOM     57  N   UNL A   1      45.889  36.708  28.674  1.00  0.00    -0.248 NA
ATOM     58  C   UNL A   1      45.030  35.489  26.899  1.00  0.00     0.031 C 
ATOM     59  C   UNL A   1      42.419  39.589  27.553  1.00  0.00     0.029 A 
ATOM     60  N   UNL A   1      44.381  39.373  26.689  1.00  0.00    -0.354 N 
ATOM     61  C   UNL A   1      46.875  35.885  28.158  1.00  0.00     0.074 A 
ATOM     62  C   UNL A   1      46.191  34.963  27.294  1.00  0.00     0.031 C 
ATOM     63  C   UNL A   1      42.461  40.548  26.592  1.00  0.00     0.029 A 
ATOM     64  C   UNL A   1      43.768  40.490  25.964  1.00  0.00     0.049 A 
ATOM     65  H   UNL A   1      45.343  39.174  26.631  1.00  0.00     0.167 HD
ATOM     66  C   UNL A   1      48.170  36.307  28.167  1.00  0.00     0.034 A 
ATOM     67  C   UNL A   1      44.314  41.614  25.350  1.00  0.00     0.034 A 
ATOM     68  C   UNL A   1      48.310  37.448  29.050  1.00  0.00     0.049 A 
ATOM     69  C   UNL A   1      45.676  41.762  25.848  1.00  0.00     0.074 A 
ATOM     70  C   UNL A   1      48.248  37.695  30.405  1.00  0.00     0.029 A 
ATOM     71  N   UNL A   1      48.035  38.633  28.426  1.00  0.00    -0.354 N 
ATOM     72  N   UNL A   1      45.933  42.116  27.072  1.00  0.00    -0.248 NA
ATOM     73  C   UNL A   1      46.645  40.933  25.170  1.00  0.00     0.031 C 
ATOM     74  C   UNL A   1      47.680  39.001  30.545  1.00  0.00     0.029 A 
ATOM     75  C   UNL A   1      47.521  39.564  29.280  1.00  0.00     0.049 A 
ATOM     76  H   UNL A   1      48.192  38.797  27.468  1.00  0.00     0.167 HD
ATOM     77  C   UNL A   1      46.832  41.154  27.491  1.00  0.00     0.074 A 
ATOM     78  C   UNL A   1      47.279  40.488  26.255  1.00  0.00     0.031 C 
ATOM     79  C   UNL A   1      46.864  40.762  28.799  1.00  0.00     0.034 A 
BRANCH  66  80
ATOM     80  C   UNL A   1      49.107  36.067  26.993  1.00  0.00     0.023 A 
ATOM     81  C   UNL A   1      50.219  35.197  27.030  1.00  0.00     0.031 A 
ATOM     82  C   UNL A   1      48.779  36.564  25.717  1.00  0.00     0.131 A 
ATOM     83  C   UNL A   1      50.978  34.900  25.890  1.00  0.00     0.055 A 
ATOM     84  C   UNL A   1      49.494  36.217  24.562  1.00  0.00     0.041 A 
ATOM     85  F   UNL A   1      47.721  37.372  25.547  1.00  0.00    -0.206 F 
ATOM     86  C   UNL A   1      50.607  35.387  24.644  1.00  0.00     0.022 A 
BRANCH  83  87
ATOM     87  S   UNL A   1      52.470  33.871  26.017  1.00  0.00     0.124 S 
ATOM     88  O   UNL A   1      53.505  34.864  26.276  1.00  0.00    -0.237 OA
ATOM     89  O   UNL A   1      52.127  33.001  27.139  1.00  0.00    -0.237 OA
ATOM     90  O   UNL A   1      52.541  33.208  24.717  1.00  0.00    -0.744 OA
ENDBRANCH  83  87
ENDBRANCH  66  80
BRANCH  67  91
ATOM     91  C   UNL A   1      43.943  42.320  24.069  1.00  0.00     0.023 A 
ATOM     92  C   UNL A   1      45.263  43.226  23.299  1.00  0.00     0.031 A 
ATOM     93  C   UNL A   1      42.343  42.494  23.317  1.00  0.00     0.131 A 
ATOM     94  C   UNL A   1      44.933  44.299  21.589  1.00  0.00     0.055 A 
ATOM     95  C   UNL A   1      41.994  43.451  21.835  1.00  0.00     0.041 A 
ATOM     96  F   UNL A   1      41.287  41.886  23.879  1.00  0.00    -0.206 F 
ATOM     97  C   UNL A   1      43.240  44.346  20.959  1.00  0.00     0.022 A 
BRANCH  94  98
ATOM     98  S   UNL A   1      45.941  45.452  20.270  1.00  0.00     0.124 S 
ATOM     99  O   UNL A   1      47.194  45.659  21.002  1.00  0.00    -0.237 OA
ATOM    100  O   UNL A   1      46.076  44.555  19.122  1.00  0.00    -0.237 OA
ATOM    101  O   UNL A   1      45.218  46.695  20.024  1.00  0.00    -0.744 OA
ENDBRANCH  94  98
ENDBRANCH  67  91
BRANCH  79 102
ATOM    102  C   UNL A   1      46.140  41.597  29.832  1.00  0.00     0.023 A 
ATOM    103  C   UNL A   1      44.970  41.031  30.337  1.00  0.00     0.031 A 
ATOM    104  C   UNL A   1      46.391  42.946  30.149  1.00  0.00     0.131 A 
ATOM    105  C   UNL A   1      44.051  41.810  31.042  1.00  0.00     0.055 A 
ATOM    106  C   UNL A   1      45.507  43.711  30.927  1.00  0.00     0.041 A 
ATOM    107  F   UNL A   1      47.447  43.587  29.645  1.00  0.00    -0.206 F 
ATOM    108  C   UNL A   1      44.313  43.146  31.359  1.00  0.00     0.022 A 
BRANCH 105 109
ATOM    109  S   UNL A   1      42.410  41.134  31.378  1.00  0.00     0.124 S 
ATOM    110  O   UNL A   1      42.211  41.484  32.781  1.00  0.00    -0.237 OA
ATOM    111  O   UNL A   1      41.581  41.864  30.422  1.00  0.00    -0.237 OA
ATOM    112  O   UNL A   1      42.556  39.707  31.105  1.00  0.00    -0.744 OA
ENDBRANCH 105 109
ENDBRANCH  79 102
ENDBRANCH  53  54
ENDBRANCH  46  48
ENDBRANCH  45  46
ENDBRANCH  44  45
ENDBRANCH  43  44
ENDBRANCH  42  43
ENDBRANCH  41  42
ENDBRANCH   1  41
TORSDOF 26
ENDMDL
