MODEL 1
REMARK VINA RESULT:     -10.8      0.000      0.000
REMARK SMILES O=C(OCCOCCOCCOC(=O)c1ccc(-c2c3nc(c(-c4cc(S(=O)(=O)[O-])ccc4F)c4ccc([nH]4)c(-c4cc(S(=O)(=O)[O-])ccc4F)c4nc(c(-c5cc(S(=O)(=O)[O-])ccc5F)c5ccc2[nH]5)C=C4)C=C3)cc1)C1=Cc2cc(C(F)(F)F)ccc2O[C@@H]1C(F)(F)F
REMARK SMILES IDX 8 1 7 2 6 3 5 4 4 5 3 6 2 7 1 8 78 9 79 10 91 11 80 12 90 13
REMARK SMILES IDX 81 14 89 15 82 16 88 17 87 18 92 19 93 20 94 21 95 22 83 23
REMARK SMILES IDX 84 24 85 25 86 26 9 27 10 28 11 29 12 30 13 31 14 32 15 33
REMARK SMILES IDX 16 34 77 35 17 36 76 37 18 38 19 39 20 40 70 41 21 42 75 43
REMARK SMILES IDX 69 44 71 45 22 46 74 47 68 48 67 49 23 51 55 52 35 53 54 54
REMARK SMILES IDX 36 55 39 56 53 57 72 58 37 59 38 60 52 62 73 63 40 64 24 65
REMARK SMILES IDX 25 66 33 67 26 68 32 69 34 70 31 71 27 72 28 73 29 74 30 75
REMARK SMILES IDX 56 76 57 77 65 78 58 79 64 80 66 81 63 82 59 83 60 84 61 85
REMARK SMILES IDX 62 86 41 87 42 88 50 89 43 90 49 91 51 92 48 93 44 94 45 95
REMARK SMILES IDX 46 96 47 97
REMARK H PARENT 71 50 39 61
REMARK Flexibility Score: inf
ROOT
ATOM      1  C   UNL A   1      35.808  19.961  25.133  1.00  0.00     0.188 C 
ENDROOT
BRANCH   1   2
ATOM      2  C   UNL A   1      34.743  21.063  25.256  1.00  0.00     0.188 C 
BRANCH   2   3
ATOM      3  O   UNL A   1      34.924  22.414  24.628  1.00  0.00    -0.376 OA
BRANCH   3   4
ATOM      4  C   UNL A   1      34.828  22.817  22.936  1.00  0.00     0.202 C 
BRANCH   4   5
ATOM      5  C   UNL A   1      33.631  24.464  22.169  1.00  0.00     0.261 C 
BRANCH   5   6
ATOM      6  O   UNL A   1      32.122  24.502  22.058  1.00  0.00    -0.460 OA
BRANCH   6   7
ATOM      7  C   UNL A   1      31.599  25.469  22.826  1.00  0.00     0.338 C 
ATOM      8  O   UNL A   1      31.061  26.485  22.462  1.00  0.00    -0.246 OA
BRANCH   7   9
ATOM      9  C   UNL A   1      32.340  25.164  24.044  1.00  0.00     0.087 C 
ATOM     10  C   UNL A   1      33.340  26.135  24.457  1.00  0.00     0.027 C 
ATOM     11  C   UNL A   1      30.736  24.780  25.012  1.00  0.00     0.316 C 
ATOM     12  C   UNL A   1      33.106  27.335  25.759  1.00  0.00     0.018 A 
ATOM     13  O   UNL A   1      30.349  26.199  26.306  1.00  0.00    -0.475 OA
ATOM     14  C   UNL A   1      34.129  28.184  26.059  1.00  0.00     0.025 A 
ATOM     15  C   UNL A   1      31.635  27.461  26.653  1.00  0.00     0.128 A 
ATOM     16  C   UNL A   1      33.899  29.063  27.141  1.00  0.00     0.056 A 
ATOM     17  C   UNL A   1      31.468  28.329  27.693  1.00  0.00     0.048 A 
ATOM     18  C   UNL A   1      32.637  29.117  27.912  1.00  0.00     0.017 A 
BRANCH  11  19
ATOM     19  C   UNL A   1      31.186  23.151  25.232  1.00  0.00     0.430 C 
ATOM     20  F   UNL A   1      31.520  22.381  24.191  1.00  0.00    -0.167 F 
ATOM     21  F   UNL A   1      32.201  23.084  26.126  1.00  0.00    -0.167 F 
ATOM     22  F   UNL A   1      30.162  22.441  25.804  1.00  0.00    -0.167 F 
ENDBRANCH  11  19
BRANCH  16  23
ATOM     23  C   UNL A   1      35.084  29.946  27.513  1.00  0.00     0.416 C 
ATOM     24  F   UNL A   1      36.210  29.610  26.820  1.00  0.00    -0.166 F 
ATOM     25  F   UNL A   1      34.858  31.260  27.223  1.00  0.00    -0.166 F 
ATOM     26  F   UNL A   1      35.423  29.906  28.827  1.00  0.00    -0.166 F 
ENDBRANCH  16  23
ENDBRANCH   7   9
ENDBRANCH   6   7
ENDBRANCH   5   6
ENDBRANCH   4   5
ENDBRANCH   3   4
ENDBRANCH   2   3
ENDBRANCH   1   2
BRANCH   1  27
ATOM     27  O   UNL A   1      37.001  20.261  24.450  1.00  0.00    -0.376 OA
BRANCH  27  28
ATOM     28  C   UNL A   1      38.084  20.636  25.290  1.00  0.00     0.202 C 
BRANCH  28  29
ATOM     29  C   UNL A   1      39.081  19.539  25.717  1.00  0.00     0.261 C 
BRANCH  29  30
ATOM     30  O   UNL A   1      40.443  19.994  25.917  1.00  0.00    -0.460 OA
BRANCH  30  31
ATOM     31  C   UNL A   1      40.844  20.272  27.187  1.00  0.00     0.338 C 
ATOM     32  O   UNL A   1      40.920  19.487  28.117  1.00  0.00    -0.246 OA
BRANCH  31  33
ATOM     33  C   UNL A   1      41.313  21.676  27.266  1.00  0.00     0.060 A 
ATOM     34  C   UNL A   1      41.915  22.165  28.438  1.00  0.00     0.016 A 
ATOM     35  C   UNL A   1      41.127  22.525  26.177  1.00  0.00     0.016 A 
ATOM     36  C   UNL A   1      42.407  23.479  28.487  1.00  0.00     0.010 A 
ATOM     37  C   UNL A   1      41.565  23.853  26.250  1.00  0.00     0.010 A 
ATOM     38  C   UNL A   1      42.219  24.339  27.397  1.00  0.00    -0.014 A 
BRANCH  38  39
ATOM     39  C   UNL A   1      42.538  25.790  27.490  1.00  0.00     0.031 A 
ATOM     40  C   UNL A   1      43.878  26.249  26.987  1.00  0.00     0.074 A 
ATOM     41  C   UNL A   1      41.694  26.670  28.064  1.00  0.00     0.049 A 
ATOM     42  N   UNL A   1      44.453  27.415  27.108  1.00  0.00    -0.248 NA
ATOM     43  C   UNL A   1      44.683  25.250  26.266  1.00  0.00     0.031 C 
ATOM     44  C   UNL A   1      40.353  26.353  28.547  1.00  0.00     0.029 A 
ATOM     45  N   UNL A   1      41.845  28.005  28.363  1.00  0.00    -0.354 N 
ATOM     46  C   UNL A   1      45.697  27.285  26.504  1.00  0.00     0.074 A 
ATOM     47  C   UNL A   1      45.793  25.927  26.015  1.00  0.00     0.031 C 
ATOM     48  C   UNL A   1      39.809  27.455  29.095  1.00  0.00     0.029 A 
ATOM     49  C   UNL A   1      40.785  28.543  29.066  1.00  0.00     0.049 A 
ATOM     50  H   UNL A   1      42.636  28.530  28.100  1.00  0.00     0.167 HD
ATOM     51  C   UNL A   1      46.677  28.213  26.391  1.00  0.00     0.034 A 
ATOM     52  C   UNL A   1      40.643  29.749  29.662  1.00  0.00     0.034 A 
ATOM     53  C   UNL A   1      46.572  29.556  26.901  1.00  0.00     0.049 A 
ATOM     54  C   UNL A   1      41.795  30.736  29.589  1.00  0.00     0.074 A 
ATOM     55  C   UNL A   1      47.495  30.582  26.799  1.00  0.00     0.029 A 
ATOM     56  N   UNL A   1      45.502  30.052  27.632  1.00  0.00    -0.354 N 
ATOM     57  N   UNL A   1      42.952  30.612  28.979  1.00  0.00    -0.248 NA
ATOM     58  C   UNL A   1      41.630  32.016  30.295  1.00  0.00     0.031 C 
ATOM     59  C   UNL A   1      47.033  31.659  27.557  1.00  0.00     0.029 A 
ATOM     60  C   UNL A   1      45.771  31.348  28.040  1.00  0.00     0.049 A 
ATOM     61  H   UNL A   1      44.675  29.555  27.831  1.00  0.00     0.167 HD
ATOM     62  C   UNL A   1      43.635  31.805  29.209  1.00  0.00     0.074 A 
ATOM     63  C   UNL A   1      42.753  32.647  29.987  1.00  0.00     0.031 C 
ATOM     64  C   UNL A   1      44.882  32.173  28.819  1.00  0.00     0.034 A 
BRANCH  51  65
ATOM     65  C   UNL A   1      47.980  27.795  25.761  1.00  0.00     0.023 A 
ATOM     66  C   UNL A   1      48.182  27.813  24.373  1.00  0.00     0.031 A 
ATOM     67  C   UNL A   1      49.053  27.404  26.583  1.00  0.00     0.131 A 
ATOM     68  C   UNL A   1      49.420  27.418  23.845  1.00  0.00     0.055 A 
ATOM     69  C   UNL A   1      50.306  27.087  26.058  1.00  0.00     0.041 A 
ATOM     70  F   UNL A   1      48.903  27.336  27.916  1.00  0.00    -0.206 F 
ATOM     71  C   UNL A   1      50.492  27.087  24.679  1.00  0.00     0.022 A 
BRANCH  68  72
ATOM     72  S   UNL A   1      49.583  27.237  22.049  1.00  0.00     0.124 S 
ATOM     73  O   UNL A   1      49.214  28.572  21.583  1.00  0.00    -0.237 OA
ATOM     74  O   UNL A   1      50.986  26.871  21.893  1.00  0.00    -0.237 OA
ATOM     75  O   UNL A   1      48.624  26.184  21.722  1.00  0.00    -0.744 OA
ENDBRANCH  68  72
ENDBRANCH  51  65
BRANCH  52  76
ATOM     76  C   UNL A   1      39.424  30.087  30.467  1.00  0.00     0.023 A 
ATOM     77  C   UNL A   1      38.479  31.023  30.011  1.00  0.00     0.031 A 
ATOM     78  C   UNL A   1      39.250  29.573  31.766  1.00  0.00     0.131 A 
ATOM     79  C   UNL A   1      37.460  31.471  30.869  1.00  0.00     0.055 A 
ATOM     80  C   UNL A   1      38.184  29.957  32.583  1.00  0.00     0.041 A 
ATOM     81  F   UNL A   1      40.131  28.697  32.277  1.00  0.00    -0.206 F 
ATOM     82  C   UNL A   1      37.291  30.928  32.142  1.00  0.00     0.022 A 
BRANCH  79  83
ATOM     83  S   UNL A   1      36.461  32.903  30.363  1.00  0.00     0.124 S 
ATOM     84  O   UNL A   1      35.125  32.489  30.778  1.00  0.00    -0.237 OA
ATOM     85  O   UNL A   1      37.067  33.984  31.132  1.00  0.00    -0.237 OA
ATOM     86  O   UNL A   1      36.672  32.972  28.918  1.00  0.00    -0.744 OA
ENDBRANCH  79  83
ENDBRANCH  52  76
BRANCH  64  87
ATOM     87  C   UNL A   1      45.352  33.559  29.192  1.00  0.00     0.023 A 
ATOM     88  C   UNL A   1      45.136  34.665  28.354  1.00  0.00     0.031 A 
ATOM     89  C   UNL A   1      46.006  33.777  30.419  1.00  0.00     0.131 A 
ATOM     90  C   UNL A   1      45.612  35.930  28.729  1.00  0.00     0.055 A 
ATOM     91  C   UNL A   1      46.409  35.050  30.822  1.00  0.00     0.041 A 
ATOM     92  F   UNL A   1      46.245  32.757  31.258  1.00  0.00    -0.206 F 
ATOM     93  C   UNL A   1      46.223  36.135  29.970  1.00  0.00     0.022 A 
BRANCH  90  94
ATOM     94  S   UNL A   1      45.507  37.290  27.535  1.00  0.00     0.124 S 
ATOM     95  O   UNL A   1      46.281  38.335  28.199  1.00  0.00    -0.237 OA
ATOM     96  O   UNL A   1      46.112  36.709  26.342  1.00  0.00    -0.237 OA
ATOM     97  O   UNL A   1      44.072  37.551  27.437  1.00  0.00    -0.744 OA
ENDBRANCH  90  94
ENDBRANCH  64  87
ENDBRANCH  38  39
ENDBRANCH  31  33
ENDBRANCH  30  31
ENDBRANCH  29  30
ENDBRANCH  28  29
ENDBRANCH  27  28
ENDBRANCH   1  27
TORSDOF 22
ENDMDL
MODEL 2
REMARK VINA RESULT:     -10.7      4.621      9.334
REMARK SMILES O=C(OCCOCCOCCOC(=O)c1ccc(-c2c3nc(c(-c4cc(S(=O)(=O)[O-])ccc4F)c4ccc([nH]4)c(-c4cc(S(=O)(=O)[O-])ccc4F)c4nc(c(-c5cc(S(=O)(=O)[O-])ccc5F)c5ccc2[nH]5)C=C4)C=C3)cc1)C1=Cc2cc(C(F)(F)F)ccc2O[C@@H]1C(F)(F)F
REMARK SMILES IDX 8 1 7 2 6 3 5 4 4 5 3 6 2 7 1 8 78 9 79 10 91 11 80 12 90 13
REMARK SMILES IDX 81 14 89 15 82 16 88 17 87 18 92 19 93 20 94 21 95 22 83 23
REMARK SMILES IDX 84 24 85 25 86 26 9 27 10 28 11 29 12 30 13 31 14 32 15 33
REMARK SMILES IDX 16 34 77 35 17 36 76 37 18 38 19 39 20 40 70 41 21 42 75 43
REMARK SMILES IDX 69 44 71 45 22 46 74 47 68 48 67 49 23 51 55 52 35 53 54 54
REMARK SMILES IDX 36 55 39 56 53 57 72 58 37 59 38 60 52 62 73 63 40 64 24 65
REMARK SMILES IDX 25 66 33 67 26 68 32 69 34 70 31 71 27 72 28 73 29 74 30 75
REMARK SMILES IDX 56 76 57 77 65 78 58 79 64 80 66 81 63 82 59 83 60 84 61 85
REMARK SMILES IDX 62 86 41 87 42 88 50 89 43 90 49 91 51 92 48 93 44 94 45 95
REMARK SMILES IDX 46 96 47 97
REMARK H PARENT 71 50 39 61
REMARK Flexibility Score: inf
ROOT
ATOM      1  C   UNL A   1      34.600  33.865  29.665  1.00  0.00     0.188 C 
ENDROOT
BRANCH   1   2
ATOM      2  C   UNL A   1      33.711  33.877  28.411  1.00  0.00     0.188 C 
BRANCH   2   3
ATOM      3  O   UNL A   1      33.269  32.609  27.740  1.00  0.00    -0.376 OA
BRANCH   3   4
ATOM      4  C   UNL A   1      34.143  31.106  27.635  1.00  0.00     0.202 C 
BRANCH   4   5
ATOM      5  C   UNL A   1      33.183  29.193  27.245  1.00  0.00     0.261 C 
BRANCH   5   6
ATOM      6  O   UNL A   1      31.917  28.969  26.447  1.00  0.00    -0.460 OA
BRANCH   6   7
ATOM      7  C   UNL A   1      31.552  27.679  26.460  1.00  0.00     0.338 C 
ATOM      8  O   UNL A   1      31.397  26.970  27.423  1.00  0.00    -0.246 OA
BRANCH   7   9
ATOM      9  C   UNL A   1      31.937  27.359  25.091  1.00  0.00     0.087 C 
ATOM     10  C   UNL A   1      33.233  26.727  24.911  1.00  0.00     0.027 C 
ATOM     11  C   UNL A   1      30.259  26.513  24.737  1.00  0.00     0.316 C 
ATOM     12  C   UNL A   1      33.474  24.981  24.622  1.00  0.00     0.018 A 
ATOM     13  O   UNL A   1      30.471  24.569  24.626  1.00  0.00    -0.475 OA
ATOM     14  C   UNL A   1      34.744  24.513  24.457  1.00  0.00     0.025 A 
ATOM     15  C   UNL A   1      32.162  23.862  24.542  1.00  0.00     0.128 A 
ATOM     16  C   UNL A   1      34.857  23.135  24.167  1.00  0.00     0.056 A 
ATOM     17  C   UNL A   1      32.329  22.538  24.257  1.00  0.00     0.048 A 
ATOM     18  C   UNL A   1      33.705  22.212  24.069  1.00  0.00     0.017 A 
BRANCH  11  19
ATOM     19  C   UNL A   1      29.856  27.671  23.552  1.00  0.00     0.430 C 
ATOM     20  F   UNL A   1      29.844  28.976  23.839  1.00  0.00    -0.167 F 
ATOM     21  F   UNL A   1      30.655  27.501  22.472  1.00  0.00    -0.167 F 
ATOM     22  F   UNL A   1      28.583  27.461  23.088  1.00  0.00    -0.167 F 
ENDBRANCH  11  19
BRANCH  16  23
ATOM     23  C   UNL A   1      36.278  22.649  23.906  1.00  0.00     0.416 C 
ATOM     24  F   UNL A   1      37.196  23.332  24.647  1.00  0.00    -0.166 F 
ATOM     25  F   UNL A   1      36.442  21.337  24.240  1.00  0.00    -0.166 F 
ATOM     26  F   UNL A   1      36.678  22.760  22.612  1.00  0.00    -0.166 F 
ENDBRANCH  16  23
ENDBRANCH   7   9
ENDBRANCH   6   7
ENDBRANCH   5   6
ENDBRANCH   4   5
ENDBRANCH   3   4
ENDBRANCH   2   3
ENDBRANCH   1   2
BRANCH   1  27
ATOM     27  O   UNL A   1      34.234  33.025  30.733  1.00  0.00    -0.376 OA
BRANCH  27  28
ATOM     28  C   UNL A   1      35.243  32.107  31.134  1.00  0.00     0.202 C 
BRANCH  28  29
ATOM     29  C   UNL A   1      36.593  32.147  30.390  1.00  0.00     0.261 C 
BRANCH  29  30
ATOM     30  O   UNL A   1      37.742  32.448  31.221  1.00  0.00    -0.460 OA
BRANCH  30  31
ATOM     31  C   UNL A   1      37.987  33.751  31.524  1.00  0.00     0.338 C 
ATOM     32  O   UNL A   1      37.380  34.441  32.325  1.00  0.00    -0.246 OA
BRANCH  31  33
ATOM     33  C   UNL A   1      39.212  34.205  30.821  1.00  0.00     0.060 A 
ATOM     34  C   UNL A   1      39.162  34.587  29.470  1.00  0.00     0.016 A 
ATOM     35  C   UNL A   1      40.428  34.221  31.502  1.00  0.00     0.016 A 
ATOM     36  C   UNL A   1      40.313  35.068  28.826  1.00  0.00     0.010 A 
ATOM     37  C   UNL A   1      41.586  34.645  30.840  1.00  0.00     0.010 A 
ATOM     38  C   UNL A   1      41.540  35.083  29.504  1.00  0.00    -0.014 A 
BRANCH  38  39
ATOM     39  C   UNL A   1      42.813  35.386  28.795  1.00  0.00     0.031 A 
ATOM     40  C   UNL A   1      43.696  34.231  28.410  1.00  0.00     0.074 A 
ATOM     41  C   UNL A   1      43.212  36.651  28.556  1.00  0.00     0.049 A 
ATOM     42  N   UNL A   1      44.915  34.241  27.943  1.00  0.00    -0.248 NA
ATOM     43  C   UNL A   1      43.130  32.885  28.595  1.00  0.00     0.031 C 
ATOM     44  C   UNL A   1      42.425  37.846  28.841  1.00  0.00     0.029 A 
ATOM     45  N   UNL A   1      44.390  37.146  28.041  1.00  0.00    -0.354 N 
ATOM     46  C   UNL A   1      45.275  32.906  27.804  1.00  0.00     0.074 A 
ATOM     47  C   UNL A   1      44.144  32.114  28.234  1.00  0.00     0.031 C 
ATOM     48  C   UNL A   1      43.142  38.936  28.514  1.00  0.00     0.029 A 
ATOM     49  C   UNL A   1      44.469  38.524  28.057  1.00  0.00     0.049 A 
ATOM     50  H   UNL A   1      45.109  36.570  27.692  1.00  0.00     0.167 HD
ATOM     51  C   UNL A   1      46.453  32.394  27.375  1.00  0.00     0.034 A 
ATOM     52  C   UNL A   1      45.506  39.350  27.790  1.00  0.00     0.034 A 
ATOM     53  C   UNL A   1      47.577  33.198  26.968  1.00  0.00     0.049 A 
ATOM     54  C   UNL A   1      46.839  38.741  27.396  1.00  0.00     0.074 A 
ATOM     55  C   UNL A   1      48.799  32.772  26.480  1.00  0.00     0.029 A 
ATOM     56  N   UNL A   1      47.631  34.583  27.030  1.00  0.00    -0.354 N 
ATOM     57  N   UNL A   1      47.152  37.475  27.229  1.00  0.00    -0.248 NA
ATOM     58  C   UNL A   1      47.961  39.664  27.167  1.00  0.00     0.031 C 
ATOM     59  C   UNL A   1      49.627  33.888  26.350  1.00  0.00     0.029 A 
ATOM     60  C   UNL A   1      48.888  35.022  26.648  1.00  0.00     0.049 A 
ATOM     61  H   UNL A   1      46.887  35.167  27.305  1.00  0.00     0.167 HD
ATOM     62  C   UNL A   1      48.494  37.459  26.854  1.00  0.00     0.074 A 
ATOM     63  C   UNL A   1      48.925  38.838  26.789  1.00  0.00     0.031 C 
ATOM     64  C   UNL A   1      49.304  36.401  26.592  1.00  0.00     0.034 A 
BRANCH  51  65
ATOM     65  C   UNL A   1      46.625  30.897  27.397  1.00  0.00     0.023 A 
ATOM     66  C   UNL A   1      46.352  30.095  26.278  1.00  0.00     0.031 A 
ATOM     67  C   UNL A   1      47.109  30.271  28.560  1.00  0.00     0.131 A 
ATOM     68  C   UNL A   1      46.537  28.707  26.356  1.00  0.00     0.055 A 
ATOM     69  C   UNL A   1      47.364  28.901  28.607  1.00  0.00     0.041 A 
ATOM     70  F   UNL A   1      47.352  30.988  29.670  1.00  0.00    -0.206 F 
ATOM     71  C   UNL A   1      47.073  28.110  27.501  1.00  0.00     0.022 A 
BRANCH  68  72
ATOM     72  S   UNL A   1      45.969  27.674  24.979  1.00  0.00     0.124 S 
ATOM     73  O   UNL A   1      46.610  28.324  23.838  1.00  0.00    -0.237 OA
ATOM     74  O   UNL A   1      46.485  26.358  25.336  1.00  0.00    -0.237 OA
ATOM     75  O   UNL A   1      44.515  27.808  25.027  1.00  0.00    -0.744 OA
ENDBRANCH  68  72
ENDBRANCH  51  65
BRANCH  52  76
ATOM     76  C   UNL A   1      45.392  40.834  27.971  1.00  0.00     0.023 A 
ATOM     77  C   UNL A   1      45.222  41.408  29.243  1.00  0.00     0.031 A 
ATOM     78  C   UNL A   1      45.322  41.696  26.859  1.00  0.00     0.131 A 
ATOM     79  C   UNL A   1      44.914  42.774  29.365  1.00  0.00     0.055 A 
ATOM     80  C   UNL A   1      45.103  43.069  26.992  1.00  0.00     0.041 A 
ATOM     81  F   UNL A   1      45.447  41.211  25.612  1.00  0.00    -0.206 F 
ATOM     82  C   UNL A   1      44.877  43.613  28.251  1.00  0.00     0.022 A 
BRANCH  79  83
ATOM     83  S   UNL A   1      44.389  43.408  30.985  1.00  0.00     0.124 S 
ATOM     84  O   UNL A   1      43.413  44.422  30.601  1.00  0.00    -0.237 OA
ATOM     85  O   UNL A   1      43.853  42.210  31.622  1.00  0.00    -0.237 OA
ATOM     86  O   UNL A   1      45.627  43.922  31.568  1.00  0.00    -0.744 OA
ENDBRANCH  79  83
ENDBRANCH  52  76
BRANCH  64  87
ATOM     87  C   UNL A   1      50.724  36.693  26.172  1.00  0.00     0.023 A 
ATOM     88  C   UNL A   1      51.752  36.872  27.113  1.00  0.00     0.031 A 
ATOM     89  C   UNL A   1      51.057  36.770  24.807  1.00  0.00     0.131 A 
ATOM     90  C   UNL A   1      53.053  37.166  26.679  1.00  0.00     0.055 A 
ATOM     91  C   UNL A   1      52.367  36.988  24.379  1.00  0.00     0.041 A 
ATOM     92  F   UNL A   1      50.115  36.615  23.864  1.00  0.00    -0.206 F 
ATOM     93  C   UNL A   1      53.373  37.199  25.318  1.00  0.00     0.022 A 
BRANCH  90  94
ATOM     94  S   UNL A   1      54.307  37.599  27.915  1.00  0.00     0.124 S 
ATOM     95  O   UNL A   1      55.098  36.375  27.984  1.00  0.00    -0.237 OA
ATOM     96  O   UNL A   1      54.964  38.750  27.305  1.00  0.00    -0.237 OA
ATOM     97  O   UNL A   1      53.521  37.897  29.111  1.00  0.00    -0.744 OA
ENDBRANCH  90  94
ENDBRANCH  64  87
ENDBRANCH  38  39
ENDBRANCH  31  33
ENDBRANCH  30  31
ENDBRANCH  29  30
ENDBRANCH  28  29
ENDBRANCH  27  28
ENDBRANCH   1  27
TORSDOF 22
ENDMDL
MODEL 3
REMARK VINA RESULT:     -10.3      5.964     11.398
REMARK SMILES O=C(OCCOCCOCCOC(=O)c1ccc(-c2c3nc(c(-c4cc(S(=O)(=O)[O-])ccc4F)c4ccc([nH]4)c(-c4cc(S(=O)(=O)[O-])ccc4F)c4nc(c(-c5cc(S(=O)(=O)[O-])ccc5F)c5ccc2[nH]5)C=C4)C=C3)cc1)C1=Cc2cc(C(F)(F)F)ccc2O[C@@H]1C(F)(F)F
REMARK SMILES IDX 8 1 7 2 6 3 5 4 4 5 3 6 2 7 1 8 78 9 79 10 91 11 80 12 90 13
REMARK SMILES IDX 81 14 89 15 82 16 88 17 87 18 92 19 93 20 94 21 95 22 83 23
REMARK SMILES IDX 84 24 85 25 86 26 9 27 10 28 11 29 12 30 13 31 14 32 15 33
REMARK SMILES IDX 16 34 77 35 17 36 76 37 18 38 19 39 20 40 70 41 21 42 75 43
REMARK SMILES IDX 69 44 71 45 22 46 74 47 68 48 67 49 23 51 55 52 35 53 54 54
REMARK SMILES IDX 36 55 39 56 53 57 72 58 37 59 38 60 52 62 73 63 40 64 24 65
REMARK SMILES IDX 25 66 33 67 26 68 32 69 34 70 31 71 27 72 28 73 29 74 30 75
REMARK SMILES IDX 56 76 57 77 65 78 58 79 64 80 66 81 63 82 59 83 60 84 61 85
REMARK SMILES IDX 62 86 41 87 42 88 50 89 43 90 49 91 51 92 48 93 44 94 45 95
REMARK SMILES IDX 46 96 47 97
REMARK H PARENT 71 50 39 61
REMARK Flexibility Score: inf
ROOT
ATOM      1  C   UNL A   1      33.893  34.504  28.975  1.00  0.00     0.188 C 
ENDROOT
BRANCH   1   2
ATOM      2  C   UNL A   1      33.788  33.374  27.939  1.00  0.00     0.188 C 
BRANCH   2   3
ATOM      3  O   UNL A   1      34.969  32.524  27.571  1.00  0.00    -0.376 OA
BRANCH   3   4
ATOM      4  C   UNL A   1      35.271  30.872  28.034  1.00  0.00     0.202 C 
BRANCH   4   5
ATOM      5  C   UNL A   1      34.207  29.179  27.178  1.00  0.00     0.261 C 
BRANCH   5   6
ATOM      6  O   UNL A   1      32.788  29.182  26.652  1.00  0.00    -0.460 OA
BRANCH   6   7
ATOM      7  C   UNL A   1      32.179  28.009  26.876  1.00  0.00     0.338 C 
ATOM      8  O   UNL A   1      31.918  27.510  27.942  1.00  0.00    -0.246 OA
BRANCH   7   9
ATOM      9  C   UNL A   1      32.455  27.403  25.579  1.00  0.00     0.087 C 
ATOM     10  C   UNL A   1      33.481  26.374  25.547  1.00  0.00     0.027 C 
ATOM     11  C   UNL A   1      30.597  27.093  25.246  1.00  0.00     0.316 C 
ATOM     12  C   UNL A   1      33.151  24.620  25.491  1.00  0.00     0.018 A 
ATOM     13  O   UNL A   1      30.174  25.186  25.388  1.00  0.00    -0.475 OA
ATOM     14  C   UNL A   1      34.204  23.755  25.451  1.00  0.00     0.025 A 
ATOM     15  C   UNL A   1      31.549  23.975  25.482  1.00  0.00     0.128 A 
ATOM     16  C   UNL A   1      33.871  22.387  25.342  1.00  0.00     0.056 A 
ATOM     17  C   UNL A   1      31.284  22.640  25.372  1.00  0.00     0.048 A 
ATOM     18  C   UNL A   1      32.484  21.872  25.298  1.00  0.00     0.017 A 
BRANCH  11  19
ATOM     19  C   UNL A   1      30.600  28.148  23.907  1.00  0.00     0.430 C 
ATOM     20  F   UNL A   1      31.553  28.075  22.973  1.00  0.00    -0.167 F 
ATOM     21  F   UNL A   1      29.406  28.070  23.274  1.00  0.00    -0.167 F 
ATOM     22  F   UNL A   1      30.696  29.452  24.322  1.00  0.00    -0.167 F 
ENDBRANCH  11  19
BRANCH  16  23
ATOM     23  C   UNL A   1      35.062  21.445  25.217  1.00  0.00     0.416 C 
ATOM     24  F   UNL A   1      34.690  20.203  24.794  1.00  0.00    -0.166 F 
ATOM     25  F   UNL A   1      35.972  21.884  24.300  1.00  0.00    -0.166 F 
ATOM     26  F   UNL A   1      35.753  21.260  26.372  1.00  0.00    -0.166 F 
ENDBRANCH  16  23
ENDBRANCH   7   9
ENDBRANCH   6   7
ENDBRANCH   5   6
ENDBRANCH   4   5
ENDBRANCH   3   4
ENDBRANCH   2   3
ENDBRANCH   1   2
BRANCH   1  27
ATOM     27  O   UNL A   1      32.915  35.516  28.960  1.00  0.00    -0.376 OA
BRANCH  27  28
ATOM     28  C   UNL A   1      33.382  36.795  29.366  1.00  0.00     0.202 C 
BRANCH  28  29
ATOM     29  C   UNL A   1      33.010  37.284  30.781  1.00  0.00     0.261 C 
BRANCH  29  30
ATOM     30  O   UNL A   1      33.787  36.698  31.855  1.00  0.00    -0.460 OA
BRANCH  30  31
ATOM     31  C   UNL A   1      33.387  35.494  32.348  1.00  0.00     0.338 C 
ATOM     32  O   UNL A   1      32.249  35.058  32.377  1.00  0.00    -0.246 OA
BRANCH  31  33
ATOM     33  C   UNL A   1      34.574  34.699  32.746  1.00  0.00     0.060 A 
ATOM     34  C   UNL A   1      35.851  35.026  32.258  1.00  0.00     0.016 A 
ATOM     35  C   UNL A   1      34.414  33.598  33.586  1.00  0.00     0.016 A 
ATOM     36  C   UNL A   1      36.977  34.303  32.682  1.00  0.00     0.010 A 
ATOM     37  C   UNL A   1      35.532  32.843  33.959  1.00  0.00     0.010 A 
ATOM     38  C   UNL A   1      36.822  33.193  33.523  1.00  0.00    -0.014 A 
BRANCH  38  39
ATOM     39  C   UNL A   1      37.961  32.283  33.823  1.00  0.00     0.031 A 
ATOM     40  C   UNL A   1      38.806  32.587  35.029  1.00  0.00     0.074 A 
ATOM     41  C   UNL A   1      38.284  31.254  33.014  1.00  0.00     0.049 A 
ATOM     42  N   UNL A   1      39.937  32.053  35.404  1.00  0.00    -0.248 NA
ATOM     43  C   UNL A   1      38.313  33.648  35.922  1.00  0.00     0.031 C 
ATOM     44  C   UNL A   1      37.517  30.836  31.844  1.00  0.00     0.029 A 
ATOM     45  N   UNL A   1      39.353  30.386  33.036  1.00  0.00    -0.354 N 
ATOM     46  C   UNL A   1      40.307  32.730  36.559  1.00  0.00     0.074 A 
ATOM     47  C   UNL A   1      39.280  33.711  36.825  1.00  0.00     0.031 C 
ATOM     48  C   UNL A   1      38.145  29.804  31.251  1.00  0.00     0.029 A 
ATOM     49  C   UNL A   1      39.396  29.527  31.956  1.00  0.00     0.049 A 
ATOM     50  H   UNL A   1      40.025  30.379  33.756  1.00  0.00     0.167 HD
ATOM     51  C   UNL A   1      41.418  32.557  37.313  1.00  0.00     0.034 A 
ATOM     52  C   UNL A   1      40.356  28.662  31.555  1.00  0.00     0.034 A 
ATOM     53  C   UNL A   1      42.443  31.587  37.023  1.00  0.00     0.049 A 
ATOM     54  C   UNL A   1      41.627  28.556  32.376  1.00  0.00     0.074 A 
ATOM     55  C   UNL A   1      43.586  31.309  37.751  1.00  0.00     0.029 A 
ATOM     56  N   UNL A   1      42.468  30.762  35.908  1.00  0.00    -0.354 N 
ATOM     57  N   UNL A   1      41.946  29.175  33.491  1.00  0.00    -0.248 NA
ATOM     58  C   UNL A   1      42.674  27.648  31.882  1.00  0.00     0.031 C 
ATOM     59  C   UNL A   1      44.353  30.397  37.024  1.00  0.00     0.029 A 
ATOM     60  C   UNL A   1      43.638  30.021  35.898  1.00  0.00     0.049 A 
ATOM     61  H   UNL A   1      41.760  30.712  35.225  1.00  0.00     0.167 HD
ATOM     62  C   UNL A   1      43.213  28.711  33.838  1.00  0.00     0.074 A 
ATOM     63  C   UNL A   1      43.590  27.740  32.834  1.00  0.00     0.031 C 
ATOM     64  C   UNL A   1      44.001  29.058  34.887  1.00  0.00     0.034 A 
BRANCH  51  65
ATOM     65  C   UNL A   1      41.633  33.485  38.481  1.00  0.00     0.023 A 
ATOM     66  C   UNL A   1      41.183  33.178  39.774  1.00  0.00     0.031 A 
ATOM     67  C   UNL A   1      42.339  34.687  38.291  1.00  0.00     0.131 A 
ATOM     68  C   UNL A   1      41.418  34.079  40.825  1.00  0.00     0.055 A 
ATOM     69  C   UNL A   1      42.637  35.542  39.353  1.00  0.00     0.041 A 
ATOM     70  F   UNL A   1      42.761  35.045  37.068  1.00  0.00    -0.206 F 
ATOM     71  C   UNL A   1      42.170  35.241  40.628  1.00  0.00     0.022 A 
BRANCH  68  72
ATOM     72  S   UNL A   1      40.637  33.767  42.430  1.00  0.00     0.124 S 
ATOM     73  O   UNL A   1      41.595  32.856  43.052  1.00  0.00    -0.237 OA
ATOM     74  O   UNL A   1      40.559  35.103  43.009  1.00  0.00    -0.237 OA
ATOM     75  O   UNL A   1      39.354  33.164  42.076  1.00  0.00    -0.744 OA
ENDBRANCH  68  72
ENDBRANCH  51  65
BRANCH  52  76
ATOM     76  C   UNL A   1      40.230  27.890  30.276  1.00  0.00     0.023 A 
ATOM     77  C   UNL A   1      40.969  28.239  29.131  1.00  0.00     0.031 A 
ATOM     78  C   UNL A   1      39.271  26.868  30.139  1.00  0.00     0.131 A 
ATOM     79  C   UNL A   1      40.683  27.634  27.896  1.00  0.00     0.055 A 
ATOM     80  C   UNL A   1      39.053  26.207  28.928  1.00  0.00     0.041 A 
ATOM     81  F   UNL A   1      38.510  26.502  31.184  1.00  0.00    -0.206 F 
ATOM     82  C   UNL A   1      39.748  26.604  27.791  1.00  0.00     0.022 A 
BRANCH  79  83
ATOM     83  S   UNL A   1      41.425  28.330  26.391  1.00  0.00     0.124 S 
ATOM     84  O   UNL A   1      41.505  27.155  25.532  1.00  0.00    -0.237 OA
ATOM     85  O   UNL A   1      40.446  29.341  26.007  1.00  0.00    -0.237 OA
ATOM     86  O   UNL A   1      42.709  28.853  26.855  1.00  0.00    -0.744 OA
ENDBRANCH  79  83
ENDBRANCH  52  76
BRANCH  64  87
ATOM     87  C   UNL A   1      45.331  28.357  35.027  1.00  0.00     0.023 A 
ATOM     88  C   UNL A   1      46.518  28.912  34.520  1.00  0.00     0.031 A 
ATOM     89  C   UNL A   1      45.414  27.124  35.700  1.00  0.00     0.131 A 
ATOM     90  C   UNL A   1      47.728  28.214  34.651  1.00  0.00     0.055 A 
ATOM     91  C   UNL A   1      46.630  26.470  35.894  1.00  0.00     0.041 A 
ATOM     92  F   UNL A   1      44.311  26.543  36.200  1.00  0.00    -0.206 F 
ATOM     93  C   UNL A   1      47.796  27.010  35.358  1.00  0.00     0.022 A 
BRANCH  90  94
ATOM     94  S   UNL A   1      49.198  28.853  33.804  1.00  0.00     0.124 S 
ATOM     95  O   UNL A   1      48.835  28.681  32.400  1.00  0.00    -0.237 OA
ATOM     96  O   UNL A   1      49.263  30.229  34.282  1.00  0.00    -0.237 OA
ATOM     97  O   UNL A   1      50.272  27.981  34.277  1.00  0.00    -0.744 OA
ENDBRANCH  90  94
ENDBRANCH  64  87
ENDBRANCH  38  39
ENDBRANCH  31  33
ENDBRANCH  30  31
ENDBRANCH  29  30
ENDBRANCH  28  29
ENDBRANCH  27  28
ENDBRANCH   1  27
TORSDOF 22
ENDMDL
