MODEL 1
REMARK VINA RESULT:     -10.5      0.000      0.000
REMARK SMILES Nc1oc2ccc(F)cc2c(=O)c1[C@@H]1[NH2+][C@H](C(=O)OCCOCCOCCOC(=O)c2ccc(-c3c4nc(c(-c5cc(S(=O)(=O)[O-])ccc5F)c5ccc([nH]5)c(-c5cc(S(=O)(=O)[O-])ccc5F)c5nc(c(-c6cc(S(=O)(=O)[O-])ccc6F)c6ccc3[nH]6)C=C5)C=C4)cc2)CS1
REMARK SMILES IDX 24 1 23 2 22 3 21 4 20 5 19 6 17 7 18 8 16 9 14 10 15 11
REMARK SMILES IDX 95 12 94 15 13 16 2 17 3 18 4 19 11 20 5 21 10 22 12 23 6 24
REMARK SMILES IDX 9 25 7 26 8 27 1 28 25 31 26 32 27 33 28 34 29 35 30 36
REMARK SMILES IDX 31 37 32 38 93 39 33 40 92 41 34 42 35 43 36 44 86 45 37 46
REMARK SMILES IDX 91 47 85 48 87 49 38 50 90 51 84 52 83 53 39 55 71 56 51 57
REMARK SMILES IDX 70 58 52 59 55 60 69 61 88 62 53 63 54 64 68 66 89 67 56 68
REMARK SMILES IDX 40 69 41 70 49 71 42 72 48 73 50 74 47 75 43 76 44 77 45 78
REMARK SMILES IDX 46 79 72 80 73 81 81 82 74 83 80 84 82 85 79 86 75 87 76 88
REMARK SMILES IDX 77 89 78 90 57 91 58 92 66 93 59 94 65 95 67 96 64 97 60 98
REMARK SMILES IDX 61 99 62 100 63 101
REMARK H PARENT 15 13 15 14 1 29 1 30 87 54 55 65
REMARK Flexibility Score: inf
ROOT
ATOM      1  C   UNL A   1      38.719  22.771  26.100  1.00  0.00     0.188 C 
ENDROOT
BRANCH   1   2
ATOM      2  C   UNL A   1      37.232  22.406  25.951  1.00  0.00     0.188 C 
BRANCH   2   3
ATOM      3  O   UNL A   1      36.843  21.716  24.766  1.00  0.00    -0.376 OA
BRANCH   3   4
ATOM      4  C   UNL A   1      35.955  20.609  24.901  1.00  0.00     0.202 C 
BRANCH   4   5
ATOM      5  C   UNL A   1      34.463  20.949  24.906  1.00  0.00     0.261 C 
BRANCH   5   6
ATOM      6  O   UNL A   1      34.101  21.839  23.830  1.00  0.00    -0.459 OA
BRANCH   6   7
ATOM      7  C   UNL A   1      33.229  22.845  24.128  1.00  0.00     0.365 C 
ATOM      8  O   UNL A   1      32.037  22.672  24.349  1.00  0.00    -0.245 OA
BRANCH   7   9
ATOM      9  C   UNL A   1      33.872  24.251  24.094  1.00  0.00     0.304 C 
ATOM     10  C   UNL A   1      32.858  26.484  23.854  1.00  0.00     0.283 C 
ATOM     11  N   UNL A   1      33.146  25.196  23.219  1.00  0.00    -0.319 N 
ATOM     12  S   UNL A   1      33.247  26.385  25.615  1.00  0.00    -0.087 SA
ATOM     13  H   UNL A   1      33.713  25.366  22.389  1.00  0.00     0.348 HD
ATOM     14  H   UNL A   1      32.248  24.767  22.998  1.00  0.00     0.348 HD
ATOM     15  C   UNL A   1      33.999  24.749  25.526  1.00  0.00     0.153 C 
BRANCH  10  16
ATOM     16  C   UNL A   1      31.428  26.941  23.648  1.00  0.00     0.128 A 
ATOM     17  C   UNL A   1      30.301  26.234  23.899  1.00  0.00     0.205 A 
ATOM     18  O   UNL A   1      29.020  26.698  23.673  1.00  0.00    -0.440 OA
ATOM     19  C   UNL A   1      28.832  27.992  23.293  1.00  0.00     0.140 A 
ATOM     20  C   UNL A   1      31.258  28.309  23.081  1.00  0.00     0.205 A 
ATOM     21  C   UNL A   1      27.513  28.443  23.227  1.00  0.00     0.051 A 
ATOM     22  C   UNL A   1      29.888  28.839  22.986  1.00  0.00     0.068 A 
ATOM     23  O   UNL A   1      32.203  28.991  22.704  1.00  0.00    -0.288 OA
ATOM     24  C   UNL A   1      27.255  29.764  22.870  1.00  0.00     0.043 A 
ATOM     25  C   UNL A   1      29.636  30.161  22.613  1.00  0.00     0.055 A 
ATOM     26  C   UNL A   1      28.319  30.610  22.569  1.00  0.00     0.124 A 
ATOM     27  F   UNL A   1      28.066  31.883  22.238  1.00  0.00    -0.207 F 
BRANCH  17  28
ATOM     28  N   UNL A   1      30.277  24.962  24.386  1.00  0.00    -0.369 N 
ATOM     29  H   UNL A   1      29.506  24.379  24.202  1.00  0.00     0.159 HD
ATOM     30  H   UNL A   1      31.032  24.627  24.922  1.00  0.00     0.159 HD
ENDBRANCH  17  28
ENDBRANCH  10  16
ENDBRANCH   7   9
ENDBRANCH   6   7
ENDBRANCH   5   6
ENDBRANCH   4   5
ENDBRANCH   3   4
ENDBRANCH   2   3
ENDBRANCH   1   2
BRANCH   1  31
ATOM     31  O   UNL A   1      39.585  21.728  25.683  1.00  0.00    -0.376 OA
BRANCH  31  32
ATOM     32  C   UNL A   1      39.224  20.421  26.080  1.00  0.00     0.202 C 
BRANCH  32  33
ATOM     33  C   UNL A   1      40.399  19.499  26.429  1.00  0.00     0.261 C 
BRANCH  33  34
ATOM     34  O   UNL A   1      41.344  19.258  25.372  1.00  0.00    -0.460 OA
BRANCH  34  35
ATOM     35  C   UNL A   1      42.659  19.258  25.690  1.00  0.00     0.338 C 
ATOM     36  O   UNL A   1      43.446  18.340  25.526  1.00  0.00    -0.246 OA
BRANCH  35  37
ATOM     37  C   UNL A   1      43.021  20.648  26.066  1.00  0.00     0.060 A 
ATOM     38  C   UNL A   1      43.031  21.041  27.408  1.00  0.00     0.016 A 
ATOM     39  C   UNL A   1      43.283  21.585  25.059  1.00  0.00     0.016 A 
ATOM     40  C   UNL A   1      43.310  22.372  27.739  1.00  0.00     0.010 A 
ATOM     41  C   UNL A   1      43.549  22.919  25.392  1.00  0.00     0.010 A 
ATOM     42  C   UNL A   1      43.575  23.321  26.737  1.00  0.00    -0.014 A 
BRANCH  42  43
ATOM     43  C   UNL A   1      44.045  24.679  27.116  1.00  0.00     0.031 A 
ATOM     44  C   UNL A   1      45.471  25.114  26.940  1.00  0.00     0.074 A 
ATOM     45  C   UNL A   1      43.138  25.540  27.618  1.00  0.00     0.049 A 
ATOM     46  N   UNL A   1      45.990  26.301  27.116  1.00  0.00    -0.248 NA
ATOM     47  C   UNL A   1      46.437  24.090  26.519  1.00  0.00     0.031 C 
ATOM     48  C   UNL A   1      41.731  25.215  27.853  1.00  0.00     0.029 A 
ATOM     49  N   UNL A   1      43.248  26.853  28.006  1.00  0.00    -0.354 N 
ATOM     50  C   UNL A   1      47.338  26.183  26.799  1.00  0.00     0.074 A 
ATOM     51  C   UNL A   1      47.566  24.790  26.474  1.00  0.00     0.031 C 
ATOM     52  C   UNL A   1      41.102  26.303  28.317  1.00  0.00     0.029 A 
ATOM     53  C   UNL A   1      42.062  27.400  28.437  1.00  0.00     0.049 A 
ATOM     54  H   UNL A   1      44.094  27.353  27.978  1.00  0.00     0.167 HD
ATOM     55  C   UNL A   1      48.284  27.155  26.761  1.00  0.00     0.034 A 
ATOM     56  C   UNL A   1      41.769  28.645  28.868  1.00  0.00     0.034 A 
ATOM     57  C   UNL A   1      48.037  28.536  27.107  1.00  0.00     0.049 A 
ATOM     58  C   UNL A   1      42.850  29.696  28.854  1.00  0.00     0.074 A 
ATOM     59  C   UNL A   1      48.925  29.598  27.062  1.00  0.00     0.029 A 
ATOM     60  N   UNL A   1      46.831  29.050  27.561  1.00  0.00    -0.354 N 
ATOM     61  N   UNL A   1      44.093  29.593  28.447  1.00  0.00    -0.248 NA
ATOM     62  C   UNL A   1      42.489  31.035  29.338  1.00  0.00     0.031 C 
ATOM     63  C   UNL A   1      48.281  30.732  27.556  1.00  0.00     0.029 A 
ATOM     64  C   UNL A   1      46.963  30.404  27.830  1.00  0.00     0.049 A 
ATOM     65  H   UNL A   1      46.002  28.530  27.676  1.00  0.00     0.167 HD
ATOM     66  C   UNL A   1      44.650  30.861  28.589  1.00  0.00     0.074 A 
ATOM     67  C   UNL A   1      43.604  31.718  29.105  1.00  0.00     0.031 C 
ATOM     68  C   UNL A   1      45.915  31.270  28.317  1.00  0.00     0.034 A 
BRANCH  55  69
ATOM     69  C   UNL A   1      49.677  26.805  26.295  1.00  0.00     0.023 A 
ATOM     70  C   UNL A   1      50.729  26.676  27.223  1.00  0.00     0.031 A 
ATOM     71  C   UNL A   1      49.996  26.786  24.924  1.00  0.00     0.131 A 
ATOM     72  C   UNL A   1      52.053  26.581  26.769  1.00  0.00     0.055 A 
ATOM     73  C   UNL A   1      51.311  26.650  24.478  1.00  0.00     0.041 A 
ATOM     74  F   UNL A   1      49.032  26.917  24.000  1.00  0.00    -0.206 F 
ATOM     75  C   UNL A   1      52.348  26.562  25.402  1.00  0.00     0.022 A 
BRANCH  72  76
ATOM     76  S   UNL A   1      53.446  26.563  27.931  1.00  0.00     0.124 S 
ATOM     77  O   UNL A   1      54.277  25.490  27.386  1.00  0.00    -0.237 OA
ATOM     78  O   UNL A   1      53.990  27.910  27.778  1.00  0.00    -0.237 OA
ATOM     79  O   UNL A   1      52.827  26.274  29.219  1.00  0.00    -0.744 OA
ENDBRANCH  72  76
ENDBRANCH  55  69
BRANCH  56  80
ATOM     80  C   UNL A   1      40.365  28.965  29.260  1.00  0.00     0.023 A 
ATOM     81  C   UNL A   1      39.963  28.927  30.607  1.00  0.00     0.031 A 
ATOM     82  C   UNL A   1      39.386  29.210  28.283  1.00  0.00     0.131 A 
ATOM     83  C   UNL A   1      38.607  29.066  30.933  1.00  0.00     0.055 A 
ATOM     84  C   UNL A   1      38.047  29.421  28.619  1.00  0.00     0.041 A 
ATOM     85  F   UNL A   1      39.719  29.239  26.983  1.00  0.00    -0.206 F 
ATOM     86  C   UNL A   1      37.650  29.331  29.950  1.00  0.00     0.022 A 
BRANCH  83  87
ATOM     87  S   UNL A   1      38.024  28.771  32.625  1.00  0.00     0.124 S 
ATOM     88  O   UNL A   1      38.975  29.547  33.415  1.00  0.00    -0.237 OA
ATOM     89  O   UNL A   1      36.665  29.304  32.569  1.00  0.00    -0.237 OA
ATOM     90  O   UNL A   1      38.114  27.322  32.773  1.00  0.00    -0.744 OA
ENDBRANCH  83  87
ENDBRANCH  56  80
BRANCH  68  91
ATOM     91  C   UNL A   1      46.279  32.721  28.541  1.00  0.00     0.023 A 
ATOM     92  C   UNL A   1      46.461  33.577  27.436  1.00  0.00     0.031 A 
ATOM     93  C   UNL A   1      46.613  33.207  29.816  1.00  0.00     0.131 A 
ATOM     94  C   UNL A   1      47.011  34.851  27.621  1.00  0.00     0.055 A 
ATOM     95  C   UNL A   1      47.111  34.498  30.002  1.00  0.00     0.041 A 
ATOM     96  F   UNL A   1      46.470  32.429  30.902  1.00  0.00    -0.206 F 
ATOM     97  C   UNL A   1      47.328  35.320  28.900  1.00  0.00     0.022 A 
BRANCH  94  98
ATOM     98  S   UNL A   1      47.427  35.909  26.207  1.00  0.00     0.124 S 
ATOM     99  O   UNL A   1      46.270  36.799  26.143  1.00  0.00    -0.237 OA
ATOM    100  O   UNL A   1      48.672  36.534  26.647  1.00  0.00    -0.237 OA
ATOM    101  O   UNL A   1      47.553  34.974  25.093  1.00  0.00    -0.744 OA
ENDBRANCH  94  98
ENDBRANCH  68  91
ENDBRANCH  42  43
ENDBRANCH  35  37
ENDBRANCH  34  35
ENDBRANCH  33  34
ENDBRANCH  32  33
ENDBRANCH  31  32
ENDBRANCH   1  31
TORSDOF 22
ENDMDL
MODEL 2
REMARK VINA RESULT:     -10.3      6.323     12.290
REMARK SMILES Nc1oc2ccc(F)cc2c(=O)c1[C@@H]1[NH2+][C@H](C(=O)OCCOCCOCCOC(=O)c2ccc(-c3c4nc(c(-c5cc(S(=O)(=O)[O-])ccc5F)c5ccc([nH]5)c(-c5cc(S(=O)(=O)[O-])ccc5F)c5nc(c(-c6cc(S(=O)(=O)[O-])ccc6F)c6ccc3[nH]6)C=C5)C=C4)cc2)CS1
REMARK SMILES IDX 24 1 23 2 22 3 21 4 20 5 19 6 17 7 18 8 16 9 14 10 15 11
REMARK SMILES IDX 95 12 94 15 13 16 2 17 3 18 4 19 11 20 5 21 10 22 12 23 6 24
REMARK SMILES IDX 9 25 7 26 8 27 1 28 25 31 26 32 27 33 28 34 29 35 30 36
REMARK SMILES IDX 31 37 32 38 93 39 33 40 92 41 34 42 35 43 36 44 86 45 37 46
REMARK SMILES IDX 91 47 85 48 87 49 38 50 90 51 84 52 83 53 39 55 71 56 51 57
REMARK SMILES IDX 70 58 52 59 55 60 69 61 88 62 53 63 54 64 68 66 89 67 56 68
REMARK SMILES IDX 40 69 41 70 49 71 42 72 48 73 50 74 47 75 43 76 44 77 45 78
REMARK SMILES IDX 46 79 72 80 73 81 81 82 74 83 80 84 82 85 79 86 75 87 76 88
REMARK SMILES IDX 77 89 78 90 57 91 58 92 66 93 59 94 65 95 67 96 64 97 60 98
REMARK SMILES IDX 61 99 62 100 63 101
REMARK H PARENT 15 13 15 14 1 29 1 30 87 54 55 65
REMARK Flexibility Score: inf
ROOT
ATOM      1  C   UNL A   1      32.685  35.782  32.826  1.00  0.00     0.188 C 
ENDROOT
BRANCH   1   2
ATOM      2  C   UNL A   1      34.036  36.467  33.095  1.00  0.00     0.188 C 
BRANCH   2   3
ATOM      3  O   UNL A   1      35.054  35.686  33.715  1.00  0.00    -0.376 OA
BRANCH   3   4
ATOM      4  C   UNL A   1      35.686  34.674  32.935  1.00  0.00     0.202 C 
BRANCH   4   5
ATOM      5  C   UNL A   1      35.885  33.325  33.628  1.00  0.00     0.261 C 
BRANCH   5   6
ATOM      6  O   UNL A   1      37.266  33.085  33.973  1.00  0.00    -0.459 OA
BRANCH   6   7
ATOM      7  C   UNL A   1      37.661  31.783  34.070  1.00  0.00     0.365 C 
ATOM      8  O   UNL A   1      37.444  30.938  33.210  1.00  0.00    -0.245 OA
BRANCH   7   9
ATOM      9  C   UNL A   1      38.354  31.445  35.410  1.00  0.00     0.304 C 
ATOM     10  C   UNL A   1      40.271  29.981  35.911  1.00  0.00     0.283 C 
ATOM     11  N   UNL A   1      38.883  30.065  35.454  1.00  0.00    -0.319 N 
ATOM     12  S   UNL A   1      40.975  31.642  36.004  1.00  0.00    -0.087 SA
ATOM     13  H   UNL A   1      38.301  29.518  36.089  1.00  0.00     0.348 HD
ATOM     14  H   UNL A   1      38.862  29.708  34.500  1.00  0.00     0.348 HD
ATOM     15  C   UNL A   1      39.423  32.496  35.669  1.00  0.00     0.153 C 
BRANCH  10  16
ATOM     16  C   UNL A   1      41.129  29.086  35.040  1.00  0.00     0.128 A 
ATOM     17  C   UNL A   1      41.223  29.107  33.689  1.00  0.00     0.205 A 
ATOM     18  O   UNL A   1      42.011  28.251  32.945  1.00  0.00    -0.440 OA
ATOM     19  C   UNL A   1      42.861  27.399  33.582  1.00  0.00     0.140 A 
ATOM     20  C   UNL A   1      41.933  28.055  35.758  1.00  0.00     0.205 A 
ATOM     21  C   UNL A   1      43.738  26.668  32.778  1.00  0.00     0.051 A 
ATOM     22  C   UNL A   1      42.875  27.253  34.962  1.00  0.00     0.068 A 
ATOM     23  O   UNL A   1      41.836  27.864  36.964  1.00  0.00    -0.288 OA
ATOM     24  C   UNL A   1      44.651  25.799  33.369  1.00  0.00     0.043 A 
ATOM     25  C   UNL A   1      43.778  26.372  35.561  1.00  0.00     0.055 A 
ATOM     26  C   UNL A   1      44.663  25.662  34.755  1.00  0.00     0.124 A 
ATOM     27  F   UNL A   1      45.552  24.834  35.319  1.00  0.00    -0.207 F 
BRANCH  17  28
ATOM     28  N   UNL A   1      40.535  29.960  32.879  1.00  0.00    -0.369 N 
ATOM     29  H   UNL A   1      40.887  30.183  31.988  1.00  0.00     0.159 HD
ATOM     30  H   UNL A   1      39.685  30.351  33.186  1.00  0.00     0.159 HD
ENDBRANCH  17  28
ENDBRANCH  10  16
ENDBRANCH   7   9
ENDBRANCH   6   7
ENDBRANCH   5   6
ENDBRANCH   4   5
ENDBRANCH   3   4
ENDBRANCH   2   3
ENDBRANCH   1   2
BRANCH   1  31
ATOM     31  O   UNL A   1      32.550  35.341  31.485  1.00  0.00    -0.376 OA
BRANCH  31  32
ATOM     32  C   UNL A   1      32.665  36.334  30.487  1.00  0.00     0.202 C 
BRANCH  32  33
ATOM     33  C   UNL A   1      33.924  36.239  29.616  1.00  0.00     0.261 C 
BRANCH  33  34
ATOM     34  O   UNL A   1      33.785  35.507  28.387  1.00  0.00    -0.460 OA
BRANCH  34  35
ATOM     35  C   UNL A   1      33.616  34.166  28.466  1.00  0.00     0.338 C 
ATOM     36  O   UNL A   1      32.624  33.539  28.133  1.00  0.00    -0.246 OA
BRANCH  35  37
ATOM     37  C   UNL A   1      34.931  33.577  28.822  1.00  0.00     0.060 A 
ATOM     38  C   UNL A   1      36.063  33.849  28.049  1.00  0.00     0.016 A 
ATOM     39  C   UNL A   1      35.014  32.685  29.899  1.00  0.00     0.016 A 
ATOM     40  C   UNL A   1      37.280  33.232  28.361  1.00  0.00     0.010 A 
ATOM     41  C   UNL A   1      36.231  32.059  30.201  1.00  0.00     0.010 A 
ATOM     42  C   UNL A   1      37.377  32.336  29.439  1.00  0.00    -0.014 A 
BRANCH  42  43
ATOM     43  C   UNL A   1      38.711  31.835  29.862  1.00  0.00     0.031 A 
ATOM     44  C   UNL A   1      39.286  30.549  29.343  1.00  0.00     0.074 A 
ATOM     45  C   UNL A   1      39.417  32.585  30.729  1.00  0.00     0.049 A 
ATOM     46  N   UNL A   1      40.482  30.054  29.535  1.00  0.00    -0.248 NA
ATOM     47  C   UNL A   1      38.413  29.710  28.511  1.00  0.00     0.031 C 
ATOM     48  C   UNL A   1      38.943  33.840  31.315  1.00  0.00     0.029 A 
ATOM     49  N   UNL A   1      40.673  32.421  31.260  1.00  0.00    -0.354 N 
ATOM     50  C   UNL A   1      40.523  28.861  28.823  1.00  0.00     0.074 A 
ATOM     51  C   UNL A   1      39.209  28.680  28.241  1.00  0.00     0.031 C 
ATOM     52  C   UNL A   1      39.904  34.347  32.099  1.00  0.00     0.029 A 
ATOM     53  C   UNL A   1      41.056  33.445  32.095  1.00  0.00     0.049 A 
ATOM     54  H   UNL A   1      41.245  31.646  31.060  1.00  0.00     0.167 HD
ATOM     55  C   UNL A   1      41.571  28.015  28.655  1.00  0.00     0.034 A 
ATOM     56  C   UNL A   1      42.204  33.649  32.773  1.00  0.00     0.034 A 
ATOM     57  C   UNL A   1      42.868  28.207  29.259  1.00  0.00     0.049 A 
ATOM     58  C   UNL A   1      43.338  32.671  32.600  1.00  0.00     0.074 A 
ATOM     59  C   UNL A   1      44.001  27.422  29.115  1.00  0.00     0.029 A 
ATOM     60  N   UNL A   1      43.213  29.242  30.118  1.00  0.00    -0.354 N 
ATOM     61  N   UNL A   1      43.397  31.605  31.836  1.00  0.00    -0.248 NA
ATOM     62  C   UNL A   1      44.568  32.927  33.362  1.00  0.00     0.031 C 
ATOM     63  C   UNL A   1      45.001  27.937  29.939  1.00  0.00     0.029 A 
ATOM     64  C   UNL A   1      44.528  29.094  30.535  1.00  0.00     0.049 A 
ATOM     65  H   UNL A   1      42.612  29.973  30.392  1.00  0.00     0.167 HD
ATOM     66  C   UNL A   1      44.680  31.088  31.996  1.00  0.00     0.074 A 
ATOM     67  C   UNL A   1      45.369  31.967  32.917  1.00  0.00     0.031 C 
ATOM     68  C   UNL A   1      45.229  29.984  31.431  1.00  0.00     0.034 A 
BRANCH  55  69
ATOM     69  C   UNL A   1      41.406  26.814  27.755  1.00  0.00     0.023 A 
ATOM     70  C   UNL A   1      41.521  25.510  28.276  1.00  0.00     0.031 A 
ATOM     71  C   UNL A   1      41.324  26.964  26.358  1.00  0.00     0.131 A 
ATOM     72  C   UNL A   1      41.597  24.414  27.405  1.00  0.00     0.055 A 
ATOM     73  C   UNL A   1      41.359  25.866  25.497  1.00  0.00     0.041 A 
ATOM     74  F   UNL A   1      41.225  28.185  25.810  1.00  0.00    -0.206 F 
ATOM     75  C   UNL A   1      41.512  24.585  26.020  1.00  0.00     0.022 A 
BRANCH  72  76
ATOM     76  S   UNL A   1      41.894  22.736  28.028  1.00  0.00     0.124 S 
ATOM     77  O   UNL A   1      40.605  22.092  27.782  1.00  0.00    -0.237 OA
ATOM     78  O   UNL A   1      42.990  22.281  27.175  1.00  0.00    -0.237 OA
ATOM     79  O   UNL A   1      42.229  22.936  29.433  1.00  0.00    -0.744 OA
ENDBRANCH  72  76
ENDBRANCH  55  69
BRANCH  56  80
ATOM     80  C   UNL A   1      42.349  34.882  33.602  1.00  0.00     0.023 A 
ATOM     81  C   UNL A   1      41.917  34.909  34.940  1.00  0.00     0.031 A 
ATOM     82  C   UNL A   1      42.822  36.077  33.034  1.00  0.00     0.131 A 
ATOM     83  C   UNL A   1      41.907  36.121  35.643  1.00  0.00     0.055 A 
ATOM     84  C   UNL A   1      42.879  37.266  33.763  1.00  0.00     0.041 A 
ATOM     85  F   UNL A   1      43.228  36.103  31.755  1.00  0.00    -0.206 F 
ATOM     86  C   UNL A   1      42.403  37.295  35.070  1.00  0.00     0.022 A 
BRANCH  83  87
ATOM     87  S   UNL A   1      41.126  36.240  37.276  1.00  0.00     0.124 S 
ATOM     88  O   UNL A   1      39.759  36.619  36.933  1.00  0.00    -0.237 OA
ATOM     89  O   UNL A   1      41.296  34.883  37.788  1.00  0.00    -0.237 OA
ATOM     90  O   UNL A   1      41.912  37.262  37.960  1.00  0.00    -0.744 OA
ENDBRANCH  83  87
ENDBRANCH  56  80
BRANCH  68  91
ATOM     91  C   UNL A   1      46.665  29.634  31.752  1.00  0.00     0.023 A 
ATOM     92  C   UNL A   1      46.974  28.986  32.965  1.00  0.00     0.031 A 
ATOM     93  C   UNL A   1      47.729  30.089  30.955  1.00  0.00     0.131 A 
ATOM     94  C   UNL A   1      48.308  28.859  33.370  1.00  0.00     0.055 A 
ATOM     95  C   UNL A   1      49.060  29.912  31.337  1.00  0.00     0.041 A 
ATOM     96  F   UNL A   1      47.490  30.722  29.795  1.00  0.00    -0.206 F 
ATOM     97  C   UNL A   1      49.354  29.310  32.557  1.00  0.00     0.022 A 
BRANCH  94  98
ATOM     98  S   UNL A   1      48.735  28.196  35.004  1.00  0.00     0.124 S 
ATOM     99  O   UNL A   1      49.733  29.157  35.470  1.00  0.00    -0.237 OA
ATOM    100  O   UNL A   1      47.451  28.243  35.699  1.00  0.00    -0.237 OA
ATOM    101  O   UNL A   1      49.247  26.860  34.719  1.00  0.00    -0.744 OA
ENDBRANCH  94  98
ENDBRANCH  68  91
ENDBRANCH  42  43
ENDBRANCH  35  37
ENDBRANCH  34  35
ENDBRANCH  33  34
ENDBRANCH  32  33
ENDBRANCH  31  32
ENDBRANCH   1  31
TORSDOF 22
ENDMDL
MODEL 3
REMARK VINA RESULT:     -10.3      2.090      7.641
REMARK SMILES Nc1oc2ccc(F)cc2c(=O)c1[C@@H]1[NH2+][C@H](C(=O)OCCOCCOCCOC(=O)c2ccc(-c3c4nc(c(-c5cc(S(=O)(=O)[O-])ccc5F)c5ccc([nH]5)c(-c5cc(S(=O)(=O)[O-])ccc5F)c5nc(c(-c6cc(S(=O)(=O)[O-])ccc6F)c6ccc3[nH]6)C=C5)C=C4)cc2)CS1
REMARK SMILES IDX 24 1 23 2 22 3 21 4 20 5 19 6 17 7 18 8 16 9 14 10 15 11
REMARK SMILES IDX 95 12 94 15 13 16 2 17 3 18 4 19 11 20 5 21 10 22 12 23 6 24
REMARK SMILES IDX 9 25 7 26 8 27 1 28 25 31 26 32 27 33 28 34 29 35 30 36
REMARK SMILES IDX 31 37 32 38 93 39 33 40 92 41 34 42 35 43 36 44 86 45 37 46
REMARK SMILES IDX 91 47 85 48 87 49 38 50 90 51 84 52 83 53 39 55 71 56 51 57
REMARK SMILES IDX 70 58 52 59 55 60 69 61 88 62 53 63 54 64 68 66 89 67 56 68
REMARK SMILES IDX 40 69 41 70 49 71 42 72 48 73 50 74 47 75 43 76 44 77 45 78
REMARK SMILES IDX 46 79 72 80 73 81 81 82 74 83 80 84 82 85 79 86 75 87 76 88
REMARK SMILES IDX 77 89 78 90 57 91 58 92 66 93 59 94 65 95 67 96 64 97 60 98
REMARK SMILES IDX 61 99 62 100 63 101
REMARK H PARENT 15 13 15 14 1 29 1 30 87 54 55 65
REMARK Flexibility Score: inf
ROOT
ATOM      1  C   UNL A   1      38.849  22.534  26.375  1.00  0.00     0.188 C 
ENDROOT
BRANCH   1   2
ATOM      2  C   UNL A   1      37.819  23.180  25.432  1.00  0.00     0.188 C 
BRANCH   2   3
ATOM      3  O   UNL A   1      36.898  22.311  24.777  1.00  0.00    -0.376 OA
BRANCH   3   4
ATOM      4  C   UNL A   1      35.950  21.615  25.582  1.00  0.00     0.202 C 
BRANCH   4   5
ATOM      5  C   UNL A   1      34.780  20.975  24.832  1.00  0.00     0.261 C 
BRANCH   5   6
ATOM      6  O   UNL A   1      34.060  21.930  24.025  1.00  0.00    -0.459 OA
BRANCH   6   7
ATOM      7  C   UNL A   1      33.433  22.947  24.685  1.00  0.00     0.365 C 
ATOM      8  O   UNL A   1      32.476  22.787  25.434  1.00  0.00    -0.245 OA
BRANCH   7   9
ATOM      9  C   UNL A   1      33.998  24.345  24.347  1.00  0.00     0.304 C 
ATOM     10  C   UNL A   1      32.857  26.464  23.820  1.00  0.00     0.283 C 
ATOM     11  N   UNL A   1      33.152  25.095  23.394  1.00  0.00    -0.319 N 
ATOM     12  S   UNL A   1      33.403  26.693  25.527  1.00  0.00    -0.087 SA
ATOM     13  H   UNL A   1      33.635  25.134  22.497  1.00  0.00     0.348 HD
ATOM     14  H   UNL A   1      32.261  24.603  23.337  1.00  0.00     0.348 HD
ATOM     15  C   UNL A   1      34.225  25.094  25.652  1.00  0.00     0.153 C 
BRANCH  10  16
ATOM     16  C   UNL A   1      31.392  26.828  23.675  1.00  0.00     0.128 A 
ATOM     17  C   UNL A   1      30.324  26.068  24.014  1.00  0.00     0.205 A 
ATOM     18  O   UNL A   1      29.008  26.446  23.840  1.00  0.00    -0.440 OA
ATOM     19  C   UNL A   1      28.723  27.710  23.421  1.00  0.00     0.140 A 
ATOM     20  C   UNL A   1      31.111  28.159  23.065  1.00  0.00     0.205 A 
ATOM     21  C   UNL A   1      27.377  28.081  23.410  1.00  0.00     0.051 A 
ATOM     22  C   UNL A   1      29.708  28.603  23.025  1.00  0.00     0.068 A 
ATOM     23  O   UNL A   1      31.992  28.878  22.611  1.00  0.00    -0.288 OA
ATOM     24  C   UNL A   1      27.022  29.368  23.016  1.00  0.00     0.043 A 
ATOM     25  C   UNL A   1      29.358  29.892  22.614  1.00  0.00     0.055 A 
ATOM     26  C   UNL A   1      28.016  30.261  22.625  1.00  0.00     0.124 A 
ATOM     27  F   UNL A   1      27.669  31.502  22.259  1.00  0.00    -0.207 F 
BRANCH  17  28
ATOM     28  N   UNL A   1      30.403  24.818  24.551  1.00  0.00    -0.369 N 
ATOM     29  H   UNL A   1      30.561  24.042  23.968  1.00  0.00     0.159 HD
ATOM     30  H   UNL A   1      30.303  24.694  25.523  1.00  0.00     0.159 HD
ENDBRANCH  17  28
ENDBRANCH  10  16
ENDBRANCH   7   9
ENDBRANCH   6   7
ENDBRANCH   5   6
ENDBRANCH   4   5
ENDBRANCH   3   4
ENDBRANCH   2   3
ENDBRANCH   1   2
BRANCH   1  31
ATOM     31  O   UNL A   1      39.609  21.517  25.744  1.00  0.00    -0.376 OA
BRANCH  31  32
ATOM     32  C   UNL A   1      39.475  20.215  26.278  1.00  0.00     0.202 C 
BRANCH  32  33
ATOM     33  C   UNL A   1      40.694  19.305  26.087  1.00  0.00     0.261 C 
BRANCH  33  34
ATOM     34  O   UNL A   1      41.735  19.817  25.238  1.00  0.00    -0.460 OA
BRANCH  34  35
ATOM     35  C   UNL A   1      42.962  19.994  25.781  1.00  0.00     0.338 C 
ATOM     36  O   UNL A   1      43.880  19.191  25.777  1.00  0.00    -0.246 OA
BRANCH  35  37
ATOM     37  C   UNL A   1      43.064  21.419  26.184  1.00  0.00     0.060 A 
ATOM     38  C   UNL A   1      43.056  21.777  27.535  1.00  0.00     0.016 A 
ATOM     39  C   UNL A   1      43.094  22.411  25.195  1.00  0.00     0.016 A 
ATOM     40  C   UNL A   1      43.086  23.129  27.895  1.00  0.00     0.010 A 
ATOM     41  C   UNL A   1      43.111  23.764  25.558  1.00  0.00     0.010 A 
ATOM     42  C   UNL A   1      43.118  24.134  26.912  1.00  0.00    -0.014 A 
BRANCH  42  43
ATOM     43  C   UNL A   1      43.331  25.549  27.313  1.00  0.00     0.031 A 
ATOM     44  C   UNL A   1      42.216  26.416  27.821  1.00  0.00     0.074 A 
ATOM     45  C   UNL A   1      44.581  26.045  27.226  1.00  0.00     0.049 A 
ATOM     46  N   UNL A   1      42.283  27.625  28.317  1.00  0.00    -0.248 NA
ATOM     47  C   UNL A   1      40.856  25.863  27.764  1.00  0.00     0.031 C 
ATOM     48  C   UNL A   1      45.734  25.297  26.723  1.00  0.00     0.029 A 
ATOM     49  N   UNL A   1      45.097  27.272  27.561  1.00  0.00    -0.354 N 
ATOM     50  C   UNL A   1      40.982  27.973  28.661  1.00  0.00     0.074 A 
ATOM     51  C   UNL A   1      40.139  26.864  28.264  1.00  0.00     0.031 C 
ATOM     52  C   UNL A   1      46.827  26.068  26.810  1.00  0.00     0.029 A 
ATOM     53  C   UNL A   1      46.453  27.375  27.350  1.00  0.00     0.049 A 
ATOM     54  H   UNL A   1      44.550  28.007  27.919  1.00  0.00     0.167 HD
ATOM     55  C   UNL A   1      40.545  29.102  29.273  1.00  0.00     0.034 A 
ATOM     56  C   UNL A   1      47.306  28.395  27.576  1.00  0.00     0.034 A 
ATOM     57  C   UNL A   1      41.403  30.203  29.645  1.00  0.00     0.049 A 
ATOM     58  C   UNL A   1      46.786  29.654  28.220  1.00  0.00     0.074 A 
ATOM     59  C   UNL A   1      41.055  31.371  30.303  1.00  0.00     0.029 A 
ATOM     60  N   UNL A   1      42.766  30.283  29.395  1.00  0.00    -0.354 N 
ATOM     61  N   UNL A   1      45.572  29.923  28.640  1.00  0.00    -0.248 NA
ATOM     62  C   UNL A   1      47.749  30.742  28.441  1.00  0.00     0.031 C 
ATOM     63  C   UNL A   1      42.185  32.185  30.385  1.00  0.00     0.029 A 
ATOM     64  C   UNL A   1      43.263  31.493  29.856  1.00  0.00     0.049 A 
ATOM     65  H   UNL A   1      43.302  29.584  28.954  1.00  0.00     0.167 HD
ATOM     66  C   UNL A   1      45.634  31.193  29.208  1.00  0.00     0.074 A 
ATOM     67  C   UNL A   1      47.008  31.631  29.093  1.00  0.00     0.031 C 
ATOM     68  C   UNL A   1      44.639  31.923  29.770  1.00  0.00     0.034 A 
BRANCH  55  69
ATOM     69  C   UNL A   1      39.083  29.222  29.634  1.00  0.00     0.023 A 
ATOM     70  C   UNL A   1      38.220  30.021  28.859  1.00  0.00     0.031 A 
ATOM     71  C   UNL A   1      38.593  28.698  30.845  1.00  0.00     0.131 A 
ATOM     72  C   UNL A   1      36.930  30.312  29.327  1.00  0.00     0.055 A 
ATOM     73  C   UNL A   1      37.294  28.957  31.285  1.00  0.00     0.041 A 
ATOM     74  F   UNL A   1      39.379  27.940  31.626  1.00  0.00    -0.206 F 
ATOM     75  C   UNL A   1      36.462  29.780  30.532  1.00  0.00     0.022 A 
BRANCH  72  76
ATOM     76  S   UNL A   1      35.841  31.456  28.434  1.00  0.00     0.124 S 
ATOM     77  O   UNL A   1      36.733  32.587  28.186  1.00  0.00    -0.237 OA
ATOM     78  O   UNL A   1      35.482  30.676  27.251  1.00  0.00    -0.237 OA
ATOM     79  O   UNL A   1      34.756  31.715  29.373  1.00  0.00    -0.744 OA
ENDBRANCH  72  76
ENDBRANCH  55  69
BRANCH  56  80
ATOM     80  C   UNL A   1      48.754  28.212  27.263  1.00  0.00     0.023 A 
ATOM     81  C   UNL A   1      49.260  28.494  25.982  1.00  0.00     0.031 A 
ATOM     82  C   UNL A   1      49.628  27.652  28.211  1.00  0.00     0.131 A 
ATOM     83  C   UNL A   1      50.582  28.156  25.664  1.00  0.00     0.055 A 
ATOM     84  C   UNL A   1      50.965  27.386  27.912  1.00  0.00     0.041 A 
ATOM     85  F   UNL A   1      49.187  27.350  29.442  1.00  0.00    -0.206 F 
ATOM     86  C   UNL A   1      51.443  27.621  26.627  1.00  0.00     0.022 A 
BRANCH  83  87
ATOM     87  S   UNL A   1      51.187  28.272  23.958  1.00  0.00     0.124 S 
ATOM     88  O   UNL A   1      51.752  29.617  23.926  1.00  0.00    -0.237 OA
ATOM     89  O   UNL A   1      52.153  27.178  23.909  1.00  0.00    -0.237 OA
ATOM     90  O   UNL A   1      49.986  28.074  23.153  1.00  0.00    -0.744 OA
ENDBRANCH  83  87
ENDBRANCH  56  80
BRANCH  68  91
ATOM     91  C   UNL A   1      44.963  33.286  30.341  1.00  0.00     0.023 A 
ATOM     92  C   UNL A   1      44.953  34.418  29.501  1.00  0.00     0.031 A 
ATOM     93  C   UNL A   1      45.444  33.439  31.651  1.00  0.00     0.131 A 
ATOM     94  C   UNL A   1      45.464  35.637  29.963  1.00  0.00     0.055 A 
ATOM     95  C   UNL A   1      45.903  34.670  32.125  1.00  0.00     0.041 A 
ATOM     96  F   UNL A   1      45.486  32.390  32.489  1.00  0.00    -0.206 F 
ATOM     97  C   UNL A   1      45.930  35.771  31.275  1.00  0.00     0.022 A 
BRANCH  94  98
ATOM     98  S   UNL A   1      45.635  37.065  28.857  1.00  0.00     0.124 S 
ATOM     99  O   UNL A   1      45.050  38.140  29.656  1.00  0.00    -0.237 OA
ATOM    100  O   UNL A   1      47.082  37.139  28.673  1.00  0.00    -0.237 OA
ATOM    101  O   UNL A   1      44.870  36.686  27.673  1.00  0.00    -0.744 OA
ENDBRANCH  94  98
ENDBRANCH  68  91
ENDBRANCH  42  43
ENDBRANCH  35  37
ENDBRANCH  34  35
ENDBRANCH  33  34
ENDBRANCH  32  33
ENDBRANCH  31  32
ENDBRANCH   1  31
TORSDOF 22
ENDMDL
