MODEL 1
REMARK VINA RESULT:     -12.4      0.000      0.000
REMARK SMILES COc1cc([C@@H]2CC(=O)Nc3c(C(=O)OCCOCCOCCOC(=O)c4ccc(-c5c6nc(c(-c7cc(S(=O)(=O)[O-])ccc7F)c7ccc([nH]7)c(-c7cc(S(=O)(=O)[O-])ccc7F)c7nc(c(-c8cc(S(=O)(=O)[O-])ccc8F)c8ccc5[nH]8)C=C7)C=C6)cc4)cn(-c4ccc(F)cc4)c32)c(OC)c2c1OCO2
REMARK SMILES IDX 20 1 19 2 18 3 17 4 16 5 15 6 13 7 14 8 12 9 6 10 7 11 99 12
REMARK SMILES IDX 8 13 11 14 91 15 9 16 10 17 90 18 5 20 3 21 4 22 104 23
REMARK SMILES IDX 103 24 105 25 100 26 107 27 106 28 2 29 1 30 101 31 102 32
REMARK SMILES IDX 92 33 93 34 98 35 94 36 97 37 95 38 96 39 21 40 22 41 23 42
REMARK SMILES IDX 24 43 25 44 26 45 27 46 28 47 89 48 29 49 88 50 30 51 31 52
REMARK SMILES IDX 32 53 82 54 33 55 87 56 81 57 83 58 34 59 86 60 80 61 79 62
REMARK SMILES IDX 35 64 67 65 47 66 66 67 48 68 51 69 65 70 84 71 49 72 50 73
REMARK SMILES IDX 64 75 85 76 52 77 36 78 37 79 45 80 38 81 44 82 46 83 43 84
REMARK SMILES IDX 39 85 40 86 41 87 42 88 68 89 69 90 77 91 70 92 76 93 78 94
REMARK SMILES IDX 75 95 71 96 72 97 73 98 74 99 53 100 54 101 62 102 55 103
REMARK SMILES IDX 61 104 63 105 60 106 56 107 57 108 58 109 59 110
REMARK H PARENT 10 19 83 63 51 74
REMARK Flexibility Score: inf
ROOT
ATOM      1  C   UNL A   1      38.839  21.674  25.774  1.00  0.00     0.188 C 
ENDROOT
BRANCH   1   2
ATOM      2  C   UNL A   1      38.052  23.007  25.865  1.00  0.00     0.188 C 
BRANCH   2   3
ATOM      3  O   UNL A   1      36.635  23.041  25.753  1.00  0.00    -0.376 OA
BRANCH   3   4
ATOM      4  C   UNL A   1      35.858  21.891  26.042  1.00  0.00     0.202 C 
BRANCH   4   5
ATOM      5  C   UNL A   1      34.474  22.017  26.714  1.00  0.00     0.261 C 
BRANCH   5   6
ATOM      6  O   UNL A   1      33.871  23.320  26.705  1.00  0.00    -0.460 OA
BRANCH   6   7
ATOM      7  C   UNL A   1      33.060  23.590  25.640  1.00  0.00     0.341 C 
ATOM      8  O   UNL A   1      32.296  22.787  25.131  1.00  0.00    -0.246 OA
BRANCH   7   9
ATOM      9  C   UNL A   1      33.115  24.992  25.234  1.00  0.00     0.102 A 
ATOM     10  C   UNL A   1      32.560  27.878  23.005  1.00  0.00     0.082 C 
ATOM     11  C   UNL A   1      33.050  27.297  21.668  1.00  0.00     0.115 C 
ATOM     12  C   UNL A   1      32.931  26.943  24.117  1.00  0.00     0.055 A 
ATOM     13  C   UNL A   1      32.983  25.777  21.547  1.00  0.00     0.225 C 
ATOM     14  C   UNL A   1      33.108  25.588  23.951  1.00  0.00     0.078 A 
ATOM     15  N   UNL A   1      33.149  27.240  25.443  1.00  0.00    -0.317 N 
ATOM     16  O   UNL A   1      32.889  25.228  20.448  1.00  0.00    -0.275 OA
ATOM     17  N   UNL A   1      33.123  25.028  22.694  1.00  0.00    -0.324 N 
ATOM     18  C   UNL A   1      33.251  26.050  26.128  1.00  0.00     0.109 A 
ATOM     19  H   UNL A   1      33.240  24.054  22.611  1.00  0.00     0.170 HD
BRANCH  10  20
ATOM     20  C   UNL A   1      31.054  28.202  23.000  1.00  0.00     0.012 A 
ATOM     21  C   UNL A   1      29.347  29.958  22.819  1.00  0.00     0.165 A 
ATOM     22  C   UNL A   1      30.666  29.528  22.669  1.00  0.00     0.059 A 
ATOM     23  C   UNL A   1      28.400  29.027  23.197  1.00  0.00     0.211 A 
ATOM     24  C   UNL A   1      28.744  27.720  23.469  1.00  0.00     0.211 A 
ATOM     25  O   UNL A   1      27.061  29.246  23.337  1.00  0.00    -0.449 OA
ATOM     26  C   UNL A   1      30.055  27.275  23.390  1.00  0.00     0.168 A 
ATOM     27  O   UNL A   1      27.653  26.980  23.825  1.00  0.00    -0.449 OA
ATOM     28  C   UNL A   1      26.593  27.928  23.656  1.00  0.00     0.468 C 
BRANCH  21  29
ATOM     29  O   UNL A   1      29.092  31.275  22.559  1.00  0.00    -0.493 OA
ATOM     30  C   UNL A   1      29.164  31.589  21.168  1.00  0.00     0.278 C 
ENDBRANCH  21  29
BRANCH  26  31
ATOM     31  O   UNL A   1      30.472  26.012  23.660  1.00  0.00    -0.492 OA
ATOM     32  C   UNL A   1      29.881  25.260  24.705  1.00  0.00     0.278 C 
ENDBRANCH  26  31
ENDBRANCH  10  20
BRANCH  15  33
ATOM     33  C   UNL A   1      33.191  28.516  26.037  1.00  0.00     0.046 A 
ATOM     34  C   UNL A   1      34.403  28.986  26.543  1.00  0.00     0.029 A 
ATOM     35  C   UNL A   1      32.020  29.276  26.147  1.00  0.00     0.029 A 
ATOM     36  C   UNL A   1      34.438  30.191  27.241  1.00  0.00     0.041 A 
ATOM     37  C   UNL A   1      32.066  30.488  26.844  1.00  0.00     0.041 A 
ATOM     38  C   UNL A   1      33.268  30.924  27.397  1.00  0.00     0.123 A 
ATOM     39  F   UNL A   1      33.303  32.070  28.088  1.00  0.00    -0.207 F 
ENDBRANCH  15  33
ENDBRANCH   7   9
ENDBRANCH   6   7
ENDBRANCH   5   6
ENDBRANCH   4   5
ENDBRANCH   3   4
ENDBRANCH   2   3
ENDBRANCH   1   2
BRANCH   1  40
ATOM     40  O   UNL A   1      40.036  21.642  26.527  1.00  0.00    -0.376 OA
BRANCH  40  41
ATOM     41  C   UNL A   1      40.363  22.700  27.417  1.00  0.00     0.202 C 
BRANCH  41  42
ATOM     42  C   UNL A   1      41.647  23.517  27.257  1.00  0.00     0.261 C 
BRANCH  42  43
ATOM     43  O   UNL A   1      41.562  24.839  27.738  1.00  0.00    -0.460 OA
BRANCH  43  44
ATOM     44  C   UNL A   1      41.456  25.770  26.765  1.00  0.00     0.338 C 
ATOM     45  O   UNL A   1      42.141  25.864  25.767  1.00  0.00    -0.246 OA
BRANCH  44  46
ATOM     46  C   UNL A   1      40.338  26.657  27.111  1.00  0.00     0.060 A 
ATOM     47  C   UNL A   1      40.454  27.965  26.643  1.00  0.00     0.016 A 
ATOM     48  C   UNL A   1      39.589  26.308  28.240  1.00  0.00     0.016 A 
ATOM     49  C   UNL A   1      40.202  28.963  27.544  1.00  0.00     0.010 A 
ATOM     50  C   UNL A   1      39.379  27.296  29.153  1.00  0.00     0.010 A 
ATOM     51  C   UNL A   1      39.822  28.577  28.830  1.00  0.00    -0.014 A 
BRANCH  51  52
ATOM     52  C   UNL A   1      39.935  29.535  29.898  1.00  0.00     0.031 A 
ATOM     53  C   UNL A   1      38.706  30.329  30.052  1.00  0.00     0.074 A 
ATOM     54  C   UNL A   1      41.015  29.534  30.701  1.00  0.00     0.049 A 
ATOM     55  N   UNL A   1      38.539  31.569  29.741  1.00  0.00    -0.248 NA
ATOM     56  C   UNL A   1      37.451  29.602  30.314  1.00  0.00     0.031 C 
ATOM     57  C   UNL A   1      42.147  28.601  30.727  1.00  0.00     0.029 A 
ATOM     58  N   UNL A   1      41.259  30.325  31.773  1.00  0.00    -0.354 N 
ATOM     59  C   UNL A   1      37.204  31.829  30.016  1.00  0.00     0.074 A 
ATOM     60  C   UNL A   1      36.554  30.552  30.064  1.00  0.00     0.031 C 
ATOM     61  C   UNL A   1      42.804  28.733  31.904  1.00  0.00     0.029 A 
ATOM     62  C   UNL A   1      42.208  29.822  32.659  1.00  0.00     0.049 A 
ATOM     63  H   UNL A   1      40.803  31.185  31.914  1.00  0.00     0.167 HD
ATOM     64  C   UNL A   1      36.803  33.045  30.471  1.00  0.00     0.034 A 
ATOM     65  C   UNL A   1      42.344  30.209  33.959  1.00  0.00     0.034 A 
ATOM     66  C   UNL A   1      37.845  34.029  30.276  1.00  0.00     0.049 A 
ATOM     67  C   UNL A   1      41.705  31.559  34.049  1.00  0.00     0.074 A 
ATOM     68  C   UNL A   1      38.485  34.532  29.160  1.00  0.00     0.029 A 
ATOM     69  N   UNL A   1      38.666  34.319  31.347  1.00  0.00    -0.354 N 
ATOM     70  N   UNL A   1      42.168  32.605  33.408  1.00  0.00    -0.248 NA
ATOM     71  C   UNL A   1      40.280  31.622  34.364  1.00  0.00     0.031 C 
ATOM     72  C   UNL A   1      39.853  34.642  29.543  1.00  0.00     0.029 A 
ATOM     73  C   UNL A   1      39.965  34.303  30.895  1.00  0.00     0.049 A 
ATOM     74  H   UNL A   1      38.373  34.504  32.269  1.00  0.00     0.167 HD
ATOM     75  C   UNL A   1      41.050  33.238  32.876  1.00  0.00     0.074 A 
ATOM     76  C   UNL A   1      39.908  32.625  33.559  1.00  0.00     0.031 C 
ATOM     77  C   UNL A   1      41.116  33.962  31.717  1.00  0.00     0.034 A 
BRANCH  64  78
ATOM     78  C   UNL A   1      35.641  33.267  31.406  1.00  0.00     0.023 A 
ATOM     79  C   UNL A   1      34.702  34.239  31.021  1.00  0.00     0.031 A 
ATOM     80  C   UNL A   1      35.529  32.799  32.737  1.00  0.00     0.131 A 
ATOM     81  C   UNL A   1      33.791  34.769  31.948  1.00  0.00     0.055 A 
ATOM     82  C   UNL A   1      34.572  33.277  33.635  1.00  0.00     0.041 A 
ATOM     83  F   UNL A   1      36.383  31.930  33.287  1.00  0.00    -0.206 F 
ATOM     84  C   UNL A   1      33.718  34.294  33.254  1.00  0.00     0.022 A 
BRANCH  81  85
ATOM     85  S   UNL A   1      32.829  36.219  31.460  1.00  0.00     0.124 S 
ATOM     86  O   UNL A   1      31.724  36.178  32.413  1.00  0.00    -0.237 OA
ATOM     87  O   UNL A   1      33.799  37.294  31.642  1.00  0.00    -0.237 OA
ATOM     88  O   UNL A   1      32.467  35.932  30.075  1.00  0.00    -0.744 OA
ENDBRANCH  81  85
ENDBRANCH  64  78
BRANCH  65  89
ATOM     89  C   UNL A   1      42.576  29.287  35.119  1.00  0.00     0.023 A 
ATOM     90  C   UNL A   1      41.798  28.136  35.381  1.00  0.00     0.031 A 
ATOM     91  C   UNL A   1      43.742  29.439  35.911  1.00  0.00     0.131 A 
ATOM     92  C   UNL A   1      42.186  27.224  36.402  1.00  0.00     0.055 A 
ATOM     93  C   UNL A   1      44.111  28.546  36.918  1.00  0.00     0.041 A 
ATOM     94  F   UNL A   1      44.619  30.428  35.680  1.00  0.00    -0.206 F 
ATOM     95  C   UNL A   1      43.336  27.430  37.166  1.00  0.00     0.022 A 
BRANCH  92  96
ATOM     96  S   UNL A   1      41.234  25.696  36.713  1.00  0.00     0.124 S 
ATOM     97  O   UNL A   1      40.386  26.081  37.836  1.00  0.00    -0.237 OA
ATOM     98  O   UNL A   1      40.564  25.478  35.437  1.00  0.00    -0.237 OA
ATOM     99  O   UNL A   1      42.266  24.709  37.036  1.00  0.00    -0.744 OA
ENDBRANCH  92  96
ENDBRANCH  65  89
BRANCH  77 100
ATOM    100  C   UNL A   1      42.478  34.261  31.110  1.00  0.00     0.023 A 
ATOM    101  C   UNL A   1      43.032  33.605  29.983  1.00  0.00     0.031 A 
ATOM    102  C   UNL A   1      43.154  35.395  31.596  1.00  0.00     0.131 A 
ATOM    103  C   UNL A   1      44.214  34.097  29.391  1.00  0.00     0.055 A 
ATOM    104  C   UNL A   1      44.307  35.893  30.989  1.00  0.00     0.041 A 
ATOM    105  F   UNL A   1      42.667  36.078  32.645  1.00  0.00    -0.206 F 
ATOM    106  C   UNL A   1      44.843  35.245  29.884  1.00  0.00     0.022 A 
BRANCH 103 107
ATOM    107  S   UNL A   1      44.966  33.250  27.961  1.00  0.00     0.124 S 
ATOM    108  O   UNL A   1      44.223  31.998  27.881  1.00  0.00    -0.237 OA
ATOM    109  O   UNL A   1      44.740  34.200  26.876  1.00  0.00    -0.237 OA
ATOM    110  O   UNL A   1      46.369  33.100  28.354  1.00  0.00    -0.744 OA
ENDBRANCH 103 107
ENDBRANCH  77 100
ENDBRANCH  51  52
ENDBRANCH  44  46
ENDBRANCH  43  44
ENDBRANCH  42  43
ENDBRANCH  41  42
ENDBRANCH  40  41
ENDBRANCH   1  40
TORSDOF 24
ENDMDL
MODEL 2
REMARK VINA RESULT:     -10.6      1.925      2.401
REMARK SMILES COc1cc([C@@H]2CC(=O)Nc3c(C(=O)OCCOCCOCCOC(=O)c4ccc(-c5c6nc(c(-c7cc(S(=O)(=O)[O-])ccc7F)c7ccc([nH]7)c(-c7cc(S(=O)(=O)[O-])ccc7F)c7nc(c(-c8cc(S(=O)(=O)[O-])ccc8F)c8ccc5[nH]8)C=C7)C=C6)cc4)cn(-c4ccc(F)cc4)c32)c(OC)c2c1OCO2
REMARK SMILES IDX 20 1 19 2 18 3 17 4 16 5 15 6 13 7 14 8 12 9 6 10 7 11 99 12
REMARK SMILES IDX 8 13 11 14 91 15 9 16 10 17 90 18 5 20 3 21 4 22 104 23
REMARK SMILES IDX 103 24 105 25 100 26 107 27 106 28 2 29 1 30 101 31 102 32
REMARK SMILES IDX 92 33 93 34 98 35 94 36 97 37 95 38 96 39 21 40 22 41 23 42
REMARK SMILES IDX 24 43 25 44 26 45 27 46 28 47 89 48 29 49 88 50 30 51 31 52
REMARK SMILES IDX 32 53 82 54 33 55 87 56 81 57 83 58 34 59 86 60 80 61 79 62
REMARK SMILES IDX 35 64 67 65 47 66 66 67 48 68 51 69 65 70 84 71 49 72 50 73
REMARK SMILES IDX 64 75 85 76 52 77 36 78 37 79 45 80 38 81 44 82 46 83 43 84
REMARK SMILES IDX 39 85 40 86 41 87 42 88 68 89 69 90 77 91 70 92 76 93 78 94
REMARK SMILES IDX 75 95 71 96 72 97 73 98 74 99 53 100 54 101 62 102 55 103
REMARK SMILES IDX 61 104 63 105 60 106 56 107 57 108 58 109 59 110
REMARK H PARENT 10 19 83 63 51 74
REMARK Flexibility Score: inf
ROOT
ATOM      1  C   UNL A   1      37.542  21.649  24.669  1.00  0.00     0.188 C 
ENDROOT
BRANCH   1   2
ATOM      2  C   UNL A   1      36.822  22.948  25.113  1.00  0.00     0.188 C 
BRANCH   2   3
ATOM      3  O   UNL A   1      35.790  22.928  26.090  1.00  0.00    -0.376 OA
BRANCH   3   4
ATOM      4  C   UNL A   1      35.145  21.713  26.436  1.00  0.00     0.202 C 
BRANCH   4   5
ATOM      5  C   UNL A   1      33.734  21.714  27.062  1.00  0.00     0.261 C 
BRANCH   5   6
ATOM      6  O   UNL A   1      32.919  22.870  26.809  1.00  0.00    -0.460 OA
BRANCH   6   7
ATOM      7  C   UNL A   1      32.680  23.150  25.494  1.00  0.00     0.341 C 
ATOM      8  O   UNL A   1      32.275  22.340  24.677  1.00  0.00    -0.246 OA
BRANCH   7   9
ATOM      9  C   UNL A   1      32.851  24.567  25.182  1.00  0.00     0.102 A 
ATOM     10  C   UNL A   1      32.649  27.605  23.101  1.00  0.00     0.082 C 
ATOM     11  C   UNL A   1      33.210  27.072  21.772  1.00  0.00     0.115 C 
ATOM     12  C   UNL A   1      32.873  26.586  24.177  1.00  0.00     0.055 A 
ATOM     13  C   UNL A   1      33.063  25.568  21.552  1.00  0.00     0.225 C 
ATOM     14  C   UNL A   1      32.982  25.234  23.942  1.00  0.00     0.078 A 
ATOM     15  N   UNL A   1      33.001  26.792  25.532  1.00  0.00    -0.317 N 
ATOM     16  O   UNL A   1      33.025  25.090  20.416  1.00  0.00    -0.275 OA
ATOM     17  N   UNL A   1      33.065  24.748  22.657  1.00  0.00    -0.324 N 
ATOM     18  C   UNL A   1      32.977  25.561  26.147  1.00  0.00     0.109 A 
ATOM     19  H   UNL A   1      33.130  23.775  22.523  1.00  0.00     0.170 HD
BRANCH  10  20
ATOM     20  C   UNL A   1      31.170  28.025  23.001  1.00  0.00     0.012 A 
ATOM     21  C   UNL A   1      29.595  29.870  22.617  1.00  0.00     0.165 A 
ATOM     22  C   UNL A   1      30.888  29.346  22.561  1.00  0.00     0.059 A 
ATOM     23  C   UNL A   1      28.572  29.032  23.012  1.00  0.00     0.211 A 
ATOM     24  C   UNL A   1      28.814  27.728  23.389  1.00  0.00     0.211 A 
ATOM     25  O   UNL A   1      27.247  29.347  23.071  1.00  0.00    -0.449 OA
ATOM     26  C   UNL A   1      30.094  27.195  23.404  1.00  0.00     0.168 A 
ATOM     27  O   UNL A   1      27.661  27.087  23.741  1.00  0.00    -0.449 OA
ATOM     28  C   UNL A   1      26.676  28.088  23.456  1.00  0.00     0.468 C 
BRANCH  21  29
ATOM     29  O   UNL A   1      29.442  31.179  22.256  1.00  0.00    -0.493 OA
ATOM     30  C   UNL A   1      29.144  32.029  23.364  1.00  0.00     0.278 C 
ENDBRANCH  21  29
BRANCH  26  31
ATOM     31  O   UNL A   1      30.412  25.929  23.780  1.00  0.00    -0.492 OA
ATOM     32  C   UNL A   1      29.815  24.813  23.145  1.00  0.00     0.278 C 
ENDBRANCH  26  31
ENDBRANCH  10  20
BRANCH  15  33
ATOM     33  C   UNL A   1      33.070  28.026  26.207  1.00  0.00     0.046 A 
ATOM     34  C   UNL A   1      31.892  28.606  26.679  1.00  0.00     0.029 A 
ATOM     35  C   UNL A   1      34.303  28.670  26.362  1.00  0.00     0.029 A 
ATOM     36  C   UNL A   1      31.926  29.880  27.240  1.00  0.00     0.041 A 
ATOM     37  C   UNL A   1      34.330  29.947  26.933  1.00  0.00     0.041 A 
ATOM     38  C   UNL A   1      33.142  30.545  27.350  1.00  0.00     0.123 A 
ATOM     39  F   UNL A   1      33.167  31.779  27.869  1.00  0.00    -0.207 F 
ENDBRANCH  15  33
ENDBRANCH   7   9
ENDBRANCH   6   7
ENDBRANCH   5   6
ENDBRANCH   4   5
ENDBRANCH   3   4
ENDBRANCH   2   3
ENDBRANCH   1   2
BRANCH   1  40
ATOM     40  O   UNL A   1      38.672  21.303  25.446  1.00  0.00    -0.376 OA
BRANCH  40  41
ATOM     41  C   UNL A   1      39.175  22.194  26.432  1.00  0.00     0.202 C 
BRANCH  41  42
ATOM     42  C   UNL A   1      40.647  22.609  26.465  1.00  0.00     0.261 C 
BRANCH  42  43
ATOM     43  O   UNL A   1      40.907  23.782  27.202  1.00  0.00    -0.460 OA
BRANCH  43  44
ATOM     44  C   UNL A   1      41.080  24.881  26.438  1.00  0.00     0.338 C 
ATOM     45  O   UNL A   1      41.778  24.982  25.450  1.00  0.00    -0.246 OA
BRANCH  44  46
ATOM     46  C   UNL A   1      40.250  25.955  27.000  1.00  0.00     0.060 A 
ATOM     47  C   UNL A   1      40.627  27.247  26.634  1.00  0.00     0.016 A 
ATOM     48  C   UNL A   1      39.563  25.660  28.182  1.00  0.00     0.016 A 
ATOM     49  C   UNL A   1      40.718  28.167  27.643  1.00  0.00     0.010 A 
ATOM     50  C   UNL A   1      39.694  26.559  29.196  1.00  0.00     0.010 A 
ATOM     51  C   UNL A   1      40.394  27.734  28.930  1.00  0.00    -0.014 A 
BRANCH  51  52
ATOM     52  C   UNL A   1      40.846  28.514  30.052  1.00  0.00     0.031 A 
ATOM     53  C   UNL A   1      39.819  29.464  30.504  1.00  0.00     0.074 A 
ATOM     54  C   UNL A   1      42.023  28.236  30.643  1.00  0.00     0.049 A 
ATOM     55  N   UNL A   1      39.829  30.745  30.357  1.00  0.00    -0.248 NA
ATOM     56  C   UNL A   1      38.513  28.918  30.912  1.00  0.00     0.031 C 
ATOM     57  C   UNL A   1      42.959  27.139  30.369  1.00  0.00     0.029 A 
ATOM     58  N   UNL A   1      42.572  28.829  31.729  1.00  0.00    -0.354 N 
ATOM     59  C   UNL A   1      38.624  31.176  30.893  1.00  0.00     0.074 A 
ATOM     60  C   UNL A   1      37.772  30.023  30.927  1.00  0.00     0.031 C 
ATOM     61  C   UNL A   1      43.809  27.010  31.417  1.00  0.00     0.029 A 
ATOM     62  C   UNL A   1      43.545  28.071  32.374  1.00  0.00     0.049 A 
ATOM     63  H   UNL A   1      42.305  29.725  32.037  1.00  0.00     0.167 HD
ATOM     64  C   UNL A   1      38.524  32.369  31.535  1.00  0.00     0.034 A 
ATOM     65  C   UNL A   1      43.954  28.256  33.661  1.00  0.00     0.034 A 
ATOM     66  C   UNL A   1      39.680  33.192  31.258  1.00  0.00     0.049 A 
ATOM     67  C   UNL A   1      43.590  29.667  34.002  1.00  0.00     0.074 A 
ATOM     68  C   UNL A   1      40.213  33.730  30.103  1.00  0.00     0.029 A 
ATOM     69  N   UNL A   1      40.700  33.205  32.188  1.00  0.00    -0.354 N 
ATOM     70  N   UNL A   1      44.123  30.702  33.399  1.00  0.00    -0.248 NA
ATOM     71  C   UNL A   1      42.267  29.913  34.573  1.00  0.00     0.031 C 
ATOM     72  C   UNL A   1      41.622  33.570  30.242  1.00  0.00     0.029 A 
ATOM     73  C   UNL A   1      41.887  33.043  31.510  1.00  0.00     0.049 A 
ATOM     74  H   UNL A   1      40.597  33.311  33.161  1.00  0.00     0.167 HD
ATOM     75  C   UNL A   1      43.066  31.569  33.144  1.00  0.00     0.074 A 
ATOM     76  C   UNL A   1      41.957  31.060  33.954  1.00  0.00     0.031 C 
ATOM     77  C   UNL A   1      43.075  32.419  32.072  1.00  0.00     0.034 A 
BRANCH  64  78
ATOM     78  C   UNL A   1      37.585  32.648  32.682  1.00  0.00     0.023 A 
ATOM     79  C   UNL A   1      36.429  33.387  32.380  1.00  0.00     0.031 A 
ATOM     80  C   UNL A   1      37.862  32.476  34.059  1.00  0.00     0.131 A 
ATOM     81  C   UNL A   1      35.675  33.993  33.398  1.00  0.00     0.055 A 
ATOM     82  C   UNL A   1      37.068  33.019  35.070  1.00  0.00     0.041 A 
ATOM     83  F   UNL A   1      38.957  31.861  34.519  1.00  0.00    -0.206 F 
ATOM     84  C   UNL A   1      35.985  33.813  34.743  1.00  0.00     0.022 A 
BRANCH  81  85
ATOM     85  S   UNL A   1      34.390  35.170  32.918  1.00  0.00     0.124 S 
ATOM     86  O   UNL A   1      34.883  35.637  31.626  1.00  0.00    -0.237 OA
ATOM     87  O   UNL A   1      33.204  34.320  32.888  1.00  0.00    -0.237 OA
ATOM     88  O   UNL A   1      34.423  36.159  33.992  1.00  0.00    -0.744 OA
ENDBRANCH  81  85
ENDBRANCH  64  78
BRANCH  65  89
ATOM     89  C   UNL A   1      44.199  27.166  34.660  1.00  0.00     0.023 A 
ATOM     90  C   UNL A   1      45.446  26.934  35.287  1.00  0.00     0.031 A 
ATOM     91  C   UNL A   1      43.104  26.425  35.169  1.00  0.00     0.131 A 
ATOM     92  C   UNL A   1      45.552  25.989  36.345  1.00  0.00     0.055 A 
ATOM     93  C   UNL A   1      43.217  25.491  36.201  1.00  0.00     0.041 A 
ATOM     94  F   UNL A   1      41.853  26.640  34.735  1.00  0.00    -0.206 F 
ATOM     95  C   UNL A   1      44.443  25.272  36.798  1.00  0.00     0.022 A 
BRANCH  92  96
ATOM     96  S   UNL A   1      47.136  25.722  37.215  1.00  0.00     0.124 S 
ATOM     97  O   UNL A   1      46.904  24.458  37.904  1.00  0.00    -0.237 OA
ATOM     98  O   UNL A   1      48.096  25.697  36.118  1.00  0.00    -0.237 OA
ATOM     99  O   UNL A   1      47.247  26.887  38.094  1.00  0.00    -0.744 OA
ENDBRANCH  92  96
ENDBRANCH  65  89
BRANCH  77 100
ATOM    100  C   UNL A   1      44.353  32.576  31.264  1.00  0.00     0.023 A 
ATOM    101  C   UNL A   1      44.724  31.771  30.159  1.00  0.00     0.031 A 
ATOM    102  C   UNL A   1      45.133  33.717  31.524  1.00  0.00     0.131 A 
ATOM    103  C   UNL A   1      45.834  32.131  29.366  1.00  0.00     0.055 A 
ATOM    104  C   UNL A   1      46.212  34.082  30.721  1.00  0.00     0.041 A 
ATOM    105  F   UNL A   1      44.818  34.536  32.542  1.00  0.00    -0.206 F 
ATOM    106  C   UNL A   1      46.569  33.290  29.638  1.00  0.00     0.022 A 
BRANCH 103 107
ATOM    107  S   UNL A   1      46.354  31.093  27.958  1.00  0.00     0.124 S 
ATOM    108  O   UNL A   1      47.592  31.724  27.514  1.00  0.00    -0.237 OA
ATOM    109  O   UNL A   1      46.489  29.775  28.570  1.00  0.00    -0.237 OA
ATOM    110  O   UNL A   1      45.239  31.215  27.016  1.00  0.00    -0.744 OA
ENDBRANCH 103 107
ENDBRANCH  77 100
ENDBRANCH  51  52
ENDBRANCH  44  46
ENDBRANCH  43  44
ENDBRANCH  42  43
ENDBRANCH  41  42
ENDBRANCH  40  41
ENDBRANCH   1  40
TORSDOF 24
ENDMDL
MODEL 3
REMARK VINA RESULT:     -10.5      5.705     13.023
REMARK SMILES COc1cc([C@@H]2CC(=O)Nc3c(C(=O)OCCOCCOCCOC(=O)c4ccc(-c5c6nc(c(-c7cc(S(=O)(=O)[O-])ccc7F)c7ccc([nH]7)c(-c7cc(S(=O)(=O)[O-])ccc7F)c7nc(c(-c8cc(S(=O)(=O)[O-])ccc8F)c8ccc5[nH]8)C=C7)C=C6)cc4)cn(-c4ccc(F)cc4)c32)c(OC)c2c1OCO2
REMARK SMILES IDX 20 1 19 2 18 3 17 4 16 5 15 6 13 7 14 8 12 9 6 10 7 11 99 12
REMARK SMILES IDX 8 13 11 14 91 15 9 16 10 17 90 18 5 20 3 21 4 22 104 23
REMARK SMILES IDX 103 24 105 25 100 26 107 27 106 28 2 29 1 30 101 31 102 32
REMARK SMILES IDX 92 33 93 34 98 35 94 36 97 37 95 38 96 39 21 40 22 41 23 42
REMARK SMILES IDX 24 43 25 44 26 45 27 46 28 47 89 48 29 49 88 50 30 51 31 52
REMARK SMILES IDX 32 53 82 54 33 55 87 56 81 57 83 58 34 59 86 60 80 61 79 62
REMARK SMILES IDX 35 64 67 65 47 66 66 67 48 68 51 69 65 70 84 71 49 72 50 73
REMARK SMILES IDX 64 75 85 76 52 77 36 78 37 79 45 80 38 81 44 82 46 83 43 84
REMARK SMILES IDX 39 85 40 86 41 87 42 88 68 89 69 90 77 91 70 92 76 93 78 94
REMARK SMILES IDX 75 95 71 96 72 97 73 98 74 99 53 100 54 101 62 102 55 103
REMARK SMILES IDX 61 104 63 105 60 106 56 107 57 108 58 109 59 110
REMARK H PARENT 10 19 83 63 51 74
REMARK Flexibility Score: inf
ROOT
ATOM      1  C   UNL A   1      34.680  34.525  30.790  1.00  0.00     0.188 C 
ENDROOT
BRANCH   1   2
ATOM      2  C   UNL A   1      35.017  34.540  32.303  1.00  0.00     0.188 C 
BRANCH   2   3
ATOM      3  O   UNL A   1      36.353  34.397  32.768  1.00  0.00    -0.376 OA
BRANCH   3   4
ATOM      4  C   UNL A   1      36.628  34.274  34.153  1.00  0.00     0.202 C 
BRANCH   4   5
ATOM      5  C   UNL A   1      36.749  32.886  34.817  1.00  0.00     0.261 C 
BRANCH   5   6
ATOM      6  O   UNL A   1      37.296  32.853  36.145  1.00  0.00    -0.460 OA
BRANCH   6   7
ATOM      7  C   UNL A   1      38.135  31.810  36.414  1.00  0.00     0.341 C 
ATOM      8  O   UNL A   1      37.767  30.691  36.733  1.00  0.00    -0.246 OA
BRANCH   7   9
ATOM      9  C   UNL A   1      39.537  32.139  36.169  1.00  0.00     0.102 A 
ATOM     10  C   UNL A   1      42.720  32.138  34.307  1.00  0.00     0.082 C 
ATOM     11  C   UNL A   1      42.832  30.648  33.945  1.00  0.00     0.115 C 
ATOM     12  C   UNL A   1      41.606  32.325  35.293  1.00  0.00     0.055 A 
ATOM     13  C   UNL A   1      41.511  29.886  33.877  1.00  0.00     0.225 C 
ATOM     14  C   UNL A   1      40.521  31.486  35.390  1.00  0.00     0.078 A 
ATOM     15  N   UNL A   1      41.460  33.320  36.233  1.00  0.00    -0.317 N 
ATOM     16  O   UNL A   1      41.390  28.877  33.179  1.00  0.00    -0.275 OA
ATOM     17  N   UNL A   1      40.480  30.302  34.689  1.00  0.00    -0.324 N 
ATOM     18  C   UNL A   1      40.193  33.213  36.761  1.00  0.00     0.109 A 
ATOM     19  H   UNL A   1      39.684  29.730  34.772  1.00  0.00     0.170 HD
BRANCH  10  20
ATOM     20  C   UNL A   1      42.558  33.044  33.071  1.00  0.00     0.012 A 
ATOM     21  C   UNL A   1      40.985  34.096  31.506  1.00  0.00     0.165 A 
ATOM     22  C   UNL A   1      41.241  33.435  32.708  1.00  0.00     0.059 A 
ATOM     23  C   UNL A   1      42.062  34.458  30.722  1.00  0.00     0.211 A 
ATOM     24  C   UNL A   1      43.355  34.139  31.082  1.00  0.00     0.211 A 
ATOM     25  O   UNL A   1      42.013  35.156  29.552  1.00  0.00    -0.449 OA
ATOM     26  C   UNL A   1      43.639  33.429  32.239  1.00  0.00     0.168 A 
ATOM     27  O   UNL A   1      44.256  34.591  30.163  1.00  0.00    -0.449 OA
ATOM     28  C   UNL A   1      43.408  35.301  29.252  1.00  0.00     0.468 C 
BRANCH  21  29
ATOM     29  O   UNL A   1      39.676  34.350  31.206  1.00  0.00    -0.493 OA
ATOM     30  C   UNL A   1      39.110  33.377  30.328  1.00  0.00     0.278 C 
ENDBRANCH  21  29
BRANCH  26  31
ATOM     31  O   UNL A   1      44.880  33.063  32.650  1.00  0.00    -0.492 OA
ATOM     32  C   UNL A   1      45.648  32.138  31.901  1.00  0.00     0.278 C 
ENDBRANCH  26  31
ENDBRANCH  10  20
BRANCH  15  33
ATOM     33  C   UNL A   1      42.388  34.325  36.566  1.00  0.00     0.046 A 
ATOM     34  C   UNL A   1      41.919  35.533  37.086  1.00  0.00     0.029 A 
ATOM     35  C   UNL A   1      43.754  34.119  36.342  1.00  0.00     0.029 A 
ATOM     36  C   UNL A   1      42.809  36.580  37.307  1.00  0.00     0.041 A 
ATOM     37  C   UNL A   1      44.642  35.175  36.574  1.00  0.00     0.041 A 
ATOM     38  C   UNL A   1      44.160  36.397  37.037  1.00  0.00     0.123 A 
ATOM     39  F   UNL A   1      45.008  37.415  37.230  1.00  0.00    -0.207 F 
ENDBRANCH  15  33
ENDBRANCH   7   9
ENDBRANCH   6   7
ENDBRANCH   5   6
ENDBRANCH   4   5
ENDBRANCH   3   4
ENDBRANCH   2   3
ENDBRANCH   1   2
BRANCH   1  40
ATOM     40  O   UNL A   1      35.630  33.862  29.979  1.00  0.00    -0.376 OA
BRANCH  40  41
ATOM     41  C   UNL A   1      35.212  32.990  28.937  1.00  0.00     0.202 C 
BRANCH  41  42
ATOM     42  C   UNL A   1      35.426  31.477  29.021  1.00  0.00     0.261 C 
BRANCH  42  43
ATOM     43  O   UNL A   1      36.778  31.079  29.042  1.00  0.00    -0.460 OA
BRANCH  43  44
ATOM     44  C   UNL A   1      37.101  30.293  30.091  1.00  0.00     0.338 C 
ATOM     45  O   UNL A   1      36.987  30.565  31.269  1.00  0.00    -0.246 OA
BRANCH  44  46
ATOM     46  C   UNL A   1      37.603  29.018  29.562  1.00  0.00     0.060 A 
ATOM     47  C   UNL A   1      38.114  28.141  30.518  1.00  0.00     0.016 A 
ATOM     48  C   UNL A   1      38.004  29.014  28.221  1.00  0.00     0.016 A 
ATOM     49  C   UNL A   1      39.329  27.574  30.242  1.00  0.00     0.010 A 
ATOM     50  C   UNL A   1      39.233  28.487  27.962  1.00  0.00     0.010 A 
ATOM     51  C   UNL A   1      39.922  27.902  29.022  1.00  0.00    -0.014 A 
BRANCH  51  52
ATOM     52  C   UNL A   1      41.332  27.670  28.858  1.00  0.00     0.031 A 
ATOM     53  C   UNL A   1      41.598  26.430  28.114  1.00  0.00     0.074 A 
ATOM     54  C   UNL A   1      42.224  28.603  29.242  1.00  0.00     0.049 A 
ATOM     55  N   UNL A   1      42.065  25.325  28.588  1.00  0.00    -0.248 NA
ATOM     56  C   UNL A   1      41.025  26.307  26.762  1.00  0.00     0.031 C 
ATOM     57  C   UNL A   1      41.983  29.952  29.765  1.00  0.00     0.029 A 
ATOM     58  N   UNL A   1      43.572  28.570  29.117  1.00  0.00    -0.354 N 
ATOM     59  C   UNL A   1      42.074  24.450  27.512  1.00  0.00     0.074 A 
ATOM     60  C   UNL A   1      41.170  25.002  26.546  1.00  0.00     0.031 C 
ATOM     61  C   UNL A   1      43.124  30.676  29.668  1.00  0.00     0.029 A 
ATOM     62  C   UNL A   1      44.189  29.816  29.180  1.00  0.00     0.049 A 
ATOM     63  H   UNL A   1      44.074  27.733  28.992  1.00  0.00     0.167 HD
ATOM     64  C   UNL A   1      43.042  23.505  27.381  1.00  0.00     0.034 A 
ATOM     65  C   UNL A   1      45.438  30.094  28.708  1.00  0.00     0.034 A 
ATOM     66  C   UNL A   1      43.764  23.342  28.623  1.00  0.00     0.049 A 
ATOM     67  C   UNL A   1      46.148  28.778  28.642  1.00  0.00     0.074 A 
ATOM     68  C   UNL A   1      43.396  22.950  29.896  1.00  0.00     0.029 A 
ATOM     69  N   UNL A   1      44.963  24.009  28.764  1.00  0.00    -0.354 N 
ATOM     70  N   UNL A   1      46.416  28.065  29.708  1.00  0.00    -0.248 NA
ATOM     71  C   UNL A   1      46.044  28.005  27.406  1.00  0.00     0.031 C 
ATOM     72  C   UNL A   1      44.114  23.819  30.766  1.00  0.00     0.029 A 
ATOM     73  C   UNL A   1      44.958  24.623  29.995  1.00  0.00     0.049 A 
ATOM     74  H   UNL A   1      45.691  24.041  28.102  1.00  0.00     0.167 HD
ATOM     75  C   UNL A   1      46.100  26.754  29.368  1.00  0.00     0.074 A 
ATOM     76  C   UNL A   1      45.941  26.770  27.912  1.00  0.00     0.031 C 
ATOM     77  C   UNL A   1      45.678  25.849  30.304  1.00  0.00     0.034 A 
BRANCH  64  78
ATOM     78  C   UNL A   1      43.571  23.000  26.062  1.00  0.00     0.023 A 
ATOM     79  C   UNL A   1      43.540  21.609  25.864  1.00  0.00     0.031 A 
ATOM     80  C   UNL A   1      44.326  23.737  25.119  1.00  0.00     0.131 A 
ATOM     81  C   UNL A   1      44.303  21.008  24.851  1.00  0.00     0.055 A 
ATOM     82  C   UNL A   1      45.025  23.141  24.068  1.00  0.00     0.041 A 
ATOM     83  F   UNL A   1      44.518  25.058  25.200  1.00  0.00    -0.206 F 
ATOM     84  C   UNL A   1      45.045  21.764  23.949  1.00  0.00     0.022 A 
BRANCH  81  85
ATOM     85  S   UNL A   1      44.449  19.207  24.853  1.00  0.00     0.124 S 
ATOM     86  O   UNL A   1      44.763  18.932  23.454  1.00  0.00    -0.237 OA
ATOM     87  O   UNL A   1      45.530  18.997  25.811  1.00  0.00    -0.237 OA
ATOM     88  O   UNL A   1      43.129  18.762  25.293  1.00  0.00    -0.744 OA
ENDBRANCH  81  85
ENDBRANCH  64  78
BRANCH  65  89
ATOM     89  C   UNL A   1      45.819  31.317  27.929  1.00  0.00     0.023 A 
ATOM     90  C   UNL A   1      45.030  31.874  26.896  1.00  0.00     0.031 A 
ATOM     91  C   UNL A   1      46.930  32.093  28.346  1.00  0.00     0.131 A 
ATOM     92  C   UNL A   1      45.380  33.128  26.323  1.00  0.00     0.055 A 
ATOM     93  C   UNL A   1      47.274  33.318  27.772  1.00  0.00     0.041 A 
ATOM     94  F   UNL A   1      47.685  31.726  29.393  1.00  0.00    -0.206 F 
ATOM     95  C   UNL A   1      46.496  33.845  26.759  1.00  0.00     0.022 A 
BRANCH  92  96
ATOM     96  S   UNL A   1      44.339  33.899  25.035  1.00  0.00     0.124 S 
ATOM     97  O   UNL A   1      43.529  32.777  24.576  1.00  0.00    -0.237 OA
ATOM     98  O   UNL A   1      43.643  34.944  25.776  1.00  0.00    -0.237 OA
ATOM     99  O   UNL A   1      45.312  34.392  24.057  1.00  0.00    -0.744 OA
ENDBRANCH  92  96
ENDBRANCH  65  89
BRANCH  77 100
ATOM    100  C   UNL A   1      45.764  26.217  31.778  1.00  0.00     0.023 A 
ATOM    101  C   UNL A   1      46.938  26.156  32.567  1.00  0.00     0.031 A 
ATOM    102  C   UNL A   1      44.633  26.832  32.344  1.00  0.00     0.131 A 
ATOM    103  C   UNL A   1      46.943  26.706  33.866  1.00  0.00     0.055 A 
ATOM    104  C   UNL A   1      44.652  27.398  33.619  1.00  0.00     0.041 A 
ATOM    105  F   UNL A   1      43.496  26.945  31.638  1.00  0.00    -0.206 F 
ATOM    106  C   UNL A   1      45.808  27.336  34.386  1.00  0.00     0.022 A 
BRANCH 103 107
ATOM    107  S   UNL A   1      48.431  26.610  34.917  1.00  0.00     0.124 S 
ATOM    108  O   UNL A   1      48.672  28.001  35.288  1.00  0.00    -0.237 OA
ATOM    109  O   UNL A   1      48.001  25.725  35.994  1.00  0.00    -0.237 OA
ATOM    110  O   UNL A   1      49.441  26.036  34.025  1.00  0.00    -0.744 OA
ENDBRANCH 103 107
ENDBRANCH  77 100
ENDBRANCH  51  52
ENDBRANCH  44  46
ENDBRANCH  43  44
ENDBRANCH  42  43
ENDBRANCH  41  42
ENDBRANCH  40  41
ENDBRANCH   1  40
TORSDOF 24
ENDMDL
