MODEL 1
REMARK VINA RESULT:      -6.8      0.000      0.000
REMARK SMILES Cc1cc(C(=O)N[C@@H]2C(=O)N3C(C(=O)OCCOCCOCCOC(=O)c4ccc(-c5c6nc(c(-c7cc(S(=O)(=O)[O-])ccc7F)c7ccc([nH]7)c(-c7cc(S(=O)(=O)[O-])ccc7F)c7nc(c(-c8cc(S(=O)(=O)[O-])ccc8F)c8ccc5[nH]8)C=C7)C=C6)cc4)=C(CSc4nnc(C)s4)CS[C@H]23)n(C)n1
REMARK SMILES IDX 19 1 18 2 17 3 16 4 15 5 13 6 14 7 12 8 8 9 9 10 101 11
REMARK SMILES IDX 10 12 11 13 100 14 99 15 90 16 7 17 5 18 6 19 4 21 1 22 2 23
REMARK SMILES IDX 3 24 104 25 102 26 103 27 91 28 92 29 93 30 94 31 98 32
REMARK SMILES IDX 95 33 96 34 97 35 20 36 21 37 22 38 23 39 24 40 25 41 26 42
REMARK SMILES IDX 27 43 28 44 89 45 29 46 88 47 30 48 31 49 32 50 82 51 33 52
REMARK SMILES IDX 87 53 81 54 83 55 34 56 86 57 80 58 79 59 35 61 67 62 47 63
REMARK SMILES IDX 66 64 48 65 51 66 65 67 84 68 49 69 50 70 64 72 85 73 52 74
REMARK SMILES IDX 36 75 37 76 45 77 38 78 44 79 46 80 43 81 39 82 40 83 41 84
REMARK SMILES IDX 42 85 68 86 69 87 77 88 70 89 76 90 78 91 75 92 71 93 72 94
REMARK SMILES IDX 73 95 74 96 53 97 54 98 62 99 55 100 61 101 63 102 60 103
REMARK SMILES IDX 56 104 57 105 58 106 59 107
REMARK H PARENT 7 20 83 60 51 71
REMARK Flexibility Score: inf
ROOT
ATOM      1  C   UNL A   1      50.514  28.317  36.056  1.00  0.00     0.188 C 
ENDROOT
BRANCH   1   2
ATOM      2  O   UNL A   1      49.124  28.484  35.826  1.00  0.00    -0.376 OA
BRANCH   2   3
ATOM      3  C   UNL A   1      48.612  28.249  34.522  1.00  0.00     0.202 C 
BRANCH   3   4
ATOM      4  C   UNL A   1      47.382  29.004  33.994  1.00  0.00     0.261 C 
BRANCH   4   5
ATOM      5  O   UNL A   1      46.252  28.162  33.700  1.00  0.00    -0.459 OA
BRANCH   5   6
ATOM      6  C   UNL A   1      45.692  27.542  34.767  1.00  0.00     0.355 C 
ATOM      7  O   UNL A   1      46.112  26.520  35.297  1.00  0.00    -0.244 OA
BRANCH   6   8
ATOM      8  C   UNL A   1      44.479  28.249  35.300  1.00  0.00     0.132 C 
ATOM      9  C   UNL A   1      41.632  28.259  33.393  1.00  0.00     0.206 C 
ATOM     10  C   UNL A   1      42.684  27.194  33.825  1.00  0.00     0.253 C 
ATOM     11  C   UNL A   1      42.374  29.174  34.414  1.00  0.00     0.181 C 
ATOM     12  O   UNL A   1      42.858  26.014  33.657  1.00  0.00    -0.272 OA
ATOM     13  N   UNL A   1      43.364  28.141  34.519  1.00  0.00    -0.289 N 
ATOM     14  S   UNL A   1      41.693  29.377  36.076  1.00  0.00    -0.129 SA
ATOM     15  C   UNL A   1      43.279  29.983  36.705  1.00  0.00     0.106 C 
ATOM     16  C   UNL A   1      44.470  29.075  36.383  1.00  0.00    -0.019 C 
BRANCH   9  17
ATOM     17  N   UNL A   1      40.175  28.062  33.587  1.00  0.00    -0.336 N 
ATOM     18  C   UNL A   1      39.202  28.020  32.597  1.00  0.00     0.270 C 
ATOM     19  O   UNL A   1      38.029  27.921  32.946  1.00  0.00    -0.268 OA
ATOM     20  H   UNL A   1      39.864  27.949  34.514  1.00  0.00     0.164 HD
BRANCH  18  21
ATOM     21  C   UNL A   1      39.611  28.192  31.215  1.00  0.00     0.126 A 
ATOM     22  C   UNL A   1      41.462  27.173  28.254  1.00  0.00     0.069 C 
ATOM     23  C   UNL A   1      40.653  27.862  29.286  1.00  0.00     0.060 A 
ATOM     24  C   UNL A   1      39.717  27.287  30.169  1.00  0.00     0.059 A 
ATOM     25  N   UNL A   1      40.822  29.160  29.549  1.00  0.00    -0.178 NA
ATOM     26  N   UNL A   1      40.038  29.368  30.638  1.00  0.00    -0.263 N 
ATOM     27  C   UNL A   1      39.759  30.731  31.019  1.00  0.00     0.174 C 
ENDBRANCH  18  21
ENDBRANCH   9  17
BRANCH  16  28
ATOM     28  C   UNL A   1      45.639  29.344  37.297  1.00  0.00     0.111 C 
BRANCH  28  29
ATOM     29  S   UNL A   1      45.359  29.481  39.075  1.00  0.00    -0.089 SA
BRANCH  29  30
ATOM     30  C   UNL A   1      45.412  31.156  39.564  1.00  0.00     0.174 A 
ATOM     31  N   UNL A   1      46.491  31.899  39.589  1.00  0.00    -0.132 NA
ATOM     32  S   UNL A   1      44.002  31.999  40.088  1.00  0.00    -0.091 S 
ATOM     33  N   UNL A   1      46.229  33.220  39.892  1.00  0.00    -0.143 NA
ATOM     34  C   UNL A   1      44.948  33.434  40.098  1.00  0.00     0.115 A 
ATOM     35  C   UNL A   1      44.328  34.763  40.334  1.00  0.00     0.081 C 
ENDBRANCH  29  30
ENDBRANCH  28  29
ENDBRANCH  16  28
ENDBRANCH   6   8
ENDBRANCH   5   6
ENDBRANCH   4   5
ENDBRANCH   3   4
ENDBRANCH   2   3
ENDBRANCH   1   2
BRANCH   1  36
ATOM     36  C   UNL A   1      51.300  29.476  36.694  1.00  0.00     0.188 C 
BRANCH  36  37
ATOM     37  O   UNL A   1      51.569  30.617  35.916  1.00  0.00    -0.376 OA
BRANCH  37  38
ATOM     38  C   UNL A   1      51.511  31.911  36.483  1.00  0.00     0.202 C 
BRANCH  38  39
ATOM     39  C   UNL A   1      50.575  32.351  37.622  1.00  0.00     0.261 C 
BRANCH  39  40
ATOM     40  O   UNL A   1      49.200  32.585  37.323  1.00  0.00    -0.460 OA
BRANCH  40  41
ATOM     41  C   UNL A   1      48.836  33.892  37.230  1.00  0.00     0.338 C 
ATOM     42  O   UNL A   1      49.559  34.863  37.371  1.00  0.00    -0.246 OA
BRANCH  41  43
ATOM     43  C   UNL A   1      47.447  33.944  36.722  1.00  0.00     0.060 A 
ATOM     44  C   UNL A   1      46.845  32.768  36.256  1.00  0.00     0.016 A 
ATOM     45  C   UNL A   1      46.746  35.151  36.714  1.00  0.00     0.016 A 
ATOM     46  C   UNL A   1      45.540  32.802  35.762  1.00  0.00     0.010 A 
ATOM     47  C   UNL A   1      45.447  35.185  36.198  1.00  0.00     0.010 A 
ATOM     48  C   UNL A   1      44.846  34.016  35.697  1.00  0.00    -0.014 A 
BRANCH  48  49
ATOM     49  C   UNL A   1      43.572  34.108  34.940  1.00  0.00     0.031 A 
ATOM     50  C   UNL A   1      42.286  33.838  35.674  1.00  0.00     0.074 A 
ATOM     51  C   UNL A   1      43.547  34.423  33.632  1.00  0.00     0.049 A 
ATOM     52  N   UNL A   1      41.064  33.766  35.218  1.00  0.00    -0.248 NA
ATOM     53  C   UNL A   1      42.407  33.611  37.123  1.00  0.00     0.031 C 
ATOM     54  C   UNL A   1      44.716  34.759  32.820  1.00  0.00     0.029 A 
ATOM     55  N   UNL A   1      42.494  34.493  32.753  1.00  0.00    -0.354 N 
ATOM     56  C   UNL A   1      40.266  33.481  36.322  1.00  0.00     0.074 A 
ATOM     57  C   UNL A   1      41.153  33.352  37.459  1.00  0.00     0.031 C 
ATOM     58  C   UNL A   1      44.315  34.980  31.555  1.00  0.00     0.029 A 
ATOM     59  C   UNL A   1      42.872  34.762  31.457  1.00  0.00     0.049 A 
ATOM     60  H   UNL A   1      41.557  34.365  33.024  1.00  0.00     0.167 HD
ATOM     61  C   UNL A   1      38.918  33.343  36.383  1.00  0.00     0.034 A 
ATOM     62  C   UNL A   1      42.141  34.792  30.322  1.00  0.00     0.034 A 
ATOM     63  C   UNL A   1      38.048  33.451  35.237  1.00  0.00     0.049 A 
ATOM     64  C   UNL A   1      40.653  34.526  30.394  1.00  0.00     0.074 A 
ATOM     65  C   UNL A   1      36.670  33.340  35.189  1.00  0.00     0.029 A 
ATOM     66  N   UNL A   1      38.472  33.674  33.933  1.00  0.00    -0.354 N 
ATOM     67  N   UNL A   1      39.906  34.263  31.442  1.00  0.00    -0.248 NA
ATOM     68  C   UNL A   1      39.911  34.567  29.126  1.00  0.00     0.031 C 
ATOM     69  C   UNL A   1      36.270  33.407  33.850  1.00  0.00     0.029 A 
ATOM     70  C   UNL A   1      37.386  33.661  33.069  1.00  0.00     0.049 A 
ATOM     71  H   UNL A   1      39.407  33.822  33.661  1.00  0.00     0.167 HD
ATOM     72  C   UNL A   1      38.602  34.146  30.962  1.00  0.00     0.074 A 
ATOM     73  C   UNL A   1      38.665  34.379  29.534  1.00  0.00     0.031 C 
ATOM     74  C   UNL A   1      37.455  33.882  31.642  1.00  0.00     0.034 A 
BRANCH  61  75
ATOM     75  C   UNL A   1      38.319  32.995  37.725  1.00  0.00     0.023 A 
ATOM     76  C   UNL A   1      38.301  33.911  38.793  1.00  0.00     0.031 A 
ATOM     77  C   UNL A   1      37.796  31.711  37.955  1.00  0.00     0.131 A 
ATOM     78  C   UNL A   1      37.846  33.504  40.056  1.00  0.00     0.055 A 
ATOM     79  C   UNL A   1      37.261  31.341  39.190  1.00  0.00     0.041 A 
ATOM     80  F   UNL A   1      37.811  30.783  36.984  1.00  0.00    -0.206 F 
ATOM     81  C   UNL A   1      37.301  32.235  40.255  1.00  0.00     0.022 A 
BRANCH  78  82
ATOM     82  S   UNL A   1      38.132  34.599  41.475  1.00  0.00     0.124 S 
ATOM     83  O   UNL A   1      38.713  35.775  40.830  1.00  0.00    -0.237 OA
ATOM     84  O   UNL A   1      36.790  34.766  42.021  1.00  0.00    -0.237 OA
ATOM     85  O   UNL A   1      39.056  33.839  42.313  1.00  0.00    -0.744 OA
ENDBRANCH  78  82
ENDBRANCH  61  75
BRANCH  62  86
ATOM     86  C   UNL A   1      42.799  35.036  29.005  1.00  0.00     0.023 A 
ATOM     87  C   UNL A   1      43.414  33.994  28.292  1.00  0.00     0.031 A 
ATOM     88  C   UNL A   1      42.881  36.335  28.471  1.00  0.00     0.131 A 
ATOM     89  C   UNL A   1      44.121  34.275  27.110  1.00  0.00     0.055 A 
ATOM     90  C   UNL A   1      43.534  36.600  27.266  1.00  0.00     0.041 A 
ATOM     91  F   UNL A   1      42.321  37.371  29.116  1.00  0.00    -0.206 F 
ATOM     92  C   UNL A   1      44.171  35.568  26.585  1.00  0.00     0.022 A 
BRANCH  89  93
ATOM     93  S   UNL A   1      45.052  32.938  26.314  1.00  0.00     0.124 S 
ATOM     94  O   UNL A   1      45.871  33.674  25.358  1.00  0.00    -0.237 OA
ATOM     95  O   UNL A   1      45.759  32.345  27.445  1.00  0.00    -0.237 OA
ATOM     96  O   UNL A   1      44.009  32.099  25.727  1.00  0.00    -0.744 OA
ENDBRANCH  89  93
ENDBRANCH  62  86
BRANCH  74  97
ATOM     97  C   UNL A   1      36.162  33.885  30.857  1.00  0.00     0.023 A 
ATOM     98  C   UNL A   1      35.252  34.957  30.917  1.00  0.00     0.031 A 
ATOM     99  C   UNL A   1      35.833  32.791  30.036  1.00  0.00     0.131 A 
ATOM    100  C   UNL A   1      34.037  34.884  30.216  1.00  0.00     0.055 A 
ATOM    101  C   UNL A   1      34.656  32.756  29.286  1.00  0.00     0.041 A 
ATOM    102  F   UNL A   1      36.657  31.735  29.941  1.00  0.00    -0.206 F 
ATOM    103  C   UNL A   1      33.743  33.800  29.385  1.00  0.00     0.022 A 
BRANCH 100 104
ATOM    104  S   UNL A   1      32.793  36.178  30.488  1.00  0.00     0.124 S 
ATOM    105  O   UNL A   1      32.209  36.321  29.159  1.00  0.00    -0.237 OA
ATOM    106  O   UNL A   1      31.933  35.577  31.502  1.00  0.00    -0.237 OA
ATOM    107  O   UNL A   1      33.582  37.322  30.944  1.00  0.00    -0.744 OA
ENDBRANCH 100 104
ENDBRANCH  74  97
ENDBRANCH  48  49
ENDBRANCH  41  43
ENDBRANCH  40  41
ENDBRANCH  39  40
ENDBRANCH  38  39
ENDBRANCH  37  38
ENDBRANCH  36  37
ENDBRANCH   1  36
TORSDOF 25
ENDMDL
MODEL 2
REMARK VINA RESULT:      -6.7      5.310     12.865
REMARK SMILES Cc1cc(C(=O)N[C@@H]2C(=O)N3C(C(=O)OCCOCCOCCOC(=O)c4ccc(-c5c6nc(c(-c7cc(S(=O)(=O)[O-])ccc7F)c7ccc([nH]7)c(-c7cc(S(=O)(=O)[O-])ccc7F)c7nc(c(-c8cc(S(=O)(=O)[O-])ccc8F)c8ccc5[nH]8)C=C7)C=C6)cc4)=C(CSc4nnc(C)s4)CS[C@H]23)n(C)n1
REMARK SMILES IDX 19 1 18 2 17 3 16 4 15 5 13 6 14 7 12 8 8 9 9 10 101 11
REMARK SMILES IDX 10 12 11 13 100 14 99 15 90 16 7 17 5 18 6 19 4 21 1 22 2 23
REMARK SMILES IDX 3 24 104 25 102 26 103 27 91 28 92 29 93 30 94 31 98 32
REMARK SMILES IDX 95 33 96 34 97 35 20 36 21 37 22 38 23 39 24 40 25 41 26 42
REMARK SMILES IDX 27 43 28 44 89 45 29 46 88 47 30 48 31 49 32 50 82 51 33 52
REMARK SMILES IDX 87 53 81 54 83 55 34 56 86 57 80 58 79 59 35 61 67 62 47 63
REMARK SMILES IDX 66 64 48 65 51 66 65 67 84 68 49 69 50 70 64 72 85 73 52 74
REMARK SMILES IDX 36 75 37 76 45 77 38 78 44 79 46 80 43 81 39 82 40 83 41 84
REMARK SMILES IDX 42 85 68 86 69 87 77 88 70 89 76 90 78 91 75 92 71 93 72 94
REMARK SMILES IDX 73 95 74 96 53 97 54 98 62 99 55 100 61 101 63 102 60 103
REMARK SMILES IDX 56 104 57 105 58 106 59 107
REMARK H PARENT 7 20 83 60 51 71
REMARK Flexibility Score: inf
ROOT
ATOM      1  C   UNL A   1      38.493  34.115  29.721  1.00  0.00     0.188 C 
ENDROOT
BRANCH   1   2
ATOM      2  O   UNL A   1      39.779  33.623  30.063  1.00  0.00    -0.376 OA
BRANCH   2   3
ATOM      3  C   UNL A   1      40.880  34.522  30.056  1.00  0.00     0.202 C 
BRANCH   3   4
ATOM      4  C   UNL A   1      41.863  34.598  31.236  1.00  0.00     0.261 C 
BRANCH   4   5
ATOM      5  O   UNL A   1      41.721  33.534  32.195  1.00  0.00    -0.459 OA
BRANCH   5   6
ATOM      6  C   UNL A   1      40.904  33.797  33.243  1.00  0.00     0.355 C 
ATOM      7  O   UNL A   1      40.621  34.913  33.662  1.00  0.00    -0.244 OA
BRANCH   6   8
ATOM      8  C   UNL A   1      40.316  32.565  33.867  1.00  0.00     0.132 C 
ATOM      9  C   UNL A   1      42.453  30.162  35.052  1.00  0.00     0.206 C 
ATOM     10  C   UNL A   1      42.355  31.715  35.144  1.00  0.00     0.253 C 
ATOM     11  C   UNL A   1      41.041  30.271  34.400  1.00  0.00     0.181 C 
ATOM     12  O   UNL A   1      42.977  32.602  35.667  1.00  0.00    -0.272 OA
ATOM     13  N   UNL A   1      41.231  31.692  34.384  1.00  0.00    -0.289 N 
ATOM     14  S   UNL A   1      39.575  29.980  35.418  1.00  0.00    -0.129 SA
ATOM     15  C   UNL A   1      38.513  30.818  34.215  1.00  0.00     0.106 C 
ATOM     16  C   UNL A   1      39.002  32.213  33.812  1.00  0.00    -0.019 C 
BRANCH   9  17
ATOM     17  N   UNL A   1      42.587  29.301  36.251  1.00  0.00    -0.336 N 
ATOM     18  C   UNL A   1      43.189  28.051  36.315  1.00  0.00     0.270 C 
ATOM     19  O   UNL A   1      43.145  27.444  37.382  1.00  0.00    -0.268 OA
ATOM     20  H   UNL A   1      42.211  29.651  37.090  1.00  0.00     0.164 HD
BRANCH  18  21
ATOM     21  C   UNL A   1      43.751  27.489  35.100  1.00  0.00     0.126 A 
ATOM     22  C   UNL A   1      44.376  24.726  32.820  1.00  0.00     0.069 C 
ATOM     23  C   UNL A   1      44.338  26.010  33.557  1.00  0.00     0.060 A 
ATOM     24  C   UNL A   1      43.218  26.621  34.158  1.00  0.00     0.059 A 
ATOM     25  N   UNL A   1      45.452  26.698  33.813  1.00  0.00    -0.178 NA
ATOM     26  N   UNL A   1      45.028  27.697  34.628  1.00  0.00    -0.263 N 
ATOM     27  C   UNL A   1      45.927  28.800  34.869  1.00  0.00     0.174 C 
ENDBRANCH  18  21
ENDBRANCH   9  17
BRANCH  16  28
ATOM     28  C   UNL A   1      37.892  33.041  33.214  1.00  0.00     0.111 C 
BRANCH  28  29
ATOM     29  S   UNL A   1      36.239  32.330  33.066  1.00  0.00    -0.089 SA
BRANCH  29  30
ATOM     30  C   UNL A   1      35.070  33.588  32.753  1.00  0.00     0.174 A 
ATOM     31  N   UNL A   1      33.781  33.400  32.610  1.00  0.00    -0.132 NA
ATOM     32  S   UNL A   1      35.531  35.240  32.585  1.00  0.00    -0.091 S 
ATOM     33  N   UNL A   1      33.073  34.580  32.500  1.00  0.00    -0.143 NA
ATOM     34  C   UNL A   1      33.859  35.633  32.553  1.00  0.00     0.115 A 
ATOM     35  C   UNL A   1      33.398  37.045  32.573  1.00  0.00     0.081 C 
ENDBRANCH  29  30
ENDBRANCH  28  29
ENDBRANCH  16  28
ENDBRANCH   6   8
ENDBRANCH   5   6
ENDBRANCH   4   5
ENDBRANCH   3   4
ENDBRANCH   2   3
ENDBRANCH   1   2
BRANCH   1  36
ATOM     36  C   UNL A   1      37.616  33.283  28.768  1.00  0.00     0.188 C 
BRANCH  36  37
ATOM     37  O   UNL A   1      36.227  33.244  28.992  1.00  0.00    -0.376 OA
BRANCH  37  38
ATOM     38  C   UNL A   1      35.364  32.594  28.080  1.00  0.00     0.202 C 
BRANCH  38  39
ATOM     39  C   UNL A   1      34.717  31.214  28.283  1.00  0.00     0.261 C 
BRANCH  39  40
ATOM     40  O   UNL A   1      35.555  30.059  28.265  1.00  0.00    -0.460 OA
BRANCH  40  41
ATOM     41  C   UNL A   1      36.181  29.772  29.438  1.00  0.00     0.338 C 
ATOM     42  O   UNL A   1      35.667  29.693  30.540  1.00  0.00    -0.246 OA
BRANCH  41  43
ATOM     43  C   UNL A   1      37.569  29.365  29.127  1.00  0.00     0.060 A 
ATOM     44  C   UNL A   1      38.297  28.638  30.077  1.00  0.00     0.016 A 
ATOM     45  C   UNL A   1      38.141  29.698  27.898  1.00  0.00     0.016 A 
ATOM     46  C   UNL A   1      39.613  28.257  29.806  1.00  0.00     0.010 A 
ATOM     47  C   UNL A   1      39.465  29.334  27.638  1.00  0.00     0.010 A 
ATOM     48  C   UNL A   1      40.217  28.633  28.599  1.00  0.00    -0.014 A 
BRANCH  48  49
ATOM     49  C   UNL A   1      41.679  28.463  28.412  1.00  0.00     0.031 A 
ATOM     50  C   UNL A   1      42.177  27.168  27.830  1.00  0.00     0.074 A 
ATOM     51  C   UNL A   1      42.553  29.430  28.748  1.00  0.00     0.049 A 
ATOM     52  N   UNL A   1      43.402  26.746  27.656  1.00  0.00    -0.248 NA
ATOM     53  C   UNL A   1      41.142  26.218  27.393  1.00  0.00     0.031 C 
ATOM     54  C   UNL A   1      42.197  30.749  29.269  1.00  0.00     0.029 A 
ATOM     55  N   UNL A   1      43.926  29.441  28.713  1.00  0.00    -0.354 N 
ATOM     56  C   UNL A   1      43.288  25.479  27.093  1.00  0.00     0.074 A 
ATOM     57  C   UNL A   1      41.873  25.188  26.996  1.00  0.00     0.031 C 
ATOM     58  C   UNL A   1      43.326  31.433  29.525  1.00  0.00     0.029 A 
ATOM     59  C   UNL A   1      44.484  30.589  29.226  1.00  0.00     0.049 A 
ATOM     60  H   UNL A   1      44.461  28.697  28.355  1.00  0.00     0.167 HD
ATOM     61  C   UNL A   1      44.272  24.637  26.690  1.00  0.00     0.034 A 
ATOM     62  C   UNL A   1      45.776  30.905  29.459  1.00  0.00     0.034 A 
ATOM     63  C   UNL A   1      45.679  24.930  26.814  1.00  0.00     0.049 A 
ATOM     64  C   UNL A   1      46.856  29.907  29.105  1.00  0.00     0.074 A 
ATOM     65  C   UNL A   1      46.758  24.154  26.429  1.00  0.00     0.029 A 
ATOM     66  N   UNL A   1      46.206  26.083  27.384  1.00  0.00    -0.354 N 
ATOM     67  N   UNL A   1      46.740  28.714  28.567  1.00  0.00    -0.248 NA
ATOM     68  C   UNL A   1      48.243  30.305  29.385  1.00  0.00     0.031 C 
ATOM     69  C   UNL A   1      47.930  24.794  26.844  1.00  0.00     0.029 A 
ATOM     70  C   UNL A   1      47.592  26.017  27.400  1.00  0.00     0.049 A 
ATOM     71  H   UNL A   1      45.674  26.837  27.727  1.00  0.00     0.167 HD
ATOM     72  C   UNL A   1      48.042  28.238  28.411  1.00  0.00     0.074 A 
ATOM     73  C   UNL A   1      48.924  29.276  28.901  1.00  0.00     0.031 C 
ATOM     74  C   UNL A   1      48.469  27.052  27.900  1.00  0.00     0.034 A 
BRANCH  61  75
ATOM     75  C   UNL A   1      43.851  23.295  26.140  1.00  0.00     0.023 A 
ATOM     76  C   UNL A   1      42.827  22.534  26.735  1.00  0.00     0.031 A 
ATOM     77  C   UNL A   1      44.514  22.746  25.028  1.00  0.00     0.131 A 
ATOM     78  C   UNL A   1      42.554  21.241  26.265  1.00  0.00     0.055 A 
ATOM     79  C   UNL A   1      44.174  21.496  24.510  1.00  0.00     0.041 A 
ATOM     80  F   UNL A   1      45.519  23.411  24.435  1.00  0.00    -0.206 F 
ATOM     81  C   UNL A   1      43.201  20.728  25.139  1.00  0.00     0.022 A 
BRANCH  78  82
ATOM     82  S   UNL A   1      41.461  20.175  27.245  1.00  0.00     0.124 S 
ATOM     83  O   UNL A   1      40.848  21.138  28.158  1.00  0.00    -0.237 OA
ATOM     84  O   UNL A   1      40.581  19.605  26.231  1.00  0.00    -0.237 OA
ATOM     85  O   UNL A   1      42.379  19.230  27.876  1.00  0.00    -0.744 OA
ENDBRANCH  78  82
ENDBRANCH  61  75
BRANCH  62  86
ATOM     86  C   UNL A   1      46.132  32.204  30.103  1.00  0.00     0.023 A 
ATOM     87  C   UNL A   1      46.124  32.354  31.499  1.00  0.00     0.031 A 
ATOM     88  C   UNL A   1      46.425  33.338  29.323  1.00  0.00     0.131 A 
ATOM     89  C   UNL A   1      46.356  33.616  32.070  1.00  0.00     0.055 A 
ATOM     90  C   UNL A   1      46.712  34.577  29.897  1.00  0.00     0.041 A 
ATOM     91  F   UNL A   1      46.436  33.256  27.983  1.00  0.00    -0.206 F 
ATOM     92  C   UNL A   1      46.666  34.724  31.280  1.00  0.00     0.022 A 
BRANCH  89  93
ATOM     93  S   UNL A   1      46.159  33.810  33.863  1.00  0.00     0.124 S 
ATOM     94  O   UNL A   1      45.976  32.428  34.293  1.00  0.00    -0.237 OA
ATOM     95  O   UNL A   1      47.420  34.440  34.241  1.00  0.00    -0.237 OA
ATOM     96  O   UNL A   1      44.979  34.663  33.986  1.00  0.00    -0.744 OA
ENDBRANCH  89  93
ENDBRANCH  62  86
BRANCH  74  97
ATOM     97  C   UNL A   1      49.962  26.837  27.790  1.00  0.00     0.023 A 
ATOM     98  C   UNL A   1      50.694  27.229  26.654  1.00  0.00     0.031 A 
ATOM     99  C   UNL A   1      50.665  26.225  28.844  1.00  0.00     0.131 A 
ATOM    100  C   UNL A   1      52.069  26.952  26.577  1.00  0.00     0.055 A 
ATOM    101  C   UNL A   1      52.045  26.016  28.790  1.00  0.00     0.041 A 
ATOM    102  F   UNL A   1      50.023  25.823  29.952  1.00  0.00    -0.206 F 
ATOM    103  C   UNL A   1      52.752  26.367  27.646  1.00  0.00     0.022 A 
BRANCH 100 104
ATOM    104  S   UNL A   1      52.937  27.269  25.014  1.00  0.00     0.124 S 
ATOM    105  O   UNL A   1      54.323  26.994  25.376  1.00  0.00    -0.237 OA
ATOM    106  O   UNL A   1      52.312  26.310  24.109  1.00  0.00    -0.237 OA
ATOM    107  O   UNL A   1      52.636  28.672  24.733  1.00  0.00    -0.744 OA
ENDBRANCH 100 104
ENDBRANCH  74  97
ENDBRANCH  48  49
ENDBRANCH  41  43
ENDBRANCH  40  41
ENDBRANCH  39  40
ENDBRANCH  38  39
ENDBRANCH  37  38
ENDBRANCH  36  37
ENDBRANCH   1  36
TORSDOF 25
ENDMDL
MODEL 3
REMARK VINA RESULT:      -6.7      3.916     12.001
REMARK SMILES Cc1cc(C(=O)N[C@@H]2C(=O)N3C(C(=O)OCCOCCOCCOC(=O)c4ccc(-c5c6nc(c(-c7cc(S(=O)(=O)[O-])ccc7F)c7ccc([nH]7)c(-c7cc(S(=O)(=O)[O-])ccc7F)c7nc(c(-c8cc(S(=O)(=O)[O-])ccc8F)c8ccc5[nH]8)C=C7)C=C6)cc4)=C(CSc4nnc(C)s4)CS[C@H]23)n(C)n1
REMARK SMILES IDX 19 1 18 2 17 3 16 4 15 5 13 6 14 7 12 8 8 9 9 10 101 11
REMARK SMILES IDX 10 12 11 13 100 14 99 15 90 16 7 17 5 18 6 19 4 21 1 22 2 23
REMARK SMILES IDX 3 24 104 25 102 26 103 27 91 28 92 29 93 30 94 31 98 32
REMARK SMILES IDX 95 33 96 34 97 35 20 36 21 37 22 38 23 39 24 40 25 41 26 42
REMARK SMILES IDX 27 43 28 44 89 45 29 46 88 47 30 48 31 49 32 50 82 51 33 52
REMARK SMILES IDX 87 53 81 54 83 55 34 56 86 57 80 58 79 59 35 61 67 62 47 63
REMARK SMILES IDX 66 64 48 65 51 66 65 67 84 68 49 69 50 70 64 72 85 73 52 74
REMARK SMILES IDX 36 75 37 76 45 77 38 78 44 79 46 80 43 81 39 82 40 83 41 84
REMARK SMILES IDX 42 85 68 86 69 87 77 88 70 89 76 90 78 91 75 92 71 93 72 94
REMARK SMILES IDX 73 95 74 96 53 97 54 98 62 99 55 100 61 101 63 102 60 103
REMARK SMILES IDX 56 104 57 105 58 106 59 107
REMARK H PARENT 7 20 83 60 51 71
REMARK Flexibility Score: inf
ROOT
ATOM      1  C   UNL A   1      35.484  24.254  25.195  1.00  0.00     0.188 C 
ENDROOT
BRANCH   1   2
ATOM      2  O   UNL A   1      36.442  23.767  26.122  1.00  0.00    -0.376 OA
BRANCH   2   3
ATOM      3  C   UNL A   1      37.721  24.384  26.172  1.00  0.00     0.202 C 
BRANCH   3   4
ATOM      4  C   UNL A   1      38.552  24.406  27.465  1.00  0.00     0.261 C 
BRANCH   4   5
ATOM      5  O   UNL A   1      39.840  25.034  27.330  1.00  0.00    -0.459 OA
BRANCH   5   6
ATOM      6  C   UNL A   1      39.904  26.328  27.725  1.00  0.00     0.355 C 
ATOM      7  O   UNL A   1      38.943  27.074  27.875  1.00  0.00    -0.244 OA
BRANCH   6   8
ATOM      8  C   UNL A   1      41.301  26.798  28.010  1.00  0.00     0.132 C 
ATOM      9  C   UNL A   1      43.804  25.865  25.864  1.00  0.00     0.206 C 
ATOM     10  C   UNL A   1      42.357  26.425  25.718  1.00  0.00     0.253 C 
ATOM     11  C   UNL A   1      43.598  26.171  27.379  1.00  0.00     0.181 C 
ATOM     12  O   UNL A   1      41.625  26.738  24.815  1.00  0.00    -0.272 OA
ATOM     13  N   UNL A   1      42.226  26.450  27.068  1.00  0.00    -0.289 N 
ATOM     14  S   UNL A   1      44.270  27.700  28.069  1.00  0.00    -0.129 SA
ATOM     15  C   UNL A   1      43.185  27.584  29.512  1.00  0.00     0.106 C 
ATOM     16  C   UNL A   1      41.704  27.388  29.170  1.00  0.00    -0.019 C 
BRANCH   9  17
ATOM     17  N   UNL A   1      44.970  26.487  25.194  1.00  0.00    -0.336 N 
ATOM     18  C   UNL A   1      46.148  25.856  24.815  1.00  0.00     0.270 C 
ATOM     19  O   UNL A   1      47.042  26.545  24.334  1.00  0.00    -0.268 OA
ATOM     20  H   UNL A   1      44.904  27.449  24.995  1.00  0.00     0.164 HD
BRANCH  18  21
ATOM     21  C   UNL A   1      46.295  24.439  25.095  1.00  0.00     0.126 A 
ATOM     22  C   UNL A   1      45.362  20.953  24.646  1.00  0.00     0.069 C 
ATOM     23  C   UNL A   1      45.925  22.253  25.076  1.00  0.00     0.060 A 
ATOM     24  C   UNL A   1      46.313  23.334  24.257  1.00  0.00     0.059 A 
ATOM     25  N   UNL A   1      46.032  22.571  26.368  1.00  0.00    -0.178 NA
ATOM     26  N   UNL A   1      46.424  23.870  26.343  1.00  0.00    -0.263 N 
ATOM     27  C   UNL A   1      46.912  24.452  27.570  1.00  0.00     0.174 C 
ENDBRANCH  18  21
ENDBRANCH   9  17
BRANCH  16  28
ATOM     28  C   UNL A   1      40.810  27.769  30.323  1.00  0.00     0.111 C 
BRANCH  28  29
ATOM     29  S   UNL A   1      40.321  29.494  30.531  1.00  0.00    -0.089 SA
BRANCH  29  30
ATOM     30  C   UNL A   1      40.187  29.880  32.229  1.00  0.00     0.174 A 
ATOM     31  N   UNL A   1      39.106  29.724  32.954  1.00  0.00    -0.132 NA
ATOM     32  S   UNL A   1      41.508  30.534  33.123  1.00  0.00    -0.091 S 
ATOM     33  N   UNL A   1      39.313  29.985  34.293  1.00  0.00    -0.143 NA
ATOM     34  C   UNL A   1      40.555  30.343  34.539  1.00  0.00     0.115 A 
ATOM     35  C   UNL A   1      41.125  30.584  35.890  1.00  0.00     0.081 C 
ENDBRANCH  29  30
ENDBRANCH  28  29
ENDBRANCH  16  28
ENDBRANCH   6   8
ENDBRANCH   5   6
ENDBRANCH   4   5
ENDBRANCH   3   4
ENDBRANCH   2   3
ENDBRANCH   1   2
BRANCH   1  36
ATOM     36  C   UNL A   1      34.346  25.151  25.714  1.00  0.00     0.188 C 
BRANCH  36  37
ATOM     37  O   UNL A   1      34.638  26.489  26.038  1.00  0.00    -0.376 OA
BRANCH  37  38
ATOM     38  C   UNL A   1      33.610  27.456  26.119  1.00  0.00     0.202 C 
BRANCH  38  39
ATOM     39  C   UNL A   1      33.429  28.483  27.250  1.00  0.00     0.261 C 
BRANCH  39  40
ATOM     40  O   UNL A   1      34.460  29.445  27.468  1.00  0.00    -0.460 OA
BRANCH  40  41
ATOM     41  C   UNL A   1      34.035  30.690  27.812  1.00  0.00     0.338 C 
ATOM     42  O   UNL A   1      32.986  31.219  27.486  1.00  0.00    -0.246 OA
BRANCH  41  43
ATOM     43  C   UNL A   1      34.969  31.229  28.824  1.00  0.00     0.060 A 
ATOM     44  C   UNL A   1      34.839  32.563  29.233  1.00  0.00     0.016 A 
ATOM     45  C   UNL A   1      35.964  30.415  29.368  1.00  0.00     0.016 A 
ATOM     46  C   UNL A   1      35.721  33.091  30.178  1.00  0.00     0.010 A 
ATOM     47  C   UNL A   1      36.858  30.953  30.298  1.00  0.00     0.010 A 
ATOM     48  C   UNL A   1      36.757  32.300  30.690  1.00  0.00    -0.014 A 
BRANCH  48  49
ATOM     49  C   UNL A   1      37.846  32.921  31.486  1.00  0.00     0.031 A 
ATOM     50  C   UNL A   1      39.026  33.496  30.750  1.00  0.00     0.074 A 
ATOM     51  C   UNL A   1      37.798  32.977  32.830  1.00  0.00     0.049 A 
ATOM     52  N   UNL A   1      40.136  34.003  31.218  1.00  0.00    -0.248 NA
ATOM     53  C   UNL A   1      38.936  33.486  29.281  1.00  0.00     0.031 C 
ATOM     54  C   UNL A   1      36.688  32.506  33.657  1.00  0.00     0.029 A 
ATOM     55  N   UNL A   1      38.720  33.443  33.735  1.00  0.00    -0.354 N 
ATOM     56  C   UNL A   1      40.882  34.370  30.103  1.00  0.00     0.074 A 
ATOM     57  C   UNL A   1      40.112  33.987  28.938  1.00  0.00     0.031 C 
ATOM     58  C   UNL A   1      37.005  32.689  34.951  1.00  0.00     0.029 A 
ATOM     59  C   UNL A   1      38.353  33.251  35.047  1.00  0.00     0.049 A 
ATOM     60  H   UNL A   1      39.563  33.875  33.470  1.00  0.00     0.167 HD
ATOM     61  C   UNL A   1      42.095  34.976  30.054  1.00  0.00     0.034 A 
ATOM     62  C   UNL A   1      39.040  33.470  36.188  1.00  0.00     0.034 A 
ATOM     63  C   UNL A   1      42.861  35.332  31.224  1.00  0.00     0.049 A 
ATOM     64  C   UNL A   1      40.438  34.044  36.110  1.00  0.00     0.074 A 
ATOM     65  C   UNL A   1      44.094  35.957  31.289  1.00  0.00     0.029 A 
ATOM     66  N   UNL A   1      42.479  35.076  32.536  1.00  0.00    -0.354 N 
ATOM     67  N   UNL A   1      41.134  34.394  35.052  1.00  0.00    -0.248 NA
ATOM     68  C   UNL A   1      41.139  34.257  37.384  1.00  0.00     0.031 C 
ATOM     69  C   UNL A   1      44.495  35.999  32.628  1.00  0.00     0.029 A 
ATOM     70  C   UNL A   1      43.471  35.492  33.412  1.00  0.00     0.049 A 
ATOM     71  H   UNL A   1      41.627  34.662  32.805  1.00  0.00     0.167 HD
ATOM     72  C   UNL A   1      42.338  34.903  35.538  1.00  0.00     0.074 A 
ATOM     73  C   UNL A   1      42.267  34.825  36.982  1.00  0.00     0.031 C 
ATOM     74  C   UNL A   1      43.401  35.401  34.853  1.00  0.00     0.034 A 
BRANCH  61  75
ATOM     75  C   UNL A   1      42.688  35.226  28.688  1.00  0.00     0.023 A 
ATOM     76  C   UNL A   1      43.381  34.226  27.982  1.00  0.00     0.031 A 
ATOM     77  C   UNL A   1      42.596  36.500  28.100  1.00  0.00     0.131 A 
ATOM     78  C   UNL A   1      44.020  34.538  26.773  1.00  0.00     0.055 A 
ATOM     79  C   UNL A   1      43.158  36.779  26.853  1.00  0.00     0.041 A 
ATOM     80  F   UNL A   1      41.973  37.504  28.737  1.00  0.00    -0.206 F 
ATOM     81  C   UNL A   1      43.889  35.800  26.190  1.00  0.00     0.022 A 
BRANCH  78  82
ATOM     82  S   UNL A   1      45.161  33.323  26.055  1.00  0.00     0.124 S 
ATOM     83  O   UNL A   1      45.127  32.259  27.057  1.00  0.00    -0.237 OA
ATOM     84  O   UNL A   1      44.534  33.018  24.775  1.00  0.00    -0.237 OA
ATOM     85  O   UNL A   1      46.426  34.049  25.974  1.00  0.00    -0.744 OA
ENDBRANCH  78  82
ENDBRANCH  61  75
BRANCH  62  86
ATOM     86  C   UNL A   1      38.449  33.106  37.509  1.00  0.00     0.023 A 
ATOM     87  C   UNL A   1      38.539  33.971  38.613  1.00  0.00     0.031 A 
ATOM     88  C   UNL A   1      37.839  31.854  37.705  1.00  0.00     0.131 A 
ATOM     89  C   UNL A   1      38.071  33.554  39.870  1.00  0.00     0.055 A 
ATOM     90  C   UNL A   1      37.323  31.467  38.943  1.00  0.00     0.041 A 
ATOM     91  F   UNL A   1      37.736  30.983  36.689  1.00  0.00    -0.206 F 
ATOM     92  C   UNL A   1      37.449  32.315  40.039  1.00  0.00     0.022 A 
BRANCH  89  93
ATOM     93  S   UNL A   1      38.367  34.621  41.307  1.00  0.00     0.124 S 
ATOM     94  O   UNL A   1      37.043  35.188  41.535  1.00  0.00    -0.237 OA
ATOM     95  O   UNL A   1      38.838  33.665  42.304  1.00  0.00    -0.237 OA
ATOM     96  O   UNL A   1      39.376  35.564  40.828  1.00  0.00    -0.744 OA
ENDBRANCH  89  93
ENDBRANCH  62  86
BRANCH  74  97
ATOM     97  C   UNL A   1      44.555  35.953  35.660  1.00  0.00     0.023 A 
ATOM     98  C   UNL A   1      44.604  37.297  36.075  1.00  0.00     0.031 A 
ATOM     99  C   UNL A   1      45.629  35.117  36.018  1.00  0.00     0.131 A 
ATOM    100  C   UNL A   1      45.727  37.775  36.770  1.00  0.00     0.055 A 
ATOM    101  C   UNL A   1      46.709  35.582  36.770  1.00  0.00     0.041 A 
ATOM    102  F   UNL A   1      45.644  33.827  35.647  1.00  0.00    -0.206 F 
ATOM    103  C   UNL A   1      46.769  36.921  37.138  1.00  0.00     0.022 A 
BRANCH 100 104
ATOM    104  S   UNL A   1      45.859  39.556  37.096  1.00  0.00     0.124 S 
ATOM    105  O   UNL A   1      45.906  40.109  35.747  1.00  0.00    -0.237 OA
ATOM    106  O   UNL A   1      44.641  39.826  37.854  1.00  0.00    -0.237 OA
ATOM    107  O   UNL A   1      47.101  39.674  37.858  1.00  0.00    -0.744 OA
ENDBRANCH 100 104
ENDBRANCH  74  97
ENDBRANCH  48  49
ENDBRANCH  41  43
ENDBRANCH  40  41
ENDBRANCH  39  40
ENDBRANCH  38  39
ENDBRANCH  37  38
ENDBRANCH  36  37
ENDBRANCH   1  36
TORSDOF 25
ENDMDL
