MODEL 1
REMARK VINA RESULT:     -10.7      0.000      0.000
REMARK SMILES CC(C)[C@@H](NC(=O)/C(=C\c1ccccc1F)NC(=O)c1ccccc1)C(=O)OCCOCCOCCOC(=O)c1ccc(-c2c3nc(c(-c4cc(S(=O)(=O)[O-])ccc4F)c4ccc([nH]4)c(-c4cc(S(=O)(=O)[O-])ccc4F)c4nc(c(-c5cc(S(=O)(=O)[O-])ccc5F)c5ccc2[nH]5)C=C4)C=C3)cc1
REMARK SMILES IDX 32 1 31 2 30 3 29 4 28 5 26 6 27 7 4 8 2 9 1 10 3 11 5 12
REMARK SMILES IDX 6 13 7 15 8 16 9 17 17 18 18 19 19 21 20 22 21 23 25 24
REMARK SMILES IDX 22 25 24 26 23 27 10 28 11 29 15 30 12 31 14 32 16 33 13 34
REMARK SMILES IDX 33 35 34 36 35 37 36 38 37 39 38 40 39 41 40 42 41 43 102 44
REMARK SMILES IDX 42 45 101 46 43 47 44 48 45 49 95 50 46 51 100 52 94 53
REMARK SMILES IDX 96 54 47 55 99 56 93 57 92 58 48 60 80 61 60 62 79 63 61 64
REMARK SMILES IDX 64 65 78 66 97 67 62 68 63 69 77 71 98 72 65 73 49 74 50 75
REMARK SMILES IDX 58 76 51 77 57 78 59 79 56 80 52 81 53 82 54 83 55 84 81 85
REMARK SMILES IDX 82 86 90 87 83 88 89 89 91 90 88 91 84 92 85 93 86 94 87 95
REMARK SMILES IDX 66 96 67 97 75 98 68 99 74 100 76 101 73 102 69 103 70 104
REMARK SMILES IDX 71 105 72 106
REMARK H PARENT 5 14 17 20 96 59 64 70
REMARK Flexibility Score: inf
ROOT
ATOM      1  C   UNL A   1      35.434  21.545  24.604  1.00  0.00     0.188 C 
ENDROOT
BRANCH   1   2
ATOM      2  O   UNL A   1      35.041  20.711  25.685  1.00  0.00    -0.376 OA
BRANCH   2   3
ATOM      3  C   UNL A   1      33.786  20.995  26.278  1.00  0.00     0.202 C 
BRANCH   3   4
ATOM      4  C   UNL A   1      32.694  21.465  25.293  1.00  0.00     0.261 C 
BRANCH   4   5
ATOM      5  O   UNL A   1      31.693  22.412  25.735  1.00  0.00    -0.462 OA
BRANCH   5   6
ATOM      6  C   UNL A   1      31.801  23.661  25.232  1.00  0.00     0.328 C 
ATOM      7  O   UNL A   1      31.063  24.039  24.334  1.00  0.00    -0.250 OA
BRANCH   6   8
ATOM      8  C   UNL A   1      32.829  24.590  25.933  1.00  0.00     0.195 C 
BRANCH   8   9
ATOM      9  C   UNL A   1      34.113  24.984  25.132  1.00  0.00     0.017 C 
ATOM     10  C   UNL A   1      35.399  24.468  25.820  1.00  0.00     0.010 C 
ATOM     11  C   UNL A   1      34.139  24.399  23.710  1.00  0.00     0.010 C 
ENDBRANCH   8   9
BRANCH   8  12
ATOM     12  N   UNL A   1      32.173  25.803  26.479  1.00  0.00    -0.337 N 
ATOM     13  C   UNL A   1      31.562  26.864  25.869  1.00  0.00     0.268 C 
ATOM     14  H   UNL A   1      32.178  25.854  27.462  1.00  0.00     0.164 HD
ATOM     15  O   UNL A   1      30.656  27.442  26.468  1.00  0.00    -0.268 OA
BRANCH  13  16
ATOM     16  C   UNL A   1      32.077  27.404  24.572  1.00  0.00     0.107 C 
ATOM     17  C   UNL A   1      32.835  28.521  24.567  1.00  0.00     0.043 C 
BRANCH  16  18
ATOM     18  N   UNL A   1      31.689  26.832  23.364  1.00  0.00    -0.317 N 
ATOM     19  C   UNL A   1      30.892  27.300  22.338  1.00  0.00     0.255 C 
ATOM     20  H   UNL A   1      32.049  25.928  23.214  1.00  0.00     0.170 HD
ATOM     21  O   UNL A   1      30.951  26.807  21.213  1.00  0.00    -0.269 OA
BRANCH  19  22
ATOM     22  C   UNL A   1      29.895  28.349  22.583  1.00  0.00     0.040 A 
ATOM     23  C   UNL A   1      30.153  29.632  22.096  1.00  0.00     0.014 A 
ATOM     24  C   UNL A   1      28.713  28.066  23.276  1.00  0.00     0.014 A 
ATOM     25  C   UNL A   1      29.183  30.622  22.233  1.00  0.00     0.001 A 
ATOM     26  C   UNL A   1      27.733  29.055  23.381  1.00  0.00     0.001 A 
ATOM     27  C   UNL A   1      27.966  30.326  22.852  1.00  0.00     0.000 A 
ENDBRANCH  19  22
ENDBRANCH  16  18
BRANCH  17  28
ATOM     28  C   UNL A   1      33.130  29.313  25.766  1.00  0.00     0.012 A 
ATOM     29  C   UNL A   1      34.311  29.040  26.462  1.00  0.00     0.011 A 
ATOM     30  C   UNL A   1      32.351  30.402  26.160  1.00  0.00     0.130 A 
ATOM     31  C   UNL A   1      34.778  29.930  27.428  1.00  0.00     0.001 A 
ATOM     32  C   UNL A   1      32.782  31.255  27.174  1.00  0.00     0.040 A 
ATOM     33  F   UNL A   1      31.190  30.656  25.545  1.00  0.00    -0.206 F 
ATOM     34  C   UNL A   1      34.016  31.038  27.786  1.00  0.00     0.003 A 
ENDBRANCH  17  28
ENDBRANCH  13  16
ENDBRANCH   8  12
ENDBRANCH   6   8
ENDBRANCH   5   6
ENDBRANCH   4   5
ENDBRANCH   3   4
ENDBRANCH   2   3
ENDBRANCH   1   2
BRANCH   1  35
ATOM     35  C   UNL A   1      36.924  21.447  24.264  1.00  0.00     0.188 C 
BRANCH  35  36
ATOM     36  O   UNL A   1      37.823  20.921  25.233  1.00  0.00    -0.376 OA
BRANCH  36  37
ATOM     37  C   UNL A   1      38.366  19.625  25.023  1.00  0.00     0.202 C 
BRANCH  37  38
ATOM     38  C   UNL A   1      39.628  19.234  25.797  1.00  0.00     0.261 C 
BRANCH  38  39
ATOM     39  O   UNL A   1      40.572  20.292  25.987  1.00  0.00    -0.460 OA
BRANCH  39  40
ATOM     40  C   UNL A   1      40.984  20.425  27.269  1.00  0.00     0.338 C 
ATOM     41  O   UNL A   1      41.272  19.524  28.053  1.00  0.00    -0.246 OA
BRANCH  40  42
ATOM     42  C   UNL A   1      41.176  21.848  27.581  1.00  0.00     0.060 A 
ATOM     43  C   UNL A   1      40.610  22.789  26.716  1.00  0.00     0.016 A 
ATOM     44  C   UNL A   1      41.961  22.256  28.662  1.00  0.00     0.016 A 
ATOM     45  C   UNL A   1      40.841  24.148  26.916  1.00  0.00     0.010 A 
ATOM     46  C   UNL A   1      42.207  23.620  28.848  1.00  0.00     0.010 A 
ATOM     47  C   UNL A   1      41.667  24.572  27.964  1.00  0.00    -0.014 A 
BRANCH  47  48
ATOM     48  C   UNL A   1      42.131  25.979  28.009  1.00  0.00     0.031 A 
ATOM     49  C   UNL A   1      43.480  26.299  27.424  1.00  0.00     0.074 A 
ATOM     50  C   UNL A   1      41.365  26.967  28.505  1.00  0.00     0.049 A 
ATOM     51  N   UNL A   1      44.174  27.403  27.492  1.00  0.00    -0.248 NA
ATOM     52  C   UNL A   1      44.126  25.224  26.653  1.00  0.00     0.031 C 
ATOM     53  C   UNL A   1      39.990  26.818  28.980  1.00  0.00     0.029 A 
ATOM     54  N   UNL A   1      41.641  28.299  28.687  1.00  0.00    -0.354 N 
ATOM     55  C   UNL A   1      45.347  27.154  26.791  1.00  0.00     0.074 A 
ATOM     56  C   UNL A   1      45.274  25.790  26.313  1.00  0.00     0.031 C 
ATOM     57  C   UNL A   1      39.546  28.013  29.408  1.00  0.00     0.029 A 
ATOM     58  C   UNL A   1      40.623  28.997  29.294  1.00  0.00     0.049 A 
ATOM     59  H   UNL A   1      42.489  28.717  28.409  1.00  0.00     0.167 HD
ATOM     60  C   UNL A   1      46.392  27.984  26.572  1.00  0.00     0.034 A 
ATOM     61  C   UNL A   1      40.584  30.267  29.746  1.00  0.00     0.034 A 
ATOM     62  C   UNL A   1      46.454  29.341  27.049  1.00  0.00     0.049 A 
ATOM     63  C   UNL A   1      41.811  31.138  29.612  1.00  0.00     0.074 A 
ATOM     64  C   UNL A   1      47.486  30.253  26.917  1.00  0.00     0.029 A 
ATOM     65  N   UNL A   1      45.440  29.983  27.745  1.00  0.00    -0.354 N 
ATOM     66  N   UNL A   1      42.964  30.858  29.051  1.00  0.00    -0.248 NA
ATOM     67  C   UNL A   1      41.738  32.490  30.190  1.00  0.00     0.031 C 
ATOM     68  C   UNL A   1      47.117  31.428  27.580  1.00  0.00     0.029 A 
ATOM     69  C   UNL A   1      45.830  31.271  28.068  1.00  0.00     0.049 A 
ATOM     70  H   UNL A   1      44.571  29.581  27.975  1.00  0.00     0.167 HD
ATOM     71  C   UNL A   1      43.744  32.005  29.190  1.00  0.00     0.074 A 
ATOM     72  C   UNL A   1      42.933  32.980  29.888  1.00  0.00     0.031 C 
ATOM     73  C   UNL A   1      45.015  32.231  28.771  1.00  0.00     0.034 A 
BRANCH  60  74
ATOM     74  C   UNL A   1      47.581  27.425  25.841  1.00  0.00     0.023 A 
ATOM     75  C   UNL A   1      48.599  26.727  26.510  1.00  0.00     0.031 A 
ATOM     76  C   UNL A   1      47.694  27.598  24.450  1.00  0.00     0.131 A 
ATOM     77  C   UNL A   1      49.710  26.261  25.792  1.00  0.00     0.055 A 
ATOM     78  C   UNL A   1      48.770  27.078  23.732  1.00  0.00     0.041 A 
ATOM     79  F   UNL A   1      46.759  28.280  23.770  1.00  0.00    -0.206 F 
ATOM     80  C   UNL A   1      49.791  26.411  24.404  1.00  0.00     0.022 A 
BRANCH  77  81
ATOM     81  S   UNL A   1      51.093  25.526  26.705  1.00  0.00     0.124 S 
ATOM     82  O   UNL A   1      51.531  26.651  27.528  1.00  0.00    -0.237 OA
ATOM     83  O   UNL A   1      50.455  24.425  27.417  1.00  0.00    -0.237 OA
ATOM     84  O   UNL A   1      52.026  25.131  25.652  1.00  0.00    -0.744 OA
ENDBRANCH  77  81
ENDBRANCH  60  74
BRANCH  61  85
ATOM     85  C   UNL A   1      39.370  30.781  30.441  1.00  0.00     0.023 A 
ATOM     86  C   UNL A   1      39.342  30.939  31.835  1.00  0.00     0.031 A 
ATOM     87  C   UNL A   1      38.202  31.085  29.716  1.00  0.00     0.131 A 
ATOM     88  C   UNL A   1      38.161  31.365  32.464  1.00  0.00     0.055 A 
ATOM     89  C   UNL A   1      37.045  31.549  30.342  1.00  0.00     0.041 A 
ATOM     90  F   UNL A   1      38.176  30.943  28.381  1.00  0.00    -0.206 F 
ATOM     91  C   UNL A   1      37.018  31.685  31.726  1.00  0.00     0.022 A 
BRANCH  88  92
ATOM     92  S   UNL A   1      38.122  31.459  34.276  1.00  0.00     0.124 S 
ATOM     93  O   UNL A   1      36.793  32.012  34.513  1.00  0.00    -0.237 OA
ATOM     94  O   UNL A   1      38.314  30.064  34.660  1.00  0.00    -0.237 OA
ATOM     95  O   UNL A   1      39.237  32.348  34.593  1.00  0.00    -0.744 OA
ENDBRANCH  88  92
ENDBRANCH  61  85
BRANCH  73  96
ATOM     96  C   UNL A   1      45.602  33.596  29.014  1.00  0.00     0.023 A 
ATOM     97  C   UNL A   1      45.362  34.669  28.142  1.00  0.00     0.031 A 
ATOM     98  C   UNL A   1      46.357  33.836  30.177  1.00  0.00     0.131 A 
ATOM     99  C   UNL A   1      45.892  35.935  28.436  1.00  0.00     0.055 A 
ATOM    100  C   UNL A   1      46.846  35.106  30.485  1.00  0.00     0.041 A 
ATOM    101  F   UNL A   1      46.609  32.843  31.044  1.00  0.00    -0.206 F 
ATOM    102  C   UNL A   1      46.616  36.164  29.609  1.00  0.00     0.022 A 
BRANCH  99 103
ATOM    103  S   UNL A   1      45.634  37.288  27.255  1.00  0.00     0.124 S 
ATOM    104  O   UNL A   1      44.214  37.154  26.947  1.00  0.00    -0.237 OA
ATOM    105  O   UNL A   1      46.008  38.465  28.035  1.00  0.00    -0.237 OA
ATOM    106  O   UNL A   1      46.541  36.963  26.156  1.00  0.00    -0.744 OA
ENDBRANCH  99 103
ENDBRANCH  73  96
ENDBRANCH  47  48
ENDBRANCH  40  42
ENDBRANCH  39  40
ENDBRANCH  38  39
ENDBRANCH  37  38
ENDBRANCH  36  37
ENDBRANCH  35  36
ENDBRANCH   1  35
TORSDOF 26
ENDMDL
MODEL 2
REMARK VINA RESULT:     -10.4      1.913      2.548
REMARK SMILES CC(C)[C@@H](NC(=O)/C(=C\c1ccccc1F)NC(=O)c1ccccc1)C(=O)OCCOCCOCCOC(=O)c1ccc(-c2c3nc(c(-c4cc(S(=O)(=O)[O-])ccc4F)c4ccc([nH]4)c(-c4cc(S(=O)(=O)[O-])ccc4F)c4nc(c(-c5cc(S(=O)(=O)[O-])ccc5F)c5ccc2[nH]5)C=C4)C=C3)cc1
REMARK SMILES IDX 32 1 31 2 30 3 29 4 28 5 26 6 27 7 4 8 2 9 1 10 3 11 5 12
REMARK SMILES IDX 6 13 7 15 8 16 9 17 17 18 18 19 19 21 20 22 21 23 25 24
REMARK SMILES IDX 22 25 24 26 23 27 10 28 11 29 15 30 12 31 14 32 16 33 13 34
REMARK SMILES IDX 33 35 34 36 35 37 36 38 37 39 38 40 39 41 40 42 41 43 102 44
REMARK SMILES IDX 42 45 101 46 43 47 44 48 45 49 95 50 46 51 100 52 94 53
REMARK SMILES IDX 96 54 47 55 99 56 93 57 92 58 48 60 80 61 60 62 79 63 61 64
REMARK SMILES IDX 64 65 78 66 97 67 62 68 63 69 77 71 98 72 65 73 49 74 50 75
REMARK SMILES IDX 58 76 51 77 57 78 59 79 56 80 52 81 53 82 54 83 55 84 81 85
REMARK SMILES IDX 82 86 90 87 83 88 89 89 91 90 88 91 84 92 85 93 86 94 87 95
REMARK SMILES IDX 66 96 67 97 75 98 68 99 74 100 76 101 73 102 69 103 70 104
REMARK SMILES IDX 71 105 72 106
REMARK H PARENT 5 14 17 20 96 59 64 70
REMARK Flexibility Score: inf
ROOT
ATOM      1  C   UNL A   1      38.519  23.260  26.121  1.00  0.00     0.188 C 
ENDROOT
BRANCH   1   2
ATOM      2  O   UNL A   1      37.163  23.382  25.713  1.00  0.00    -0.376 OA
BRANCH   2   3
ATOM      3  C   UNL A   1      36.930  23.484  24.319  1.00  0.00     0.202 C 
BRANCH   3   4
ATOM      4  C   UNL A   1      35.446  23.395  23.901  1.00  0.00     0.261 C 
BRANCH   4   5
ATOM      5  O   UNL A   1      34.431  23.177  24.909  1.00  0.00    -0.462 OA
BRANCH   5   6
ATOM      6  C   UNL A   1      33.917  24.289  25.478  1.00  0.00     0.328 C 
ATOM      7  O   UNL A   1      34.630  25.250  25.729  1.00  0.00    -0.250 OA
BRANCH   6   8
ATOM      8  C   UNL A   1      32.378  24.299  25.682  1.00  0.00     0.195 C 
BRANCH   8   9
ATOM      9  C   UNL A   1      31.734  23.065  26.396  1.00  0.00     0.017 C 
ATOM     10  C   UNL A   1      32.530  22.651  27.655  1.00  0.00     0.010 C 
ATOM     11  C   UNL A   1      30.299  23.330  26.879  1.00  0.00     0.010 C 
ENDBRANCH   8   9
BRANCH   8  12
ATOM     12  N   UNL A   1      31.929  25.557  26.329  1.00  0.00    -0.337 N 
ATOM     13  C   UNL A   1      31.476  26.739  25.810  1.00  0.00     0.268 C 
ATOM     14  H   UNL A   1      31.962  25.537  27.312  1.00  0.00     0.164 HD
ATOM     15  O   UNL A   1      30.684  27.405  26.475  1.00  0.00    -0.268 OA
BRANCH  13  16
ATOM     16  C   UNL A   1      32.042  27.285  24.536  1.00  0.00     0.107 C 
ATOM     17  C   UNL A   1      32.802  28.399  24.565  1.00  0.00     0.043 C 
BRANCH  16  18
ATOM     18  N   UNL A   1      31.699  26.719  23.312  1.00  0.00    -0.317 N 
ATOM     19  C   UNL A   1      30.931  27.189  22.264  1.00  0.00     0.255 C 
ATOM     20  H   UNL A   1      32.071  25.819  23.166  1.00  0.00     0.170 HD
ATOM     21  O   UNL A   1      31.031  26.706  21.137  1.00  0.00    -0.269 OA
BRANCH  19  22
ATOM     22  C   UNL A   1      29.917  28.227  22.485  1.00  0.00     0.040 A 
ATOM     23  C   UNL A   1      30.186  29.521  22.033  1.00  0.00     0.014 A 
ATOM     24  C   UNL A   1      28.709  27.924  23.122  1.00  0.00     0.014 A 
ATOM     25  C   UNL A   1      29.205  30.502  22.145  1.00  0.00     0.001 A 
ATOM     26  C   UNL A   1      27.718  28.905  23.203  1.00  0.00     0.001 A 
ATOM     27  C   UNL A   1      27.965  30.187  22.707  1.00  0.00     0.000 A 
ENDBRANCH  19  22
ENDBRANCH  16  18
BRANCH  17  28
ATOM     28  C   UNL A   1      33.053  29.185  25.779  1.00  0.00     0.012 A 
ATOM     29  C   UNL A   1      34.178  28.870  26.547  1.00  0.00     0.011 A 
ATOM     30  C   UNL A   1      32.294  30.304  26.122  1.00  0.00     0.130 A 
ATOM     31  C   UNL A   1      34.618  29.745  27.538  1.00  0.00     0.001 A 
ATOM     32  C   UNL A   1      32.695  31.145  27.159  1.00  0.00     0.040 A 
ATOM     33  F   UNL A   1      31.184  30.601  25.436  1.00  0.00    -0.206 F 
ATOM     34  C   UNL A   1      33.879  30.883  27.846  1.00  0.00     0.003 A 
ENDBRANCH  17  28
ENDBRANCH  13  16
ENDBRANCH   8  12
ENDBRANCH   6   8
ENDBRANCH   5   6
ENDBRANCH   4   5
ENDBRANCH   3   4
ENDBRANCH   2   3
ENDBRANCH   1   2
BRANCH   1  35
ATOM     35  C   UNL A   1      39.050  21.826  26.064  1.00  0.00     0.188 C 
BRANCH  35  36
ATOM     36  O   UNL A   1      38.462  20.905  25.152  1.00  0.00    -0.376 OA
BRANCH  36  37
ATOM     37  C   UNL A   1      38.760  19.523  25.296  1.00  0.00     0.202 C 
BRANCH  37  38
ATOM     38  C   UNL A   1      40.048  19.132  26.026  1.00  0.00     0.261 C 
BRANCH  38  39
ATOM     39  O   UNL A   1      41.249  19.307  25.269  1.00  0.00    -0.460 OA
BRANCH  39  40
ATOM     40  C   UNL A   1      42.376  19.194  26.009  1.00  0.00     0.338 C 
ATOM     41  O   UNL A   1      42.937  18.155  26.350  1.00  0.00    -0.246 OA
BRANCH  40  42
ATOM     42  C   UNL A   1      42.942  20.526  26.257  1.00  0.00     0.060 A 
ATOM     43  C   UNL A   1      42.722  21.106  27.510  1.00  0.00     0.016 A 
ATOM     44  C   UNL A   1      43.611  21.231  25.254  1.00  0.00     0.016 A 
ATOM     45  C   UNL A   1      43.158  22.405  27.764  1.00  0.00     0.010 A 
ATOM     46  C   UNL A   1      44.029  22.542  25.505  1.00  0.00     0.010 A 
ATOM     47  C   UNL A   1      43.784  23.144  26.753  1.00  0.00    -0.014 A 
BRANCH  47  48
ATOM     48  C   UNL A   1      43.995  24.601  26.932  1.00  0.00     0.031 A 
ATOM     49  C   UNL A   1      45.343  25.169  26.582  1.00  0.00     0.074 A 
ATOM     50  C   UNL A   1      43.009  25.418  27.343  1.00  0.00     0.049 A 
ATOM     51  N   UNL A   1      45.825  26.362  26.806  1.00  0.00    -0.248 NA
ATOM     52  C   UNL A   1      46.267  24.265  25.877  1.00  0.00     0.031 C 
ATOM     53  C   UNL A   1      41.623  25.021  27.588  1.00  0.00     0.029 A 
ATOM     54  N   UNL A   1      43.029  26.761  27.624  1.00  0.00    -0.354 N 
ATOM     55  C   UNL A   1      47.115  26.350  26.289  1.00  0.00     0.074 A 
ATOM     56  C   UNL A   1      47.343  25.028  25.747  1.00  0.00     0.031 C 
ATOM     57  C   UNL A   1      40.927  26.099  27.991  1.00  0.00     0.029 A 
ATOM     58  C   UNL A   1      41.830  27.246  28.091  1.00  0.00     0.049 A 
ATOM     59  H   UNL A   1      43.827  27.326  27.501  1.00  0.00     0.167 HD
ATOM     60  C   UNL A   1      48.027  27.349  26.274  1.00  0.00     0.034 A 
ATOM     61  C   UNL A   1      41.512  28.461  28.586  1.00  0.00     0.034 A 
ATOM     62  C   UNL A   1      47.789  28.662  26.813  1.00  0.00     0.049 A 
ATOM     63  C   UNL A   1      42.582  29.522  28.684  1.00  0.00     0.074 A 
ATOM     64  C   UNL A   1      48.662  29.733  26.885  1.00  0.00     0.029 A 
ATOM     65  N   UNL A   1      46.591  29.086  27.367  1.00  0.00    -0.354 N 
ATOM     66  N   UNL A   1      43.837  29.467  28.301  1.00  0.00    -0.248 NA
ATOM     67  C   UNL A   1      42.200  30.802  29.302  1.00  0.00     0.031 C 
ATOM     68  C   UNL A   1      48.008  30.787  27.532  1.00  0.00     0.029 A 
ATOM     69  C   UNL A   1      46.707  30.395  27.803  1.00  0.00     0.049 A 
ATOM     70  H   UNL A   1      45.777  28.537  27.440  1.00  0.00     0.167 HD
ATOM     71  C   UNL A   1      44.385  30.710  28.612  1.00  0.00     0.074 A 
ATOM     72  C   UNL A   1      43.328  31.495  29.214  1.00  0.00     0.031 C 
ATOM     73  C   UNL A   1      45.648  31.163  28.409  1.00  0.00     0.034 A 
BRANCH  60  74
ATOM     74  C   UNL A   1      49.388  27.035  25.717  1.00  0.00     0.023 A 
ATOM     75  C   UNL A   1      49.806  27.526  24.469  1.00  0.00     0.031 A 
ATOM     76  C   UNL A   1      50.276  26.229  26.448  1.00  0.00     0.131 A 
ATOM     77  C   UNL A   1      51.069  27.170  23.972  1.00  0.00     0.055 A 
ATOM     78  C   UNL A   1      51.554  25.930  25.976  1.00  0.00     0.041 A 
ATOM     79  F   UNL A   1      49.912  25.716  27.635  1.00  0.00    -0.206 F 
ATOM     80  C   UNL A   1      51.954  26.396  24.726  1.00  0.00     0.022 A 
BRANCH  77  81
ATOM     81  S   UNL A   1      51.511  27.664  22.284  1.00  0.00     0.124 S 
ATOM     82  O   UNL A   1      50.656  28.832  22.087  1.00  0.00    -0.237 OA
ATOM     83  O   UNL A   1      52.941  27.931  22.395  1.00  0.00    -0.237 OA
ATOM     84  O   UNL A   1      51.155  26.496  21.481  1.00  0.00    -0.744 OA
ENDBRANCH  77  81
ENDBRANCH  60  74
BRANCH  61  85
ATOM     85  C   UNL A   1      40.140  28.727  29.101  1.00  0.00     0.023 A 
ATOM     86  C   UNL A   1      39.836  28.590  30.464  1.00  0.00     0.031 A 
ATOM     87  C   UNL A   1      39.099  29.086  28.223  1.00  0.00     0.131 A 
ATOM     88  C   UNL A   1      38.517  28.786  30.908  1.00  0.00     0.055 A 
ATOM     89  C   UNL A   1      37.801  29.322  28.676  1.00  0.00     0.041 A 
ATOM     90  F   UNL A   1      39.338  29.222  26.909  1.00  0.00    -0.206 F 
ATOM     91  C   UNL A   1      37.503  29.166  30.025  1.00  0.00     0.022 A 
BRANCH  88  92
ATOM     92  S   UNL A   1      38.132  28.500  32.657  1.00  0.00     0.124 S 
ATOM     93  O   UNL A   1      39.247  29.171  33.317  1.00  0.00    -0.237 OA
ATOM     94  O   UNL A   1      36.827  29.139  32.793  1.00  0.00    -0.237 OA
ATOM     95  O   UNL A   1      38.124  27.043  32.768  1.00  0.00    -0.744 OA
ENDBRANCH  88  92
ENDBRANCH  61  85
BRANCH  73  96
ATOM     96  C   UNL A   1      45.956  32.584  28.800  1.00  0.00     0.023 A 
ATOM     97  C   UNL A   1      45.761  33.653  27.912  1.00  0.00     0.031 A 
ATOM     98  C   UNL A   1      46.387  32.872  30.108  1.00  0.00     0.131 A 
ATOM     99  C   UNL A   1      46.017  34.966  28.338  1.00  0.00     0.055 A 
ATOM    100  C   UNL A   1      46.600  34.182  30.539  1.00  0.00     0.041 A 
ATOM    101  F   UNL A   1      46.582  31.883  30.996  1.00  0.00    -0.206 F 
ATOM    102  C   UNL A   1      46.417  35.238  29.650  1.00  0.00     0.022 A 
BRANCH  99 103
ATOM    103  S   UNL A   1      45.833  36.324  27.150  1.00  0.00     0.124 S 
ATOM    104  O   UNL A   1      44.426  36.215  26.783  1.00  0.00    -0.237 OA
ATOM    105  O   UNL A   1      46.195  37.493  27.947  1.00  0.00    -0.237 OA
ATOM    106  O   UNL A   1      46.779  35.984  26.089  1.00  0.00    -0.744 OA
ENDBRANCH  99 103
ENDBRANCH  73  96
ENDBRANCH  47  48
ENDBRANCH  40  42
ENDBRANCH  39  40
ENDBRANCH  38  39
ENDBRANCH  37  38
ENDBRANCH  36  37
ENDBRANCH  35  36
ENDBRANCH   1  35
TORSDOF 26
ENDMDL
MODEL 3
REMARK VINA RESULT:      -9.7      1.994      2.439
REMARK SMILES CC(C)[C@@H](NC(=O)/C(=C\c1ccccc1F)NC(=O)c1ccccc1)C(=O)OCCOCCOCCOC(=O)c1ccc(-c2c3nc(c(-c4cc(S(=O)(=O)[O-])ccc4F)c4ccc([nH]4)c(-c4cc(S(=O)(=O)[O-])ccc4F)c4nc(c(-c5cc(S(=O)(=O)[O-])ccc5F)c5ccc2[nH]5)C=C4)C=C3)cc1
REMARK SMILES IDX 32 1 31 2 30 3 29 4 28 5 26 6 27 7 4 8 2 9 1 10 3 11 5 12
REMARK SMILES IDX 6 13 7 15 8 16 9 17 17 18 18 19 19 21 20 22 21 23 25 24
REMARK SMILES IDX 22 25 24 26 23 27 10 28 11 29 15 30 12 31 14 32 16 33 13 34
REMARK SMILES IDX 33 35 34 36 35 37 36 38 37 39 38 40 39 41 40 42 41 43 102 44
REMARK SMILES IDX 42 45 101 46 43 47 44 48 45 49 95 50 46 51 100 52 94 53
REMARK SMILES IDX 96 54 47 55 99 56 93 57 92 58 48 60 80 61 60 62 79 63 61 64
REMARK SMILES IDX 64 65 78 66 97 67 62 68 63 69 77 71 98 72 65 73 49 74 50 75
REMARK SMILES IDX 58 76 51 77 57 78 59 79 56 80 52 81 53 82 54 83 55 84 81 85
REMARK SMILES IDX 82 86 90 87 83 88 89 89 91 90 88 91 84 92 85 93 86 94 87 95
REMARK SMILES IDX 66 96 67 97 75 98 68 99 74 100 76 101 73 102 69 103 70 104
REMARK SMILES IDX 71 105 72 106
REMARK H PARENT 5 14 17 20 96 59 64 70
REMARK Flexibility Score: inf
ROOT
ATOM      1  C   UNL A   1      35.683  22.668  25.594  1.00  0.00     0.188 C 
ENDROOT
BRANCH   1   2
ATOM      2  O   UNL A   1      34.378  22.840  25.059  1.00  0.00    -0.376 OA
BRANCH   2   3
ATOM      3  C   UNL A   1      34.082  22.123  23.874  1.00  0.00     0.202 C 
BRANCH   3   4
ATOM      4  C   UNL A   1      32.580  21.852  23.636  1.00  0.00     0.261 C 
BRANCH   4   5
ATOM      5  O   UNL A   1      31.630  22.936  23.763  1.00  0.00    -0.462 OA
BRANCH   5   6
ATOM      6  C   UNL A   1      31.267  23.256  25.023  1.00  0.00     0.328 C 
ATOM      7  O   UNL A   1      30.894  22.394  25.805  1.00  0.00    -0.250 OA
BRANCH   6   8
ATOM      8  C   UNL A   1      31.455  24.744  25.429  1.00  0.00     0.195 C 
BRANCH   8   9
ATOM      9  C   UNL A   1      30.472  25.335  26.492  1.00  0.00     0.017 C 
ATOM     10  C   UNL A   1      30.758  26.829  26.770  1.00  0.00     0.010 C 
ATOM     11  C   UNL A   1      29.000  25.267  26.054  1.00  0.00     0.010 C 
ENDBRANCH   8   9
BRANCH   8  12
ATOM     12  N   UNL A   1      32.859  25.022  25.818  1.00  0.00    -0.337 N 
ATOM     13  C   UNL A   1      33.662  26.113  25.624  1.00  0.00     0.268 C 
ATOM     14  H   UNL A   1      33.293  24.286  26.307  1.00  0.00     0.164 HD
ATOM     15  O   UNL A   1      34.542  26.346  26.451  1.00  0.00    -0.268 OA
BRANCH  13  16
ATOM     16  C   UNL A   1      33.573  26.916  24.364  1.00  0.00     0.107 C 
ATOM     17  C   UNL A   1      33.623  28.263  24.426  1.00  0.00     0.043 C 
BRANCH  16  18
ATOM     18  N   UNL A   1      33.328  26.293  23.144  1.00  0.00    -0.317 N 
ATOM     19  C   UNL A   1      32.464  26.600  22.112  1.00  0.00     0.255 C 
ATOM     20  H   UNL A   1      33.870  25.485  22.989  1.00  0.00     0.170 HD
ATOM     21  O   UNL A   1      32.638  26.146  20.982  1.00  0.00    -0.269 OA
BRANCH  19  22
ATOM     22  C   UNL A   1      31.267  27.415  22.354  1.00  0.00     0.040 A 
ATOM     23  C   UNL A   1      30.163  26.806  22.955  1.00  0.00     0.014 A 
ATOM     24  C   UNL A   1      31.240  28.768  22.002  1.00  0.00     0.014 A 
ATOM     25  C   UNL A   1      29.051  27.578  23.281  1.00  0.00     0.001 A 
ATOM     26  C   UNL A   1      30.134  29.542  22.360  1.00  0.00     0.001 A 
ATOM     27  C   UNL A   1      29.047  28.947  23.006  1.00  0.00     0.000 A 
ENDBRANCH  19  22
ENDBRANCH  16  18
BRANCH  17  28
ATOM     28  C   UNL A   1      33.675  29.022  25.681  1.00  0.00     0.012 A 
ATOM     29  C   UNL A   1      34.894  29.087  26.362  1.00  0.00     0.011 A 
ATOM     30  C   UNL A   1      32.600  29.779  26.148  1.00  0.00     0.130 A 
ATOM     31  C   UNL A   1      35.074  30.008  27.392  1.00  0.00     0.001 A 
ATOM     32  C   UNL A   1      32.758  30.652  27.223  1.00  0.00     0.040 A 
ATOM     33  F   UNL A   1      31.407  29.697  25.546  1.00  0.00    -0.206 F 
ATOM     34  C   UNL A   1      34.008  30.792  27.825  1.00  0.00     0.003 A 
ENDBRANCH  17  28
ENDBRANCH  13  16
ENDBRANCH   8  12
ENDBRANCH   6   8
ENDBRANCH   5   6
ENDBRANCH   4   5
ENDBRANCH   3   4
ENDBRANCH   2   3
ENDBRANCH   1   2
BRANCH   1  35
ATOM     35  C   UNL A   1      36.551  21.695  24.793  1.00  0.00     0.188 C 
BRANCH  35  36
ATOM     36  O   UNL A   1      37.842  21.352  25.284  1.00  0.00    -0.376 OA
BRANCH  36  37
ATOM     37  C   UNL A   1      38.359  20.061  24.993  1.00  0.00     0.202 C 
BRANCH  37  38
ATOM     38  C   UNL A   1      39.345  19.435  25.982  1.00  0.00     0.261 C 
BRANCH  38  39
ATOM     39  O   UNL A   1      40.715  19.467  25.572  1.00  0.00    -0.460 OA
BRANCH  39  40
ATOM     40  C   UNL A   1      41.577  19.717  26.584  1.00  0.00     0.338 C 
ATOM     41  O   UNL A   1      42.350  18.922  27.114  1.00  0.00    -0.246 OA
BRANCH  40  42
ATOM     42  C   UNL A   1      41.566  21.151  26.900  1.00  0.00     0.060 A 
ATOM     43  C   UNL A   1      41.386  22.052  25.846  1.00  0.00     0.016 A 
ATOM     44  C   UNL A   1      41.805  21.613  28.197  1.00  0.00     0.016 A 
ATOM     45  C   UNL A   1      41.461  23.423  26.078  1.00  0.00     0.010 A 
ATOM     46  C   UNL A   1      41.900  22.990  28.424  1.00  0.00     0.010 A 
ATOM     47  C   UNL A   1      41.750  23.901  27.362  1.00  0.00    -0.014 A 
BRANCH  47  48
ATOM     48  C   UNL A   1      42.100  25.330  27.552  1.00  0.00     0.031 A 
ATOM     49  C   UNL A   1      43.392  25.826  26.962  1.00  0.00     0.074 A 
ATOM     50  C   UNL A   1      41.278  26.187  28.182  1.00  0.00     0.049 A 
ATOM     51  N   UNL A   1      43.996  26.972  27.132  1.00  0.00    -0.248 NA
ATOM     52  C   UNL A   1      44.090  24.902  26.052  1.00  0.00     0.031 C 
ATOM     53  C   UNL A   1      39.941  25.870  28.683  1.00  0.00     0.029 A 
ATOM     54  N   UNL A   1      41.452  27.510  28.505  1.00  0.00    -0.354 N 
ATOM     55  C   UNL A   1      45.155  26.902  26.368  1.00  0.00     0.074 A 
ATOM     56  C   UNL A   1      45.173  25.599  25.740  1.00  0.00     0.031 C 
ATOM     57  C   UNL A   1      39.420  26.968  29.258  1.00  0.00     0.029 A 
ATOM     58  C   UNL A   1      40.408  28.047  29.220  1.00  0.00     0.049 A 
ATOM     59  H   UNL A   1      42.251  28.027  28.248  1.00  0.00     0.167 HD
ATOM     60  C   UNL A   1      46.118  27.839  26.210  1.00  0.00     0.034 A 
ATOM     61  C   UNL A   1      40.285  29.252  29.815  1.00  0.00     0.034 A 
ATOM     62  C   UNL A   1      46.090  29.135  26.836  1.00  0.00     0.049 A 
ATOM     63  C   UNL A   1      41.430  30.234  29.740  1.00  0.00     0.074 A 
ATOM     64  C   UNL A   1      47.037  30.141  26.774  1.00  0.00     0.029 A 
ATOM     65  N   UNL A   1      45.058  29.606  27.634  1.00  0.00    -0.354 N 
ATOM     66  N   UNL A   1      42.577  30.117  29.112  1.00  0.00    -0.248 NA
ATOM     67  C   UNL A   1      41.273  31.502  30.470  1.00  0.00     0.031 C 
ATOM     68  C   UNL A   1      46.604  31.199  27.578  1.00  0.00     0.029 A 
ATOM     69  C   UNL A   1      45.355  30.880  28.088  1.00  0.00     0.049 A 
ATOM     70  H   UNL A   1      44.235  29.109  27.846  1.00  0.00     0.167 HD
ATOM     71  C   UNL A   1      43.267  31.304  29.355  1.00  0.00     0.074 A 
ATOM     72  C   UNL A   1      42.410  32.123  30.186  1.00  0.00     0.031 C 
ATOM     73  C   UNL A   1      44.496  31.682  28.922  1.00  0.00     0.034 A 
BRANCH  60  74
ATOM     74  C   UNL A   1      47.316  27.467  25.381  1.00  0.00     0.023 A 
ATOM     75  C   UNL A   1      47.406  27.803  24.020  1.00  0.00     0.031 A 
ATOM     76  C   UNL A   1      48.382  26.761  25.965  1.00  0.00     0.131 A 
ATOM     77  C   UNL A   1      48.524  27.395  23.277  1.00  0.00     0.055 A 
ATOM     78  C   UNL A   1      49.519  26.413  25.237  1.00  0.00     0.041 A 
ATOM     79  F   UNL A   1      48.331  26.395  27.256  1.00  0.00    -0.206 F 
ATOM     80  C   UNL A   1      49.591  26.724  23.881  1.00  0.00     0.022 A 
BRANCH  77  81
ATOM     81  S   UNL A   1      48.532  27.681  21.487  1.00  0.00     0.124 S 
ATOM     82  O   UNL A   1      47.156  28.110  21.253  1.00  0.00    -0.237 OA
ATOM     83  O   UNL A   1      49.556  28.708  21.333  1.00  0.00    -0.237 OA
ATOM     84  O   UNL A   1      48.874  26.372  20.933  1.00  0.00    -0.744 OA
ENDBRANCH  77  81
ENDBRANCH  60  74
BRANCH  61  85
ATOM     85  C   UNL A   1      39.064  29.580  30.604  1.00  0.00     0.023 A 
ATOM     86  C   UNL A   1      38.248  30.668  30.262  1.00  0.00     0.031 A 
ATOM     87  C   UNL A   1      38.719  28.824  31.741  1.00  0.00     0.131 A 
ATOM     88  C   UNL A   1      37.140  30.988  31.064  1.00  0.00     0.055 A 
ATOM     89  C   UNL A   1      37.593  29.120  32.508  1.00  0.00     0.041 A 
ATOM     90  F   UNL A   1      39.472  27.777  32.114  1.00  0.00    -0.206 F 
ATOM     91  C   UNL A   1      36.799  30.212  32.175  1.00  0.00     0.022 A 
BRANCH  88  92
ATOM     92  S   UNL A   1      36.164  32.463  30.658  1.00  0.00     0.124 S 
ATOM     93  O   UNL A   1      36.468  32.636  29.242  1.00  0.00    -0.237 OA
ATOM     94  O   UNL A   1      34.807  32.030  30.974  1.00  0.00    -0.237 OA
ATOM     95  O   UNL A   1      36.711  33.486  31.546  1.00  0.00    -0.744 OA
ENDBRANCH  88  92
ENDBRANCH  61  85
BRANCH  73  96
ATOM     96  C   UNL A   1      44.980  33.058  29.299  1.00  0.00     0.023 A 
ATOM     97  C   UNL A   1      44.667  34.188  28.528  1.00  0.00     0.031 A 
ATOM     98  C   UNL A   1      45.709  33.241  30.489  1.00  0.00     0.131 A 
ATOM     99  C   UNL A   1      45.101  35.456  28.945  1.00  0.00     0.055 A 
ATOM    100  C   UNL A   1      46.101  34.509  30.920  1.00  0.00     0.041 A 
ATOM    101  F   UNL A   1      46.027  32.192  31.263  1.00  0.00    -0.206 F 
ATOM    102  C   UNL A   1      45.800  35.625  30.144  1.00  0.00     0.022 A 
BRANCH  99 103
ATOM    103  S   UNL A   1      44.751  36.892  27.893  1.00  0.00     0.124 S 
ATOM    104  O   UNL A   1      43.299  36.986  27.984  1.00  0.00    -0.237 OA
ATOM    105  O   UNL A   1      45.502  37.957  28.551  1.00  0.00    -0.237 OA
ATOM    106  O   UNL A   1      45.267  36.492  26.584  1.00  0.00    -0.744 OA
ENDBRANCH  99 103
ENDBRANCH  73  96
ENDBRANCH  47  48
ENDBRANCH  40  42
ENDBRANCH  39  40
ENDBRANCH  38  39
ENDBRANCH  37  38
ENDBRANCH  36  37
ENDBRANCH  35  36
ENDBRANCH   1  35
TORSDOF 26
ENDMDL
