MODEL 1
REMARK VINA RESULT:      -9.2      0.000      0.000
REMARK SMILES CCc1c(Cl)ccc2c1C=C(C(=O)OCCOCCOCCOC(=O)c1ccc(-c3c4nc(c(-c5cc(S(=O)(=O)[O-])ccc5F)c5ccc([nH]5)c(-c5cc(S(=O)(=O)[O-])ccc5F)c5nc(c(-c6cc(S(=O)(=O)[O-])ccc6F)c6ccc3[nH]6)C=C5)C=C4)cc1)[C@@H](C(F)(F)F)O2
REMARK SMILES IDX 19 1 18 2 17 3 16 4 15 5 14 6 12 7 13 8 11 9 3 10 4 11 9 12
REMARK SMILES IDX 5 13 6 14 8 15 10 16 7 17 94 18 89 19 2 20 1 21 90 22 91 23
REMARK SMILES IDX 92 24 93 25 20 26 21 27 22 28 23 29 24 30 25 31 26 32 27 33
REMARK SMILES IDX 88 34 28 35 87 36 29 37 30 38 31 39 81 40 32 41 86 42 80 43
REMARK SMILES IDX 82 44 33 45 85 46 79 47 78 48 34 50 66 51 46 52 65 53 47 54
REMARK SMILES IDX 50 55 64 56 83 57 48 58 49 59 63 61 84 62 51 63 35 64 36 65
REMARK SMILES IDX 44 66 37 67 43 68 45 69 42 70 38 71 39 72 40 73 41 74 67 75
REMARK SMILES IDX 68 76 76 77 69 78 75 79 77 80 74 81 70 82 71 83 72 84 73 85
REMARK SMILES IDX 52 86 53 87 61 88 54 89 60 90 62 91 59 92 55 93 56 94 57 95
REMARK SMILES IDX 58 96
REMARK H PARENT 82 49 50 60
REMARK Flexibility Score: inf
ROOT
ATOM      1  C   UNL A   1      35.885  33.503  28.990  1.00  0.00     0.188 C 
ENDROOT
BRANCH   1   2
ATOM      2  C   UNL A   1      35.646  32.226  28.155  1.00  0.00     0.188 C 
BRANCH   2   3
ATOM      3  O   UNL A   1      34.271  31.910  28.043  1.00  0.00    -0.376 OA
BRANCH   3   4
ATOM      4  C   UNL A   1      33.908  30.683  27.442  1.00  0.00     0.202 C 
BRANCH   4   5
ATOM      5  C   UNL A   1      32.512  30.528  26.822  1.00  0.00     0.261 C 
BRANCH   5   6
ATOM      6  O   UNL A   1      32.199  29.242  26.268  1.00  0.00    -0.460 OA
BRANCH   6   7
ATOM      7  C   UNL A   1      32.581  28.996  24.995  1.00  0.00     0.338 C 
ATOM      8  O   UNL A   1      33.277  29.713  24.296  1.00  0.00    -0.246 OA
BRANCH   7   9
ATOM      9  C   UNL A   1      32.093  27.650  24.616  1.00  0.00     0.087 C 
ATOM     10  C   UNL A   1      33.341  24.137  24.336  1.00  0.00    -0.019 A 
ATOM     11  C   UNL A   1      32.812  22.906  23.878  1.00  0.00     0.045 A 
ATOM     12  C   UNL A   1      32.509  25.288  24.281  1.00  0.00     0.022 A 
ATOM     13  Cl  UNL A   1      33.735  21.442  23.858  1.00  0.00    -0.084 Cl
ATOM     14  C   UNL A   1      31.496  22.807  23.424  1.00  0.00     0.024 A 
ATOM     15  C   UNL A   1      31.169  25.149  23.880  1.00  0.00     0.128 A 
ATOM     16  C   UNL A   1      32.977  26.643  24.595  1.00  0.00     0.027 C 
ATOM     17  C   UNL A   1      30.670  23.921  23.448  1.00  0.00     0.048 A 
ATOM     18  O   UNL A   1      30.250  26.158  23.867  1.00  0.00    -0.475 OA
ATOM     19  C   UNL A   1      30.624  27.474  24.338  1.00  0.00     0.316 C 
BRANCH  10  20
ATOM     20  C   UNL A   1      34.751  24.184  24.901  1.00  0.00     0.034 C 
ATOM     21  C   UNL A   1      34.860  23.670  26.328  1.00  0.00     0.009 C 
ENDBRANCH  10  20
BRANCH  19  22
ATOM     22  C   UNL A   1      30.077  28.487  23.319  1.00  0.00     0.430 C 
ATOM     23  F   UNL A   1      30.931  28.639  22.276  1.00  0.00    -0.167 F 
ATOM     24  F   UNL A   1      28.894  28.099  22.787  1.00  0.00    -0.167 F 
ATOM     25  F   UNL A   1      29.891  29.709  23.867  1.00  0.00    -0.167 F 
ENDBRANCH  19  22
ENDBRANCH   7   9
ENDBRANCH   6   7
ENDBRANCH   5   6
ENDBRANCH   4   5
ENDBRANCH   3   4
ENDBRANCH   2   3
ENDBRANCH   1   2
BRANCH   1  26
ATOM     26  O   UNL A   1      36.264  33.379  30.359  1.00  0.00    -0.376 OA
BRANCH  26  27
ATOM     27  C   UNL A   1      35.264  33.059  31.323  1.00  0.00     0.202 C 
BRANCH  27  28
ATOM     28  C   UNL A   1      35.418  31.772  32.144  1.00  0.00     0.261 C 
BRANCH  28  29
ATOM     29  O   UNL A   1      36.003  30.678  31.419  1.00  0.00    -0.460 OA
BRANCH  29  30
ATOM     30  C   UNL A   1      37.033  30.045  32.039  1.00  0.00     0.338 C 
ATOM     31  O   UNL A   1      36.970  29.050  32.740  1.00  0.00    -0.246 OA
BRANCH  30  32
ATOM     32  C   UNL A   1      38.305  30.624  31.557  1.00  0.00     0.060 A 
ATOM     33  C   UNL A   1      39.297  31.033  32.450  1.00  0.00     0.016 A 
ATOM     34  C   UNL A   1      38.490  30.768  30.175  1.00  0.00     0.016 A 
ATOM     35  C   UNL A   1      40.485  31.577  31.954  1.00  0.00     0.010 A 
ATOM     36  C   UNL A   1      39.668  31.334  29.683  1.00  0.00     0.010 A 
ATOM     37  C   UNL A   1      40.680  31.729  30.568  1.00  0.00    -0.014 A 
BRANCH  37  38
ATOM     38  C   UNL A   1      42.004  32.138  30.042  1.00  0.00     0.031 A 
ATOM     39  C   UNL A   1      43.121  31.158  29.857  1.00  0.00     0.074 A 
ATOM     40  C   UNL A   1      42.188  33.440  29.749  1.00  0.00     0.049 A 
ATOM     41  N   UNL A   1      44.300  31.357  29.326  1.00  0.00    -0.248 NA
ATOM     42  C   UNL A   1      42.896  29.786  30.331  1.00  0.00     0.031 C 
ATOM     43  C   UNL A   1      41.176  34.479  29.931  1.00  0.00     0.029 A 
ATOM     44  N   UNL A   1      43.274  34.110  29.247  1.00  0.00    -0.354 N 
ATOM     45  C   UNL A   1      44.951  30.130  29.368  1.00  0.00     0.074 A 
ATOM     46  C   UNL A   1      44.053  29.206  30.031  1.00  0.00     0.031 C 
ATOM     47  C   UNL A   1      41.684  35.655  29.538  1.00  0.00     0.029 A 
ATOM     48  C   UNL A   1      43.064  35.460  29.096  1.00  0.00     0.049 A 
ATOM     49  H   UNL A   1      44.123  33.667  29.017  1.00  0.00     0.167 HD
ATOM     50  C   UNL A   1      46.172  29.813  28.876  1.00  0.00     0.034 A 
ATOM     51  C   UNL A   1      43.882  36.434  28.649  1.00  0.00     0.034 A 
ATOM     52  C   UNL A   1      47.054  30.760  28.234  1.00  0.00     0.049 A 
ATOM     53  C   UNL A   1      45.253  36.061  28.145  1.00  0.00     0.074 A 
ATOM     54  C   UNL A   1      48.282  30.515  27.643  1.00  0.00     0.029 A 
ATOM     55  N   UNL A   1      46.819  32.122  28.110  1.00  0.00    -0.354 N 
ATOM     56  N   UNL A   1      45.803  34.873  28.067  1.00  0.00    -0.248 NA
ATOM     57  C   UNL A   1      46.107  37.149  27.651  1.00  0.00     0.031 C 
ATOM     58  C   UNL A   1      48.823  31.735  27.236  1.00  0.00     0.029 A 
ATOM     59  C   UNL A   1      47.900  32.735  27.494  1.00  0.00     0.049 A 
ATOM     60  H   UNL A   1      46.006  32.585  28.416  1.00  0.00     0.167 HD
ATOM     61  C   UNL A   1      47.055  35.066  27.491  1.00  0.00     0.074 A 
ATOM     62  C   UNL A   1      47.173  36.483  27.223  1.00  0.00     0.031 C 
ATOM     63  C   UNL A   1      48.015  34.148  27.213  1.00  0.00     0.034 A 
BRANCH  50  64
ATOM     64  C   UNL A   1      46.646  28.381  28.958  1.00  0.00     0.023 A 
ATOM     65  C   UNL A   1      46.340  27.472  27.927  1.00  0.00     0.031 A 
ATOM     66  C   UNL A   1      47.237  27.880  30.132  1.00  0.00     0.131 A 
ATOM     67  C   UNL A   1      46.587  26.105  28.108  1.00  0.00     0.055 A 
ATOM     68  C   UNL A   1      47.517  26.522  30.291  1.00  0.00     0.041 A 
ATOM     69  F   UNL A   1      47.538  28.705  31.148  1.00  0.00    -0.206 F 
ATOM     70  C   UNL A   1      47.178  25.626  29.282  1.00  0.00     0.022 A 
BRANCH  67  71
ATOM     71  S   UNL A   1      46.077  24.884  26.866  1.00  0.00     0.124 S 
ATOM     72  O   UNL A   1      47.293  24.089  26.713  1.00  0.00    -0.237 OA
ATOM     73  O   UNL A   1      44.970  24.209  27.537  1.00  0.00    -0.237 OA
ATOM     74  O   UNL A   1      45.715  25.693  25.707  1.00  0.00    -0.744 OA
ENDBRANCH  67  71
ENDBRANCH  50  64
BRANCH  51  75
ATOM     75  C   UNL A   1      43.369  37.834  28.594  1.00  0.00     0.023 A 
ATOM     76  C   UNL A   1      43.537  38.705  29.687  1.00  0.00     0.031 A 
ATOM     77  C   UNL A   1      42.591  38.273  27.512  1.00  0.00     0.131 A 
ATOM     78  C   UNL A   1      42.875  39.939  29.702  1.00  0.00     0.055 A 
ATOM     79  C   UNL A   1      41.992  39.532  27.499  1.00  0.00     0.041 A 
ATOM     80  F   UNL A   1      42.388  37.469  26.455  1.00  0.00    -0.206 F 
ATOM     81  C   UNL A   1      42.115  40.364  28.608  1.00  0.00     0.022 A 
BRANCH  78  82
ATOM     82  S   UNL A   1      42.854  40.964  31.199  1.00  0.00     0.124 S 
ATOM     83  O   UNL A   1      41.550  41.612  31.106  1.00  0.00    -0.237 OA
ATOM     84  O   UNL A   1      42.987  39.958  32.250  1.00  0.00    -0.237 OA
ATOM     85  O   UNL A   1      44.009  41.840  31.031  1.00  0.00    -0.744 OA
ENDBRANCH  78  82
ENDBRANCH  51  75
BRANCH  63  86
ATOM     86  C   UNL A   1      49.306  34.611  26.579  1.00  0.00     0.023 A 
ATOM     87  C   UNL A   1      50.466  34.753  27.366  1.00  0.00     0.031 A 
ATOM     88  C   UNL A   1      49.343  35.074  25.252  1.00  0.00     0.131 A 
ATOM     89  C   UNL A   1      51.593  35.397  26.839  1.00  0.00     0.055 A 
ATOM     90  C   UNL A   1      50.487  35.668  24.715  1.00  0.00     0.041 A 
ATOM     91  F   UNL A   1      48.263  34.970  24.463  1.00  0.00    -0.206 F 
ATOM     92  C   UNL A   1      51.613  35.847  25.515  1.00  0.00     0.022 A 
BRANCH  89  93
ATOM     93  S   UNL A   1      53.037  35.758  27.876  1.00  0.00     0.124 S 
ATOM     94  O   UNL A   1      54.127  35.712  26.904  1.00  0.00    -0.237 OA
ATOM     95  O   UNL A   1      52.719  37.086  28.393  1.00  0.00    -0.237 OA
ATOM     96  O   UNL A   1      53.041  34.682  28.863  1.00  0.00    -0.744 OA
ENDBRANCH  89  93
ENDBRANCH  63  86
ENDBRANCH  37  38
ENDBRANCH  30  32
ENDBRANCH  29  30
ENDBRANCH  28  29
ENDBRANCH  27  28
ENDBRANCH  26  27
ENDBRANCH   1  26
TORSDOF 22
ENDMDL
MODEL 2
REMARK VINA RESULT:      -9.1      5.486     11.688
REMARK SMILES CCc1c(Cl)ccc2c1C=C(C(=O)OCCOCCOCCOC(=O)c1ccc(-c3c4nc(c(-c5cc(S(=O)(=O)[O-])ccc5F)c5ccc([nH]5)c(-c5cc(S(=O)(=O)[O-])ccc5F)c5nc(c(-c6cc(S(=O)(=O)[O-])ccc6F)c6ccc3[nH]6)C=C5)C=C4)cc1)[C@@H](C(F)(F)F)O2
REMARK SMILES IDX 19 1 18 2 17 3 16 4 15 5 14 6 12 7 13 8 11 9 3 10 4 11 9 12
REMARK SMILES IDX 5 13 6 14 8 15 10 16 7 17 94 18 89 19 2 20 1 21 90 22 91 23
REMARK SMILES IDX 92 24 93 25 20 26 21 27 22 28 23 29 24 30 25 31 26 32 27 33
REMARK SMILES IDX 88 34 28 35 87 36 29 37 30 38 31 39 81 40 32 41 86 42 80 43
REMARK SMILES IDX 82 44 33 45 85 46 79 47 78 48 34 50 66 51 46 52 65 53 47 54
REMARK SMILES IDX 50 55 64 56 83 57 48 58 49 59 63 61 84 62 51 63 35 64 36 65
REMARK SMILES IDX 44 66 37 67 43 68 45 69 42 70 38 71 39 72 40 73 41 74 67 75
REMARK SMILES IDX 68 76 76 77 69 78 75 79 77 80 74 81 70 82 71 83 72 84 73 85
REMARK SMILES IDX 52 86 53 87 61 88 54 89 60 90 62 91 59 92 55 93 56 94 57 95
REMARK SMILES IDX 58 96
REMARK H PARENT 82 49 50 60
REMARK Flexibility Score: inf
ROOT
ATOM      1  C   UNL A   1      43.655  40.788  29.689  1.00  0.00     0.188 C 
ENDROOT
BRANCH   1   2
ATOM      2  C   UNL A   1      43.283  40.862  28.193  1.00  0.00     0.188 C 
BRANCH   2   3
ATOM      3  O   UNL A   1      41.953  40.442  27.951  1.00  0.00    -0.376 OA
BRANCH   3   4
ATOM      4  C   UNL A   1      41.743  39.284  27.169  1.00  0.00     0.202 C 
BRANCH   4   5
ATOM      5  C   UNL A   1      42.172  37.914  27.715  1.00  0.00     0.261 C 
BRANCH   5   6
ATOM      6  O   UNL A   1      42.882  37.059  26.807  1.00  0.00    -0.460 OA
BRANCH   6   7
ATOM      7  C   UNL A   1      43.318  35.869  27.276  1.00  0.00     0.338 C 
ATOM      8  O   UNL A   1      42.673  35.066  27.927  1.00  0.00    -0.246 OA
BRANCH   7   9
ATOM      9  C   UNL A   1      44.697  35.652  26.778  1.00  0.00     0.087 C 
ATOM     10  C   UNL A   1      48.080  37.232  26.970  1.00  0.00    -0.019 A 
ATOM     11  C   UNL A   1      49.345  36.993  26.382  1.00  0.00     0.045 A 
ATOM     12  C   UNL A   1      47.007  36.364  26.630  1.00  0.00     0.022 A 
ATOM     13  Cl  UNL A   1      50.721  37.999  26.685  1.00  0.00    -0.084 Cl
ATOM     14  C   UNL A   1      49.555  35.911  25.526  1.00  0.00     0.024 A 
ATOM     15  C   UNL A   1      47.258  35.245  25.817  1.00  0.00     0.128 A 
ATOM     16  C   UNL A   1      45.620  36.582  27.060  1.00  0.00     0.027 C 
ATOM     17  C   UNL A   1      48.519  35.026  25.263  1.00  0.00     0.048 A 
ATOM     18  O   UNL A   1      46.335  34.295  25.491  1.00  0.00    -0.475 OA
ATOM     19  C   UNL A   1      44.998  34.376  26.039  1.00  0.00     0.316 C 
BRANCH  10  20
ATOM     20  C   UNL A   1      47.916  38.371  27.963  1.00  0.00     0.034 C 
ATOM     21  C   UNL A   1      48.264  37.994  29.395  1.00  0.00     0.009 C 
ENDBRANCH  10  20
BRANCH  19  22
ATOM     22  C   UNL A   1      44.022  34.103  24.883  1.00  0.00     0.430 C 
ATOM     23  F   UNL A   1      44.631  34.266  23.682  1.00  0.00    -0.167 F 
ATOM     24  F   UNL A   1      43.546  32.836  24.897  1.00  0.00    -0.167 F 
ATOM     25  F   UNL A   1      42.957  34.934  24.910  1.00  0.00    -0.167 F 
ENDBRANCH  19  22
ENDBRANCH   7   9
ENDBRANCH   6   7
ENDBRANCH   5   6
ENDBRANCH   4   5
ENDBRANCH   3   4
ENDBRANCH   2   3
ENDBRANCH   1   2
BRANCH   1  26
ATOM     26  O   UNL A   1      42.820  41.432  30.648  1.00  0.00    -0.376 OA
BRANCH  26  27
ATOM     27  C   UNL A   1      43.426  42.085  31.761  1.00  0.00     0.202 C 
BRANCH  27  28
ATOM     28  C   UNL A   1      43.062  41.617  33.176  1.00  0.00     0.261 C 
BRANCH  28  29
ATOM     29  O   UNL A   1      42.668  40.238  33.258  1.00  0.00    -0.460 OA
BRANCH  29  30
ATOM     30  C   UNL A   1      43.530  39.417  33.912  1.00  0.00     0.338 C 
ATOM     31  O   UNL A   1      44.084  39.629  34.976  1.00  0.00    -0.246 OA
BRANCH  30  32
ATOM     32  C   UNL A   1      43.538  38.102  33.236  1.00  0.00     0.060 A 
ATOM     33  C   UNL A   1      43.345  36.920  33.953  1.00  0.00     0.016 A 
ATOM     34  C   UNL A   1      43.761  38.064  31.853  1.00  0.00     0.016 A 
ATOM     35  C   UNL A   1      43.361  35.697  33.277  1.00  0.00     0.010 A 
ATOM     36  C   UNL A   1      43.801  36.840  31.183  1.00  0.00     0.010 A 
ATOM     37  C   UNL A   1      43.586  35.648  31.889  1.00  0.00    -0.014 A 
BRANCH  37  38
ATOM     38  C   UNL A   1      43.427  34.372  31.152  1.00  0.00     0.031 A 
ATOM     39  C   UNL A   1      44.576  33.707  30.458  1.00  0.00     0.074 A 
ATOM     40  C   UNL A   1      42.196  33.826  31.101  1.00  0.00     0.049 A 
ATOM     41  N   UNL A   1      44.602  32.548  29.852  1.00  0.00    -0.248 NA
ATOM     42  C   UNL A   1      45.854  34.431  30.433  1.00  0.00     0.031 C 
ATOM     43  C   UNL A   1      41.005  34.415  31.710  1.00  0.00     0.029 A 
ATOM     44  N   UNL A   1      41.742  32.670  30.518  1.00  0.00    -0.354 N 
ATOM     45  C   UNL A   1      45.904  32.382  29.400  1.00  0.00     0.074 A 
ATOM     46  C   UNL A   1      46.625  33.588  29.753  1.00  0.00     0.031 C 
ATOM     47  C   UNL A   1      39.955  33.615  31.477  1.00  0.00     0.029 A 
ATOM     48  C   UNL A   1      40.393  32.466  30.685  1.00  0.00     0.049 A 
ATOM     49  H   UNL A   1      42.325  32.048  30.026  1.00  0.00     0.167 HD
ATOM     50  C   UNL A   1      46.442  31.309  28.771  1.00  0.00     0.034 A 
ATOM     51  C   UNL A   1      39.593  31.468  30.257  1.00  0.00     0.034 A 
ATOM     52  C   UNL A   1      45.696  30.125  28.415  1.00  0.00     0.049 A 
ATOM     53  C   UNL A   1      40.209  30.305  29.522  1.00  0.00     0.074 A 
ATOM     54  C   UNL A   1      46.170  28.960  27.837  1.00  0.00     0.029 A 
ATOM     55  N   UNL A   1      44.329  29.955  28.584  1.00  0.00    -0.354 N 
ATOM     56  N   UNL A   1      41.470  30.099  29.220  1.00  0.00    -0.248 NA
ATOM     57  C   UNL A   1      39.307  29.230  29.087  1.00  0.00     0.031 C 
ATOM     58  C   UNL A   1      45.085  28.122  27.584  1.00  0.00     0.029 A 
ATOM     59  C   UNL A   1      43.938  28.723  28.079  1.00  0.00     0.049 A 
ATOM     60  H   UNL A   1      43.724  30.611  28.999  1.00  0.00     0.167 HD
ATOM     61  C   UNL A   1      41.516  28.862  28.585  1.00  0.00     0.074 A 
ATOM     62  C   UNL A   1      40.160  28.357  28.563  1.00  0.00     0.031 C 
ATOM     63  C   UNL A   1      42.588  28.211  28.068  1.00  0.00     0.034 A 
BRANCH  50  64
ATOM     64  C   UNL A   1      47.917  31.314  28.446  1.00  0.00     0.023 A 
ATOM     65  C   UNL A   1      48.868  31.093  29.461  1.00  0.00     0.031 A 
ATOM     66  C   UNL A   1      48.378  31.712  27.179  1.00  0.00     0.131 A 
ATOM     67  C   UNL A   1      50.227  31.316  29.202  1.00  0.00     0.055 A 
ATOM     68  C   UNL A   1      49.737  31.894  26.915  1.00  0.00     0.041 A 
ATOM     69  F   UNL A   1      47.510  31.945  26.180  1.00  0.00    -0.206 F 
ATOM     70  C   UNL A   1      50.667  31.711  27.934  1.00  0.00     0.022 A 
BRANCH  67  71
ATOM     71  S   UNL A   1      51.469  31.185  30.518  1.00  0.00     0.124 S 
ATOM     72  O   UNL A   1      52.129  32.486  30.437  1.00  0.00    -0.237 OA
ATOM     73  O   UNL A   1      50.640  30.980  31.702  1.00  0.00    -0.237 OA
ATOM     74  O   UNL A   1      52.288  30.047  30.115  1.00  0.00    -0.744 OA
ENDBRANCH  67  71
ENDBRANCH  50  64
BRANCH  51  75
ATOM     75  C   UNL A   1      38.142  31.514  30.597  1.00  0.00     0.023 A 
ATOM     76  C   UNL A   1      37.223  32.158  29.748  1.00  0.00     0.031 A 
ATOM     77  C   UNL A   1      37.678  31.037  31.833  1.00  0.00     0.131 A 
ATOM     78  C   UNL A   1      35.908  32.372  30.179  1.00  0.00     0.055 A 
ATOM     79  C   UNL A   1      36.348  31.187  32.228  1.00  0.00     0.041 A 
ATOM     80  F   UNL A   1      38.522  30.431  32.684  1.00  0.00    -0.206 F 
ATOM     81  C   UNL A   1      35.461  31.877  31.407  1.00  0.00     0.022 A 
BRANCH  78  82
ATOM     82  S   UNL A   1      34.778  33.427  29.228  1.00  0.00     0.124 S 
ATOM     83  O   UNL A   1      34.215  32.482  28.269  1.00  0.00    -0.237 OA
ATOM     84  O   UNL A   1      33.863  33.895  30.266  1.00  0.00    -0.237 OA
ATOM     85  O   UNL A   1      35.653  34.450  28.667  1.00  0.00    -0.744 OA
ENDBRANCH  78  82
ENDBRANCH  51  75
BRANCH  63  86
ATOM     86  C   UNL A   1      42.379  26.861  27.420  1.00  0.00     0.023 A 
ATOM     87  C   UNL A   1      42.699  25.684  28.124  1.00  0.00     0.031 A 
ATOM     88  C   UNL A   1      42.037  26.749  26.061  1.00  0.00     0.131 A 
ATOM     89  C   UNL A   1      42.727  24.455  27.453  1.00  0.00     0.055 A 
ATOM     90  C   UNL A   1      42.016  25.515  25.410  1.00  0.00     0.041 A 
ATOM     91  F   UNL A   1      41.732  27.841  25.342  1.00  0.00    -0.206 F 
ATOM     92  C   UNL A   1      42.380  24.363  26.102  1.00  0.00     0.022 A 
BRANCH  89  93
ATOM     93  S   UNL A   1      43.307  22.948  28.282  1.00  0.00     0.124 S 
ATOM     94  O   UNL A   1      44.589  23.381  28.835  1.00  0.00    -0.237 OA
ATOM     95  O   UNL A   1      42.252  22.712  29.264  1.00  0.00    -0.237 OA
ATOM     96  O   UNL A   1      43.397  21.966  27.206  1.00  0.00    -0.744 OA
ENDBRANCH  89  93
ENDBRANCH  63  86
ENDBRANCH  37  38
ENDBRANCH  30  32
ENDBRANCH  29  30
ENDBRANCH  28  29
ENDBRANCH  27  28
ENDBRANCH  26  27
ENDBRANCH   1  26
TORSDOF 22
ENDMDL
MODEL 3
REMARK VINA RESULT:      -8.9      9.974     16.869
REMARK SMILES CCc1c(Cl)ccc2c1C=C(C(=O)OCCOCCOCCOC(=O)c1ccc(-c3c4nc(c(-c5cc(S(=O)(=O)[O-])ccc5F)c5ccc([nH]5)c(-c5cc(S(=O)(=O)[O-])ccc5F)c5nc(c(-c6cc(S(=O)(=O)[O-])ccc6F)c6ccc3[nH]6)C=C5)C=C4)cc1)[C@@H](C(F)(F)F)O2
REMARK SMILES IDX 19 1 18 2 17 3 16 4 15 5 14 6 12 7 13 8 11 9 3 10 4 11 9 12
REMARK SMILES IDX 5 13 6 14 8 15 10 16 7 17 94 18 89 19 2 20 1 21 90 22 91 23
REMARK SMILES IDX 92 24 93 25 20 26 21 27 22 28 23 29 24 30 25 31 26 32 27 33
REMARK SMILES IDX 88 34 28 35 87 36 29 37 30 38 31 39 81 40 32 41 86 42 80 43
REMARK SMILES IDX 82 44 33 45 85 46 79 47 78 48 34 50 66 51 46 52 65 53 47 54
REMARK SMILES IDX 50 55 64 56 83 57 48 58 49 59 63 61 84 62 51 63 35 64 36 65
REMARK SMILES IDX 44 66 37 67 43 68 45 69 42 70 38 71 39 72 40 73 41 74 67 75
REMARK SMILES IDX 68 76 76 77 69 78 75 79 77 80 74 81 70 82 71 83 72 84 73 85
REMARK SMILES IDX 52 86 53 87 61 88 54 89 60 90 62 91 59 92 55 93 56 94 57 95
REMARK SMILES IDX 58 96
REMARK H PARENT 82 49 50 60
REMARK Flexibility Score: inf
ROOT
ATOM      1  C   UNL A   1      47.793  22.268  39.294  1.00  0.00     0.188 C 
ENDROOT
BRANCH   1   2
ATOM      2  C   UNL A   1      46.348  21.756  39.112  1.00  0.00     0.188 C 
BRANCH   2   3
ATOM      3  O   UNL A   1      45.885  21.047  40.247  1.00  0.00    -0.376 OA
BRANCH   3   4
ATOM      4  C   UNL A   1      46.511  19.824  40.579  1.00  0.00     0.202 C 
BRANCH   4   5
ATOM      5  C   UNL A   1      45.966  18.512  39.995  1.00  0.00     0.261 C 
BRANCH   5   6
ATOM      6  O   UNL A   1      45.588  17.502  40.941  1.00  0.00    -0.460 OA
BRANCH   6   7
ATOM      7  C   UNL A   1      44.442  17.687  41.634  1.00  0.00     0.338 C 
ATOM      8  O   UNL A   1      43.759  18.697  41.648  1.00  0.00    -0.246 OA
BRANCH   7   9
ATOM      9  C   UNL A   1      44.095  16.412  42.305  1.00  0.00     0.087 C 
ATOM     10  C   UNL A   1      45.149  14.356  45.245  1.00  0.00    -0.019 A 
ATOM     11  C   UNL A   1      44.806  13.087  45.769  1.00  0.00     0.045 A 
ATOM     12  C   UNL A   1      44.487  14.797  44.066  1.00  0.00     0.022 A 
ATOM     13  Cl  UNL A   1      45.565  12.422  47.176  1.00  0.00    -0.084 Cl
ATOM     14  C   UNL A   1      43.815  12.301  45.178  1.00  0.00     0.024 A 
ATOM     15  C   UNL A   1      43.449  14.017  43.527  1.00  0.00     0.128 A 
ATOM     16  C   UNL A   1      44.845  16.025  43.346  1.00  0.00     0.027 C 
ATOM     17  C   UNL A   1      43.123  12.776  44.074  1.00  0.00     0.048 A 
ATOM     18  O   UNL A   1      42.683  14.371  42.455  1.00  0.00    -0.475 OA
ATOM     19  C   UNL A   1      42.886  15.657  41.822  1.00  0.00     0.316 C 
BRANCH  10  20
ATOM     20  C   UNL A   1      46.173  15.217  45.967  1.00  0.00     0.034 C 
ATOM     21  C   UNL A   1      45.644  15.870  47.234  1.00  0.00     0.009 C 
ENDBRANCH  10  20
BRANCH  19  22
ATOM     22  C   UNL A   1      42.892  15.413  40.304  1.00  0.00     0.430 C 
ATOM     23  F   UNL A   1      42.318  14.223  39.998  1.00  0.00    -0.167 F 
ATOM     24  F   UNL A   1      42.196  16.355  39.626  1.00  0.00    -0.167 F 
ATOM     25  F   UNL A   1      44.146  15.396  39.797  1.00  0.00    -0.167 F 
ENDBRANCH  19  22
ENDBRANCH   7   9
ENDBRANCH   6   7
ENDBRANCH   5   6
ENDBRANCH   4   5
ENDBRANCH   3   4
ENDBRANCH   2   3
ENDBRANCH   1   2
BRANCH   1  26
ATOM     26  O   UNL A   1      48.031  23.672  39.362  1.00  0.00    -0.376 OA
BRANCH  26  27
ATOM     27  C   UNL A   1      48.702  24.309  38.279  1.00  0.00     0.202 C 
BRANCH  27  28
ATOM     28  C   UNL A   1      47.985  25.445  37.535  1.00  0.00     0.261 C 
BRANCH  28  29
ATOM     29  O   UNL A   1      47.879  25.244  36.117  1.00  0.00    -0.460 OA
BRANCH  29  30
ATOM     30  C   UNL A   1      48.157  26.327  35.346  1.00  0.00     0.338 C 
ATOM     31  O   UNL A   1      49.255  26.700  34.972  1.00  0.00    -0.246 OA
BRANCH  30  32
ATOM     32  C   UNL A   1      46.888  26.885  34.834  1.00  0.00     0.060 A 
ATOM     33  C   UNL A   1      46.836  28.157  34.261  1.00  0.00     0.016 A 
ATOM     34  C   UNL A   1      45.725  26.111  34.950  1.00  0.00     0.016 A 
ATOM     35  C   UNL A   1      45.615  28.649  33.790  1.00  0.00     0.010 A 
ATOM     36  C   UNL A   1      44.502  26.614  34.500  1.00  0.00     0.010 A 
ATOM     37  C   UNL A   1      44.442  27.881  33.904  1.00  0.00    -0.014 A 
BRANCH  37  38
ATOM     38  C   UNL A   1      43.191  28.329  33.246  1.00  0.00     0.031 A 
ATOM     39  C   UNL A   1      42.162  29.141  33.970  1.00  0.00     0.074 A 
ATOM     40  C   UNL A   1      42.989  27.963  31.966  1.00  0.00     0.049 A 
ATOM     41  N   UNL A   1      41.065  29.676  33.497  1.00  0.00    -0.248 NA
ATOM     42  C   UNL A   1      42.381  29.380  35.402  1.00  0.00     0.031 C 
ATOM     43  C   UNL A   1      43.912  27.140  31.186  1.00  0.00     0.029 A 
ATOM     44  N   UNL A   1      41.957  28.226  31.101  1.00  0.00    -0.354 N 
ATOM     45  C   UNL A   1      40.476  30.345  34.562  1.00  0.00     0.074 A 
ATOM     46  C   UNL A   1      41.310  30.100  35.720  1.00  0.00     0.031 C 
ATOM     47  C   UNL A   1      43.411  26.971  29.954  1.00  0.00     0.029 A 
ATOM     48  C   UNL A   1      42.122  27.654  29.862  1.00  0.00     0.049 A 
ATOM     49  H   UNL A   1      41.173  28.770  31.345  1.00  0.00     0.167 HD
ATOM     50  C   UNL A   1      39.357  31.108  34.555  1.00  0.00     0.034 A 
ATOM     51  C   UNL A   1      41.332  27.679  28.769  1.00  0.00     0.034 A 
ATOM     52  C   UNL A   1      38.534  31.322  33.387  1.00  0.00     0.049 A 
ATOM     53  C   UNL A   1      40.070  28.502  28.799  1.00  0.00     0.074 A 
ATOM     54  C   UNL A   1      37.419  32.134  33.267  1.00  0.00     0.029 A 
ATOM     55  N   UNL A   1      38.718  30.718  32.151  1.00  0.00    -0.354 N 
ATOM     56  N   UNL A   1      39.595  29.241  29.775  1.00  0.00    -0.248 NA
ATOM     57  C   UNL A   1      39.245  28.515  27.584  1.00  0.00     0.031 C 
ATOM     58  C   UNL A   1      36.885  31.961  31.991  1.00  0.00     0.029 A 
ATOM     59  C   UNL A   1      37.711  31.106  31.279  1.00  0.00     0.049 A 
ATOM     60  H   UNL A   1      39.454  30.105  31.926  1.00  0.00     0.167 HD
ATOM     61  C   UNL A   1      38.433  29.827  29.283  1.00  0.00     0.074 A 
ATOM     62  C   UNL A   1      38.287  29.373  27.916  1.00  0.00     0.031 C 
ATOM     63  C   UNL A   1      37.570  30.664  29.911  1.00  0.00     0.034 A 
BRANCH  50  64
ATOM     64  C   UNL A   1      38.946  31.818  35.823  1.00  0.00     0.023 A 
ATOM     65  C   UNL A   1      38.222  31.132  36.818  1.00  0.00     0.031 A 
ATOM     66  C   UNL A   1      39.115  33.207  35.962  1.00  0.00     0.131 A 
ATOM     67  C   UNL A   1      37.655  31.845  37.882  1.00  0.00     0.055 A 
ATOM     68  C   UNL A   1      38.582  33.907  37.046  1.00  0.00     0.041 A 
ATOM     69  F   UNL A   1      39.789  33.908  35.036  1.00  0.00    -0.206 F 
ATOM     70  C   UNL A   1      37.835  33.227  38.005  1.00  0.00     0.022 A 
BRANCH  67  71
ATOM     71  S   UNL A   1      36.595  31.026  39.105  1.00  0.00     0.124 S 
ATOM     72  O   UNL A   1      37.483  30.943  40.263  1.00  0.00    -0.237 OA
ATOM     73  O   UNL A   1      35.489  31.969  39.233  1.00  0.00    -0.237 OA
ATOM     74  O   UNL A   1      36.267  29.747  38.483  1.00  0.00    -0.744 OA
ENDBRANCH  67  71
ENDBRANCH  50  64
BRANCH  51  75
ATOM     75  C   UNL A   1      41.779  26.955  27.544  1.00  0.00     0.023 A 
ATOM     76  C   UNL A   1      41.816  25.548  27.512  1.00  0.00     0.031 A 
ATOM     77  C   UNL A   1      42.299  27.656  26.444  1.00  0.00     0.131 A 
ATOM     78  C   UNL A   1      42.429  24.893  26.437  1.00  0.00     0.055 A 
ATOM     79  C   UNL A   1      42.843  26.996  25.342  1.00  0.00     0.041 A 
ATOM     80  F   UNL A   1      42.300  28.998  26.438  1.00  0.00    -0.206 F 
ATOM     81  C   UNL A   1      42.929  25.607  25.344  1.00  0.00     0.022 A 
BRANCH  78  82
ATOM     82  S   UNL A   1      42.732  23.104  26.490  1.00  0.00     0.124 S 
ATOM     83  O   UNL A   1      41.557  22.576  25.805  1.00  0.00    -0.237 OA
ATOM     84  O   UNL A   1      43.993  22.993  25.760  1.00  0.00    -0.237 OA
ATOM     85  O   UNL A   1      42.816  22.812  27.917  1.00  0.00    -0.744 OA
ENDBRANCH  78  82
ENDBRANCH  51  75
BRANCH  63  86
ATOM     86  C   UNL A   1      36.365  31.173  29.154  1.00  0.00     0.023 A 
ATOM     87  C   UNL A   1      35.418  30.264  28.644  1.00  0.00     0.031 A 
ATOM     88  C   UNL A   1      36.248  32.526  28.791  1.00  0.00     0.131 A 
ATOM     89  C   UNL A   1      34.433  30.708  27.752  1.00  0.00     0.055 A 
ATOM     90  C   UNL A   1      35.233  32.972  27.943  1.00  0.00     0.041 A 
ATOM     91  F   UNL A   1      37.129  33.432  29.244  1.00  0.00    -0.206 F 
ATOM     92  C   UNL A   1      34.330  32.058  27.406  1.00  0.00     0.022 A 
BRANCH  89  93
ATOM     93  S   UNL A   1      33.311  29.538  26.936  1.00  0.00     0.124 S 
ATOM     94  O   UNL A   1      34.182  28.937  25.928  1.00  0.00    -0.237 OA
ATOM     95  O   UNL A   1      32.932  28.657  28.038  1.00  0.00    -0.237 OA
ATOM     96  O   UNL A   1      32.244  30.382  26.408  1.00  0.00    -0.744 OA
ENDBRANCH  89  93
ENDBRANCH  63  86
ENDBRANCH  37  38
ENDBRANCH  30  32
ENDBRANCH  29  30
ENDBRANCH  28  29
ENDBRANCH  27  28
ENDBRANCH  26  27
ENDBRANCH   1  26
TORSDOF 22
ENDMDL
