MODEL 1
REMARK VINA RESULT:      -9.2      0.000      0.000
REMARK SMILES O=C(C[NH+]1CC[NH+](Cc2cc(Cl)ccc2[N+](=O)[O-])CC1)OCCOCCOCCOC(=O)c1ccc(-c2c3nc(c(-c4cc(S(=O)(=O)[O-])ccc4F)c4ccc([nH]4)c(-c4cc(S(=O)(=O)[O-])ccc4F)c4nc(c(-c5cc(S(=O)(=O)[O-])ccc5F)c5ccc2[nH]5)C=C4)C=C3)cc1
REMARK SMILES IDX 25 1 24 2 23 3 22 4 21 5 2 6 1 7 3 8 4 9 5 10 20 11 6 13
REMARK SMILES IDX 19 14 7 15 8 17 9 18 10 19 15 20 11 21 14 22 12 23 13 24
REMARK SMILES IDX 16 25 17 26 18 27 26 28 27 29 28 30 29 31 30 32 31 33 32 34
REMARK SMILES IDX 33 35 34 36 95 37 35 38 94 39 36 40 37 41 38 42 88 43 39 44
REMARK SMILES IDX 93 45 87 46 89 47 40 48 92 49 86 50 85 51 41 53 73 54 53 55
REMARK SMILES IDX 72 56 54 57 57 58 71 59 90 60 55 61 56 62 70 64 91 65 58 66
REMARK SMILES IDX 42 67 43 68 51 69 44 70 50 71 52 72 49 73 45 74 46 75 47 76
REMARK SMILES IDX 48 77 74 78 75 79 83 80 76 81 82 82 84 83 81 84 77 85 78 86
REMARK SMILES IDX 79 87 80 88 59 89 60 90 68 91 61 92 67 93 69 94 66 95 62 96
REMARK SMILES IDX 63 97 64 98 65 99
REMARK H PARENT 4 12 7 16 89 52 57 63
REMARK Flexibility Score: inf
ROOT
ATOM      1  C   UNL A   1      40.618  20.464  26.942  1.00  0.00     0.188 C 
ENDROOT
BRANCH   1   2
ATOM      2  O   UNL A   1      40.610  21.693  26.246  1.00  0.00    -0.376 OA
BRANCH   2   3
ATOM      3  C   UNL A   1      39.637  22.658  26.602  1.00  0.00     0.202 C 
BRANCH   3   4
ATOM      4  C   UNL A   1      38.244  22.684  25.957  1.00  0.00     0.261 C 
BRANCH   4   5
ATOM      5  O   UNL A   1      37.411  21.529  25.563  1.00  0.00    -0.459 OA
BRANCH   5   6
ATOM      6  C   UNL A   1      36.379  20.736  25.315  1.00  0.00     0.361 C 
ATOM      7  O   UNL A   1      36.645  19.607  24.886  1.00  0.00    -0.245 OA
BRANCH   6   8
ATOM      8  C   UNL A   1      34.914  21.117  25.473  1.00  0.00     0.386 C 
BRANCH   8   9
ATOM      9  N   UNL A   1      34.083  21.425  24.288  1.00  0.00    -0.316 N 
ATOM     10  C   UNL A   1      32.635  21.415  24.486  1.00  0.00     0.325 C 
ATOM     11  C   UNL A   1      34.484  22.672  23.635  1.00  0.00     0.325 C 
ATOM     12  H   UNL A   1      34.277  20.632  23.678  1.00  0.00     0.348 HD
ATOM     13  C   UNL A   1      32.021  22.674  25.149  1.00  0.00     0.324 C 
ATOM     14  C   UNL A   1      34.135  23.857  24.522  1.00  0.00     0.324 C 
ATOM     15  N   UNL A   1      32.752  23.933  25.000  1.00  0.00    -0.322 N 
ATOM     16  H   UNL A   1      32.931  24.132  25.984  1.00  0.00     0.348 HD
BRANCH  15  17
ATOM     17  C   UNL A   1      31.986  25.132  24.678  1.00  0.00     0.306 C 
BRANCH  17  18
ATOM     18  C   UNL A   1      32.892  26.343  24.606  1.00  0.00     0.085 A 
ATOM     19  C   UNL A   1      33.325  26.880  25.833  1.00  0.00     0.037 A 
ATOM     20  C   UNL A   1      33.042  27.125  23.441  1.00  0.00     0.278 A 
ATOM     21  C   UNL A   1      33.735  28.207  25.917  1.00  0.00     0.042 A 
ATOM     22  C   UNL A   1      33.449  28.462  23.530  1.00  0.00     0.088 A 
ATOM     23  Cl  UNL A   1      34.102  28.877  27.455  1.00  0.00    -0.084 Cl
ATOM     24  C   UNL A   1      33.764  29.008  24.778  1.00  0.00     0.027 A 
BRANCH  20  25
ATOM     25  N   UNL A   1      32.696  26.603  22.115  1.00  0.00     0.063 N 
ATOM     26  O   UNL A   1      31.567  26.857  21.676  1.00  0.00    -0.258 OA
ATOM     27  O   UNL A   1      33.575  25.983  21.499  1.00  0.00    -0.258 OA
ENDBRANCH  20  25
ENDBRANCH  17  18
ENDBRANCH  15  17
ENDBRANCH   8   9
ENDBRANCH   6   8
ENDBRANCH   5   6
ENDBRANCH   4   5
ENDBRANCH   3   4
ENDBRANCH   2   3
ENDBRANCH   1   2
BRANCH   1  28
ATOM     28  C   UNL A   1      41.932  20.054  27.600  1.00  0.00     0.188 C 
BRANCH  28  29
ATOM     29  O   UNL A   1      42.499  18.903  26.999  1.00  0.00    -0.376 OA
BRANCH  29  30
ATOM     30  C   UNL A   1      42.841  19.016  25.623  1.00  0.00     0.202 C 
BRANCH  30  31
ATOM     31  C   UNL A   1      44.262  19.477  25.244  1.00  0.00     0.261 C 
BRANCH  31  32
ATOM     32  O   UNL A   1      44.649  20.829  25.558  1.00  0.00    -0.460 OA
BRANCH  32  33
ATOM     33  C   UNL A   1      44.472  21.796  24.636  1.00  0.00     0.338 C 
ATOM     34  O   UNL A   1      44.492  21.656  23.419  1.00  0.00    -0.246 OA
BRANCH  33  35
ATOM     35  C   UNL A   1      44.057  23.033  25.339  1.00  0.00     0.060 A 
ATOM     36  C   UNL A   1      43.800  24.194  24.596  1.00  0.00     0.016 A 
ATOM     37  C   UNL A   1      43.920  23.049  26.730  1.00  0.00     0.016 A 
ATOM     38  C   UNL A   1      43.462  25.386  25.246  1.00  0.00     0.010 A 
ATOM     39  C   UNL A   1      43.604  24.249  27.381  1.00  0.00     0.010 A 
ATOM     40  C   UNL A   1      43.417  25.434  26.645  1.00  0.00    -0.014 A 
BRANCH  40  41
ATOM     41  C   UNL A   1      43.453  26.751  27.343  1.00  0.00     0.031 A 
ATOM     42  C   UNL A   1      44.806  27.367  27.600  1.00  0.00     0.074 A 
ATOM     43  C   UNL A   1      42.338  27.402  27.720  1.00  0.00     0.049 A 
ATOM     44  N   UNL A   1      45.118  28.465  28.238  1.00  0.00    -0.248 NA
ATOM     45  C   UNL A   1      45.963  26.632  27.064  1.00  0.00     0.031 C 
ATOM     46  C   UNL A   1      40.970  26.949  27.480  1.00  0.00     0.029 A 
ATOM     47  N   UNL A   1      42.184  28.590  28.395  1.00  0.00    -0.354 N 
ATOM     48  C   UNL A   1      46.507  28.551  28.184  1.00  0.00     0.074 A 
ATOM     49  C   UNL A   1      46.974  27.373  27.487  1.00  0.00     0.031 C 
ATOM     50  C   UNL A   1      40.115  27.842  28.013  1.00  0.00     0.029 A 
ATOM     51  C   UNL A   1      40.873  28.911  28.666  1.00  0.00     0.049 A 
ATOM     52  H   UNL A   1      42.942  29.159  28.660  1.00  0.00     0.167 HD
ATOM     53  C   UNL A   1      47.319  29.525  28.663  1.00  0.00     0.034 A 
ATOM     54  C   UNL A   1      40.350  29.930  29.380  1.00  0.00     0.034 A 
ATOM     55  C   UNL A   1      46.845  30.687  29.372  1.00  0.00     0.049 A 
ATOM     56  C   UNL A   1      41.281  30.952  29.999  1.00  0.00     0.074 A 
ATOM     57  C   UNL A   1      47.581  31.736  29.895  1.00  0.00     0.029 A 
ATOM     58  N   UNL A   1      45.515  30.947  29.674  1.00  0.00    -0.354 N 
ATOM     59  N   UNL A   1      42.592  31.023  29.939  1.00  0.00    -0.248 NA
ATOM     60  C   UNL A   1      40.660  32.033  30.780  1.00  0.00     0.031 C 
ATOM     61  C   UNL A   1      46.706  32.586  30.579  1.00  0.00     0.029 A 
ATOM     62  C   UNL A   1      45.413  32.119  30.408  1.00  0.00     0.049 A 
ATOM     63  H   UNL A   1      44.754  30.381  29.406  1.00  0.00     0.167 HD
ATOM     64  C   UNL A   1      42.943  32.177  30.641  1.00  0.00     0.074 A 
ATOM     65  C   UNL A   1      41.709  32.772  31.105  1.00  0.00     0.031 C 
ATOM     66  C   UNL A   1      44.176  32.700  30.873  1.00  0.00     0.034 A 
BRANCH  53  67
ATOM     67  C   UNL A   1      48.806  29.333  28.484  1.00  0.00     0.023 A 
ATOM     68  C   UNL A   1      49.479  29.778  27.333  1.00  0.00     0.031 A 
ATOM     69  C   UNL A   1      49.556  28.660  29.464  1.00  0.00     0.131 A 
ATOM     70  C   UNL A   1      50.838  29.480  27.156  1.00  0.00     0.055 A 
ATOM     71  C   UNL A   1      50.927  28.440  29.322  1.00  0.00     0.041 A 
ATOM     72  F   UNL A   1      48.964  28.188  30.573  1.00  0.00    -0.206 F 
ATOM     73  C   UNL A   1      51.573  28.836  28.155  1.00  0.00     0.022 A 
BRANCH  70  74
ATOM     74  S   UNL A   1      51.596  29.807  25.541  1.00  0.00     0.124 S 
ATOM     75  O   UNL A   1      51.325  31.233  25.373  1.00  0.00    -0.237 OA
ATOM     76  O   UNL A   1      52.990  29.445  25.768  1.00  0.00    -0.237 OA
ATOM     77  O   UNL A   1      50.862  28.930  24.633  1.00  0.00    -0.744 OA
ENDBRANCH  70  74
ENDBRANCH  53  67
BRANCH  54  78
ATOM     78  C   UNL A   1      38.876  30.025  29.608  1.00  0.00     0.023 A 
ATOM     79  C   UNL A   1      38.104  31.022  28.989  1.00  0.00     0.031 A 
ATOM     80  C   UNL A   1      38.231  29.162  30.512  1.00  0.00     0.131 A 
ATOM     81  C   UNL A   1      36.745  31.162  29.318  1.00  0.00     0.055 A 
ATOM     82  C   UNL A   1      36.867  29.267  30.792  1.00  0.00     0.041 A 
ATOM     83  F   UNL A   1      38.921  28.197  31.141  1.00  0.00    -0.206 F 
ATOM     84  C   UNL A   1      36.119  30.282  30.203  1.00  0.00     0.022 A 
BRANCH  81  85
ATOM     85  S   UNL A   1      35.825  32.573  28.645  1.00  0.00     0.124 S 
ATOM     86  O   UNL A   1      35.264  32.005  27.423  1.00  0.00    -0.237 OA
ATOM     87  O   UNL A   1      34.875  32.855  29.715  1.00  0.00    -0.237 OA
ATOM     88  O   UNL A   1      36.857  33.589  28.445  1.00  0.00    -0.744 OA
ENDBRANCH  81  85
ENDBRANCH  54  78
BRANCH  66  89
ATOM     89  C   UNL A   1      44.245  34.014  31.619  1.00  0.00     0.023 A 
ATOM     90  C   UNL A   1      44.157  35.252  30.958  1.00  0.00     0.031 A 
ATOM     91  C   UNL A   1      44.396  34.023  33.018  1.00  0.00     0.131 A 
ATOM     92  C   UNL A   1      44.274  36.445  31.689  1.00  0.00     0.055 A 
ATOM     93  C   UNL A   1      44.448  35.212  33.746  1.00  0.00     0.041 A 
ATOM     94  F   UNL A   1      44.486  32.872  33.703  1.00  0.00    -0.206 F 
ATOM     95  C   UNL A   1      44.401  36.433  33.080  1.00  0.00     0.022 A 
BRANCH  92  96
ATOM     96  S   UNL A   1      44.352  38.018  30.787  1.00  0.00     0.124 S 
ATOM     97  O   UNL A   1      45.750  38.062  30.372  1.00  0.00    -0.237 OA
ATOM     98  O   UNL A   1      43.377  37.815  29.721  1.00  0.00    -0.237 OA
ATOM     99  O   UNL A   1      43.972  39.009  31.792  1.00  0.00    -0.744 OA
ENDBRANCH  92  96
ENDBRANCH  66  89
ENDBRANCH  40  41
ENDBRANCH  33  35
ENDBRANCH  32  33
ENDBRANCH  31  32
ENDBRANCH  30  31
ENDBRANCH  29  30
ENDBRANCH  28  29
ENDBRANCH   1  28
TORSDOF 24
ENDMDL
MODEL 2
REMARK VINA RESULT:      -9.2      3.232      8.360
REMARK SMILES O=C(C[NH+]1CC[NH+](Cc2cc(Cl)ccc2[N+](=O)[O-])CC1)OCCOCCOCCOC(=O)c1ccc(-c2c3nc(c(-c4cc(S(=O)(=O)[O-])ccc4F)c4ccc([nH]4)c(-c4cc(S(=O)(=O)[O-])ccc4F)c4nc(c(-c5cc(S(=O)(=O)[O-])ccc5F)c5ccc2[nH]5)C=C4)C=C3)cc1
REMARK SMILES IDX 25 1 24 2 23 3 22 4 21 5 2 6 1 7 3 8 4 9 5 10 20 11 6 13
REMARK SMILES IDX 19 14 7 15 8 17 9 18 10 19 15 20 11 21 14 22 12 23 13 24
REMARK SMILES IDX 16 25 17 26 18 27 26 28 27 29 28 30 29 31 30 32 31 33 32 34
REMARK SMILES IDX 33 35 34 36 95 37 35 38 94 39 36 40 37 41 38 42 88 43 39 44
REMARK SMILES IDX 93 45 87 46 89 47 40 48 92 49 86 50 85 51 41 53 73 54 53 55
REMARK SMILES IDX 72 56 54 57 57 58 71 59 90 60 55 61 56 62 70 64 91 65 58 66
REMARK SMILES IDX 42 67 43 68 51 69 44 70 50 71 52 72 49 73 45 74 46 75 47 76
REMARK SMILES IDX 48 77 74 78 75 79 83 80 76 81 82 82 84 83 81 84 77 85 78 86
REMARK SMILES IDX 79 87 80 88 59 89 60 90 68 91 61 92 67 93 69 94 66 95 62 96
REMARK SMILES IDX 63 97 64 98 65 99
REMARK H PARENT 4 12 7 16 89 52 57 63
REMARK Flexibility Score: inf
ROOT
ATOM      1  C   UNL A   1      40.595  22.432  27.539  1.00  0.00     0.188 C 
ENDROOT
BRANCH   1   2
ATOM      2  O   UNL A   1      40.284  23.359  26.518  1.00  0.00    -0.376 OA
BRANCH   2   3
ATOM      3  C   UNL A   1      39.168  24.210  26.705  1.00  0.00     0.202 C 
BRANCH   3   4
ATOM      4  C   UNL A   1      37.772  23.850  26.176  1.00  0.00     0.261 C 
BRANCH   4   5
ATOM      5  O   UNL A   1      37.281  22.519  25.763  1.00  0.00    -0.459 OA
BRANCH   5   6
ATOM      6  C   UNL A   1      36.497  21.489  25.479  1.00  0.00     0.361 C 
ATOM      7  O   UNL A   1      37.066  20.441  25.148  1.00  0.00    -0.245 OA
BRANCH   6   8
ATOM      8  C   UNL A   1      34.975  21.508  25.484  1.00  0.00     0.386 C 
BRANCH   8   9
ATOM      9  N   UNL A   1      34.214  21.256  24.241  1.00  0.00    -0.316 N 
ATOM     10  C   UNL A   1      32.890  20.658  24.397  1.00  0.00     0.325 C 
ATOM     11  C   UNL A   1      34.123  22.445  23.393  1.00  0.00     0.325 C 
ATOM     12  H   UNL A   1      34.780  20.542  23.784  1.00  0.00     0.348 HD
ATOM     13  C   UNL A   1      31.745  21.616  24.813  1.00  0.00     0.324 C 
ATOM     14  C   UNL A   1      33.227  23.483  24.049  1.00  0.00     0.324 C 
ATOM     15  N   UNL A   1      31.897  23.030  24.468  1.00  0.00    -0.322 N 
ATOM     16  H   UNL A   1      31.879  23.428  25.407  1.00  0.00     0.348 HD
BRANCH  15  17
ATOM     17  C   UNL A   1      30.738  23.728  23.921  1.00  0.00     0.306 C 
BRANCH  17  18
ATOM     18  C   UNL A   1      30.620  25.116  24.512  1.00  0.00     0.085 A 
ATOM     19  C   UNL A   1      30.692  26.194  23.609  1.00  0.00     0.037 A 
ATOM     20  C   UNL A   1      30.775  25.383  25.889  1.00  0.00     0.278 A 
ATOM     21  C   UNL A   1      31.071  27.458  24.050  1.00  0.00     0.042 A 
ATOM     22  C   UNL A   1      31.161  26.656  26.328  1.00  0.00     0.088 A 
ATOM     23  Cl  UNL A   1      31.306  28.711  22.900  1.00  0.00    -0.084 Cl
ATOM     24  C   UNL A   1      31.339  27.683  25.398  1.00  0.00     0.027 A 
BRANCH  20  25
ATOM     25  N   UNL A   1      30.625  24.328  26.898  1.00  0.00     0.063 N 
ATOM     26  O   UNL A   1      31.657  23.881  27.415  1.00  0.00    -0.258 OA
ATOM     27  O   UNL A   1      29.473  23.990  27.202  1.00  0.00    -0.258 OA
ENDBRANCH  20  25
ENDBRANCH  17  18
ENDBRANCH  15  17
ENDBRANCH   8   9
ENDBRANCH   6   8
ENDBRANCH   5   6
ENDBRANCH   4   5
ENDBRANCH   3   4
ENDBRANCH   2   3
ENDBRANCH   1   2
BRANCH   1  28
ATOM     28  C   UNL A   1      42.047  21.975  27.632  1.00  0.00     0.188 C 
BRANCH  28  29
ATOM     29  O   UNL A   1      42.168  20.563  27.648  1.00  0.00    -0.376 OA
BRANCH  29  30
ATOM     30  C   UNL A   1      41.787  19.886  26.456  1.00  0.00     0.202 C 
BRANCH  30  31
ATOM     31  C   UNL A   1      42.887  19.293  25.554  1.00  0.00     0.261 C 
BRANCH  31  32
ATOM     32  O   UNL A   1      44.205  19.871  25.613  1.00  0.00    -0.460 OA
BRANCH  32  33
ATOM     33  C   UNL A   1      44.723  20.448  24.510  1.00  0.00     0.338 C 
ATOM     34  O   UNL A   1      44.537  20.101  23.351  1.00  0.00    -0.246 OA
BRANCH  33  35
ATOM     35  C   UNL A   1      45.405  21.698  24.921  1.00  0.00     0.060 A 
ATOM     36  C   UNL A   1      45.463  22.035  26.281  1.00  0.00     0.016 A 
ATOM     37  C   UNL A   1      45.987  22.537  23.967  1.00  0.00     0.016 A 
ATOM     38  C   UNL A   1      46.053  23.238  26.683  1.00  0.00     0.010 A 
ATOM     39  C   UNL A   1      46.558  23.752  24.369  1.00  0.00     0.010 A 
ATOM     40  C   UNL A   1      46.553  24.130  25.726  1.00  0.00    -0.014 A 
BRANCH  40  41
ATOM     41  C   UNL A   1      46.812  25.550  26.098  1.00  0.00     0.031 A 
ATOM     42  C   UNL A   1      45.625  26.396  26.485  1.00  0.00     0.074 A 
ATOM     43  C   UNL A   1      48.049  26.079  26.122  1.00  0.00     0.049 A 
ATOM     44  N   UNL A   1      45.566  27.667  26.789  1.00  0.00    -0.248 NA
ATOM     45  C   UNL A   1      44.325  25.706  26.528  1.00  0.00     0.031 C 
ATOM     46  C   UNL A   1      49.285  25.358  25.829  1.00  0.00     0.029 A 
ATOM     47  N   UNL A   1      48.466  27.359  26.402  1.00  0.00    -0.354 N 
ATOM     48  C   UNL A   1      44.225  27.930  27.054  1.00  0.00     0.074 A 
ATOM     49  C   UNL A   1      43.503  26.696  26.835  1.00  0.00     0.031 C 
ATOM     50  C   UNL A   1      50.321  26.211  25.932  1.00  0.00     0.029 A 
ATOM     51  C   UNL A   1      49.821  27.548  26.259  1.00  0.00     0.049 A 
ATOM     52  H   UNL A   1      47.850  28.075  26.680  1.00  0.00     0.167 HD
ATOM     53  C   UNL A   1      43.647  29.090  27.452  1.00  0.00     0.034 A 
ATOM     54  C   UNL A   1      50.565  28.671  26.353  1.00  0.00     0.034 A 
ATOM     55  C   UNL A   1      44.373  30.319  27.652  1.00  0.00     0.049 A 
ATOM     56  C   UNL A   1      49.885  29.980  26.695  1.00  0.00     0.074 A 
ATOM     57  C   UNL A   1      43.886  31.550  28.059  1.00  0.00     0.029 A 
ATOM     58  N   UNL A   1      45.735  30.482  27.443  1.00  0.00    -0.354 N 
ATOM     59  N   UNL A   1      48.616  30.215  26.945  1.00  0.00    -0.248 NA
ATOM     60  C   UNL A   1      50.739  31.174  26.770  1.00  0.00     0.031 C 
ATOM     61  C   UNL A   1      44.938  32.471  28.019  1.00  0.00     0.029 A 
ATOM     62  C   UNL A   1      46.099  31.799  27.676  1.00  0.00     0.049 A 
ATOM     63  H   UNL A   1      46.354  29.765  27.169  1.00  0.00     0.167 HD
ATOM     64  C   UNL A   1      48.533  31.575  27.244  1.00  0.00     0.074 A 
ATOM     65  C   UNL A   1      49.876  32.104  27.152  1.00  0.00     0.031 C 
ATOM     66  C   UNL A   1      47.443  32.318  27.573  1.00  0.00     0.034 A 
BRANCH  53  67
ATOM     67  C   UNL A   1      42.148  29.087  27.636  1.00  0.00     0.023 A 
ATOM     68  C   UNL A   1      41.556  29.009  28.908  1.00  0.00     0.031 A 
ATOM     69  C   UNL A   1      41.298  29.123  26.517  1.00  0.00     0.131 A 
ATOM     70  C   UNL A   1      40.163  28.894  29.027  1.00  0.00     0.055 A 
ATOM     71  C   UNL A   1      39.909  29.094  26.645  1.00  0.00     0.041 A 
ATOM     72  F   UNL A   1      41.806  29.171  25.275  1.00  0.00    -0.206 F 
ATOM     73  C   UNL A   1      39.333  28.963  27.905  1.00  0.00     0.022 A 
BRANCH  70  74
ATOM     74  S   UNL A   1      39.459  28.501  30.652  1.00  0.00     0.124 S 
ATOM     75  O   UNL A   1      40.658  28.444  31.486  1.00  0.00    -0.237 OA
ATOM     76  O   UNL A   1      38.567  29.629  30.891  1.00  0.00    -0.237 OA
ATOM     77  O   UNL A   1      38.798  27.216  30.438  1.00  0.00    -0.744 OA
ENDBRANCH  70  74
ENDBRANCH  53  67
BRANCH  54  78
ATOM     78  C   UNL A   1      52.032  28.639  26.071  1.00  0.00     0.023 A 
ATOM     79  C   UNL A   1      52.522  28.541  24.758  1.00  0.00     0.031 A 
ATOM     80  C   UNL A   1      52.967  28.630  27.122  1.00  0.00     0.131 A 
ATOM     81  C   UNL A   1      53.901  28.389  24.533  1.00  0.00     0.055 A 
ATOM     82  C   UNL A   1      54.341  28.538  26.891  1.00  0.00     0.041 A 
ATOM     83  F   UNL A   1      52.556  28.712  28.397  1.00  0.00    -0.206 F 
ATOM     84  C   UNL A   1      54.814  28.402  25.590  1.00  0.00     0.022 A 
BRANCH  81  85
ATOM     85  S   UNL A   1      54.480  28.075  22.842  1.00  0.00     0.124 S 
ATOM     86  O   UNL A   1      55.875  28.494  22.925  1.00  0.00    -0.237 OA
ATOM     87  O   UNL A   1      54.248  26.642  22.702  1.00  0.00    -0.237 OA
ATOM     88  O   UNL A   1      53.619  28.927  22.024  1.00  0.00    -0.744 OA
ENDBRANCH  81  85
ENDBRANCH  54  78
BRANCH  66  89
ATOM     89  C   UNL A   1      47.671  33.774  27.913  1.00  0.00     0.023 A 
ATOM     90  C   UNL A   1      47.743  34.768  26.923  1.00  0.00     0.031 A 
ATOM     91  C   UNL A   1      47.811  34.170  29.256  1.00  0.00     0.131 A 
ATOM     92  C   UNL A   1      48.003  36.100  27.286  1.00  0.00     0.055 A 
ATOM     93  C   UNL A   1      48.006  35.504  29.615  1.00  0.00     0.041 A 
ATOM     94  F   UNL A   1      47.752  33.264  30.246  1.00  0.00    -0.206 F 
ATOM     95  C   UNL A   1      48.117  36.477  28.626  1.00  0.00     0.022 A 
BRANCH  92  96
ATOM     96  S   UNL A   1      48.284  37.323  25.975  1.00  0.00     0.124 S 
ATOM     97  O   UNL A   1      46.921  37.664  25.580  1.00  0.00    -0.237 OA
ATOM     98  O   UNL A   1      49.024  38.367  26.675  1.00  0.00    -0.237 OA
ATOM     99  O   UNL A   1      49.054  36.584  24.975  1.00  0.00    -0.744 OA
ENDBRANCH  92  96
ENDBRANCH  66  89
ENDBRANCH  40  41
ENDBRANCH  33  35
ENDBRANCH  32  33
ENDBRANCH  31  32
ENDBRANCH  30  31
ENDBRANCH  29  30
ENDBRANCH  28  29
ENDBRANCH   1  28
TORSDOF 24
ENDMDL
MODEL 3
REMARK VINA RESULT:      -8.7      2.239      2.808
REMARK SMILES O=C(C[NH+]1CC[NH+](Cc2cc(Cl)ccc2[N+](=O)[O-])CC1)OCCOCCOCCOC(=O)c1ccc(-c2c3nc(c(-c4cc(S(=O)(=O)[O-])ccc4F)c4ccc([nH]4)c(-c4cc(S(=O)(=O)[O-])ccc4F)c4nc(c(-c5cc(S(=O)(=O)[O-])ccc5F)c5ccc2[nH]5)C=C4)C=C3)cc1
REMARK SMILES IDX 25 1 24 2 23 3 22 4 21 5 2 6 1 7 3 8 4 9 5 10 20 11 6 13
REMARK SMILES IDX 19 14 7 15 8 17 9 18 10 19 15 20 11 21 14 22 12 23 13 24
REMARK SMILES IDX 16 25 17 26 18 27 26 28 27 29 28 30 29 31 30 32 31 33 32 34
REMARK SMILES IDX 33 35 34 36 95 37 35 38 94 39 36 40 37 41 38 42 88 43 39 44
REMARK SMILES IDX 93 45 87 46 89 47 40 48 92 49 86 50 85 51 41 53 73 54 53 55
REMARK SMILES IDX 72 56 54 57 57 58 71 59 90 60 55 61 56 62 70 64 91 65 58 66
REMARK SMILES IDX 42 67 43 68 51 69 44 70 50 71 52 72 49 73 45 74 46 75 47 76
REMARK SMILES IDX 48 77 74 78 75 79 83 80 76 81 82 82 84 83 81 84 77 85 78 86
REMARK SMILES IDX 79 87 80 88 59 89 60 90 68 91 61 92 67 93 69 94 66 95 62 96
REMARK SMILES IDX 63 97 64 98 65 99
REMARK H PARENT 4 12 7 16 89 52 57 63
REMARK Flexibility Score: inf
ROOT
ATOM      1  C   UNL A   1      41.277  22.855  28.108  1.00  0.00     0.188 C 
ENDROOT
BRANCH   1   2
ATOM      2  O   UNL A   1      41.298  24.266  28.046  1.00  0.00    -0.376 OA
BRANCH   2   3
ATOM      3  C   UNL A   1      40.067  24.959  28.144  1.00  0.00     0.202 C 
BRANCH   3   4
ATOM      4  C   UNL A   1      39.064  25.003  26.982  1.00  0.00     0.261 C 
BRANCH   4   5
ATOM      5  O   UNL A   1      38.526  23.862  26.213  1.00  0.00    -0.459 OA
BRANCH   5   6
ATOM      6  C   UNL A   1      38.040  22.676  25.876  1.00  0.00     0.361 C 
ATOM      7  O   UNL A   1      38.813  21.716  25.982  1.00  0.00    -0.245 OA
BRANCH   6   8
ATOM      8  C   UNL A   1      36.640  22.415  25.337  1.00  0.00     0.386 C 
BRANCH   8   9
ATOM      9  N   UNL A   1      35.561  21.948  26.235  1.00  0.00    -0.316 N 
ATOM     10  C   UNL A   1      34.871  22.974  27.014  1.00  0.00     0.325 C 
ATOM     11  C   UNL A   1      34.581  21.111  25.541  1.00  0.00     0.325 C 
ATOM     12  H   UNL A   1      36.076  21.392  26.917  1.00  0.00     0.348 HD
ATOM     13  C   UNL A   1      33.790  23.795  26.267  1.00  0.00     0.324 C 
ATOM     14  C   UNL A   1      33.773  21.957  24.569  1.00  0.00     0.324 C 
ATOM     15  N   UNL A   1      33.145  23.163  25.116  1.00  0.00    -0.322 N 
ATOM     16  H   UNL A   1      33.417  23.829  24.393  1.00  0.00     0.348 HD
BRANCH  15  17
ATOM     17  C   UNL A   1      31.697  23.292  24.988  1.00  0.00     0.306 C 
BRANCH  17  18
ATOM     18  C   UNL A   1      31.339  24.511  24.166  1.00  0.00     0.085 A 
ATOM     19  C   UNL A   1      31.664  24.466  22.797  1.00  0.00     0.037 A 
ATOM     20  C   UNL A   1      31.021  25.762  24.738  1.00  0.00     0.278 A 
ATOM     21  C   UNL A   1      31.829  25.642  22.072  1.00  0.00     0.042 A 
ATOM     22  C   UNL A   1      31.193  26.944  24.006  1.00  0.00     0.088 A 
ATOM     23  Cl  UNL A   1      32.384  25.556  20.448  1.00  0.00    -0.084 Cl
ATOM     24  C   UNL A   1      31.630  26.879  22.680  1.00  0.00     0.027 A 
BRANCH  20  25
ATOM     25  N   UNL A   1      30.587  25.879  26.134  1.00  0.00     0.063 N 
ATOM     26  O   UNL A   1      29.475  25.424  26.428  1.00  0.00    -0.258 OA
ATOM     27  O   UNL A   1      31.385  26.383  26.939  1.00  0.00    -0.258 OA
ENDBRANCH  20  25
ENDBRANCH  17  18
ENDBRANCH  15  17
ENDBRANCH   8   9
ENDBRANCH   6   8
ENDBRANCH   5   6
ENDBRANCH   4   5
ENDBRANCH   3   4
ENDBRANCH   2   3
ENDBRANCH   1   2
BRANCH   1  28
ATOM     28  C   UNL A   1      42.624  22.143  28.042  1.00  0.00     0.188 C 
BRANCH  28  29
ATOM     29  O   UNL A   1      42.789  21.410  26.840  1.00  0.00    -0.376 OA
BRANCH  29  30
ATOM     30  C   UNL A   1      42.348  22.050  25.648  1.00  0.00     0.202 C 
BRANCH  30  31
ATOM     31  C   UNL A   1      43.314  22.997  24.910  1.00  0.00     0.261 C 
BRANCH  31  32
ATOM     32  O   UNL A   1      44.673  23.089  25.380  1.00  0.00    -0.460 OA
BRANCH  32  33
ATOM     33  C   UNL A   1      45.396  24.191  25.096  1.00  0.00     0.338 C 
ATOM     34  O   UNL A   1      46.263  24.293  24.238  1.00  0.00    -0.246 OA
BRANCH  33  35
ATOM     35  C   UNL A   1      44.833  25.322  25.869  1.00  0.00     0.060 A 
ATOM     36  C   UNL A   1      44.430  26.484  25.195  1.00  0.00     0.016 A 
ATOM     37  C   UNL A   1      44.703  25.240  27.259  1.00  0.00     0.016 A 
ATOM     38  C   UNL A   1      43.950  27.584  25.914  1.00  0.00     0.010 A 
ATOM     39  C   UNL A   1      44.242  26.350  27.979  1.00  0.00     0.010 A 
ATOM     40  C   UNL A   1      43.906  27.545  27.314  1.00  0.00    -0.014 A 
BRANCH  40  41
ATOM     41  C   UNL A   1      43.781  28.812  28.087  1.00  0.00     0.031 A 
ATOM     42  C   UNL A   1      45.047  29.583  28.372  1.00  0.00     0.074 A 
ATOM     43  C   UNL A   1      42.597  29.290  28.510  1.00  0.00     0.049 A 
ATOM     44  N   UNL A   1      45.224  30.673  29.072  1.00  0.00    -0.248 NA
ATOM     45  C   UNL A   1      46.282  29.037  27.785  1.00  0.00     0.031 C 
ATOM     46  C   UNL A   1      41.296  28.678  28.253  1.00  0.00     0.029 A 
ATOM     47  N   UNL A   1      42.300  30.407  29.255  1.00  0.00    -0.354 N 
ATOM     48  C   UNL A   1      46.588  30.942  29.014  1.00  0.00     0.074 A 
ATOM     49  C   UNL A   1      47.194  29.877  28.245  1.00  0.00     0.031 C 
ATOM     50  C   UNL A   1      40.341  29.420  28.843  1.00  0.00     0.029 A 
ATOM     51  C   UNL A   1      40.963  30.538  29.553  1.00  0.00     0.049 A 
ATOM     52  H   UNL A   1      42.982  31.053  29.548  1.00  0.00     0.167 HD
ATOM     53  C   UNL A   1      47.274  31.984  29.544  1.00  0.00     0.034 A 
ATOM     54  C   UNL A   1      40.323  31.438  30.330  1.00  0.00     0.034 A 
ATOM     55  C   UNL A   1      46.664  33.032  30.324  1.00  0.00     0.049 A 
ATOM     56  C   UNL A   1      41.122  32.535  31.002  1.00  0.00     0.074 A 
ATOM     57  C   UNL A   1      47.265  34.136  30.903  1.00  0.00     0.029 A 
ATOM     58  N   UNL A   1      45.316  33.099  30.649  1.00  0.00    -0.354 N 
ATOM     59  N   UNL A   1      42.412  32.779  30.938  1.00  0.00    -0.248 NA
ATOM     60  C   UNL A   1      40.378  33.479  31.849  1.00  0.00     0.031 C 
ATOM     61  C   UNL A   1      46.298  34.824  31.642  1.00  0.00     0.029 A 
ATOM     62  C   UNL A   1      45.074  34.203  31.451  1.00  0.00     0.049 A 
ATOM     63  H   UNL A   1      44.631  32.455  30.353  1.00  0.00     0.167 HD
ATOM     64  C   UNL A   1      42.621  33.926  31.704  1.00  0.00     0.074 A 
ATOM     65  C   UNL A   1      41.327  34.328  32.211  1.00  0.00     0.031 C 
ATOM     66  C   UNL A   1      43.779  34.591  31.959  1.00  0.00     0.034 A 
BRANCH  53  67
ATOM     67  C   UNL A   1      48.771  31.998  29.344  1.00  0.00     0.023 A 
ATOM     68  C   UNL A   1      49.364  32.599  28.221  1.00  0.00     0.031 A 
ATOM     69  C   UNL A   1      49.615  31.366  30.274  1.00  0.00     0.131 A 
ATOM     70  C   UNL A   1      50.748  32.491  28.017  1.00  0.00     0.055 A 
ATOM     71  C   UNL A   1      51.000  31.334  30.109  1.00  0.00     0.041 A 
ATOM     72  F   UNL A   1      49.104  30.751  31.353  1.00  0.00    -0.206 F 
ATOM     73  C   UNL A   1      51.574  31.885  28.967  1.00  0.00     0.022 A 
BRANCH  70  74
ATOM     74  S   UNL A   1      51.435  33.017  26.422  1.00  0.00     0.124 S 
ATOM     75  O   UNL A   1      51.636  34.446  26.647  1.00  0.00    -0.237 OA
ATOM     76  O   UNL A   1      52.645  32.210  26.319  1.00  0.00    -0.237 OA
ATOM     77  O   UNL A   1      50.380  32.687  25.468  1.00  0.00    -0.744 OA
ENDBRANCH  70  74
ENDBRANCH  53  67
BRANCH  54  78
ATOM     78  C   UNL A   1      38.852  31.327  30.572  1.00  0.00     0.023 A 
ATOM     79  C   UNL A   1      37.922  31.933  29.711  1.00  0.00     0.031 A 
ATOM     80  C   UNL A   1      38.359  30.675  31.716  1.00  0.00     0.131 A 
ATOM     81  C   UNL A   1      36.554  31.915  30.032  1.00  0.00     0.055 A 
ATOM     82  C   UNL A   1      36.994  30.610  32.002  1.00  0.00     0.041 A 
ATOM     83  F   UNL A   1      39.202  30.088  32.580  1.00  0.00    -0.206 F 
ATOM     84  C   UNL A   1      36.083  31.246  31.163  1.00  0.00     0.022 A 
BRANCH  81  85
ATOM     85  S   UNL A   1      35.403  32.866  29.000  1.00  0.00     0.124 S 
ATOM     86  O   UNL A   1      34.130  32.608  29.664  1.00  0.00    -0.237 OA
ATOM     87  O   UNL A   1      35.929  34.221  29.127  1.00  0.00    -0.237 OA
ATOM     88  O   UNL A   1      35.553  32.263  27.678  1.00  0.00    -0.744 OA
ENDBRANCH  81  85
ENDBRANCH  54  78
BRANCH  66  89
ATOM     89  C   UNL A   1      43.687  35.858  32.780  1.00  0.00     0.023 A 
ATOM     90  C   UNL A   1      43.589  37.127  32.185  1.00  0.00     0.031 A 
ATOM     91  C   UNL A   1      43.695  35.787  34.186  1.00  0.00     0.131 A 
ATOM     92  C   UNL A   1      43.555  38.277  32.990  1.00  0.00     0.055 A 
ATOM     93  C   UNL A   1      43.597  36.930  34.982  1.00  0.00     0.041 A 
ATOM     94  F   UNL A   1      43.789  34.603  34.811  1.00  0.00    -0.206 F 
ATOM     95  C   UNL A   1      43.540  38.185  34.384  1.00  0.00     0.022 A 
BRANCH  92  96
ATOM     96  S   UNL A   1      43.623  39.905  32.191  1.00  0.00     0.124 S 
ATOM     97  O   UNL A   1      43.506  39.556  30.780  1.00  0.00    -0.237 OA
ATOM     98  O   UNL A   1      42.476  40.589  32.777  1.00  0.00    -0.237 OA
ATOM     99  O   UNL A   1      44.927  40.430  32.594  1.00  0.00    -0.744 OA
ENDBRANCH  92  96
ENDBRANCH  66  89
ENDBRANCH  40  41
ENDBRANCH  33  35
ENDBRANCH  32  33
ENDBRANCH  31  32
ENDBRANCH  30  31
ENDBRANCH  29  30
ENDBRANCH  28  29
ENDBRANCH   1  28
TORSDOF 24
ENDMDL
