MODEL 1
REMARK VINA RESULT:     -11.3      0.000      0.000
REMARK SMILES CC1CCN(C(=O)Nc2nccnc2C(=O)OCCOCCOCCOC(=O)c2ccc(-c3c4nc(c(-c5cc(S(=O)(=O)[O-])ccc5F)c5ccc([nH]5)c(-c5cc(S(=O)(=O)[O-])ccc5F)c5nc(c(-c6cc(S(=O)(=O)[O-])ccc6F)c6ccc3[nH]6)C=C5)C=C4)cc2)CC1
REMARK SMILES IDX 22 1 21 2 20 3 19 4 18 5 17 6 15 7 16 8 14 9 9 10 10 11
REMARK SMILES IDX 11 12 13 13 12 14 8 15 1 16 2 17 3 18 93 19 4 20 92 21 5 22
REMARK SMILES IDX 6 23 7 24 23 26 24 27 25 28 26 29 27 30 28 31 29 32 30 33
REMARK SMILES IDX 91 34 31 35 90 36 32 37 33 38 34 39 84 40 35 41 89 42 83 43
REMARK SMILES IDX 85 44 36 45 88 46 82 47 81 48 37 50 69 51 49 52 68 53 50 54
REMARK SMILES IDX 53 55 67 56 86 57 51 58 52 59 66 61 87 62 54 63 38 64 39 65
REMARK SMILES IDX 47 66 40 67 46 68 48 69 45 70 41 71 42 72 43 73 44 74 70 75
REMARK SMILES IDX 71 76 79 77 72 78 78 79 80 80 77 81 73 82 74 83 75 84 76 85
REMARK SMILES IDX 55 86 56 87 64 88 57 89 63 90 65 91 62 92 58 93 59 94 60 95
REMARK SMILES IDX 61 96
REMARK H PARENT 8 25 85 49 53 60
REMARK Flexibility Score: inf
ROOT
ATOM      1  C   UNL A   1      40.934  20.939  27.298  1.00  0.00     0.188 C 
ENDROOT
BRANCH   1   2
ATOM      2  C   UNL A   1      40.039  21.650  26.264  1.00  0.00     0.188 C 
BRANCH   2   3
ATOM      3  O   UNL A   1      38.970  20.945  25.641  1.00  0.00    -0.376 OA
BRANCH   3   4
ATOM      4  C   UNL A   1      37.845  21.663  25.154  1.00  0.00     0.202 C 
BRANCH   4   5
ATOM      5  C   UNL A   1      36.606  20.859  24.746  1.00  0.00     0.261 C 
BRANCH   5   6
ATOM      6  O   UNL A   1      35.472  21.687  24.425  1.00  0.00    -0.458 OA
BRANCH   6   7
ATOM      7  C   UNL A   1      34.263  21.153  24.749  1.00  0.00     0.360 C 
ATOM      8  O   UNL A   1      33.956  19.979  24.610  1.00  0.00    -0.244 OA
BRANCH   7   9
ATOM      9  C   UNL A   1      33.364  22.157  25.394  1.00  0.00     0.191 A 
ATOM     10  C   UNL A   1      32.722  23.214  24.723  1.00  0.00     0.167 A 
ATOM     11  N   UNL A   1      31.812  23.959  25.393  1.00  0.00    -0.235 NA
ATOM     12  C   UNL A   1      31.661  23.734  26.722  1.00  0.00     0.133 A 
ATOM     13  N   UNL A   1      33.206  21.936  26.737  1.00  0.00    -0.244 NA
ATOM     14  C   UNL A   1      32.366  22.760  27.388  1.00  0.00     0.132 A 
BRANCH  10  15
ATOM     15  N   UNL A   1      32.997  23.507  23.378  1.00  0.00    -0.290 N 
ATOM     16  C   UNL A   1      32.129  29.410  24.886  1.00  0.00     0.008 C 
ATOM     17  C   UNL A   1      33.158  28.441  24.300  1.00  0.00    -0.011 C 
ATOM     18  C   UNL A   1      32.812  28.116  22.835  1.00  0.00     0.025 C 
ATOM     19  C   UNL A   1      33.248  27.158  25.149  1.00  0.00     0.025 C 
ATOM     20  C   UNL A   1      33.673  26.985  22.266  1.00  0.00     0.121 C 
ATOM     21  C   UNL A   1      34.166  26.135  24.476  1.00  0.00     0.121 C 
ATOM     22  N   UNL A   1      33.639  25.820  23.152  1.00  0.00    -0.324 N 
ATOM     23  C   UNL A   1      33.212  24.624  22.650  1.00  0.00     0.323 C 
ATOM     24  O   UNL A   1      33.047  24.473  21.430  1.00  0.00    -0.248 OA
ATOM     25  H   UNL A   1      33.046  22.693  22.827  1.00  0.00     0.173 HD
ENDBRANCH  10  15
ENDBRANCH   7   9
ENDBRANCH   6   7
ENDBRANCH   5   6
ENDBRANCH   4   5
ENDBRANCH   3   4
ENDBRANCH   2   3
ENDBRANCH   1   2
BRANCH   1  26
ATOM     26  O   UNL A   1      42.329  21.098  27.100  1.00  0.00    -0.376 OA
BRANCH  26  27
ATOM     27  C   UNL A   1      42.777  20.911  25.761  1.00  0.00     0.202 C 
BRANCH  27  28
ATOM     28  C   UNL A   1      43.688  22.037  25.250  1.00  0.00     0.261 C 
BRANCH  28  29
ATOM     29  O   UNL A   1      43.010  23.266  24.936  1.00  0.00    -0.460 OA
BRANCH  29  30
ATOM     30  C   UNL A   1      43.721  24.404  25.107  1.00  0.00     0.338 C 
ATOM     31  O   UNL A   1      44.686  24.766  24.457  1.00  0.00    -0.246 OA
BRANCH  30  32
ATOM     32  C   UNL A   1      43.006  25.250  26.085  1.00  0.00     0.060 A 
ATOM     33  C   UNL A   1      43.301  26.618  26.127  1.00  0.00     0.016 A 
ATOM     34  C   UNL A   1      42.067  24.700  26.960  1.00  0.00     0.016 A 
ATOM     35  C   UNL A   1      42.685  27.433  27.078  1.00  0.00     0.010 A 
ATOM     36  C   UNL A   1      41.462  25.514  27.922  1.00  0.00     0.010 A 
ATOM     37  C   UNL A   1      41.797  26.877  28.009  1.00  0.00    -0.014 A 
BRANCH  37  38
ATOM     38  C   UNL A   1      41.397  27.676  29.195  1.00  0.00     0.031 A 
ATOM     39  C   UNL A   1      40.116  28.464  29.122  1.00  0.00     0.074 A 
ATOM     40  C   UNL A   1      42.123  27.672  30.325  1.00  0.00     0.049 A 
ATOM     41  N   UNL A   1      39.527  29.186  30.040  1.00  0.00    -0.248 NA
ATOM     42  C   UNL A   1      39.410  28.430  27.833  1.00  0.00     0.031 C 
ATOM     43  C   UNL A   1      43.368  26.935  30.531  1.00  0.00     0.029 A 
ATOM     44  N   UNL A   1      41.908  28.313  31.520  1.00  0.00    -0.354 N 
ATOM     45  C   UNL A   1      38.374  29.685  29.444  1.00  0.00     0.074 A 
ATOM     46  C   UNL A   1      38.380  29.225  28.071  1.00  0.00     0.031 C 
ATOM     47  C   UNL A   1      43.805  27.161  31.782  1.00  0.00     0.029 A 
ATOM     48  C   UNL A   1      42.883  28.073  32.459  1.00  0.00     0.049 A 
ATOM     49  H   UNL A   1      41.129  28.889  31.689  1.00  0.00     0.167 HD
ATOM     50  C   UNL A   1      37.389  30.442  29.991  1.00  0.00     0.034 A 
ATOM     51  C   UNL A   1      43.015  28.539  33.718  1.00  0.00     0.034 A 
ATOM     52  C   UNL A   1      37.411  30.926  31.349  1.00  0.00     0.049 A 
ATOM     53  C   UNL A   1      41.953  29.453  34.284  1.00  0.00     0.074 A 
ATOM     54  C   UNL A   1      36.467  31.696  32.007  1.00  0.00     0.029 A 
ATOM     55  N   UNL A   1      38.442  30.706  32.255  1.00  0.00    -0.354 N 
ATOM     56  N   UNL A   1      40.848  29.889  33.723  1.00  0.00    -0.248 NA
ATOM     57  C   UNL A   1      42.153  29.920  35.661  1.00  0.00     0.031 C 
ATOM     58  C   UNL A   1      36.959  31.999  33.284  1.00  0.00     0.029 A 
ATOM     59  C   UNL A   1      38.173  31.352  33.453  1.00  0.00     0.049 A 
ATOM     60  H   UNL A   1      39.247  30.171  32.073  1.00  0.00     0.167 HD
ATOM     61  C   UNL A   1      40.204  30.651  34.696  1.00  0.00     0.074 A 
ATOM     62  C   UNL A   1      41.041  30.608  35.877  1.00  0.00     0.031 C 
ATOM     63  C   UNL A   1      39.021  31.315  34.623  1.00  0.00     0.034 A 
BRANCH  50  64
ATOM     64  C   UNL A   1      36.246  30.827  29.082  1.00  0.00     0.023 A 
ATOM     65  C   UNL A   1      35.769  32.149  29.019  1.00  0.00     0.031 A 
ATOM     66  C   UNL A   1      35.571  29.848  28.332  1.00  0.00     0.131 A 
ATOM     67  C   UNL A   1      34.595  32.437  28.307  1.00  0.00     0.055 A 
ATOM     68  C   UNL A   1      34.456  30.159  27.551  1.00  0.00     0.041 A 
ATOM     69  F   UNL A   1      35.965  28.567  28.369  1.00  0.00    -0.206 F 
ATOM     70  C   UNL A   1      33.948  31.456  27.553  1.00  0.00     0.022 A 
BRANCH  67  71
ATOM     71  S   UNL A   1      33.824  34.064  28.533  1.00  0.00     0.124 S 
ATOM     72  O   UNL A   1      34.793  34.944  27.880  1.00  0.00    -0.237 OA
ATOM     73  O   UNL A   1      32.545  33.904  27.850  1.00  0.00    -0.237 OA
ATOM     74  O   UNL A   1      33.745  34.208  29.985  1.00  0.00    -0.744 OA
ENDBRANCH  67  71
ENDBRANCH  50  64
BRANCH  51  75
ATOM     75  C   UNL A   1      44.198  28.162  34.541  1.00  0.00     0.023 A 
ATOM     76  C   UNL A   1      44.186  27.007  35.339  1.00  0.00     0.031 A 
ATOM     77  C   UNL A   1      45.341  28.978  34.575  1.00  0.00     0.131 A 
ATOM     78  C   UNL A   1      45.281  26.719  36.169  1.00  0.00     0.055 A 
ATOM     79  C   UNL A   1      46.445  28.667  35.370  1.00  0.00     0.041 A 
ATOM     80  F   UNL A   1      45.401  30.093  33.828  1.00  0.00    -0.206 F 
ATOM     81  C   UNL A   1      46.415  27.536  36.180  1.00  0.00     0.022 A 
BRANCH  78  82
ATOM     82  S   UNL A   1      45.180  25.287  37.276  1.00  0.00     0.124 S 
ATOM     83  O   UNL A   1      44.057  25.650  38.130  1.00  0.00    -0.237 OA
ATOM     84  O   UNL A   1      44.946  24.194  36.337  1.00  0.00    -0.237 OA
ATOM     85  O   UNL A   1      46.486  25.270  37.932  1.00  0.00    -0.744 OA
ENDBRANCH  78  82
ENDBRANCH  51  75
BRANCH  63  86
ATOM     86  C   UNL A   1      38.539  32.002  35.880  1.00  0.00     0.023 A 
ATOM     87  C   UNL A   1      37.974  31.289  36.952  1.00  0.00     0.031 A 
ATOM     88  C   UNL A   1      38.625  33.402  35.995  1.00  0.00     0.131 A 
ATOM     89  C   UNL A   1      37.461  31.979  38.061  1.00  0.00     0.055 A 
ATOM     90  C   UNL A   1      38.169  34.080  37.127  1.00  0.00     0.041 A 
ATOM     91  F   UNL A   1      39.153  34.138  35.003  1.00  0.00    -0.206 F 
ATOM     92  C   UNL A   1      37.568  33.369  38.162  1.00  0.00     0.022 A 
BRANCH  89  93
ATOM     93  S   UNL A   1      36.547  31.049  39.324  1.00  0.00     0.124 S 
ATOM     94  O   UNL A   1      37.552  30.887  40.370  1.00  0.00    -0.237 OA
ATOM     95  O   UNL A   1      35.443  31.951  39.634  1.00  0.00    -0.237 OA
ATOM     96  O   UNL A   1      36.166  29.818  38.635  1.00  0.00    -0.744 OA
ENDBRANCH  89  93
ENDBRANCH  63  86
ENDBRANCH  37  38
ENDBRANCH  30  32
ENDBRANCH  29  30
ENDBRANCH  28  29
ENDBRANCH  27  28
ENDBRANCH  26  27
ENDBRANCH   1  26
TORSDOF 21
ENDMDL
MODEL 2
REMARK VINA RESULT:     -11.2      1.693      2.361
REMARK SMILES CC1CCN(C(=O)Nc2nccnc2C(=O)OCCOCCOCCOC(=O)c2ccc(-c3c4nc(c(-c5cc(S(=O)(=O)[O-])ccc5F)c5ccc([nH]5)c(-c5cc(S(=O)(=O)[O-])ccc5F)c5nc(c(-c6cc(S(=O)(=O)[O-])ccc6F)c6ccc3[nH]6)C=C5)C=C4)cc2)CC1
REMARK SMILES IDX 22 1 21 2 20 3 19 4 18 5 17 6 15 7 16 8 14 9 9 10 10 11
REMARK SMILES IDX 11 12 13 13 12 14 8 15 1 16 2 17 3 18 93 19 4 20 92 21 5 22
REMARK SMILES IDX 6 23 7 24 23 26 24 27 25 28 26 29 27 30 28 31 29 32 30 33
REMARK SMILES IDX 91 34 31 35 90 36 32 37 33 38 34 39 84 40 35 41 89 42 83 43
REMARK SMILES IDX 85 44 36 45 88 46 82 47 81 48 37 50 69 51 49 52 68 53 50 54
REMARK SMILES IDX 53 55 67 56 86 57 51 58 52 59 66 61 87 62 54 63 38 64 39 65
REMARK SMILES IDX 47 66 40 67 46 68 48 69 45 70 41 71 42 72 43 73 44 74 70 75
REMARK SMILES IDX 71 76 79 77 72 78 78 79 80 80 77 81 73 82 74 83 75 84 76 85
REMARK SMILES IDX 55 86 56 87 64 88 57 89 63 90 65 91 62 92 58 93 59 94 60 95
REMARK SMILES IDX 61 96
REMARK H PARENT 8 25 85 49 53 60
REMARK Flexibility Score: inf
ROOT
ATOM      1  C   UNL A   1      41.218  21.470  27.503  1.00  0.00     0.188 C 
ENDROOT
BRANCH   1   2
ATOM      2  C   UNL A   1      40.005  22.103  26.794  1.00  0.00     0.188 C 
BRANCH   2   3
ATOM      3  O   UNL A   1      39.453  21.485  25.636  1.00  0.00    -0.376 OA
BRANCH   3   4
ATOM      4  C   UNL A   1      38.042  21.382  25.500  1.00  0.00     0.202 C 
BRANCH   4   5
ATOM      5  C   UNL A   1      37.193  22.583  25.928  1.00  0.00     0.261 C 
BRANCH   5   6
ATOM      6  O   UNL A   1      35.912  22.209  26.469  1.00  0.00    -0.458 OA
BRANCH   6   7
ATOM      7  C   UNL A   1      34.843  22.541  25.695  1.00  0.00     0.360 C 
ATOM      8  O   UNL A   1      34.637  23.649  25.223  1.00  0.00    -0.244 OA
BRANCH   7   9
ATOM      9  C   UNL A   1      33.980  21.359  25.398  1.00  0.00     0.191 A 
ATOM     10  C   UNL A   1      32.606  21.270  25.687  1.00  0.00     0.167 A 
ATOM     11  N   UNL A   1      31.906  20.206  25.228  1.00  0.00    -0.235 NA
ATOM     12  C   UNL A   1      32.594  19.207  24.622  1.00  0.00     0.133 A 
ATOM     13  N   UNL A   1      34.668  20.345  24.785  1.00  0.00    -0.244 NA
ATOM     14  C   UNL A   1      33.954  19.262  24.430  1.00  0.00     0.132 A 
BRANCH  10  15
ATOM     15  N   UNL A   1      31.945  22.259  26.433  1.00  0.00    -0.290 N 
ATOM     16  C   UNL A   1      33.011  26.015  21.677  1.00  0.00     0.008 C 
ATOM     17  C   UNL A   1      31.891  25.418  22.530  1.00  0.00    -0.011 C 
ATOM     18  C   UNL A   1      31.812  26.141  23.888  1.00  0.00     0.025 C 
ATOM     19  C   UNL A   1      32.092  23.903  22.718  1.00  0.00     0.025 C 
ATOM     20  C   UNL A   1      30.862  25.448  24.867  1.00  0.00     0.121 C 
ATOM     21  C   UNL A   1      31.054  23.341  23.692  1.00  0.00     0.121 C 
ATOM     22  N   UNL A   1      31.188  24.024  24.976  1.00  0.00    -0.324 N 
ATOM     23  C   UNL A   1      31.493  23.510  26.204  1.00  0.00     0.323 C 
ATOM     24  O   UNL A   1      31.304  24.178  27.232  1.00  0.00    -0.248 OA
ATOM     25  H   UNL A   1      31.767  21.966  27.356  1.00  0.00     0.173 HD
ENDBRANCH  10  15
ENDBRANCH   7   9
ENDBRANCH   6   7
ENDBRANCH   5   6
ENDBRANCH   4   5
ENDBRANCH   3   4
ENDBRANCH   2   3
ENDBRANCH   1   2
BRANCH   1  26
ATOM     26  O   UNL A   1      42.476  21.742  26.906  1.00  0.00    -0.376 OA
BRANCH  26  27
ATOM     27  C   UNL A   1      42.450  21.923  25.493  1.00  0.00     0.202 C 
BRANCH  27  28
ATOM     28  C   UNL A   1      43.596  22.793  24.959  1.00  0.00     0.261 C 
BRANCH  28  29
ATOM     29  O   UNL A   1      43.234  24.155  24.667  1.00  0.00    -0.460 OA
BRANCH  29  30
ATOM     30  C   UNL A   1      44.046  25.113  25.170  1.00  0.00     0.338 C 
ATOM     31  O   UNL A   1      45.145  25.431  24.751  1.00  0.00    -0.246 OA
BRANCH  30  32
ATOM     32  C   UNL A   1      43.293  25.863  26.196  1.00  0.00     0.060 A 
ATOM     33  C   UNL A   1      43.395  27.259  26.212  1.00  0.00     0.016 A 
ATOM     34  C   UNL A   1      42.506  25.198  27.139  1.00  0.00     0.016 A 
ATOM     35  C   UNL A   1      42.741  27.992  27.203  1.00  0.00     0.010 A 
ATOM     36  C   UNL A   1      41.864  25.932  28.140  1.00  0.00     0.010 A 
ATOM     37  C   UNL A   1      42.009  27.330  28.198  1.00  0.00    -0.014 A 
BRANCH  37  38
ATOM     38  C   UNL A   1      41.588  28.081  29.408  1.00  0.00     0.031 A 
ATOM     39  C   UNL A   1      40.295  28.850  29.353  1.00  0.00     0.074 A 
ATOM     40  C   UNL A   1      42.306  28.049  30.544  1.00  0.00     0.049 A 
ATOM     41  N   UNL A   1      39.688  29.530  30.291  1.00  0.00    -0.248 NA
ATOM     42  C   UNL A   1      39.598  28.849  28.058  1.00  0.00     0.031 C 
ATOM     43  C   UNL A   1      43.561  27.325  30.733  1.00  0.00     0.029 A 
ATOM     44  N   UNL A   1      42.072  28.644  31.758  1.00  0.00    -0.354 N 
ATOM     45  C   UNL A   1      38.531  30.031  29.704  1.00  0.00     0.074 A 
ATOM     46  C   UNL A   1      38.555  29.619  28.315  1.00  0.00     0.031 C 
ATOM     47  C   UNL A   1      43.986  27.515  31.995  1.00  0.00     0.029 A 
ATOM     48  C   UNL A   1      43.044  28.387  32.695  1.00  0.00     0.049 A 
ATOM     49  H   UNL A   1      41.282  29.202  31.941  1.00  0.00     0.167 HD
ATOM     50  C   UNL A   1      37.530  30.752  30.269  1.00  0.00     0.034 A 
ATOM     51  C   UNL A   1      43.159  28.811  33.971  1.00  0.00     0.034 A 
ATOM     52  C   UNL A   1      37.534  31.189  31.643  1.00  0.00     0.049 A 
ATOM     53  C   UNL A   1      42.079  29.687  34.560  1.00  0.00     0.074 A 
ATOM     54  C   UNL A   1      36.573  31.920  32.321  1.00  0.00     0.029 A 
ATOM     55  N   UNL A   1      38.562  30.954  32.549  1.00  0.00    -0.354 N 
ATOM     56  N   UNL A   1      40.970  30.125  34.006  1.00  0.00    -0.248 NA
ATOM     57  C   UNL A   1      42.262  30.109  35.954  1.00  0.00     0.031 C 
ATOM     58  C   UNL A   1      37.051  32.186  33.611  1.00  0.00     0.029 A 
ATOM     59  C   UNL A   1      38.274  31.553  33.767  1.00  0.00     0.049 A 
ATOM     60  H   UNL A   1      39.378  30.439  32.354  1.00  0.00     0.167 HD
ATOM     61  C   UNL A   1      40.307  30.842  35.000  1.00  0.00     0.074 A 
ATOM     62  C   UNL A   1      41.137  30.772  36.186  1.00  0.00     0.031 C 
ATOM     63  C   UNL A   1      39.114  31.490  34.942  1.00  0.00     0.034 A 
BRANCH  50  64
ATOM     64  C   UNL A   1      36.387  31.150  29.366  1.00  0.00     0.023 A 
ATOM     65  C   UNL A   1      35.510  30.193  28.824  1.00  0.00     0.031 A 
ATOM     66  C   UNL A   1      36.221  32.490  28.976  1.00  0.00     0.131 A 
ATOM     67  C   UNL A   1      34.575  30.573  27.848  1.00  0.00     0.055 A 
ATOM     68  C   UNL A   1      35.228  32.875  28.073  1.00  0.00     0.041 A 
ATOM     69  F   UNL A   1      37.040  33.445  29.441  1.00  0.00    -0.206 F 
ATOM     70  C   UNL A   1      34.412  31.912  27.486  1.00  0.00     0.022 A 
BRANCH  67  71
ATOM     71  S   UNL A   1      33.710  29.271  26.927  1.00  0.00     0.124 S 
ATOM     72  O   UNL A   1      33.432  29.940  25.658  1.00  0.00    -0.237 OA
ATOM     73  O   UNL A   1      34.703  28.204  26.883  1.00  0.00    -0.237 OA
ATOM     74  O   UNL A   1      32.532  28.995  27.747  1.00  0.00    -0.744 OA
ENDBRANCH  67  71
ENDBRANCH  50  64
BRANCH  51  75
ATOM     75  C   UNL A   1      44.343  28.424  34.789  1.00  0.00     0.023 A 
ATOM     76  C   UNL A   1      44.330  27.261  35.575  1.00  0.00     0.031 A 
ATOM     77  C   UNL A   1      45.486  29.240  34.832  1.00  0.00     0.131 A 
ATOM     78  C   UNL A   1      45.426  26.964  36.401  1.00  0.00     0.055 A 
ATOM     79  C   UNL A   1      46.591  28.920  35.623  1.00  0.00     0.041 A 
ATOM     80  F   UNL A   1      45.546  30.363  34.098  1.00  0.00    -0.206 F 
ATOM     81  C   UNL A   1      46.560  27.780  36.421  1.00  0.00     0.022 A 
BRANCH  78  82
ATOM     82  S   UNL A   1      45.325  25.519  37.492  1.00  0.00     0.124 S 
ATOM     83  O   UNL A   1      46.094  24.530  36.747  1.00  0.00    -0.237 OA
ATOM     84  O   UNL A   1      45.942  26.021  38.717  1.00  0.00    -0.237 OA
ATOM     85  O   UNL A   1      43.890  25.260  37.583  1.00  0.00    -0.744 OA
ENDBRANCH  78  82
ENDBRANCH  51  75
BRANCH  63  86
ATOM     86  C   UNL A   1      38.612  32.125  36.218  1.00  0.00     0.023 A 
ATOM     87  C   UNL A   1      37.896  31.395  37.184  1.00  0.00     0.031 A 
ATOM     88  C   UNL A   1      38.835  33.493  36.459  1.00  0.00     0.131 A 
ATOM     89  C   UNL A   1      37.375  32.049  38.312  1.00  0.00     0.055 A 
ATOM     90  C   UNL A   1      38.367  34.126  37.612  1.00  0.00     0.041 A 
ATOM     91  F   UNL A   1      39.511  34.242  35.572  1.00  0.00    -0.206 F 
ATOM     92  C   UNL A   1      37.618  33.406  38.538  1.00  0.00     0.022 A 
BRANCH  89  93
ATOM     93  S   UNL A   1      36.275  31.129  39.425  1.00  0.00     0.124 S 
ATOM     94  O   UNL A   1      35.049  31.917  39.361  1.00  0.00    -0.237 OA
ATOM     95  O   UNL A   1      36.224  29.816  38.794  1.00  0.00    -0.237 OA
ATOM     96  O   UNL A   1      36.973  31.172  40.709  1.00  0.00    -0.744 OA
ENDBRANCH  89  93
ENDBRANCH  63  86
ENDBRANCH  37  38
ENDBRANCH  30  32
ENDBRANCH  29  30
ENDBRANCH  28  29
ENDBRANCH  27  28
ENDBRANCH  26  27
ENDBRANCH   1  26
TORSDOF 21
ENDMDL
MODEL 3
REMARK VINA RESULT:     -11.2      3.172      9.391
REMARK SMILES CC1CCN(C(=O)Nc2nccnc2C(=O)OCCOCCOCCOC(=O)c2ccc(-c3c4nc(c(-c5cc(S(=O)(=O)[O-])ccc5F)c5ccc([nH]5)c(-c5cc(S(=O)(=O)[O-])ccc5F)c5nc(c(-c6cc(S(=O)(=O)[O-])ccc6F)c6ccc3[nH]6)C=C5)C=C4)cc2)CC1
REMARK SMILES IDX 22 1 21 2 20 3 19 4 18 5 17 6 15 7 16 8 14 9 9 10 10 11
REMARK SMILES IDX 11 12 13 13 12 14 8 15 1 16 2 17 3 18 93 19 4 20 92 21 5 22
REMARK SMILES IDX 6 23 7 24 23 26 24 27 25 28 26 29 27 30 28 31 29 32 30 33
REMARK SMILES IDX 91 34 31 35 90 36 32 37 33 38 34 39 84 40 35 41 89 42 83 43
REMARK SMILES IDX 85 44 36 45 88 46 82 47 81 48 37 50 69 51 49 52 68 53 50 54
REMARK SMILES IDX 53 55 67 56 86 57 51 58 52 59 66 61 87 62 54 63 38 64 39 65
REMARK SMILES IDX 47 66 40 67 46 68 48 69 45 70 41 71 42 72 43 73 44 74 70 75
REMARK SMILES IDX 71 76 79 77 72 78 78 79 80 80 77 81 73 82 74 83 75 84 76 85
REMARK SMILES IDX 55 86 56 87 64 88 57 89 63 90 65 91 62 92 58 93 59 94 60 95
REMARK SMILES IDX 61 96
REMARK H PARENT 8 25 85 49 53 60
REMARK Flexibility Score: inf
ROOT
ATOM      1  C   UNL A   1      33.116  29.235  23.170  1.00  0.00     0.188 C 
ENDROOT
BRANCH   1   2
ATOM      2  C   UNL A   1      34.110  28.306  22.446  1.00  0.00     0.188 C 
BRANCH   2   3
ATOM      3  O   UNL A   1      33.653  27.089  21.865  1.00  0.00    -0.376 OA
BRANCH   3   4
ATOM      4  C   UNL A   1      33.601  25.909  22.657  1.00  0.00     0.202 C 
BRANCH   4   5
ATOM      5  C   UNL A   1      32.251  25.518  23.267  1.00  0.00     0.261 C 
BRANCH   5   6
ATOM      6  O   UNL A   1      31.862  26.355  24.372  1.00  0.00    -0.458 OA
BRANCH   6   7
ATOM      7  C   UNL A   1      32.372  25.986  25.578  1.00  0.00     0.360 C 
ATOM      8  O   UNL A   1      33.276  26.564  26.163  1.00  0.00    -0.244 OA
BRANCH   7   9
ATOM      9  C   UNL A   1      31.632  24.831  26.169  1.00  0.00     0.191 A 
ATOM     10  C   UNL A   1      32.231  23.711  26.773  1.00  0.00     0.167 A 
ATOM     11  N   UNL A   1      31.447  22.808  27.406  1.00  0.00    -0.235 NA
ATOM     12  C   UNL A   1      30.103  22.958  27.312  1.00  0.00     0.133 A 
ATOM     13  N   UNL A   1      30.272  24.976  26.078  1.00  0.00    -0.244 NA
ATOM     14  C   UNL A   1      29.525  24.006  26.635  1.00  0.00     0.132 A 
BRANCH  10  15
ATOM     15  N   UNL A   1      33.621  23.513  26.740  1.00  0.00    -0.290 N 
ATOM     16  C   UNL A   1      32.397  18.036  24.217  1.00  0.00     0.008 C 
ATOM     17  C   UNL A   1      33.144  19.349  23.975  1.00  0.00    -0.011 C 
ATOM     18  C   UNL A   1      34.449  19.379  24.793  1.00  0.00     0.025 C 
ATOM     19  C   UNL A   1      32.250  20.558  24.309  1.00  0.00     0.025 C 
ATOM     20  C   UNL A   1      35.126  20.751  24.766  1.00  0.00     0.121 C 
ATOM     21  C   UNL A   1      33.049  21.859  24.207  1.00  0.00     0.121 C 
ATOM     22  N   UNL A   1      34.174  21.800  25.136  1.00  0.00    -0.324 N 
ATOM     23  C   UNL A   1      34.462  22.604  26.202  1.00  0.00     0.323 C 
ATOM     24  O   UNL A   1      35.588  22.586  26.721  1.00  0.00    -0.248 OA
ATOM     25  H   UNL A   1      34.104  24.215  27.234  1.00  0.00     0.173 HD
ENDBRANCH  10  15
ENDBRANCH   7   9
ENDBRANCH   6   7
ENDBRANCH   5   6
ENDBRANCH   4   5
ENDBRANCH   3   4
ENDBRANCH   2   3
ENDBRANCH   1   2
BRANCH   1  26
ATOM     26  O   UNL A   1      33.333  29.384  24.564  1.00  0.00    -0.376 OA
BRANCH  26  27
ATOM     27  C   UNL A   1      32.204  29.830  25.309  1.00  0.00     0.202 C 
BRANCH  27  28
ATOM     28  C   UNL A   1      32.538  30.248  26.748  1.00  0.00     0.261 C 
BRANCH  28  29
ATOM     29  O   UNL A   1      33.931  30.154  27.096  1.00  0.00    -0.460 OA
BRANCH  29  30
ATOM     30  C   UNL A   1      34.484  31.251  27.662  1.00  0.00     0.338 C 
ATOM     31  O   UNL A   1      33.993  32.365  27.724  1.00  0.00    -0.246 OA
BRANCH  30  32
ATOM     32  C   UNL A   1      35.702  30.832  28.385  1.00  0.00     0.060 A 
ATOM     33  C   UNL A   1      36.904  31.494  28.109  1.00  0.00     0.016 A 
ATOM     34  C   UNL A   1      35.662  29.791  29.315  1.00  0.00     0.016 A 
ATOM     35  C   UNL A   1      38.083  31.083  28.733  1.00  0.00     0.010 A 
ATOM     36  C   UNL A   1      36.846  29.370  29.928  1.00  0.00     0.010 A 
ATOM     37  C   UNL A   1      38.067  29.991  29.611  1.00  0.00    -0.014 A 
BRANCH  37  38
ATOM     38  C   UNL A   1      39.354  29.372  30.019  1.00  0.00     0.031 A 
ATOM     39  C   UNL A   1      40.047  29.911  31.242  1.00  0.00     0.074 A 
ATOM     40  C   UNL A   1      39.878  28.329  29.352  1.00  0.00     0.049 A 
ATOM     41  N   UNL A   1      41.142  29.503  31.829  1.00  0.00    -0.248 NA
ATOM     42  C   UNL A   1      39.412  31.072  31.884  1.00  0.00     0.031 C 
ATOM     43  C   UNL A   1      39.295  27.701  28.168  1.00  0.00     0.029 A 
ATOM     44  N   UNL A   1      41.024  27.611  29.586  1.00  0.00    -0.354 N 
ATOM     45  C   UNL A   1      41.324  30.349  32.918  1.00  0.00     0.074 A 
ATOM     46  C   UNL A   1      40.254  31.325  32.871  1.00  0.00     0.031 C 
ATOM     47  C   UNL A   1      40.087  26.685  27.781  1.00  0.00     0.029 A 
ATOM     48  C   UNL A   1      41.240  26.604  28.677  1.00  0.00     0.049 A 
ATOM     49  H   UNL A   1      41.634  27.800  30.335  1.00  0.00     0.167 HD
ATOM     50  C   UNL A   1      42.281  30.311  33.878  1.00  0.00     0.034 A 
ATOM     51  C   UNL A   1      42.255  25.720  28.579  1.00  0.00     0.034 A 
ATOM     52  C   UNL A   1      43.363  29.358  33.895  1.00  0.00     0.049 A 
ATOM     53  C   UNL A   1      43.361  25.747  29.608  1.00  0.00     0.074 A 
ATOM     54  C   UNL A   1      44.385  29.226  34.820  1.00  0.00     0.029 A 
ATOM     55  N   UNL A   1      43.579  28.384  32.927  1.00  0.00    -0.354 N 
ATOM     56  N   UNL A   1      43.504  26.529  30.654  1.00  0.00    -0.248 NA
ATOM     57  C   UNL A   1      44.432  24.755  29.448  1.00  0.00     0.031 C 
ATOM     58  C   UNL A   1      45.254  28.221  34.375  1.00  0.00     0.029 A 
ATOM     59  C   UNL A   1      44.734  27.670  33.214  1.00  0.00     0.049 A 
ATOM     60  H   UNL A   1      42.998  28.225  32.148  1.00  0.00     0.167 HD
ATOM     61  C   UNL A   1      44.662  26.096  31.296  1.00  0.00     0.074 A 
ATOM     62  C   UNL A   1      45.173  24.982  30.524  1.00  0.00     0.031 C 
ATOM     63  C   UNL A   1      45.244  26.568  32.430  1.00  0.00     0.034 A 
BRANCH  50  64
ATOM     64  C   UNL A   1      42.211  31.375  34.948  1.00  0.00     0.023 A 
ATOM     65  C   UNL A   1      41.161  31.411  35.883  1.00  0.00     0.031 A 
ATOM     66  C   UNL A   1      43.159  32.412  34.984  1.00  0.00     0.131 A 
ATOM     67  C   UNL A   1      41.027  32.511  36.744  1.00  0.00     0.055 A 
ATOM     68  C   UNL A   1      43.071  33.458  35.905  1.00  0.00     0.041 A 
ATOM     69  F   UNL A   1      44.171  32.445  34.104  1.00  0.00    -0.206 F 
ATOM     70  C   UNL A   1      41.988  33.523  36.778  1.00  0.00     0.022 A 
BRANCH  67  71
ATOM     71  S   UNL A   1      39.484  32.691  37.683  1.00  0.00     0.124 S 
ATOM     72  O   UNL A   1      39.025  34.009  37.247  1.00  0.00    -0.237 OA
ATOM     73  O   UNL A   1      38.698  31.554  37.217  1.00  0.00    -0.237 OA
ATOM     74  O   UNL A   1      39.920  32.622  39.076  1.00  0.00    -0.744 OA
ENDBRANCH  67  71
ENDBRANCH  50  64
BRANCH  51  75
ATOM     75  C   UNL A   1      42.288  24.732  27.465  1.00  0.00     0.023 A 
ATOM     76  C   UNL A   1      41.598  23.513  27.558  1.00  0.00     0.031 A 
ATOM     77  C   UNL A   1      43.051  24.974  26.310  1.00  0.00     0.131 A 
ATOM     78  C   UNL A   1      41.715  22.564  26.530  1.00  0.00     0.055 A 
ATOM     79  C   UNL A   1      43.131  24.045  25.271  1.00  0.00     0.041 A 
ATOM     80  F   UNL A   1      43.729  26.126  26.174  1.00  0.00    -0.206 F 
ATOM     81  C   UNL A   1      42.467  22.827  25.383  1.00  0.00     0.022 A 
BRANCH  78  82
ATOM     82  S   UNL A   1      40.908  20.953  26.739  1.00  0.00     0.124 S 
ATOM     83  O   UNL A   1      41.899  20.048  26.170  1.00  0.00    -0.237 OA
ATOM     84  O   UNL A   1      40.734  20.886  28.187  1.00  0.00    -0.237 OA
ATOM     85  O   UNL A   1      39.671  21.089  25.973  1.00  0.00    -0.744 OA
ENDBRANCH  78  82
ENDBRANCH  51  75
BRANCH  63  86
ATOM     86  C   UNL A   1      46.470  25.839  32.930  1.00  0.00     0.023 A 
ATOM     87  C   UNL A   1      47.750  26.080  32.400  1.00  0.00     0.031 A 
ATOM     88  C   UNL A   1      46.348  24.866  33.939  1.00  0.00     0.131 A 
ATOM     89  C   UNL A   1      48.844  25.315  32.835  1.00  0.00     0.055 A 
ATOM     90  C   UNL A   1      47.449  24.151  34.412  1.00  0.00     0.041 A 
ATOM     91  F   UNL A   1      45.150  24.591  34.482  1.00  0.00    -0.206 F 
ATOM     92  C   UNL A   1      48.703  24.362  33.848  1.00  0.00     0.022 A 
BRANCH  89  93
ATOM     93  S   UNL A   1      50.435  25.499  31.981  1.00  0.00     0.124 S 
ATOM     94  O   UNL A   1      50.110  26.464  30.936  1.00  0.00    -0.237 OA
ATOM     95  O   UNL A   1      51.305  25.981  33.048  1.00  0.00    -0.237 OA
ATOM     96  O   UNL A   1      50.728  24.148  31.507  1.00  0.00    -0.744 OA
ENDBRANCH  89  93
ENDBRANCH  63  86
ENDBRANCH  37  38
ENDBRANCH  30  32
ENDBRANCH  29  30
ENDBRANCH  28  29
ENDBRANCH  27  28
ENDBRANCH  26  27
ENDBRANCH   1  26
TORSDOF 21
ENDMDL
