MODEL 1
REMARK VINA RESULT:     -10.0      0.000      0.000
REMARK SMILES C[NH+](C)CCc1nc(Nc2ccc(O)c(C(=O)OCCOCCOCCOC(=O)c3ccc(-c4c5nc(c(-c6cc(S(=O)(=O)[O-])ccc6F)c6ccc([nH]6)c(-c6cc(S(=O)(=O)[O-])ccc6F)c6nc(c(-c7cc(S(=O)(=O)[O-])ccc7F)c7ccc4[nH]7)C=C6)C=C5)cc3)c2)c2ccccc2n1
REMARK SMILES IDX 22 1 21 2 20 3 19 4 18 5 16 6 17 7 15 8 10 9 11 10 93 11
REMARK SMILES IDX 12 12 13 13 9 14 8 16 6 17 7 18 100 19 99 20 94 21 98 22
REMARK SMILES IDX 95 23 97 24 96 25 5 26 4 27 2 28 1 29 3 30 14 32 23 34 24 35
REMARK SMILES IDX 25 36 26 37 27 38 28 39 29 40 30 41 31 42 92 43 32 44 91 45
REMARK SMILES IDX 33 46 34 47 35 48 85 49 36 50 90 51 84 52 86 53 37 54 89 55
REMARK SMILES IDX 83 56 82 57 38 59 70 60 50 61 69 62 51 63 54 64 68 65 87 66
REMARK SMILES IDX 52 67 53 68 67 70 88 71 55 72 39 73 40 74 48 75 41 76 47 77
REMARK SMILES IDX 49 78 46 79 42 80 43 81 44 82 45 83 71 84 72 85 80 86 73 87
REMARK SMILES IDX 79 88 81 89 78 90 74 91 75 92 76 93 77 94 56 95 57 96 65 97
REMARK SMILES IDX 58 98 64 99 66 100 63 101 59 102 60 103 61 104 62 105
REMARK H PARENT 9 15 2 31 14 33 86 58 54 69
REMARK Flexibility Score: inf
ROOT
ATOM      1  C   UNL A   1      40.329  21.124  26.423  1.00  0.00     0.188 C 
ENDROOT
BRANCH   1   2
ATOM      2  O   UNL A   1      40.072  22.177  27.329  1.00  0.00    -0.376 OA
BRANCH   2   3
ATOM      3  C   UNL A   1      39.755  23.474  26.849  1.00  0.00     0.202 C 
BRANCH   3   4
ATOM      4  C   UNL A   1      38.318  23.944  26.580  1.00  0.00     0.261 C 
BRANCH   4   5
ATOM      5  O   UNL A   1      37.738  23.447  25.372  1.00  0.00    -0.460 OA
BRANCH   5   6
ATOM      6  C   UNL A   1      36.744  22.536  25.527  1.00  0.00     0.342 C 
ATOM      7  O   UNL A   1      36.887  21.337  25.720  1.00  0.00    -0.246 OA
BRANCH   6   8
ATOM      8  C   UNL A   1      35.427  23.205  25.663  1.00  0.00     0.103 A 
ATOM      9  C   UNL A   1      34.038  25.108  25.021  1.00  0.00     0.041 A 
ATOM     10  C   UNL A   1      33.081  24.691  25.955  1.00  0.00     0.030 A 
ATOM     11  C   UNL A   1      35.200  24.342  24.864  1.00  0.00     0.045 A 
ATOM     12  C   UNL A   1      33.274  23.530  26.715  1.00  0.00     0.049 A 
ATOM     13  C   UNL A   1      34.456  22.799  26.582  1.00  0.00     0.130 A 
BRANCH   9  14
ATOM     14  N   UNL A   1      33.935  26.375  24.404  1.00  0.00    -0.340 N 
ATOM     15  H   UNL A   1      34.408  26.513  23.552  1.00  0.00     0.168 HD
BRANCH  14  16
ATOM     16  C   UNL A   1      33.189  27.469  24.937  1.00  0.00     0.142 A 
ATOM     17  C   UNL A   1      33.061  29.197  26.461  1.00  0.00     0.137 A 
ATOM     18  N   UNL A   1      33.640  28.057  26.067  1.00  0.00    -0.215 NA
ATOM     19  N   UNL A   1      31.988  29.734  25.861  1.00  0.00    -0.233 NA
ATOM     20  C   UNL A   1      31.503  29.122  24.777  1.00  0.00     0.076 A 
ATOM     21  C   UNL A   1      32.062  27.952  24.246  1.00  0.00     0.043 A 
ATOM     22  C   UNL A   1      30.421  29.704  24.128  1.00  0.00     0.029 A 
ATOM     23  C   UNL A   1      31.494  27.384  23.074  1.00  0.00     0.014 A 
ATOM     24  C   UNL A   1      29.878  29.158  22.962  1.00  0.00     0.002 A 
ATOM     25  C   UNL A   1      30.413  27.991  22.437  1.00  0.00     0.001 A 
BRANCH  17  26
ATOM     26  C   UNL A   1      33.688  30.046  27.542  1.00  0.00     0.138 C 
BRANCH  26  27
ATOM     27  C   UNL A   1      34.034  31.520  27.260  1.00  0.00     0.269 C 
BRANCH  27  28
ATOM     28  N   UNL A   1      34.426  32.437  28.347  1.00  0.00    -0.339 N 
ATOM     29  C   UNL A   1      35.866  32.590  28.425  1.00  0.00     0.332 C 
ATOM     30  C   UNL A   1      33.808  33.755  28.302  1.00  0.00     0.332 C 
ATOM     31  H   UNL A   1      34.068  31.981  29.185  1.00  0.00     0.347 HD
ENDBRANCH  27  28
ENDBRANCH  26  27
ENDBRANCH  17  26
ENDBRANCH  14  16
ENDBRANCH   9  14
BRANCH  13  32
ATOM     32  O   UNL A   1      34.676  21.724  27.397  1.00  0.00    -0.507 OA
ATOM     33  H   UNL A   1      35.185  21.000  27.090  1.00  0.00     0.293 HD
ENDBRANCH  13  32
ENDBRANCH   6   8
ENDBRANCH   5   6
ENDBRANCH   4   5
ENDBRANCH   3   4
ENDBRANCH   2   3
ENDBRANCH   1   2
BRANCH   1  34
ATOM     34  C   UNL A   1      41.734  20.481  26.370  1.00  0.00     0.188 C 
BRANCH  34  35
ATOM     35  O   UNL A   1      41.918  19.191  25.835  1.00  0.00    -0.376 OA
BRANCH  35  36
ATOM     36  C   UNL A   1      43.075  18.450  26.171  1.00  0.00     0.202 C 
BRANCH  36  37
ATOM     37  C   UNL A   1      44.285  18.275  25.237  1.00  0.00     0.261 C 
BRANCH  37  38
ATOM     38  O   UNL A   1      45.208  19.366  25.141  1.00  0.00    -0.460 OA
BRANCH  38  39
ATOM     39  C   UNL A   1      44.896  20.311  24.220  1.00  0.00     0.338 C 
ATOM     40  O   UNL A   1      44.523  20.121  23.068  1.00  0.00    -0.246 OA
BRANCH  39  41
ATOM     41  C   UNL A   1      44.885  21.636  24.867  1.00  0.00     0.060 A 
ATOM     42  C   UNL A   1      44.547  22.769  24.110  1.00  0.00     0.016 A 
ATOM     43  C   UNL A   1      45.243  21.762  26.207  1.00  0.00     0.016 A 
ATOM     44  C   UNL A   1      44.580  24.036  24.691  1.00  0.00     0.010 A 
ATOM     45  C   UNL A   1      45.303  23.034  26.780  1.00  0.00     0.010 A 
ATOM     46  C   UNL A   1      44.997  24.179  26.019  1.00  0.00    -0.014 A 
BRANCH  46  47
ATOM     47  C   UNL A   1      45.309  25.521  26.572  1.00  0.00     0.031 A 
ATOM     48  C   UNL A   1      44.176  26.340  27.126  1.00  0.00     0.074 A 
ATOM     49  C   UNL A   1      46.560  26.013  26.564  1.00  0.00     0.049 A 
ATOM     50  N   UNL A   1      44.163  27.587  27.515  1.00  0.00    -0.248 NA
ATOM     51  C   UNL A   1      42.879  25.655  27.242  1.00  0.00     0.031 C 
ATOM     52  C   UNL A   1      47.749  25.293  26.112  1.00  0.00     0.029 A 
ATOM     53  N   UNL A   1      47.034  27.252  26.924  1.00  0.00    -0.354 N 
ATOM     54  C   UNL A   1      42.853  27.845  27.907  1.00  0.00     0.074 A 
ATOM     55  C   UNL A   1      42.099  26.631  27.681  1.00  0.00     0.031 C 
ATOM     56  C   UNL A   1      48.812  26.112  26.198  1.00  0.00     0.029 A 
ATOM     57  C   UNL A   1      48.371  27.430  26.656  1.00  0.00     0.049 A 
ATOM     58  H   UNL A   1      46.468  27.945  27.334  1.00  0.00     0.167 HD
ATOM     59  C   UNL A   1      42.331  28.992  28.406  1.00  0.00     0.034 A 
ATOM     60  C   UNL A   1      49.136  28.540  26.727  1.00  0.00     0.034 A 
ATOM     61  C   UNL A   1      43.095  30.198  28.607  1.00  0.00     0.049 A 
ATOM     62  C   UNL A   1      48.509  29.839  27.184  1.00  0.00     0.074 A 
ATOM     63  C   UNL A   1      42.668  31.413  29.115  1.00  0.00     0.029 A 
ATOM     64  N   UNL A   1      44.440  30.350  28.292  1.00  0.00    -0.354 N 
ATOM     65  N   UNL A   1      47.269  30.077  27.548  1.00  0.00    -0.248 NA
ATOM     66  C   UNL A   1      49.385  31.017  27.245  1.00  0.00     0.031 C 
ATOM     67  C   UNL A   1      43.728  32.320  29.029  1.00  0.00     0.029 A 
ATOM     68  C   UNL A   1      44.846  31.647  28.564  1.00  0.00     0.049 A 
ATOM     69  H   UNL A   1      45.017  29.642  27.929  1.00  0.00     0.167 HD
ATOM     70  C   UNL A   1      47.232  31.420  27.923  1.00  0.00     0.074 A 
ATOM     71  C   UNL A   1      48.571  31.937  27.743  1.00  0.00     0.031 C 
ATOM     72  C   UNL A   1      46.189  32.153  28.388  1.00  0.00     0.034 A 
BRANCH  59  73
ATOM     73  C   UNL A   1      40.852  29.009  28.710  1.00  0.00     0.023 A 
ATOM     74  C   UNL A   1      40.364  28.951  30.027  1.00  0.00     0.031 A 
ATOM     75  C   UNL A   1      39.915  29.061  27.663  1.00  0.00     0.131 A 
ATOM     76  C   UNL A   1      38.982  28.876  30.259  1.00  0.00     0.055 A 
ATOM     77  C   UNL A   1      38.540  29.073  27.904  1.00  0.00     0.041 A 
ATOM     78  F   UNL A   1      40.320  29.089  26.384  1.00  0.00    -0.206 F 
ATOM     79  C   UNL A   1      38.066  28.966  29.208  1.00  0.00     0.022 A 
BRANCH  76  80
ATOM     80  S   UNL A   1      38.406  28.511  31.939  1.00  0.00     0.124 S 
ATOM     81  O   UNL A   1      37.045  29.041  31.904  1.00  0.00    -0.237 OA
ATOM     82  O   UNL A   1      38.523  27.060  32.004  1.00  0.00    -0.237 OA
ATOM     83  O   UNL A   1      39.334  29.253  32.789  1.00  0.00    -0.744 OA
ENDBRANCH  76  80
ENDBRANCH  59  73
BRANCH  60  84
ATOM     84  C   UNL A   1      50.569  28.501  26.311  1.00  0.00     0.023 A 
ATOM     85  C   UNL A   1      50.941  28.700  24.972  1.00  0.00     0.031 A 
ATOM     86  C   UNL A   1      51.585  28.197  27.237  1.00  0.00     0.131 A 
ATOM     87  C   UNL A   1      52.281  28.540  24.585  1.00  0.00     0.055 A 
ATOM     88  C   UNL A   1      52.926  28.104  26.858  1.00  0.00     0.041 A 
ATOM     89  F   UNL A   1      51.287  27.989  28.529  1.00  0.00    -0.206 F 
ATOM     90  C   UNL A   1      53.279  28.261  25.521  1.00  0.00     0.022 A 
BRANCH  87  91
ATOM     91  S   UNL A   1      52.684  28.597  22.818  1.00  0.00     0.124 S 
ATOM     92  O   UNL A   1      53.210  27.255  22.593  1.00  0.00    -0.237 OA
ATOM     93  O   UNL A   1      51.385  28.885  22.220  1.00  0.00    -0.237 OA
ATOM     94  O   UNL A   1      53.665  29.677  22.727  1.00  0.00    -0.744 OA
ENDBRANCH  87  91
ENDBRANCH  60  84
BRANCH  72  95
ATOM     95  C   UNL A   1      46.465  33.574  28.822  1.00  0.00     0.023 A 
ATOM     96  C   UNL A   1      46.192  34.680  27.998  1.00  0.00     0.031 A 
ATOM     97  C   UNL A   1      46.992  33.820  30.104  1.00  0.00     0.131 A 
ATOM     98  C   UNL A   1      46.487  35.977  28.450  1.00  0.00     0.055 A 
ATOM     99  C   UNL A   1      47.222  35.115  30.571  1.00  0.00     0.041 A 
ATOM    100  F   UNL A   1      47.277  32.802  30.932  1.00  0.00    -0.206 F 
ATOM    101  C   UNL A   1      46.979  36.201  29.738  1.00  0.00     0.022 A 
BRANCH  98 102
ATOM    102  S   UNL A   1      46.294  37.368  27.302  1.00  0.00     0.124 S 
ATOM    103  O   UNL A   1      44.844  37.511  27.239  1.00  0.00    -0.237 OA
ATOM    104  O   UNL A   1      47.011  38.440  27.985  1.00  0.00    -0.237 OA
ATOM    105  O   UNL A   1      46.923  36.888  26.072  1.00  0.00    -0.744 OA
ENDBRANCH  98 102
ENDBRANCH  72  95
ENDBRANCH  46  47
ENDBRANCH  39  41
ENDBRANCH  38  39
ENDBRANCH  37  38
ENDBRANCH  36  37
ENDBRANCH  35  36
ENDBRANCH  34  35
ENDBRANCH   1  34
TORSDOF 26
ENDMDL
MODEL 2
REMARK VINA RESULT:      -9.9      5.741      9.263
REMARK SMILES C[NH+](C)CCc1nc(Nc2ccc(O)c(C(=O)OCCOCCOCCOC(=O)c3ccc(-c4c5nc(c(-c6cc(S(=O)(=O)[O-])ccc6F)c6ccc([nH]6)c(-c6cc(S(=O)(=O)[O-])ccc6F)c6nc(c(-c7cc(S(=O)(=O)[O-])ccc7F)c7ccc4[nH]7)C=C6)C=C5)cc3)c2)c2ccccc2n1
REMARK SMILES IDX 22 1 21 2 20 3 19 4 18 5 16 6 17 7 15 8 10 9 11 10 93 11
REMARK SMILES IDX 12 12 13 13 9 14 8 16 6 17 7 18 100 19 99 20 94 21 98 22
REMARK SMILES IDX 95 23 97 24 96 25 5 26 4 27 2 28 1 29 3 30 14 32 23 34 24 35
REMARK SMILES IDX 25 36 26 37 27 38 28 39 29 40 30 41 31 42 92 43 32 44 91 45
REMARK SMILES IDX 33 46 34 47 35 48 85 49 36 50 90 51 84 52 86 53 37 54 89 55
REMARK SMILES IDX 83 56 82 57 38 59 70 60 50 61 69 62 51 63 54 64 68 65 87 66
REMARK SMILES IDX 52 67 53 68 67 70 88 71 55 72 39 73 40 74 48 75 41 76 47 77
REMARK SMILES IDX 49 78 46 79 42 80 43 81 44 82 45 83 71 84 72 85 80 86 73 87
REMARK SMILES IDX 79 88 81 89 78 90 74 91 75 92 76 93 77 94 56 95 57 96 65 97
REMARK SMILES IDX 58 98 64 99 66 100 63 101 59 102 60 103 61 104 62 105
REMARK H PARENT 9 15 2 31 14 33 86 58 54 69
REMARK Flexibility Score: inf
ROOT
ATOM      1  C   UNL A   1      33.626  26.922  26.104  1.00  0.00     0.188 C 
ENDROOT
BRANCH   1   2
ATOM      2  O   UNL A   1      33.777  25.517  26.097  1.00  0.00    -0.376 OA
BRANCH   2   3
ATOM      3  C   UNL A   1      34.670  24.897  25.186  1.00  0.00     0.202 C 
BRANCH   3   4
ATOM      4  C   UNL A   1      35.885  24.068  25.628  1.00  0.00     0.261 C 
BRANCH   4   5
ATOM      5  O   UNL A   1      36.392  23.168  24.641  1.00  0.00    -0.460 OA
BRANCH   5   6
ATOM      6  C   UNL A   1      36.643  21.904  25.068  1.00  0.00     0.342 C 
ATOM      7  O   UNL A   1      37.542  21.563  25.822  1.00  0.00    -0.246 OA
BRANCH   6   8
ATOM      8  C   UNL A   1      35.542  20.987  24.687  1.00  0.00     0.103 A 
ATOM      9  C   UNL A   1      33.212  20.789  23.981  1.00  0.00     0.041 A 
ATOM     10  C   UNL A   1      33.312  19.401  24.130  1.00  0.00     0.030 A 
ATOM     11  C   UNL A   1      34.343  21.575  24.238  1.00  0.00     0.045 A 
ATOM     12  C   UNL A   1      34.517  18.803  24.523  1.00  0.00     0.049 A 
ATOM     13  C   UNL A   1      35.625  19.598  24.820  1.00  0.00     0.130 A 
BRANCH   9  14
ATOM     14  N   UNL A   1      31.955  21.402  23.781  1.00  0.00    -0.340 N 
ATOM     15  H   UNL A   1      31.190  20.824  23.559  1.00  0.00     0.168 HD
BRANCH  14  16
ATOM     16  C   UNL A   1      31.723  22.808  23.879  1.00  0.00     0.142 A 
ATOM     17  C   UNL A   1      31.790  24.881  22.869  1.00  0.00     0.137 A 
ATOM     18  N   UNL A   1      32.171  23.599  22.880  1.00  0.00    -0.215 NA
ATOM     19  N   UNL A   1      31.077  25.455  23.850  1.00  0.00    -0.233 NA
ATOM     20  C   UNL A   1      30.682  24.687  24.870  1.00  0.00     0.076 A 
ATOM     21  C   UNL A   1      30.980  23.321  24.958  1.00  0.00     0.043 A 
ATOM     22  C   UNL A   1      29.904  25.270  25.862  1.00  0.00     0.029 A 
ATOM     23  C   UNL A   1      30.496  22.578  26.069  1.00  0.00     0.014 A 
ATOM     24  C   UNL A   1      29.409  24.534  26.941  1.00  0.00     0.002 A 
ATOM     25  C   UNL A   1      29.711  23.185  27.048  1.00  0.00     0.001 A 
BRANCH  17  26
ATOM     26  C   UNL A   1      32.018  25.743  21.650  1.00  0.00     0.138 C 
BRANCH  26  27
ATOM     27  C   UNL A   1      32.887  27.011  21.753  1.00  0.00     0.269 C 
BRANCH  27  28
ATOM     28  N   UNL A   1      32.683  27.994  22.832  1.00  0.00    -0.339 N 
ATOM     29  C   UNL A   1      33.854  28.829  23.024  1.00  0.00     0.332 C 
ATOM     30  C   UNL A   1      31.510  28.844  22.687  1.00  0.00     0.332 C 
ATOM     31  H   UNL A   1      32.518  27.415  23.655  1.00  0.00     0.347 HD
ENDBRANCH  27  28
ENDBRANCH  26  27
ENDBRANCH  17  26
ENDBRANCH  14  16
ENDBRANCH   9  14
BRANCH  13  32
ATOM     32  O   UNL A   1      36.764  19.012  25.295  1.00  0.00    -0.507 OA
ATOM     33  H   UNL A   1      36.709  18.254  25.843  1.00  0.00     0.293 HD
ENDBRANCH  13  32
ENDBRANCH   6   8
ENDBRANCH   5   6
ENDBRANCH   4   5
ENDBRANCH   3   4
ENDBRANCH   2   3
ENDBRANCH   1   2
BRANCH   1  34
ATOM     34  C   UNL A   1      32.417  27.561  26.823  1.00  0.00     0.188 C 
BRANCH  34  35
ATOM     35  O   UNL A   1      31.539  28.421  26.133  1.00  0.00    -0.376 OA
BRANCH  35  36
ATOM     36  C   UNL A   1      31.740  29.820  26.187  1.00  0.00     0.202 C 
BRANCH  36  37
ATOM     37  C   UNL A   1      33.111  30.484  26.400  1.00  0.00     0.261 C 
BRANCH  37  38
ATOM     38  O   UNL A   1      33.347  31.121  27.661  1.00  0.00    -0.460 OA
BRANCH  38  39
ATOM     39  C   UNL A   1      34.495  31.839  27.743  1.00  0.00     0.338 C 
ATOM     40  O   UNL A   1      34.609  33.056  27.658  1.00  0.00    -0.246 OA
BRANCH  39  41
ATOM     41  C   UNL A   1      35.598  30.948  28.147  1.00  0.00     0.060 A 
ATOM     42  C   UNL A   1      35.404  30.051  29.208  1.00  0.00     0.016 A 
ATOM     43  C   UNL A   1      36.832  31.027  27.503  1.00  0.00     0.016 A 
ATOM     44  C   UNL A   1      36.452  29.236  29.638  1.00  0.00     0.010 A 
ATOM     45  C   UNL A   1      37.887  30.230  27.953  1.00  0.00     0.010 A 
ATOM     46  C   UNL A   1      37.711  29.350  29.038  1.00  0.00    -0.014 A 
BRANCH  46  47
ATOM     47  C   UNL A   1      38.900  28.709  29.651  1.00  0.00     0.031 A 
ATOM     48  C   UNL A   1      39.401  29.250  30.962  1.00  0.00     0.074 A 
ATOM     49  C   UNL A   1      39.538  27.687  29.052  1.00  0.00     0.049 A 
ATOM     50  N   UNL A   1      40.499  28.970  31.613  1.00  0.00    -0.248 NA
ATOM     51  C   UNL A   1      38.546  30.253  31.617  1.00  0.00     0.031 C 
ATOM     52  C   UNL A   1      39.113  27.036  27.814  1.00  0.00     0.029 A 
ATOM     53  N   UNL A   1      40.697  27.036  29.395  1.00  0.00    -0.354 N 
ATOM     54  C   UNL A   1      40.479  29.776  32.747  1.00  0.00     0.074 A 
ATOM     55  C   UNL A   1      39.272  30.571  32.678  1.00  0.00     0.031 C 
ATOM     56  C   UNL A   1      40.016  26.094  27.487  1.00  0.00     0.029 A 
ATOM     57  C   UNL A   1      41.109  26.115  28.460  1.00  0.00     0.049 A 
ATOM     58  H   UNL A   1      41.187  27.213  30.230  1.00  0.00     0.167 HD
ATOM     59  C   UNL A   1      41.386  29.844  33.751  1.00  0.00     0.034 A 
ATOM     60  C   UNL A   1      42.255  25.407  28.376  1.00  0.00     0.034 A 
ATOM     61  C   UNL A   1      42.593  29.056  33.794  1.00  0.00     0.049 A 
ATOM     62  C   UNL A   1      43.307  25.577  29.451  1.00  0.00     0.074 A 
ATOM     63  C   UNL A   1      43.576  29.039  34.768  1.00  0.00     0.029 A 
ATOM     64  N   UNL A   1      42.993  28.158  32.812  1.00  0.00    -0.354 N 
ATOM     65  N   UNL A   1      43.283  26.344  30.518  1.00  0.00    -0.248 NA
ATOM     66  C   UNL A   1      44.536  24.784  29.314  1.00  0.00     0.031 C 
ATOM     67  C   UNL A   1      44.606  28.198  34.336  1.00  0.00     0.029 A 
ATOM     68  C   UNL A   1      44.222  27.610  33.142  1.00  0.00     0.049 A 
ATOM     69  H   UNL A   1      42.478  27.943  32.001  1.00  0.00     0.167 HD
ATOM     70  C   UNL A   1      44.473  26.088  31.199  1.00  0.00     0.074 A 
ATOM     71  C   UNL A   1      45.188  25.098  30.424  1.00  0.00     0.031 C 
ATOM     72  C   UNL A   1      44.925  26.614  32.366  1.00  0.00     0.034 A 
BRANCH  59  73
ATOM     73  C   UNL A   1      41.135  30.848  34.850  1.00  0.00     0.023 A 
ATOM     74  C   UNL A   1      39.990  30.787  35.664  1.00  0.00     0.031 A 
ATOM     75  C   UNL A   1      42.044  31.897  35.072  1.00  0.00     0.131 A 
ATOM     76  C   UNL A   1      39.751  31.793  36.612  1.00  0.00     0.055 A 
ATOM     77  C   UNL A   1      41.844  32.847  36.075  1.00  0.00     0.041 A 
ATOM     78  F   UNL A   1      43.141  32.024  34.309  1.00  0.00    -0.206 F 
ATOM     79  C   UNL A   1      40.684  32.807  36.842  1.00  0.00     0.022 A 
BRANCH  76  80
ATOM     80  S   UNL A   1      38.136  31.841  37.434  1.00  0.00     0.124 S 
ATOM     81  O   UNL A   1      37.706  30.450  37.320  1.00  0.00    -0.237 OA
ATOM     82  O   UNL A   1      38.479  32.295  38.776  1.00  0.00    -0.237 OA
ATOM     83  O   UNL A   1      37.369  32.790  36.629  1.00  0.00    -0.744 OA
ENDBRANCH  76  80
ENDBRANCH  59  73
BRANCH  60  84
ATOM     84  C   UNL A   1      42.508  24.507  27.212  1.00  0.00     0.023 A 
ATOM     85  C   UNL A   1      42.072  23.173  27.219  1.00  0.00     0.031 A 
ATOM     86  C   UNL A   1      43.251  24.949  26.102  1.00  0.00     0.131 A 
ATOM     87  C   UNL A   1      42.426  22.314  26.167  1.00  0.00     0.055 A 
ATOM     88  C   UNL A   1      43.545  24.108  25.026  1.00  0.00     0.041 A 
ATOM     89  F   UNL A   1      43.702  26.212  26.045  1.00  0.00    -0.206 F 
ATOM     90  C   UNL A   1      43.143  22.776  25.062  1.00  0.00     0.022 A 
BRANCH  87  91
ATOM     91  S   UNL A   1      42.023  20.552  26.315  1.00  0.00     0.124 S 
ATOM     92  O   UNL A   1      42.923  19.961  25.331  1.00  0.00    -0.237 OA
ATOM     93  O   UNL A   1      42.340  20.286  27.714  1.00  0.00    -0.237 OA
ATOM     94  O   UNL A   1      40.602  20.497  25.977  1.00  0.00    -0.744 OA
ENDBRANCH  87  91
ENDBRANCH  60  84
BRANCH  72  95
ATOM     95  C   UNL A   1      46.217  26.068  32.930  1.00  0.00     0.023 A 
ATOM     96  C   UNL A   1      46.256  24.934  33.760  1.00  0.00     0.031 A 
ATOM     97  C   UNL A   1      47.437  26.689  32.603  1.00  0.00     0.131 A 
ATOM     98  C   UNL A   1      47.486  24.483  34.268  1.00  0.00     0.055 A 
ATOM     99  C   UNL A   1      48.660  26.197  33.058  1.00  0.00     0.041 A 
ATOM    100  F   UNL A   1      47.459  27.778  31.818  1.00  0.00    -0.206 F 
ATOM    101  C   UNL A   1      48.688  25.094  33.904  1.00  0.00     0.022 A 
BRANCH  98 102
ATOM    102  S   UNL A   1      47.490  23.131  35.478  1.00  0.00     0.124 S 
ATOM    103  O   UNL A   1      48.471  22.216  34.906  1.00  0.00    -0.237 OA
ATOM    104  O   UNL A   1      47.891  23.811  36.705  1.00  0.00    -0.237 OA
ATOM    105  O   UNL A   1      46.109  22.650  35.460  1.00  0.00    -0.744 OA
ENDBRANCH  98 102
ENDBRANCH  72  95
ENDBRANCH  46  47
ENDBRANCH  39  41
ENDBRANCH  38  39
ENDBRANCH  37  38
ENDBRANCH  36  37
ENDBRANCH  35  36
ENDBRANCH  34  35
ENDBRANCH   1  34
TORSDOF 26
ENDMDL
MODEL 3
REMARK VINA RESULT:      -9.5      4.888      9.219
REMARK SMILES C[NH+](C)CCc1nc(Nc2ccc(O)c(C(=O)OCCOCCOCCOC(=O)c3ccc(-c4c5nc(c(-c6cc(S(=O)(=O)[O-])ccc6F)c6ccc([nH]6)c(-c6cc(S(=O)(=O)[O-])ccc6F)c6nc(c(-c7cc(S(=O)(=O)[O-])ccc7F)c7ccc4[nH]7)C=C6)C=C5)cc3)c2)c2ccccc2n1
REMARK SMILES IDX 22 1 21 2 20 3 19 4 18 5 16 6 17 7 15 8 10 9 11 10 93 11
REMARK SMILES IDX 12 12 13 13 9 14 8 16 6 17 7 18 100 19 99 20 94 21 98 22
REMARK SMILES IDX 95 23 97 24 96 25 5 26 4 27 2 28 1 29 3 30 14 32 23 34 24 35
REMARK SMILES IDX 25 36 26 37 27 38 28 39 29 40 30 41 31 42 92 43 32 44 91 45
REMARK SMILES IDX 33 46 34 47 35 48 85 49 36 50 90 51 84 52 86 53 37 54 89 55
REMARK SMILES IDX 83 56 82 57 38 59 70 60 50 61 69 62 51 63 54 64 68 65 87 66
REMARK SMILES IDX 52 67 53 68 67 70 88 71 55 72 39 73 40 74 48 75 41 76 47 77
REMARK SMILES IDX 49 78 46 79 42 80 43 81 44 82 45 83 71 84 72 85 80 86 73 87
REMARK SMILES IDX 79 88 81 89 78 90 74 91 75 92 76 93 77 94 56 95 57 96 65 97
REMARK SMILES IDX 58 98 64 99 66 100 63 101 59 102 60 103 61 104 62 105
REMARK H PARENT 9 15 2 31 14 33 86 58 54 69
REMARK Flexibility Score: inf
ROOT
ATOM      1  C   UNL A   1      33.382  27.445  25.807  1.00  0.00     0.188 C 
ENDROOT
BRANCH   1   2
ATOM      2  O   UNL A   1      33.600  26.051  25.757  1.00  0.00    -0.376 OA
BRANCH   2   3
ATOM      3  C   UNL A   1      34.886  25.536  25.452  1.00  0.00     0.202 C 
BRANCH   3   4
ATOM      4  C   UNL A   1      35.344  24.123  25.843  1.00  0.00     0.261 C 
BRANCH   4   5
ATOM      5  O   UNL A   1      36.023  23.403  24.812  1.00  0.00    -0.460 OA
BRANCH   5   6
ATOM      6  C   UNL A   1      35.923  22.051  24.874  1.00  0.00     0.342 C 
ATOM      7  O   UNL A   1      36.658  21.301  25.501  1.00  0.00    -0.246 OA
BRANCH   6   8
ATOM      8  C   UNL A   1      34.657  21.583  24.261  1.00  0.00     0.103 A 
ATOM      9  C   UNL A   1      32.664  22.200  22.991  1.00  0.00     0.041 A 
ATOM     10  C   UNL A   1      32.156  20.915  23.215  1.00  0.00     0.030 A 
ATOM     11  C   UNL A   1      33.930  22.518  23.497  1.00  0.00     0.045 A 
ATOM     12  C   UNL A   1      32.895  19.961  23.926  1.00  0.00     0.049 A 
ATOM     13  C   UNL A   1      34.137  20.302  24.466  1.00  0.00     0.130 A 
BRANCH   9  14
ATOM     14  N   UNL A   1      31.842  23.214  22.451  1.00  0.00    -0.340 N 
ATOM     15  H   UNL A   1      31.558  23.127  21.512  1.00  0.00     0.168 HD
BRANCH  14  16
ATOM     16  C   UNL A   1      31.395  24.357  23.180  1.00  0.00     0.142 A 
ATOM     17  C   UNL A   1      30.835  26.595  23.165  1.00  0.00     0.137 A 
ATOM     18  N   UNL A   1      31.429  25.559  22.564  1.00  0.00    -0.215 NA
ATOM     19  N   UNL A   1      30.300  26.537  24.395  1.00  0.00    -0.233 NA
ATOM     20  C   UNL A   1      30.317  25.362  25.031  1.00  0.00     0.076 A 
ATOM     21  C   UNL A   1      30.867  24.200  24.475  1.00  0.00     0.043 A 
ATOM     22  C   UNL A   1      29.722  25.290  26.285  1.00  0.00     0.029 A 
ATOM     23  C   UNL A   1      30.819  22.988  25.216  1.00  0.00     0.014 A 
ATOM     24  C   UNL A   1      29.654  24.094  27.003  1.00  0.00     0.002 A 
ATOM     25  C   UNL A   1      30.209  22.940  26.469  1.00  0.00     0.001 A 
BRANCH  17  26
ATOM     26  C   UNL A   1      30.592  27.885  22.418  1.00  0.00     0.138 C 
BRANCH  26  27
ATOM     27  C   UNL A   1      29.257  28.634  22.586  1.00  0.00     0.269 C 
BRANCH  27  28
ATOM     28  N   UNL A   1      29.153  30.084  22.335  1.00  0.00    -0.339 N 
ATOM     29  C   UNL A   1      28.222  30.375  21.261  1.00  0.00     0.332 C 
ATOM     30  C   UNL A   1      28.812  30.894  23.495  1.00  0.00     0.332 C 
ATOM     31  H   UNL A   1      30.101  30.348  22.068  1.00  0.00     0.347 HD
ENDBRANCH  27  28
ENDBRANCH  26  27
ENDBRANCH  17  26
ENDBRANCH  14  16
ENDBRANCH   9  14
BRANCH  13  32
ATOM     32  O   UNL A   1      34.805  19.396  25.239  1.00  0.00    -0.507 OA
ATOM     33  H   UNL A   1      34.902  19.546  26.159  1.00  0.00     0.293 HD
ENDBRANCH  13  32
ENDBRANCH   6   8
ENDBRANCH   5   6
ENDBRANCH   4   5
ENDBRANCH   3   4
ENDBRANCH   2   3
ENDBRANCH   1   2
BRANCH   1  34
ATOM     34  C   UNL A   1      32.596  28.059  26.988  1.00  0.00     0.188 C 
BRANCH  34  35
ATOM     35  O   UNL A   1      32.338  29.443  27.043  1.00  0.00    -0.376 OA
BRANCH  35  36
ATOM     36  C   UNL A   1      33.416  30.359  27.036  1.00  0.00     0.202 C 
BRANCH  36  37
ATOM     37  C   UNL A   1      33.368  31.748  27.697  1.00  0.00     0.261 C 
BRANCH  37  38
ATOM     38  O   UNL A   1      34.618  32.373  28.009  1.00  0.00    -0.460 OA
BRANCH  38  39
ATOM     39  C   UNL A   1      34.980  32.326  29.316  1.00  0.00     0.338 C 
ATOM     40  O   UNL A   1      34.369  32.799  30.266  1.00  0.00    -0.246 OA
BRANCH  39  41
ATOM     41  C   UNL A   1      36.148  31.439  29.465  1.00  0.00     0.060 A 
ATOM     42  C   UNL A   1      36.027  30.261  30.219  1.00  0.00     0.016 A 
ATOM     43  C   UNL A   1      37.369  31.790  28.892  1.00  0.00     0.016 A 
ATOM     44  C   UNL A   1      37.134  29.436  30.413  1.00  0.00     0.010 A 
ATOM     45  C   UNL A   1      38.483  30.977  29.111  1.00  0.00     0.010 A 
ATOM     46  C   UNL A   1      38.379  29.811  29.894  1.00  0.00    -0.014 A 
BRANCH  46  47
ATOM     47  C   UNL A   1      39.616  29.108  30.316  1.00  0.00     0.031 A 
ATOM     48  C   UNL A   1      40.340  29.617  31.532  1.00  0.00     0.074 A 
ATOM     49  C   UNL A   1      40.101  28.060  29.627  1.00  0.00     0.049 A 
ATOM     50  N   UNL A   1      41.510  29.280  32.005  1.00  0.00    -0.248 NA
ATOM     51  C   UNL A   1      39.647  30.656  32.309  1.00  0.00     0.031 C 
ATOM     52  C   UNL A   1      39.458  27.438  28.471  1.00  0.00     0.029 A 
ATOM     53  N   UNL A   1      41.267  27.350  29.787  1.00  0.00    -0.354 N 
ATOM     54  C   UNL A   1      41.706  30.079  33.127  1.00  0.00     0.074 A 
ATOM     55  C   UNL A   1      40.544  30.933  33.244  1.00  0.00     0.031 C 
ATOM     56  C   UNL A   1      40.252  26.454  28.010  1.00  0.00     0.029 A 
ATOM     57  C   UNL A   1      41.482  26.415  28.802  1.00  0.00     0.049 A 
ATOM     58  H   UNL A   1      41.888  27.498  30.536  1.00  0.00     0.167 HD
ATOM     59  C   UNL A   1      42.761  30.097  33.978  1.00  0.00     0.034 A 
ATOM     60  C   UNL A   1      42.566  25.653  28.542  1.00  0.00     0.034 A 
ATOM     61  C   UNL A   1      43.919  29.250  33.834  1.00  0.00     0.049 A 
ATOM     62  C   UNL A   1      43.778  25.765  29.441  1.00  0.00     0.074 A 
ATOM     63  C   UNL A   1      45.039  29.179  34.645  1.00  0.00     0.029 A 
ATOM     64  N   UNL A   1      44.116  28.339  32.804  1.00  0.00    -0.354 N 
ATOM     65  N   UNL A   1      43.958  26.527  30.497  1.00  0.00    -0.248 NA
ATOM     66  C   UNL A   1      44.931  24.913  29.116  1.00  0.00     0.031 C 
ATOM     67  C   UNL A   1      45.947  28.292  34.059  1.00  0.00     0.029 A 
ATOM     68  C   UNL A   1      45.354  27.729  32.941  1.00  0.00     0.049 A 
ATOM     69  H   UNL A   1      43.472  28.155  32.084  1.00  0.00     0.167 HD
ATOM     70  C   UNL A   1      45.225  26.209  30.985  1.00  0.00     0.074 A 
ATOM     71  C   UNL A   1      45.762  25.189  30.111  1.00  0.00     0.031 C 
ATOM     72  C   UNL A   1      45.878  26.705  32.067  1.00  0.00     0.034 A 
BRANCH  59  73
ATOM     73  C   UNL A   1      42.732  31.105  35.101  1.00  0.00     0.023 A 
ATOM     74  C   UNL A   1      43.151  32.435  34.915  1.00  0.00     0.031 A 
ATOM     75  C   UNL A   1      42.301  30.725  36.384  1.00  0.00     0.131 A 
ATOM     76  C   UNL A   1      43.195  33.314  36.008  1.00  0.00     0.055 A 
ATOM     77  C   UNL A   1      42.266  31.627  37.448  1.00  0.00     0.041 A 
ATOM     78  F   UNL A   1      41.915  29.463  36.629  1.00  0.00    -0.206 F 
ATOM     79  C   UNL A   1      42.728  32.927  37.267  1.00  0.00     0.022 A 
BRANCH  76  80
ATOM     80  S   UNL A   1      44.009  34.920  35.795  1.00  0.00     0.124 S 
ATOM     81  O   UNL A   1      43.560  35.302  34.458  1.00  0.00    -0.237 OA
ATOM     82  O   UNL A   1      43.461  35.699  36.898  1.00  0.00    -0.237 OA
ATOM     83  O   UNL A   1      45.431  34.600  35.899  1.00  0.00    -0.744 OA
ENDBRANCH  76  80
ENDBRANCH  59  73
BRANCH  60  84
ATOM     84  C   UNL A   1      42.590  24.749  27.355  1.00  0.00     0.023 A 
ATOM     85  C   UNL A   1      42.083  23.442  27.428  1.00  0.00     0.031 A 
ATOM     86  C   UNL A   1      43.185  25.155  26.146  1.00  0.00     0.131 A 
ATOM     87  C   UNL A   1      42.226  22.571  26.337  1.00  0.00     0.055 A 
ATOM     88  C   UNL A   1      43.266  24.306  25.040  1.00  0.00     0.041 A 
ATOM     89  F   UNL A   1      43.694  26.390  26.021  1.00  0.00    -0.206 F 
ATOM     90  C   UNL A   1      42.798  22.999  25.137  1.00  0.00     0.022 A 
BRANCH  87  91
ATOM     91  S   UNL A   1      41.749  20.834  26.546  1.00  0.00     0.124 S 
ATOM     92  O   UNL A   1      42.422  20.206  25.415  1.00  0.00    -0.237 OA
ATOM     93  O   UNL A   1      42.291  20.528  27.866  1.00  0.00    -0.237 OA
ATOM     94  O   UNL A   1      40.290  20.870  26.465  1.00  0.00    -0.744 OA
ENDBRANCH  87  91
ENDBRANCH  60  84
BRANCH  72  95
ATOM     95  C   UNL A   1      47.213  26.093  32.425  1.00  0.00     0.023 A 
ATOM     96  C   UNL A   1      48.417  26.514  31.835  1.00  0.00     0.031 A 
ATOM     97  C   UNL A   1      47.275  25.080  33.401  1.00  0.00     0.131 A 
ATOM     98  C   UNL A   1      49.625  25.895  32.197  1.00  0.00     0.055 A 
ATOM     99  C   UNL A   1      48.485  24.516  33.802  1.00  0.00     0.041 A 
ATOM    100  F   UNL A   1      46.156  24.635  33.994  1.00  0.00    -0.206 F 
ATOM    101  C   UNL A   1      49.669  24.915  33.191  1.00  0.00     0.022 A 
BRANCH  98 102
ATOM    102  S   UNL A   1      51.137  26.331  31.292  1.00  0.00     0.124 S 
ATOM    103  O   UNL A   1      50.934  25.650  30.018  1.00  0.00    -0.237 OA
ATOM    104  O   UNL A   1      51.070  27.788  31.255  1.00  0.00    -0.237 OA
ATOM    105  O   UNL A   1      52.205  25.781  32.125  1.00  0.00    -0.744 OA
ENDBRANCH  98 102
ENDBRANCH  72  95
ENDBRANCH  46  47
ENDBRANCH  39  41
ENDBRANCH  38  39
ENDBRANCH  37  38
ENDBRANCH  36  37
ENDBRANCH  35  36
ENDBRANCH  34  35
ENDBRANCH   1  34
TORSDOF 26
ENDMDL
