MODEL 1
REMARK VINA RESULT:     -11.5      0.000      0.000
REMARK SMILES O=C(OCCOCCOCCOC(=O)c1c(C2CC2)nn(-c2ccc(Cl)c(F)c2)c1Cl)c1ccc(-c2c3nc(c(-c4cc(S(=O)(=O)[O-])ccc4F)c4ccc([nH]4)c(-c4cc(S(=O)(=O)[O-])ccc4F)c4nc(c(-c5cc(S(=O)(=O)[O-])ccc5F)c5ccc2[nH]5)C=C4)C=C3)cc1
REMARK SMILES IDX 7 1 6 2 5 3 4 4 3 5 2 6 1 7 32 8 33 9 94 10 34 11 93 12
REMARK SMILES IDX 35 13 36 14 37 15 87 16 38 17 92 18 86 19 88 20 39 21 91 22
REMARK SMILES IDX 85 23 84 24 40 26 72 27 52 28 71 29 53 30 56 31 70 32 89 33
REMARK SMILES IDX 54 34 55 35 69 37 90 38 57 39 41 40 42 41 50 42 43 43 49 44
REMARK SMILES IDX 51 45 48 46 44 47 45 48 46 49 47 50 73 51 74 52 82 53 75 54
REMARK SMILES IDX 81 55 83 56 80 57 76 58 77 59 78 60 79 61 58 62 59 63 67 64
REMARK SMILES IDX 60 65 66 66 68 67 65 68 61 69 62 70 63 71 64 72 8 73 9 74
REMARK SMILES IDX 10 75 11 76 12 77 13 78 14 79 15 80 16 81 30 82 20 83 21 84
REMARK SMILES IDX 31 85 17 86 18 87 19 88 22 89 23 90 29 91 24 92 27 93 25 94
REMARK SMILES IDX 28 95 26 96
REMARK H PARENT 88 25 56 36
REMARK Flexibility Score: inf
ROOT
ATOM      1  C   UNL A   1      31.334  29.113  24.993  1.00  0.00     0.188 C 
ENDROOT
BRANCH   1   2
ATOM      2  O   UNL A   1      32.727  29.393  24.883  1.00  0.00    -0.376 OA
BRANCH   2   3
ATOM      3  C   UNL A   1      33.462  29.666  26.069  1.00  0.00     0.202 C 
BRANCH   3   4
ATOM      4  C   UNL A   1      32.823  30.657  27.044  1.00  0.00     0.261 C 
BRANCH   4   5
ATOM      5  O   UNL A   1      33.772  31.654  27.464  1.00  0.00    -0.460 OA
BRANCH   5   6
ATOM      6  C   UNL A   1      34.663  31.708  28.475  1.00  0.00     0.338 C 
ATOM      7  O   UNL A   1      34.386  32.437  29.430  1.00  0.00    -0.246 OA
BRANCH   6   8
ATOM      8  C   UNL A   1      35.950  30.952  28.544  1.00  0.00     0.060 A 
ATOM      9  C   UNL A   1      36.146  29.607  28.239  1.00  0.00     0.016 A 
ATOM     10  C   UNL A   1      37.080  31.706  28.920  1.00  0.00     0.016 A 
ATOM     11  C   UNL A   1      37.384  29.000  28.467  1.00  0.00     0.010 A 
ATOM     12  C   UNL A   1      38.336  31.116  29.080  1.00  0.00     0.010 A 
ATOM     13  C   UNL A   1      38.480  29.740  28.924  1.00  0.00    -0.014 A 
BRANCH  13  14
ATOM     14  C   UNL A   1      39.720  29.016  29.230  1.00  0.00     0.031 A 
ATOM     15  C   UNL A   1      40.119  28.865  30.658  1.00  0.00     0.074 A 
ATOM     16  C   UNL A   1      40.527  28.429  28.321  1.00  0.00     0.049 A 
ATOM     17  N   UNL A   1      41.152  29.372  31.250  1.00  0.00    -0.248 NA
ATOM     18  C   UNL A   1      39.260  28.065  31.538  1.00  0.00     0.031 C 
ATOM     19  C   UNL A   1      40.264  28.170  26.906  1.00  0.00     0.029 A 
ATOM     20  N   UNL A   1      41.758  27.863  28.523  1.00  0.00    -0.354 N 
ATOM     21  C   UNL A   1      41.198  28.807  32.522  1.00  0.00     0.074 A 
ATOM     22  C   UNL A   1      39.955  28.092  32.679  1.00  0.00     0.031 C 
ATOM     23  C   UNL A   1      41.198  27.319  26.431  1.00  0.00     0.029 A 
ATOM     24  C   UNL A   1      42.202  27.097  27.459  1.00  0.00     0.049 A 
ATOM     25  H   UNL A   1      42.279  27.989  29.348  1.00  0.00     0.167 HD
ATOM     26  C   UNL A   1      42.322  28.850  33.294  1.00  0.00     0.034 A 
ATOM     27  C   UNL A   1      43.298  26.303  27.407  1.00  0.00     0.034 A 
ATOM     28  C   UNL A   1      43.259  29.845  32.825  1.00  0.00     0.049 A 
ATOM     29  C   UNL A   1      44.283  26.798  28.394  1.00  0.00     0.074 A 
ATOM     30  C   UNL A   1      43.198  31.204  32.577  1.00  0.00     0.029 A 
ATOM     31  N   UNL A   1      44.449  29.432  32.274  1.00  0.00    -0.354 N 
ATOM     32  N   UNL A   1      44.919  27.931  28.286  1.00  0.00    -0.248 NA
ATOM     33  C   UNL A   1      44.357  26.172  29.704  1.00  0.00     0.031 C 
ATOM     34  C   UNL A   1      44.093  31.431  31.491  1.00  0.00     0.029 A 
ATOM     35  C   UNL A   1      44.655  30.198  31.155  1.00  0.00     0.049 A 
ATOM     36  H   UNL A   1      45.040  28.723  32.617  1.00  0.00     0.167 HD
ATOM     37  C   UNL A   1      45.124  28.356  29.586  1.00  0.00     0.074 A 
ATOM     38  C   UNL A   1      44.895  27.173  30.405  1.00  0.00     0.031 C 
ATOM     39  C   UNL A   1      45.173  29.684  29.901  1.00  0.00     0.034 A 
BRANCH  26  40
ATOM     40  C   UNL A   1      42.718  27.835  34.347  1.00  0.00     0.023 A 
ATOM     41  C   UNL A   1      43.514  26.741  33.946  1.00  0.00     0.031 A 
ATOM     42  C   UNL A   1      42.148  27.734  35.634  1.00  0.00     0.131 A 
ATOM     43  C   UNL A   1      43.650  25.599  34.755  1.00  0.00     0.055 A 
ATOM     44  C   UNL A   1      42.354  26.631  36.472  1.00  0.00     0.041 A 
ATOM     45  F   UNL A   1      41.290  28.645  36.109  1.00  0.00    -0.206 F 
ATOM     46  C   UNL A   1      43.085  25.542  36.025  1.00  0.00     0.022 A 
BRANCH  43  47
ATOM     47  S   UNL A   1      44.398  24.111  34.033  1.00  0.00     0.124 S 
ATOM     48  O   UNL A   1      43.751  23.052  34.801  1.00  0.00    -0.237 OA
ATOM     49  O   UNL A   1      44.002  24.226  32.633  1.00  0.00    -0.237 OA
ATOM     50  O   UNL A   1      45.823  24.288  34.296  1.00  0.00    -0.744 OA
ENDBRANCH  43  47
ENDBRANCH  26  40
BRANCH  27  51
ATOM     51  C   UNL A   1      43.451  25.047  26.638  1.00  0.00     0.023 A 
ATOM     52  C   UNL A   1      42.732  23.882  26.953  1.00  0.00     0.031 A 
ATOM     53  C   UNL A   1      44.175  25.044  25.423  1.00  0.00     0.131 A 
ATOM     54  C   UNL A   1      42.771  22.771  26.083  1.00  0.00     0.055 A 
ATOM     55  C   UNL A   1      44.231  23.936  24.579  1.00  0.00     0.041 A 
ATOM     56  F   UNL A   1      44.787  26.153  24.975  1.00  0.00    -0.206 F 
ATOM     57  C   UNL A   1      43.523  22.792  24.906  1.00  0.00     0.022 A 
BRANCH  54  58
ATOM     58  S   UNL A   1      41.721  21.322  26.408  1.00  0.00     0.124 S 
ATOM     59  O   UNL A   1      40.390  21.831  26.101  1.00  0.00    -0.237 OA
ATOM     60  O   UNL A   1      42.263  20.324  25.493  1.00  0.00    -0.237 OA
ATOM     61  O   UNL A   1      41.964  21.044  27.825  1.00  0.00    -0.744 OA
ENDBRANCH  54  58
ENDBRANCH  27  51
BRANCH  39  62
ATOM     62  C   UNL A   1      45.466  30.691  28.812  1.00  0.00     0.023 A 
ATOM     63  C   UNL A   1      46.758  31.132  28.460  1.00  0.00     0.031 A 
ATOM     64  C   UNL A   1      44.388  31.136  28.020  1.00  0.00     0.131 A 
ATOM     65  C   UNL A   1      46.935  31.998  27.365  1.00  0.00     0.055 A 
ATOM     66  C   UNL A   1      44.568  31.982  26.926  1.00  0.00     0.041 A 
ATOM     67  F   UNL A   1      43.136  30.724  28.280  1.00  0.00    -0.206 F 
ATOM     68  C   UNL A   1      45.845  32.424  26.599  1.00  0.00     0.022 A 
BRANCH  65  69
ATOM     69  S   UNL A   1      48.594  32.601  26.927  1.00  0.00     0.124 S 
ATOM     70  O   UNL A   1      48.358  33.472  25.783  1.00  0.00    -0.237 OA
ATOM     71  O   UNL A   1      49.018  33.264  28.158  1.00  0.00    -0.237 OA
ATOM     72  O   UNL A   1      49.327  31.372  26.616  1.00  0.00    -0.744 OA
ENDBRANCH  65  69
ENDBRANCH  39  62
ENDBRANCH  13  14
ENDBRANCH   6   8
ENDBRANCH   5   6
ENDBRANCH   4   5
ENDBRANCH   3   4
ENDBRANCH   2   3
ENDBRANCH   1   2
BRANCH   1  73
ATOM     73  C   UNL A   1      30.629  28.319  23.880  1.00  0.00     0.188 C 
BRANCH  73  74
ATOM     74  O   UNL A   1      31.269  27.125  23.436  1.00  0.00    -0.376 OA
BRANCH  74  75
ATOM     75  C   UNL A   1      30.712  25.889  23.860  1.00  0.00     0.202 C 
BRANCH  75  76
ATOM     76  C   UNL A   1      31.128  24.700  23.006  1.00  0.00     0.261 C 
BRANCH  76  77
ATOM     77  O   UNL A   1      32.536  24.804  22.681  1.00  0.00    -0.460 OA
BRANCH  77  78
ATOM     78  C   UNL A   1      33.194  23.697  22.299  1.00  0.00     0.343 C 
ATOM     79  O   UNL A   1      33.660  23.504  21.171  1.00  0.00    -0.246 OA
BRANCH  78  80
ATOM     80  C   UNL A   1      33.238  22.699  23.334  1.00  0.00     0.121 A 
ATOM     81  C   UNL A   1      33.812  22.651  24.627  1.00  0.00     0.082 A 
ATOM     82  C   UNL A   1      32.727  21.408  23.172  1.00  0.00     0.147 A 
ATOM     83  N   UNL A   1      33.677  21.455  25.209  1.00  0.00    -0.170 NA
ATOM     84  N   UNL A   1      33.097  20.670  24.275  1.00  0.00    -0.221 N 
ATOM     85  Cl  UNL A   1      31.784  20.749  21.915  1.00  0.00    -0.061 Cl
BRANCH  81  86
ATOM     86  C   UNL A   1      34.506  23.741  25.433  1.00  0.00     0.041 C 
ATOM     87  C   UNL A   1      34.602  25.191  25.033  1.00  0.00     0.011 C 
ATOM     88  C   UNL A   1      33.654  24.787  26.120  1.00  0.00     0.011 C 
ENDBRANCH  81  86
BRANCH  84  89
ATOM     89  C   UNL A   1      33.069  19.272  24.476  1.00  0.00     0.069 A 
ATOM     90  C   UNL A   1      32.571  18.762  25.687  1.00  0.00     0.030 A 
ATOM     91  C   UNL A   1      33.610  18.399  23.523  1.00  0.00     0.069 A 
ATOM     92  C   UNL A   1      32.569  17.383  25.919  1.00  0.00     0.026 A 
ATOM     93  C   UNL A   1      33.633  17.032  23.781  1.00  0.00     0.143 A 
ATOM     94  C   UNL A   1      33.107  16.519  24.964  1.00  0.00     0.076 A 
ATOM     95  F   UNL A   1      34.194  16.224  22.870  1.00  0.00    -0.205 F 
ATOM     96  Cl  UNL A   1      33.137  14.825  25.270  1.00  0.00    -0.081 Cl
ENDBRANCH  84  89
ENDBRANCH  78  80
ENDBRANCH  77  78
ENDBRANCH  76  77
ENDBRANCH  75  76
ENDBRANCH  74  75
ENDBRANCH  73  74
ENDBRANCH   1  73
TORSDOF 22
ENDMDL
MODEL 2
REMARK VINA RESULT:     -11.2      2.996      7.537
REMARK SMILES O=C(OCCOCCOCCOC(=O)c1c(C2CC2)nn(-c2ccc(Cl)c(F)c2)c1Cl)c1ccc(-c2c3nc(c(-c4cc(S(=O)(=O)[O-])ccc4F)c4ccc([nH]4)c(-c4cc(S(=O)(=O)[O-])ccc4F)c4nc(c(-c5cc(S(=O)(=O)[O-])ccc5F)c5ccc2[nH]5)C=C4)C=C3)cc1
REMARK SMILES IDX 7 1 6 2 5 3 4 4 3 5 2 6 1 7 32 8 33 9 94 10 34 11 93 12
REMARK SMILES IDX 35 13 36 14 37 15 87 16 38 17 92 18 86 19 88 20 39 21 91 22
REMARK SMILES IDX 85 23 84 24 40 26 72 27 52 28 71 29 53 30 56 31 70 32 89 33
REMARK SMILES IDX 54 34 55 35 69 37 90 38 57 39 41 40 42 41 50 42 43 43 49 44
REMARK SMILES IDX 51 45 48 46 44 47 45 48 46 49 47 50 73 51 74 52 82 53 75 54
REMARK SMILES IDX 81 55 83 56 80 57 76 58 77 59 78 60 79 61 58 62 59 63 67 64
REMARK SMILES IDX 60 65 66 66 68 67 65 68 61 69 62 70 63 71 64 72 8 73 9 74
REMARK SMILES IDX 10 75 11 76 12 77 13 78 14 79 15 80 16 81 30 82 20 83 21 84
REMARK SMILES IDX 31 85 17 86 18 87 19 88 22 89 23 90 29 91 24 92 27 93 25 94
REMARK SMILES IDX 28 95 26 96
REMARK H PARENT 88 25 56 36
REMARK Flexibility Score: inf
ROOT
ATOM      1  C   UNL A   1      32.117  28.429  27.207  1.00  0.00     0.188 C 
ENDROOT
BRANCH   1   2
ATOM      2  O   UNL A   1      33.481  28.019  27.222  1.00  0.00    -0.376 OA
BRANCH   2   3
ATOM      3  C   UNL A   1      34.472  28.934  26.772  1.00  0.00     0.202 C 
BRANCH   3   4
ATOM      4  C   UNL A   1      34.387  30.351  27.342  1.00  0.00     0.261 C 
BRANCH   4   5
ATOM      5  O   UNL A   1      35.587  30.693  28.060  1.00  0.00    -0.460 OA
BRANCH   5   6
ATOM      6  C   UNL A   1      36.288  30.070  29.029  1.00  0.00     0.338 C 
ATOM      7  O   UNL A   1      35.794  30.057  30.159  1.00  0.00    -0.246 OA
BRANCH   6   8
ATOM      8  C   UNL A   1      37.604  29.386  28.851  1.00  0.00     0.060 A 
ATOM      9  C   UNL A   1      38.201  28.482  29.726  1.00  0.00     0.016 A 
ATOM     10  C   UNL A   1      38.278  29.667  27.645  1.00  0.00     0.016 A 
ATOM     11  C   UNL A   1      39.496  28.013  29.489  1.00  0.00     0.010 A 
ATOM     12  C   UNL A   1      39.543  29.142  27.372  1.00  0.00     0.010 A 
ATOM     13  C   UNL A   1      40.193  28.367  28.329  1.00  0.00    -0.014 A 
BRANCH  13  14
ATOM     14  C   UNL A   1      41.582  27.911  28.195  1.00  0.00     0.031 A 
ATOM     15  C   UNL A   1      41.844  26.647  27.449  1.00  0.00     0.074 A 
ATOM     16  C   UNL A   1      42.668  28.563  28.661  1.00  0.00     0.049 A 
ATOM     17  N   UNL A   1      42.311  25.534  27.915  1.00  0.00    -0.248 NA
ATOM     18  C   UNL A   1      41.538  26.611  26.014  1.00  0.00     0.031 C 
ATOM     19  C   UNL A   1      42.756  29.929  29.175  1.00  0.00     0.029 A 
ATOM     20  N   UNL A   1      43.968  28.129  28.692  1.00  0.00    -0.354 N 
ATOM     21  C   UNL A   1      42.551  24.712  26.816  1.00  0.00     0.074 A 
ATOM     22  C   UNL A   1      41.961  25.388  25.686  1.00  0.00     0.031 C 
ATOM     23  C   UNL A   1      44.055  30.285  29.264  1.00  0.00     0.029 A 
ATOM     24  C   UNL A   1      44.884  29.130  28.963  1.00  0.00     0.049 A 
ATOM     25  H   UNL A   1      44.225  27.192  28.536  1.00  0.00     0.167 HD
ATOM     26  C   UNL A   1      43.345  23.608  26.897  1.00  0.00     0.034 A 
ATOM     27  C   UNL A   1      46.236  29.052  28.922  1.00  0.00     0.034 A 
ATOM     28  C   UNL A   1      43.557  23.196  28.267  1.00  0.00     0.049 A 
ATOM     29  C   UNL A   1      46.630  27.642  29.133  1.00  0.00     0.074 A 
ATOM     30  C   UNL A   1      42.732  22.862  29.324  1.00  0.00     0.029 A 
ATOM     31  N   UNL A   1      44.810  23.328  28.816  1.00  0.00    -0.354 N 
ATOM     32  N   UNL A   1      46.482  27.003  30.260  1.00  0.00    -0.248 NA
ATOM     33  C   UNL A   1      46.925  26.803  27.982  1.00  0.00     0.031 C 
ATOM     34  C   UNL A   1      43.426  23.287  30.495  1.00  0.00     0.029 A 
ATOM     35  C   UNL A   1      44.638  23.839  30.078  1.00  0.00     0.049 A 
ATOM     36  H   UNL A   1      45.667  23.100  28.387  1.00  0.00     0.167 HD
ATOM     37  C   UNL A   1      46.262  25.685  29.901  1.00  0.00     0.074 A 
ATOM     38  C   UNL A   1      46.693  25.599  28.512  1.00  0.00     0.031 C 
ATOM     39  C   UNL A   1      45.484  24.861  30.664  1.00  0.00     0.034 A 
BRANCH  26  40
ATOM     40  C   UNL A   1      44.154  23.007  25.765  1.00  0.00     0.023 A 
ATOM     41  C   UNL A   1      44.019  21.625  25.515  1.00  0.00     0.031 A 
ATOM     42  C   UNL A   1      45.229  23.643  25.108  1.00  0.00     0.131 A 
ATOM     43  C   UNL A   1      44.954  20.928  24.727  1.00  0.00     0.055 A 
ATOM     44  C   UNL A   1      46.108  22.962  24.257  1.00  0.00     0.041 A 
ATOM     45  F   UNL A   1      45.542  24.926  25.327  1.00  0.00    -0.206 F 
ATOM     46  C   UNL A   1      45.992  21.592  24.083  1.00  0.00     0.022 A 
BRANCH  43  47
ATOM     47  S   UNL A   1      44.908  19.114  24.734  1.00  0.00     0.124 S 
ATOM     48  O   UNL A   1      45.031  18.810  23.311  1.00  0.00    -0.237 OA
ATOM     49  O   UNL A   1      46.063  18.789  25.564  1.00  0.00    -0.237 OA
ATOM     50  O   UNL A   1      43.608  18.810  25.324  1.00  0.00    -0.744 OA
ENDBRANCH  43  47
ENDBRANCH  26  40
BRANCH  27  51
ATOM     51  C   UNL A   1      47.179  30.134  28.558  1.00  0.00     0.023 A 
ATOM     52  C   UNL A   1      48.353  30.384  29.289  1.00  0.00     0.031 A 
ATOM     53  C   UNL A   1      47.032  30.817  27.328  1.00  0.00     0.131 A 
ATOM     54  C   UNL A   1      49.309  31.298  28.797  1.00  0.00     0.055 A 
ATOM     55  C   UNL A   1      47.967  31.738  26.859  1.00  0.00     0.041 A 
ATOM     56  F   UNL A   1      46.008  30.548  26.501  1.00  0.00    -0.206 F 
ATOM     57  C   UNL A   1      49.115  31.980  27.593  1.00  0.00     0.022 A 
BRANCH  54  58
ATOM     58  S   UNL A   1      50.896  31.508  29.660  1.00  0.00     0.124 S 
ATOM     59  O   UNL A   1      51.531  32.566  28.882  1.00  0.00    -0.237 OA
ATOM     60  O   UNL A   1      50.480  31.857  31.013  1.00  0.00    -0.237 OA
ATOM     61  O   UNL A   1      51.521  30.190  29.536  1.00  0.00    -0.744 OA
ENDBRANCH  54  58
ENDBRANCH  27  51
BRANCH  39  62
ATOM     62  C   UNL A   1      45.237  25.212  32.114  1.00  0.00     0.023 A 
ATOM     63  C   UNL A   1      46.022  24.753  33.192  1.00  0.00     0.031 A 
ATOM     64  C   UNL A   1      44.224  26.149  32.399  1.00  0.00     0.131 A 
ATOM     65  C   UNL A   1      45.770  25.216  34.496  1.00  0.00     0.055 A 
ATOM     66  C   UNL A   1      43.986  26.618  33.691  1.00  0.00     0.041 A 
ATOM     67  F   UNL A   1      43.463  26.653  31.413  1.00  0.00    -0.206 F 
ATOM     68  C   UNL A   1      44.756  26.145  34.748  1.00  0.00     0.022 A 
BRANCH  65  69
ATOM     69  S   UNL A   1      46.754  24.601  35.897  1.00  0.00     0.124 S 
ATOM     70  O   UNL A   1      46.028  23.418  36.340  1.00  0.00    -0.237 OA
ATOM     71  O   UNL A   1      48.055  24.358  35.278  1.00  0.00    -0.237 OA
ATOM     72  O   UNL A   1      46.731  25.720  36.841  1.00  0.00    -0.744 OA
ENDBRANCH  65  69
ENDBRANCH  39  62
ENDBRANCH  13  14
ENDBRANCH   6   8
ENDBRANCH   5   6
ENDBRANCH   4   5
ENDBRANCH   3   4
ENDBRANCH   2   3
ENDBRANCH   1   2
BRANCH   1  73
ATOM     73  C   UNL A   1      31.032  27.441  26.745  1.00  0.00     0.188 C 
BRANCH  73  74
ATOM     74  O   UNL A   1      31.423  26.079  26.593  1.00  0.00    -0.376 OA
BRANCH  74  75
ATOM     75  C   UNL A   1      30.426  25.155  26.178  1.00  0.00     0.202 C 
BRANCH  75  76
ATOM     76  C   UNL A   1      30.554  24.721  24.725  1.00  0.00     0.261 C 
BRANCH  76  77
ATOM     77  O   UNL A   1      31.030  23.354  24.667  1.00  0.00    -0.460 OA
BRANCH  77  78
ATOM     78  C   UNL A   1      31.892  23.012  23.695  1.00  0.00     0.343 C 
ATOM     79  O   UNL A   1      31.613  22.313  22.714  1.00  0.00    -0.246 OA
BRANCH  78  80
ATOM     80  C   UNL A   1      33.226  23.485  23.951  1.00  0.00     0.121 A 
ATOM     81  C   UNL A   1      34.023  24.517  23.400  1.00  0.00     0.082 A 
ATOM     82  C   UNL A   1      34.100  22.860  24.845  1.00  0.00     0.147 A 
ATOM     83  N   UNL A   1      35.265  24.531  23.895  1.00  0.00    -0.170 NA
ATOM     84  N   UNL A   1      35.334  23.454  24.708  1.00  0.00    -0.221 N 
ATOM     85  Cl  UNL A   1      33.815  21.609  25.967  1.00  0.00    -0.061 Cl
BRANCH  81  86
ATOM     86  C   UNL A   1      33.668  25.596  22.386  1.00  0.00     0.041 C 
ATOM     87  C   UNL A   1      32.587  25.485  21.341  1.00  0.00     0.011 C 
ATOM     88  C   UNL A   1      32.360  26.341  22.549  1.00  0.00     0.011 C 
ENDBRANCH  81  86
BRANCH  84  89
ATOM     89  C   UNL A   1      36.599  23.027  25.172  1.00  0.00     0.069 A 
ATOM     90  C   UNL A   1      37.045  21.733  24.857  1.00  0.00     0.030 A 
ATOM     91  C   UNL A   1      37.368  23.844  26.011  1.00  0.00     0.069 A 
ATOM     92  C   UNL A   1      38.277  21.279  25.339  1.00  0.00     0.026 A 
ATOM     93  C   UNL A   1      38.576  23.368  26.511  1.00  0.00     0.143 A 
ATOM     94  C   UNL A   1      39.040  22.099  26.172  1.00  0.00     0.076 A 
ATOM     95  F   UNL A   1      39.271  24.154  27.345  1.00  0.00    -0.205 F 
ATOM     96  Cl  UNL A   1      40.538  21.523  26.793  1.00  0.00    -0.081 Cl
ENDBRANCH  84  89
ENDBRANCH  78  80
ENDBRANCH  77  78
ENDBRANCH  76  77
ENDBRANCH  75  76
ENDBRANCH  74  75
ENDBRANCH  73  74
ENDBRANCH   1  73
TORSDOF 22
ENDMDL
MODEL 3
REMARK VINA RESULT:     -11.0      1.817      2.298
REMARK SMILES O=C(OCCOCCOCCOC(=O)c1c(C2CC2)nn(-c2ccc(Cl)c(F)c2)c1Cl)c1ccc(-c2c3nc(c(-c4cc(S(=O)(=O)[O-])ccc4F)c4ccc([nH]4)c(-c4cc(S(=O)(=O)[O-])ccc4F)c4nc(c(-c5cc(S(=O)(=O)[O-])ccc5F)c5ccc2[nH]5)C=C4)C=C3)cc1
REMARK SMILES IDX 7 1 6 2 5 3 4 4 3 5 2 6 1 7 32 8 33 9 94 10 34 11 93 12
REMARK SMILES IDX 35 13 36 14 37 15 87 16 38 17 92 18 86 19 88 20 39 21 91 22
REMARK SMILES IDX 85 23 84 24 40 26 72 27 52 28 71 29 53 30 56 31 70 32 89 33
REMARK SMILES IDX 54 34 55 35 69 37 90 38 57 39 41 40 42 41 50 42 43 43 49 44
REMARK SMILES IDX 51 45 48 46 44 47 45 48 46 49 47 50 73 51 74 52 82 53 75 54
REMARK SMILES IDX 81 55 83 56 80 57 76 58 77 59 78 60 79 61 58 62 59 63 67 64
REMARK SMILES IDX 60 65 66 66 68 67 65 68 61 69 62 70 63 71 64 72 8 73 9 74
REMARK SMILES IDX 10 75 11 76 12 77 13 78 14 79 15 80 16 81 30 82 20 83 21 84
REMARK SMILES IDX 31 85 17 86 18 87 19 88 22 89 23 90 29 91 24 92 27 93 25 94
REMARK SMILES IDX 28 95 26 96
REMARK H PARENT 88 25 56 36
REMARK Flexibility Score: inf
ROOT
ATOM      1  C   UNL A   1      31.935  29.853  25.069  1.00  0.00     0.188 C 
ENDROOT
BRANCH   1   2
ATOM      2  O   UNL A   1      31.564  31.053  25.741  1.00  0.00    -0.376 OA
BRANCH   2   3
ATOM      3  C   UNL A   1      32.108  31.309  27.030  1.00  0.00     0.202 C 
BRANCH   3   4
ATOM      4  C   UNL A   1      33.518  30.771  27.283  1.00  0.00     0.261 C 
BRANCH   4   5
ATOM      5  O   UNL A   1      34.464  31.847  27.422  1.00  0.00    -0.460 OA
BRANCH   5   6
ATOM      6  C   UNL A   1      35.517  32.046  28.242  1.00  0.00     0.338 C 
ATOM      7  O   UNL A   1      35.489  33.051  28.957  1.00  0.00    -0.246 OA
BRANCH   6   8
ATOM      8  C   UNL A   1      36.706  31.151  28.368  1.00  0.00     0.060 A 
ATOM      9  C   UNL A   1      36.847  29.871  27.835  1.00  0.00     0.016 A 
ATOM     10  C   UNL A   1      37.804  31.690  29.067  1.00  0.00     0.016 A 
ATOM     11  C   UNL A   1      37.970  29.096  28.137  1.00  0.00     0.010 A 
ATOM     12  C   UNL A   1      38.959  30.943  29.309  1.00  0.00     0.010 A 
ATOM     13  C   UNL A   1      39.020  29.612  28.906  1.00  0.00    -0.014 A 
BRANCH  13  14
ATOM     14  C   UNL A   1      40.122  28.708  29.259  1.00  0.00     0.031 A 
ATOM     15  C   UNL A   1      40.461  28.532  30.700  1.00  0.00     0.074 A 
ATOM     16  C   UNL A   1      40.846  27.979  28.384  1.00  0.00     0.049 A 
ATOM     17  N   UNL A   1      41.547  28.884  31.307  1.00  0.00    -0.248 NA
ATOM     18  C   UNL A   1      39.467  27.900  31.574  1.00  0.00     0.031 C 
ATOM     19  C   UNL A   1      40.577  27.730  26.968  1.00  0.00     0.029 A 
ATOM     20  N   UNL A   1      41.967  27.230  28.629  1.00  0.00    -0.354 N 
ATOM     21  C   UNL A   1      41.475  28.351  32.592  1.00  0.00     0.074 A 
ATOM     22  C   UNL A   1      40.131  27.845  32.732  1.00  0.00     0.031 C 
ATOM     23  C   UNL A   1      41.374  26.730  26.536  1.00  0.00     0.029 A 
ATOM     24  C   UNL A   1      42.308  26.378  27.594  1.00  0.00     0.049 A 
ATOM     25  H   UNL A   1      42.482  27.293  29.465  1.00  0.00     0.167 HD
ATOM     26  C   UNL A   1      42.574  28.235  33.391  1.00  0.00     0.034 A 
ATOM     27  C   UNL A   1      43.264  25.419  27.587  1.00  0.00     0.034 A 
ATOM     28  C   UNL A   1      43.667  29.057  32.926  1.00  0.00     0.049 A 
ATOM     29  C   UNL A   1      44.293  25.777  28.588  1.00  0.00     0.074 A 
ATOM     30  C   UNL A   1      43.828  30.402  32.648  1.00  0.00     0.029 A 
ATOM     31  N   UNL A   1      44.789  28.448  32.415  1.00  0.00    -0.354 N 
ATOM     32  N   UNL A   1      45.103  26.792  28.472  1.00  0.00    -0.248 NA
ATOM     33  C   UNL A   1      44.238  25.180  29.913  1.00  0.00     0.031 C 
ATOM     34  C   UNL A   1      44.772  30.457  31.580  1.00  0.00     0.029 A 
ATOM     35  C   UNL A   1      45.139  29.143  31.285  1.00  0.00     0.049 A 
ATOM     36  H   UNL A   1      45.252  27.662  32.788  1.00  0.00     0.167 HD
ATOM     37  C   UNL A   1      45.344  27.211  29.768  1.00  0.00     0.074 A 
ATOM     38  C   UNL A   1      44.912  26.100  30.606  1.00  0.00     0.031 C 
ATOM     39  C   UNL A   1      45.596  28.523  30.056  1.00  0.00     0.034 A 
BRANCH  26  40
ATOM     40  C   UNL A   1      42.781  27.196  34.475  1.00  0.00     0.023 A 
ATOM     41  C   UNL A   1      43.549  26.055  34.161  1.00  0.00     0.031 A 
ATOM     42  C   UNL A   1      42.059  27.131  35.687  1.00  0.00     0.131 A 
ATOM     43  C   UNL A   1      43.518  24.906  34.972  1.00  0.00     0.055 A 
ATOM     44  C   UNL A   1      42.097  26.016  36.534  1.00  0.00     0.041 A 
ATOM     45  F   UNL A   1      41.210  28.094  36.065  1.00  0.00    -0.206 F 
ATOM     46  C   UNL A   1      42.807  24.884  36.167  1.00  0.00     0.022 A 
BRANCH  43  47
ATOM     47  S   UNL A   1      44.252  23.375  34.330  1.00  0.00     0.124 S 
ATOM     48  O   UNL A   1      44.220  22.515  35.509  1.00  0.00    -0.237 OA
ATOM     49  O   UNL A   1      43.329  23.029  33.255  1.00  0.00    -0.237 OA
ATOM     50  O   UNL A   1      45.584  23.792  33.902  1.00  0.00    -0.744 OA
ENDBRANCH  43  47
ENDBRANCH  26  40
BRANCH  27  51
ATOM     51  C   UNL A   1      43.234  24.136  26.848  1.00  0.00     0.023 A 
ATOM     52  C   UNL A   1      42.266  23.149  27.101  1.00  0.00     0.031 A 
ATOM     53  C   UNL A   1      44.055  23.952  25.712  1.00  0.00     0.131 A 
ATOM     54  C   UNL A   1      42.163  22.028  26.249  1.00  0.00     0.055 A 
ATOM     55  C   UNL A   1      43.968  22.831  24.889  1.00  0.00     0.041 A 
ATOM     56  F   UNL A   1      44.920  24.902  25.318  1.00  0.00    -0.206 F 
ATOM     57  C   UNL A   1      43.014  21.862  25.153  1.00  0.00     0.022 A 
BRANCH  54  58
ATOM     58  S   UNL A   1      40.815  20.829  26.480  1.00  0.00     0.124 S 
ATOM     59  O   UNL A   1      41.236  19.724  25.626  1.00  0.00    -0.237 OA
ATOM     60  O   UNL A   1      40.846  20.587  27.918  1.00  0.00    -0.237 OA
ATOM     61  O   UNL A   1      39.635  21.557  26.011  1.00  0.00    -0.744 OA
ENDBRANCH  54  58
ENDBRANCH  27  51
BRANCH  39  62
ATOM     62  C   UNL A   1      46.069  29.444  28.954  1.00  0.00     0.023 A 
ATOM     63  C   UNL A   1      45.283  30.457  28.368  1.00  0.00     0.031 A 
ATOM     64  C   UNL A   1      47.420  29.360  28.563  1.00  0.00     0.131 A 
ATOM     65  C   UNL A   1      45.847  31.327  27.417  1.00  0.00     0.055 A 
ATOM     66  C   UNL A   1      47.980  30.235  27.632  1.00  0.00     0.041 A 
ATOM     67  F   UNL A   1      48.233  28.441  29.110  1.00  0.00    -0.206 F 
ATOM     68  C   UNL A   1      47.190  31.218  27.048  1.00  0.00     0.022 A 
BRANCH  65  69
ATOM     69  S   UNL A   1      44.829  32.613  26.629  1.00  0.00     0.124 S 
ATOM     70  O   UNL A   1      43.490  32.365  27.150  1.00  0.00    -0.237 OA
ATOM     71  O   UNL A   1      45.475  33.841  27.085  1.00  0.00    -0.237 OA
ATOM     72  O   UNL A   1      44.987  32.338  25.200  1.00  0.00    -0.744 OA
ENDBRANCH  65  69
ENDBRANCH  39  62
ENDBRANCH  13  14
ENDBRANCH   6   8
ENDBRANCH   5   6
ENDBRANCH   4   5
ENDBRANCH   3   4
ENDBRANCH   2   3
ENDBRANCH   1   2
BRANCH   1  73
ATOM     73  C   UNL A   1      30.850  28.837  24.675  1.00  0.00     0.188 C 
BRANCH  73  74
ATOM     74  O   UNL A   1      30.866  27.582  25.349  1.00  0.00    -0.376 OA
BRANCH  74  75
ATOM     75  C   UNL A   1      31.877  27.378  26.327  1.00  0.00     0.202 C 
BRANCH  75  76
ATOM     76  C   UNL A   1      32.624  26.061  26.175  1.00  0.00     0.261 C 
BRANCH  76  77
ATOM     77  O   UNL A   1      32.030  25.063  27.041  1.00  0.00    -0.460 OA
BRANCH  77  78
ATOM     78  C   UNL A   1      31.102  24.237  26.531  1.00  0.00     0.343 C 
ATOM     79  O   UNL A   1      29.908  24.228  26.851  1.00  0.00    -0.246 OA
BRANCH  78  80
ATOM     80  C   UNL A   1      31.660  23.285  25.608  1.00  0.00     0.121 A 
ATOM     81  C   UNL A   1      31.494  23.050  24.222  1.00  0.00     0.082 A 
ATOM     82  C   UNL A   1      32.504  22.243  26.001  1.00  0.00     0.147 A 
ATOM     83  N   UNL A   1      32.160  21.972  23.796  1.00  0.00    -0.170 NA
ATOM     84  N   UNL A   1      32.698  21.427  24.909  1.00  0.00    -0.221 N 
ATOM     85  Cl  UNL A   1      33.244  21.937  27.505  1.00  0.00    -0.061 Cl
BRANCH  81  86
ATOM     86  C   UNL A   1      30.720  23.844  23.177  1.00  0.00     0.041 C 
ATOM     87  C   UNL A   1      29.937  25.103  23.447  1.00  0.00     0.011 C 
ATOM     88  C   UNL A   1      31.258  25.192  22.748  1.00  0.00     0.011 C 
ENDBRANCH  81  86
BRANCH  84  89
ATOM     89  C   UNL A   1      33.234  20.121  24.842  1.00  0.00     0.069 A 
ATOM     90  C   UNL A   1      32.372  19.017  24.955  1.00  0.00     0.030 A 
ATOM     91  C   UNL A   1      34.617  19.918  24.753  1.00  0.00     0.069 A 
ATOM     92  C   UNL A   1      32.889  17.718  24.929  1.00  0.00     0.026 A 
ATOM     93  C   UNL A   1      35.121  18.621  24.760  1.00  0.00     0.143 A 
ATOM     94  C   UNL A   1      34.268  17.522  24.836  1.00  0.00     0.076 A 
ATOM     95  F   UNL A   1      36.451  18.456  24.716  1.00  0.00    -0.205 F 
ATOM     96  Cl  UNL A   1      34.903  15.922  24.841  1.00  0.00    -0.081 Cl
ENDBRANCH  84  89
ENDBRANCH  78  80
ENDBRANCH  77  78
ENDBRANCH  76  77
ENDBRANCH  75  76
ENDBRANCH  74  75
ENDBRANCH  73  74
ENDBRANCH   1  73
TORSDOF 22
ENDMDL
