MODEL 1
REMARK VINA RESULT:      -8.9      0.000      0.000
REMARK SMILES COCCCNC(=O)/C(C#N)=C/c1ccc(C(=O)OCCOCCOCCOC(=O)c2ccc(-c3c4nc(c(-c5cc(S(=O)(=O)[O-])ccc5F)c5ccc([nH]5)c(-c5cc(S(=O)(=O)[O-])ccc5F)c5nc(c(-c6cc(S(=O)(=O)[O-])ccc6F)c6ccc3[nH]6)C=C5)C=C4)cc2)cc1
REMARK SMILES IDX 22 1 21 2 20 3 19 4 17 5 18 6 16 7 13 8 14 9 95 10 15 11
REMARK SMILES IDX 94 12 12 13 9 14 7 15 6 16 8 18 5 19 4 20 3 21 2 22 1 23
REMARK SMILES IDX 10 24 11 25 23 26 24 27 25 28 26 29 27 30 28 31 29 32 30 33
REMARK SMILES IDX 31 34 32 35 93 36 33 37 92 38 34 39 35 40 36 41 86 42 37 43
REMARK SMILES IDX 91 44 85 45 87 46 38 47 90 48 84 49 83 50 39 52 71 53 51 54
REMARK SMILES IDX 70 55 52 56 55 57 69 58 88 59 53 60 54 61 68 63 89 64 56 65
REMARK SMILES IDX 40 66 41 67 49 68 42 69 48 70 50 71 47 72 43 73 44 74 45 75
REMARK SMILES IDX 46 76 72 77 73 78 81 79 74 80 80 81 82 82 79 83 75 84 76 85
REMARK SMILES IDX 77 86 78 87 57 88 58 89 66 90 59 91 65 92 67 93 64 94 60 95
REMARK SMILES IDX 61 96 62 97 63 98
REMARK H PARENT 6 17 87 51 55 62
REMARK Flexibility Score: inf
ROOT
ATOM      1  O   UNL A   1      33.438  34.671  31.143  1.00  0.00    -0.376 OA
ENDROOT
BRANCH   1   2
ATOM      2  C   UNL A   1      34.401  34.330  30.158  1.00  0.00     0.202 C 
BRANCH   2   3
ATOM      3  C   UNL A   1      34.135  33.486  28.896  1.00  0.00     0.261 C 
BRANCH   3   4
ATOM      4  O   UNL A   1      34.308  32.075  29.011  1.00  0.00    -0.460 OA
BRANCH   4   5
ATOM      5  C   UNL A   1      34.975  31.480  27.990  1.00  0.00     0.338 C 
ATOM      6  O   UNL A   1      36.128  31.688  27.653  1.00  0.00    -0.246 OA
BRANCH   5   7
ATOM      7  C   UNL A   1      34.154  30.368  27.455  1.00  0.00     0.060 A 
ATOM      8  C   UNL A   1      32.530  28.267  26.620  1.00  0.00    -0.024 A 
ATOM      9  C   UNL A   1      31.949  29.489  26.973  1.00  0.00     0.009 A 
ATOM     10  C   UNL A   1      33.925  28.164  26.505  1.00  0.00     0.009 A 
ATOM     11  C   UNL A   1      32.764  30.541  27.389  1.00  0.00     0.016 A 
ATOM     12  C   UNL A   1      34.739  29.196  26.969  1.00  0.00     0.016 A 
BRANCH   8  13
ATOM     13  C   UNL A   1      31.713  27.042  26.698  1.00  0.00     0.033 C 
ATOM     14  C   UNL A   1      30.908  26.704  25.661  1.00  0.00     0.117 C 
BRANCH  14  15
ATOM     15  C   UNL A   1      30.168  25.404  25.728  1.00  0.00     0.261 C 
ATOM     16  N   UNL A   1      30.282  24.428  24.777  1.00  0.00    -0.351 N 
ATOM     17  H   UNL A   1      29.816  23.591  25.007  1.00  0.00     0.163 HD
ATOM     18  O   UNL A   1      29.403  25.168  26.668  1.00  0.00    -0.268 OA
BRANCH  16  19
ATOM     19  C   UNL A   1      30.961  24.388  23.489  1.00  0.00     0.118 C 
BRANCH  19  20
ATOM     20  C   UNL A   1      32.261  23.597  23.467  1.00  0.00     0.050 C 
BRANCH  20  21
ATOM     21  C   UNL A   1      32.160  22.113  23.156  1.00  0.00     0.161 C 
BRANCH  21  22
ATOM     22  O   UNL A   1      32.739  21.283  24.158  1.00  0.00    -0.385 OA
ATOM     23  C   UNL A   1      32.400  19.909  24.057  1.00  0.00     0.194 C 
ENDBRANCH  21  22
ENDBRANCH  20  21
ENDBRANCH  19  20
ENDBRANCH  16  19
ENDBRANCH  14  15
BRANCH  14  24
ATOM     24  C   UNL A   1      30.790  27.578  24.542  1.00  0.00     0.105 C 
ATOM     25  N   UNL A   1      30.681  28.335  23.662  1.00  0.00    -0.192 NA
ENDBRANCH  14  24
ENDBRANCH   8  13
ENDBRANCH   5   7
ENDBRANCH   4   5
ENDBRANCH   3   4
ENDBRANCH   2   3
ENDBRANCH   1   2
BRANCH   1  26
ATOM     26  C   UNL A   1      33.831  35.073  32.438  1.00  0.00     0.188 C 
BRANCH  26  27
ATOM     27  C   UNL A   1      35.313  34.927  32.834  1.00  0.00     0.188 C 
BRANCH  27  28
ATOM     28  O   UNL A   1      35.602  34.198  34.004  1.00  0.00    -0.376 OA
BRANCH  28  29
ATOM     29  C   UNL A   1      36.834  33.504  34.096  1.00  0.00     0.202 C 
BRANCH  29  30
ATOM     30  C   UNL A   1      37.031  31.971  34.008  1.00  0.00     0.261 C 
BRANCH  30  31
ATOM     31  O   UNL A   1      36.761  31.295  32.774  1.00  0.00    -0.460 OA
BRANCH  31  32
ATOM     32  C   UNL A   1      37.459  30.149  32.558  1.00  0.00     0.338 C 
ATOM     33  O   UNL A   1      37.067  29.012  32.746  1.00  0.00    -0.246 OA
BRANCH  32  34
ATOM     34  C   UNL A   1      38.720  30.478  31.856  1.00  0.00     0.060 A 
ATOM     35  C   UNL A   1      39.873  30.758  32.606  1.00  0.00     0.016 A 
ATOM     36  C   UNL A   1      38.754  30.543  30.464  1.00  0.00     0.016 A 
ATOM     37  C   UNL A   1      41.060  31.114  31.965  1.00  0.00     0.010 A 
ATOM     38  C   UNL A   1      39.938  30.928  29.825  1.00  0.00     0.010 A 
ATOM     39  C   UNL A   1      41.091  31.239  30.571  1.00  0.00    -0.014 A 
BRANCH  39  40
ATOM     40  C   UNL A   1      42.270  31.850  29.904  1.00  0.00     0.031 A 
ATOM     41  C   UNL A   1      43.404  30.954  29.481  1.00  0.00     0.074 A 
ATOM     42  C   UNL A   1      42.332  33.173  29.664  1.00  0.00     0.049 A 
ATOM     43  N   UNL A   1      44.564  31.267  28.964  1.00  0.00    -0.248 NA
ATOM     44  C   UNL A   1      43.198  29.511  29.674  1.00  0.00     0.031 C 
ATOM     45  C   UNL A   1      41.278  34.136  29.973  1.00  0.00     0.029 A 
ATOM     46  N   UNL A   1      43.333  33.936  29.113  1.00  0.00    -0.354 N 
ATOM     47  C   UNL A   1      45.235  30.062  28.783  1.00  0.00     0.074 A 
ATOM     48  C   UNL A   1      44.363  29.018  29.281  1.00  0.00     0.031 C 
ATOM     49  C   UNL A   1      41.691  35.364  29.617  1.00  0.00     0.029 A 
ATOM     50  C   UNL A   1      43.058  35.285  29.103  1.00  0.00     0.049 A 
ATOM     51  H   UNL A   1      44.169  33.555  28.758  1.00  0.00     0.167 HD
ATOM     52  C   UNL A   1      46.461  29.846  28.246  1.00  0.00     0.034 A 
ATOM     53  C   UNL A   1      43.832  36.334  28.754  1.00  0.00     0.034 A 
ATOM     54  C   UNL A   1      47.324  30.900  27.769  1.00  0.00     0.049 A 
ATOM     55  C   UNL A   1      45.239  36.079  28.261  1.00  0.00     0.074 A 
ATOM     56  C   UNL A   1      48.577  30.789  27.194  1.00  0.00     0.029 A 
ATOM     57  N   UNL A   1      47.034  32.257  27.826  1.00  0.00    -0.354 N 
ATOM     58  N   UNL A   1      45.861  34.934  28.088  1.00  0.00    -0.248 NA
ATOM     59  C   UNL A   1      46.045  37.255  27.912  1.00  0.00     0.031 C 
ATOM     60  C   UNL A   1      49.083  32.077  26.993  1.00  0.00     0.029 A 
ATOM     61  C   UNL A   1      48.104  32.993  27.340  1.00  0.00     0.049 A 
ATOM     62  H   UNL A   1      46.192  32.640  28.163  1.00  0.00     0.167 HD
ATOM     63  C   UNL A   1      47.116  35.256  27.574  1.00  0.00     0.074 A 
ATOM     64  C   UNL A   1      47.156  36.698  27.453  1.00  0.00     0.031 C 
ATOM     65  C   UNL A   1      48.141  34.434  27.230  1.00  0.00     0.034 A 
BRANCH  52  66
ATOM     66  C   UNL A   1      46.964  28.423  28.206  1.00  0.00     0.023 A 
ATOM     67  C   UNL A   1      46.632  27.546  27.158  1.00  0.00     0.031 A 
ATOM     68  C   UNL A   1      47.776  27.927  29.243  1.00  0.00     0.131 A 
ATOM     69  C   UNL A   1      47.046  26.206  27.209  1.00  0.00     0.055 A 
ATOM     70  C   UNL A   1      48.260  26.618  29.241  1.00  0.00     0.041 A 
ATOM     71  F   UNL A   1      48.105  28.707  30.285  1.00  0.00    -0.206 F 
ATOM     72  C   UNL A   1      47.882  25.744  28.227  1.00  0.00     0.022 A 
BRANCH  69  73
ATOM     73  S   UNL A   1      46.342  25.038  26.013  1.00  0.00     0.124 S 
ATOM     74  O   UNL A   1      44.921  25.090  26.351  1.00  0.00    -0.237 OA
ATOM     75  O   UNL A   1      46.716  25.632  24.735  1.00  0.00    -0.237 OA
ATOM     76  O   UNL A   1      47.006  23.776  26.335  1.00  0.00    -0.744 OA
ENDBRANCH  69  73
ENDBRANCH  52  66
BRANCH  53  77
ATOM     77  C   UNL A   1      43.326  37.732  28.899  1.00  0.00     0.023 A 
ATOM     78  C   UNL A   1      42.527  38.324  27.909  1.00  0.00     0.031 A 
ATOM     79  C   UNL A   1      43.698  38.525  30.001  1.00  0.00     0.131 A 
ATOM     80  C   UNL A   1      42.167  39.676  28.013  1.00  0.00     0.055 A 
ATOM     81  C   UNL A   1      43.280  39.850  30.135  1.00  0.00     0.041 A 
ATOM     82  F   UNL A   1      44.474  38.018  30.973  1.00  0.00    -0.206 F 
ATOM     83  C   UNL A   1      42.521  40.438  29.128  1.00  0.00     0.022 A 
BRANCH  80  84
ATOM     84  S   UNL A   1      41.324  40.461  26.611  1.00  0.00     0.124 S 
ATOM     85  O   UNL A   1      40.327  41.282  27.288  1.00  0.00    -0.237 OA
ATOM     86  O   UNL A   1      42.417  41.180  25.964  1.00  0.00    -0.237 OA
ATOM     87  O   UNL A   1      40.792  39.329  25.855  1.00  0.00    -0.744 OA
ENDBRANCH  80  84
ENDBRANCH  53  77
BRANCH  65  88
ATOM     88  C   UNL A   1      49.376  35.071  26.631  1.00  0.00     0.023 A 
ATOM     89  C   UNL A   1      50.497  35.402  27.411  1.00  0.00     0.031 A 
ATOM     90  C   UNL A   1      49.426  35.355  25.254  1.00  0.00     0.131 A 
ATOM     91  C   UNL A   1      51.592  36.054  26.822  1.00  0.00     0.055 A 
ATOM     92  C   UNL A   1      50.550  35.930  24.659  1.00  0.00     0.041 A 
ATOM     93  F   UNL A   1      48.384  35.069  24.456  1.00  0.00    -0.206 F 
ATOM     94  C   UNL A   1      51.636  36.298  25.447  1.00  0.00     0.022 A 
BRANCH  91  95
ATOM     95  S   UNL A   1      52.910  36.686  27.895  1.00  0.00     0.124 S 
ATOM     96  O   UNL A   1      53.467  37.765  27.087  1.00  0.00    -0.237 OA
ATOM     97  O   UNL A   1      52.174  37.097  29.086  1.00  0.00    -0.237 OA
ATOM     98  O   UNL A   1      53.788  35.531  28.078  1.00  0.00    -0.744 OA
ENDBRANCH  91  95
ENDBRANCH  65  88
ENDBRANCH  39  40
ENDBRANCH  32  34
ENDBRANCH  31  32
ENDBRANCH  30  31
ENDBRANCH  29  30
ENDBRANCH  28  29
ENDBRANCH  27  28
ENDBRANCH  26  27
ENDBRANCH   1  26
TORSDOF 27
ENDMDL
MODEL 2
REMARK VINA RESULT:      -8.8      5.139     12.426
REMARK SMILES COCCCNC(=O)/C(C#N)=C/c1ccc(C(=O)OCCOCCOCCOC(=O)c2ccc(-c3c4nc(c(-c5cc(S(=O)(=O)[O-])ccc5F)c5ccc([nH]5)c(-c5cc(S(=O)(=O)[O-])ccc5F)c5nc(c(-c6cc(S(=O)(=O)[O-])ccc6F)c6ccc3[nH]6)C=C5)C=C4)cc2)cc1
REMARK SMILES IDX 22 1 21 2 20 3 19 4 17 5 18 6 16 7 13 8 14 9 95 10 15 11
REMARK SMILES IDX 94 12 12 13 9 14 7 15 6 16 8 18 5 19 4 20 3 21 2 22 1 23
REMARK SMILES IDX 10 24 11 25 23 26 24 27 25 28 26 29 27 30 28 31 29 32 30 33
REMARK SMILES IDX 31 34 32 35 93 36 33 37 92 38 34 39 35 40 36 41 86 42 37 43
REMARK SMILES IDX 91 44 85 45 87 46 38 47 90 48 84 49 83 50 39 52 71 53 51 54
REMARK SMILES IDX 70 55 52 56 55 57 69 58 88 59 53 60 54 61 68 63 89 64 56 65
REMARK SMILES IDX 40 66 41 67 49 68 42 69 48 70 50 71 47 72 43 73 44 74 45 75
REMARK SMILES IDX 46 76 72 77 73 78 81 79 74 80 80 81 82 82 79 83 75 84 76 85
REMARK SMILES IDX 77 86 78 87 57 88 58 89 66 90 59 91 65 92 67 93 64 94 60 95
REMARK SMILES IDX 61 96 62 97 63 98
REMARK H PARENT 6 17 87 51 55 62
REMARK Flexibility Score: inf
ROOT
ATOM      1  O   UNL A   1      42.377  22.410  26.440  1.00  0.00    -0.376 OA
ENDROOT
BRANCH   1   2
ATOM      2  C   UNL A   1      41.613  22.869  27.543  1.00  0.00     0.202 C 
BRANCH   2   3
ATOM      3  C   UNL A   1      41.588  24.314  28.080  1.00  0.00     0.261 C 
BRANCH   3   4
ATOM      4  O   UNL A   1      41.075  25.321  27.209  1.00  0.00    -0.460 OA
BRANCH   4   5
ATOM      5  C   UNL A   1      39.856  25.816  27.537  1.00  0.00     0.338 C 
ATOM      6  O   UNL A   1      38.798  25.209  27.535  1.00  0.00    -0.246 OA
BRANCH   5   7
ATOM      7  C   UNL A   1      40.019  27.174  28.106  1.00  0.00     0.060 A 
ATOM      8  C   UNL A   1      40.163  29.700  29.269  1.00  0.00    -0.024 A 
ATOM      9  C   UNL A   1      40.238  28.563  30.079  1.00  0.00     0.009 A 
ATOM     10  C   UNL A   1      40.209  29.567  27.872  1.00  0.00     0.009 A 
ATOM     11  C   UNL A   1      40.168  27.298  29.495  1.00  0.00     0.016 A 
ATOM     12  C   UNL A   1      40.086  28.306  27.290  1.00  0.00     0.016 A 
BRANCH   8  13
ATOM     13  C   UNL A   1      39.710  30.970  29.865  1.00  0.00     0.033 C 
ATOM     14  C   UNL A   1      38.399  31.140  30.167  1.00  0.00     0.117 C 
BRANCH  14  15
ATOM     15  C   UNL A   1      37.986  32.400  30.862  1.00  0.00     0.261 C 
ATOM     16  N   UNL A   1      37.027  33.244  30.375  1.00  0.00    -0.351 N 
ATOM     17  H   UNL A   1      36.791  33.977  30.989  1.00  0.00     0.163 HD
ATOM     18  O   UNL A   1      38.518  32.731  31.926  1.00  0.00    -0.268 OA
BRANCH  16  19
ATOM     19  C   UNL A   1      36.287  33.267  29.120  1.00  0.00     0.118 C 
BRANCH  19  20
ATOM     20  C   UNL A   1      34.784  33.070  29.252  1.00  0.00     0.050 C 
BRANCH  20  21
ATOM     21  C   UNL A   1      33.899  33.856  28.298  1.00  0.00     0.161 C 
BRANCH  21  22
ATOM     22  O   UNL A   1      33.409  35.074  28.851  1.00  0.00    -0.385 OA
ATOM     23  C   UNL A   1      33.397  35.117  30.270  1.00  0.00     0.194 C 
ENDBRANCH  21  22
ENDBRANCH  20  21
ENDBRANCH  19  20
ENDBRANCH  16  19
ENDBRANCH  14  15
BRANCH  14  24
ATOM     24  C   UNL A   1      37.457  30.127  29.827  1.00  0.00     0.105 C 
ATOM     25  N   UNL A   1      36.681  29.322  29.498  1.00  0.00    -0.192 NA
ENDBRANCH  14  24
ENDBRANCH   8  13
ENDBRANCH   5   7
ENDBRANCH   4   5
ENDBRANCH   3   4
ENDBRANCH   2   3
ENDBRANCH   1   2
BRANCH   1  26
ATOM     26  C   UNL A   1      43.696  22.866  26.227  1.00  0.00     0.188 C 
BRANCH  26  27
ATOM     27  C   UNL A   1      44.865  21.982  26.702  1.00  0.00     0.188 C 
BRANCH  27  28
ATOM     28  O   UNL A   1      46.056  22.024  25.953  1.00  0.00    -0.376 OA
BRANCH  28  29
ATOM     29  C   UNL A   1      46.026  22.558  24.640  1.00  0.00     0.202 C 
BRANCH  29  30
ATOM     30  C   UNL A   1      46.494  23.971  24.216  1.00  0.00     0.261 C 
BRANCH  30  31
ATOM     31  O   UNL A   1      45.739  25.117  24.626  1.00  0.00    -0.460 OA
BRANCH  31  32
ATOM     32  C   UNL A   1      46.449  26.260  24.819  1.00  0.00     0.338 C 
ATOM     33  O   UNL A   1      47.359  26.677  24.125  1.00  0.00    -0.246 OA
BRANCH  32  34
ATOM     34  C   UNL A   1      45.812  27.047  25.898  1.00  0.00     0.060 A 
ATOM     35  C   UNL A   1      46.619  27.764  26.795  1.00  0.00     0.016 A 
ATOM     36  C   UNL A   1      44.426  27.047  26.045  1.00  0.00     0.016 A 
ATOM     37  C   UNL A   1      46.041  28.476  27.847  1.00  0.00     0.010 A 
ATOM     38  C   UNL A   1      43.850  27.739  27.118  1.00  0.00     0.010 A 
ATOM     39  C   UNL A   1      44.655  28.437  28.039  1.00  0.00    -0.014 A 
BRANCH  39  40
ATOM     40  C   UNL A   1      44.059  28.983  29.286  1.00  0.00     0.031 A 
ATOM     41  C   UNL A   1      43.659  30.434  29.319  1.00  0.00     0.074 A 
ATOM     42  C   UNL A   1      43.862  28.206  30.367  1.00  0.00     0.049 A 
ATOM     43  N   UNL A   1      43.204  31.150  30.315  1.00  0.00    -0.248 NA
ATOM     44  C   UNL A   1      43.799  31.175  28.057  1.00  0.00     0.031 C 
ATOM     45  C   UNL A   1      44.154  26.776  30.443  1.00  0.00     0.029 A 
ATOM     46  N   UNL A   1      43.380  28.516  31.616  1.00  0.00    -0.354 N 
ATOM     47  C   UNL A   1      43.016  32.431  29.805  1.00  0.00     0.074 A 
ATOM     48  C   UNL A   1      43.443  32.398  28.421  1.00  0.00     0.031 C 
ATOM     49  C   UNL A   1      43.854  26.334  31.676  1.00  0.00     0.029 A 
ATOM     50  C   UNL A   1      43.399  27.457  32.495  1.00  0.00     0.049 A 
ATOM     51  H   UNL A   1      43.051  29.411  31.860  1.00  0.00     0.167 HD
ATOM     52  C   UNL A   1      42.527  33.529  30.431  1.00  0.00     0.034 A 
ATOM     53  C   UNL A   1      43.117  27.407  33.814  1.00  0.00     0.034 A 
ATOM     54  C   UNL A   1      42.121  33.549  31.816  1.00  0.00     0.049 A 
ATOM     55  C   UNL A   1      42.679  28.671  34.520  1.00  0.00     0.074 A 
ATOM     56  C   UNL A   1      41.598  34.604  32.543  1.00  0.00     0.029 A 
ATOM     57  N   UNL A   1      42.207  32.472  32.688  1.00  0.00    -0.354 N 
ATOM     58  N   UNL A   1      42.499  29.876  34.026  1.00  0.00    -0.248 NA
ATOM     59  C   UNL A   1      42.402  28.568  35.958  1.00  0.00     0.031 C 
ATOM     60  C   UNL A   1      41.460  34.194  33.872  1.00  0.00     0.029 A 
ATOM     61  C   UNL A   1      41.791  32.851  33.956  1.00  0.00     0.049 A 
ATOM     62  H   UNL A   1      42.518  31.570  32.443  1.00  0.00     0.167 HD
ATOM     63  C   UNL A   1      42.051  30.660  35.088  1.00  0.00     0.074 A 
ATOM     64  C   UNL A   1      41.976  29.790  36.242  1.00  0.00     0.031 C 
ATOM     65  C   UNL A   1      41.727  31.979  35.106  1.00  0.00     0.034 A 
BRANCH  52  66
ATOM     66  C   UNL A   1      42.466  34.814  29.639  1.00  0.00     0.023 A 
ATOM     67  C   UNL A   1      43.577  35.665  29.515  1.00  0.00     0.031 A 
ATOM     68  C   UNL A   1      41.267  35.204  29.013  1.00  0.00     0.131 A 
ATOM     69  C   UNL A   1      43.447  36.893  28.847  1.00  0.00     0.055 A 
ATOM     70  C   UNL A   1      41.171  36.383  28.272  1.00  0.00     0.041 A 
ATOM     71  F   UNL A   1      40.163  34.447  29.118  1.00  0.00    -0.206 F 
ATOM     72  C   UNL A   1      42.262  37.244  28.199  1.00  0.00     0.022 A 
BRANCH  69  73
ATOM     73  S   UNL A   1      44.800  38.094  28.976  1.00  0.00     0.124 S 
ATOM     74  O   UNL A   1      45.420  37.983  27.657  1.00  0.00    -0.237 OA
ATOM     75  O   UNL A   1      44.091  39.340  29.245  1.00  0.00    -0.237 OA
ATOM     76  O   UNL A   1      45.608  37.583  30.081  1.00  0.00    -0.744 OA
ENDBRANCH  69  73
ENDBRANCH  52  66
BRANCH  53  77
ATOM     77  C   UNL A   1      43.283  26.135  34.579  1.00  0.00     0.023 A 
ATOM     78  C   UNL A   1      44.555  25.603  34.839  1.00  0.00     0.031 A 
ATOM     79  C   UNL A   1      42.164  25.394  35.000  1.00  0.00     0.131 A 
ATOM     80  C   UNL A   1      44.678  24.347  35.454  1.00  0.00     0.055 A 
ATOM     81  C   UNL A   1      42.291  24.177  35.673  1.00  0.00     0.041 A 
ATOM     82  F   UNL A   1      40.921  25.845  34.766  1.00  0.00    -0.206 F 
ATOM     83  C   UNL A   1      43.556  23.639  35.890  1.00  0.00     0.022 A 
BRANCH  80  84
ATOM     84  S   UNL A   1      46.325  23.595  35.572  1.00  0.00     0.124 S 
ATOM     85  O   UNL A   1      46.223  22.509  34.604  1.00  0.00    -0.237 OA
ATOM     86  O   UNL A   1      47.193  24.708  35.200  1.00  0.00    -0.237 OA
ATOM     87  O   UNL A   1      46.411  23.180  36.970  1.00  0.00    -0.744 OA
ENDBRANCH  80  84
ENDBRANCH  53  77
BRANCH  65  88
ATOM     88  C   UNL A   1      41.203  32.551  36.405  1.00  0.00     0.023 A 
ATOM     89  C   UNL A   1      39.888  32.323  36.844  1.00  0.00     0.031 A 
ATOM     90  C   UNL A   1      42.039  33.342  37.216  1.00  0.00     0.131 A 
ATOM     91  C   UNL A   1      39.428  32.930  38.024  1.00  0.00     0.055 A 
ATOM     92  C   UNL A   1      41.599  33.878  38.428  1.00  0.00     0.041 A 
ATOM     93  F   UNL A   1      43.304  33.602  36.848  1.00  0.00    -0.206 F 
ATOM     94  C   UNL A   1      40.282  33.686  38.830  1.00  0.00     0.022 A 
BRANCH  91  95
ATOM     95  S   UNL A   1      37.664  32.818  38.430  1.00  0.00     0.124 S 
ATOM     96  O   UNL A   1      37.625  33.396  39.769  1.00  0.00    -0.237 OA
ATOM     97  O   UNL A   1      37.048  33.614  37.374  1.00  0.00    -0.237 OA
ATOM     98  O   UNL A   1      37.388  31.384  38.365  1.00  0.00    -0.744 OA
ENDBRANCH  91  95
ENDBRANCH  65  88
ENDBRANCH  39  40
ENDBRANCH  32  34
ENDBRANCH  31  32
ENDBRANCH  30  31
ENDBRANCH  29  30
ENDBRANCH  28  29
ENDBRANCH  27  28
ENDBRANCH  26  27
ENDBRANCH   1  26
TORSDOF 27
ENDMDL
MODEL 3
REMARK VINA RESULT:      -8.2      4.913      7.286
REMARK SMILES COCCCNC(=O)/C(C#N)=C/c1ccc(C(=O)OCCOCCOCCOC(=O)c2ccc(-c3c4nc(c(-c5cc(S(=O)(=O)[O-])ccc5F)c5ccc([nH]5)c(-c5cc(S(=O)(=O)[O-])ccc5F)c5nc(c(-c6cc(S(=O)(=O)[O-])ccc6F)c6ccc3[nH]6)C=C5)C=C4)cc2)cc1
REMARK SMILES IDX 22 1 21 2 20 3 19 4 17 5 18 6 16 7 13 8 14 9 95 10 15 11
REMARK SMILES IDX 94 12 12 13 9 14 7 15 6 16 8 18 5 19 4 20 3 21 2 22 1 23
REMARK SMILES IDX 10 24 11 25 23 26 24 27 25 28 26 29 27 30 28 31 29 32 30 33
REMARK SMILES IDX 31 34 32 35 93 36 33 37 92 38 34 39 35 40 36 41 86 42 37 43
REMARK SMILES IDX 91 44 85 45 87 46 38 47 90 48 84 49 83 50 39 52 71 53 51 54
REMARK SMILES IDX 70 55 52 56 55 57 69 58 88 59 53 60 54 61 68 63 89 64 56 65
REMARK SMILES IDX 40 66 41 67 49 68 42 69 48 70 50 71 47 72 43 73 44 74 45 75
REMARK SMILES IDX 46 76 72 77 73 78 81 79 74 80 80 81 82 82 79 83 75 84 76 85
REMARK SMILES IDX 77 86 78 87 57 88 58 89 66 90 59 91 65 92 67 93 64 94 60 95
REMARK SMILES IDX 61 96 62 97 63 98
REMARK H PARENT 6 17 87 51 55 62
REMARK Flexibility Score: inf
ROOT
ATOM      1  O   UNL A   1      33.498  33.707  32.428  1.00  0.00    -0.376 OA
ENDROOT
BRANCH   1   2
ATOM      2  C   UNL A   1      34.473  32.755  32.031  1.00  0.00     0.202 C 
BRANCH   2   3
ATOM      3  C   UNL A   1      34.772  32.328  30.580  1.00  0.00     0.261 C 
BRANCH   3   4
ATOM      4  O   UNL A   1      36.138  32.338  30.170  1.00  0.00    -0.460 OA
BRANCH   4   5
ATOM      5  C   UNL A   1      36.352  32.196  28.838  1.00  0.00     0.338 C 
ATOM      6  O   UNL A   1      35.891  32.888  27.947  1.00  0.00    -0.246 OA
BRANCH   5   7
ATOM      7  C   UNL A   1      37.412  31.182  28.621  1.00  0.00     0.060 A 
ATOM      8  C   UNL A   1      39.525  29.421  28.195  1.00  0.00    -0.024 A 
ATOM      9  C   UNL A   1      39.525  30.234  29.332  1.00  0.00     0.009 A 
ATOM     10  C   UNL A   1      38.383  29.356  27.381  1.00  0.00     0.009 A 
ATOM     11  C   UNL A   1      38.464  31.114  29.545  1.00  0.00     0.016 A 
ATOM     12  C   UNL A   1      37.347  30.271  27.564  1.00  0.00     0.016 A 
BRANCH   8  13
ATOM     13  C   UNL A   1      40.811  28.910  27.686  1.00  0.00     0.033 C 
ATOM     14  C   UNL A   1      41.053  27.575  27.690  1.00  0.00     0.117 C 
BRANCH  14  15
ATOM     15  C   UNL A   1      42.325  27.080  27.075  1.00  0.00     0.261 C 
ATOM     16  N   UNL A   1      42.659  25.755  27.011  1.00  0.00    -0.351 N 
ATOM     17  H   UNL A   1      43.476  25.575  26.490  1.00  0.00     0.163 HD
ATOM     18  O   UNL A   1      43.140  27.875  26.599  1.00  0.00    -0.268 OA
BRANCH  16  19
ATOM     19  C   UNL A   1      42.039  24.560  27.566  1.00  0.00     0.118 C 
BRANCH  19  20
ATOM     20  C   UNL A   1      42.754  23.958  28.767  1.00  0.00     0.050 C 
BRANCH  20  21
ATOM     21  C   UNL A   1      44.122  23.345  28.520  1.00  0.00     0.161 C 
BRANCH  21  22
ATOM     22  O   UNL A   1      44.956  24.137  27.679  1.00  0.00    -0.385 OA
ATOM     23  C   UNL A   1      45.966  23.411  26.995  1.00  0.00     0.194 C 
ENDBRANCH  21  22
ENDBRANCH  20  21
ENDBRANCH  19  20
ENDBRANCH  16  19
ENDBRANCH  14  15
BRANCH  14  24
ATOM     24  C   UNL A   1      40.101  26.685  28.265  1.00  0.00     0.105 C 
ATOM     25  N   UNL A   1      39.362  25.917  28.738  1.00  0.00    -0.192 NA
ENDBRANCH  14  24
ENDBRANCH   8  13
ENDBRANCH   5   7
ENDBRANCH   4   5
ENDBRANCH   3   4
ENDBRANCH   2   3
ENDBRANCH   1   2
BRANCH   1  26
ATOM     26  C   UNL A   1      33.862  34.863  33.152  1.00  0.00     0.188 C 
BRANCH  26  27
ATOM     27  C   UNL A   1      35.211  35.536  32.833  1.00  0.00     0.188 C 
BRANCH  27  28
ATOM     28  O   UNL A   1      36.306  35.216  33.657  1.00  0.00    -0.376 OA
BRANCH  28  29
ATOM     29  C   UNL A   1      36.086  34.448  34.828  1.00  0.00     0.202 C 
BRANCH  29  30
ATOM     30  C   UNL A   1      36.678  33.050  35.130  1.00  0.00     0.261 C 
BRANCH  30  31
ATOM     31  O   UNL A   1      37.713  32.920  36.112  1.00  0.00    -0.460 OA
BRANCH  31  32
ATOM     32  C   UNL A   1      38.221  31.670  36.281  1.00  0.00     0.338 C 
ATOM     33  O   UNL A   1      37.837  30.830  37.075  1.00  0.00    -0.246 OA
BRANCH  32  34
ATOM     34  C   UNL A   1      39.196  31.397  35.203  1.00  0.00     0.060 A 
ATOM     35  C   UNL A   1      38.801  30.632  34.095  1.00  0.00     0.016 A 
ATOM     36  C   UNL A   1      40.505  31.864  35.303  1.00  0.00     0.016 A 
ATOM     37  C   UNL A   1      39.718  30.324  33.089  1.00  0.00     0.010 A 
ATOM     38  C   UNL A   1      41.430  31.531  34.307  1.00  0.00     0.010 A 
ATOM     39  C   UNL A   1      41.049  30.740  33.206  1.00  0.00    -0.014 A 
BRANCH  39  40
ATOM     40  C   UNL A   1      42.080  30.214  32.273  1.00  0.00     0.031 A 
ATOM     41  C   UNL A   1      42.694  28.869  32.561  1.00  0.00     0.074 A 
ATOM     42  C   UNL A   1      42.457  30.907  31.183  1.00  0.00     0.049 A 
ATOM     43  N   UNL A   1      43.666  28.249  31.944  1.00  0.00    -0.248 NA
ATOM     44  C   UNL A   1      42.136  28.132  33.704  1.00  0.00     0.031 C 
ATOM     45  C   UNL A   1      41.898  32.191  30.764  1.00  0.00     0.029 A 
ATOM     46  N   UNL A   1      43.411  30.630  30.233  1.00  0.00    -0.354 N 
ATOM     47  C   UNL A   1      43.848  27.053  32.632  1.00  0.00     0.074 A 
ATOM     48  C   UNL A   1      42.909  27.057  33.735  1.00  0.00     0.031 C 
ATOM     49  C   UNL A   1      42.526  32.596  29.648  1.00  0.00     0.029 A 
ATOM     50  C   UNL A   1      43.567  31.629  29.299  1.00  0.00     0.049 A 
ATOM     51  H   UNL A   1      43.934  29.796  30.221  1.00  0.00     0.167 HD
ATOM     52  C   UNL A   1      44.714  26.044  32.364  1.00  0.00     0.034 A 
ATOM     53  C   UNL A   1      44.466  31.764  28.302  1.00  0.00     0.034 A 
ATOM     54  C   UNL A   1      45.654  26.064  31.269  1.00  0.00     0.049 A 
ATOM     55  C   UNL A   1      45.497  30.677  28.090  1.00  0.00     0.074 A 
ATOM     56  C   UNL A   1      46.564  25.089  30.901  1.00  0.00     0.029 A 
ATOM     57  N   UNL A   1      45.821  27.116  30.378  1.00  0.00    -0.354 N 
ATOM     58  N   UNL A   1      45.656  29.547  28.743  1.00  0.00    -0.248 NA
ATOM     59  C   UNL A   1      46.465  30.881  27.004  1.00  0.00     0.031 C 
ATOM     60  C   UNL A   1      47.342  25.589  29.853  1.00  0.00     0.029 A 
ATOM     61  C   UNL A   1      46.849  26.832  29.492  1.00  0.00     0.049 A 
ATOM     62  H   UNL A   1      45.287  27.944  30.376  1.00  0.00     0.167 HD
ATOM     63  C   UNL A   1      46.717  28.893  28.119  1.00  0.00     0.074 A 
ATOM     64  C   UNL A   1      47.148  29.746  27.032  1.00  0.00     0.031 C 
ATOM     65  C   UNL A   1      47.281  27.693  28.415  1.00  0.00     0.034 A 
BRANCH  52  66
ATOM     66  C   UNL A   1      44.725  24.866  33.308  1.00  0.00     0.023 A 
ATOM     67  C   UNL A   1      45.359  24.922  34.561  1.00  0.00     0.031 A 
ATOM     68  C   UNL A   1      44.105  23.657  32.940  1.00  0.00     0.131 A 
ATOM     69  C   UNL A   1      45.423  23.774  35.365  1.00  0.00     0.055 A 
ATOM     70  C   UNL A   1      44.093  22.546  33.785  1.00  0.00     0.041 A 
ATOM     71  F   UNL A   1      43.506  23.532  31.745  1.00  0.00    -0.206 F 
ATOM     72  C   UNL A   1      44.769  22.596  35.000  1.00  0.00     0.022 A 
BRANCH  69  73
ATOM     73  S   UNL A   1      46.509  23.795  36.818  1.00  0.00     0.124 S 
ATOM     74  O   UNL A   1      47.655  23.023  36.341  1.00  0.00    -0.237 OA
ATOM     75  O   UNL A   1      46.739  25.221  37.018  1.00  0.00    -0.237 OA
ATOM     76  O   UNL A   1      45.711  23.139  37.852  1.00  0.00    -0.744 OA
ENDBRANCH  69  73
ENDBRANCH  52  66
BRANCH  53  77
ATOM     77  C   UNL A   1      44.480  32.992  27.451  1.00  0.00     0.023 A 
ATOM     78  C   UNL A   1      44.967  34.212  27.943  1.00  0.00     0.031 A 
ATOM     79  C   UNL A   1      43.936  32.978  26.154  1.00  0.00     0.131 A 
ATOM     80  C   UNL A   1      44.856  35.376  27.166  1.00  0.00     0.055 A 
ATOM     81  C   UNL A   1      43.891  34.124  25.357  1.00  0.00     0.041 A 
ATOM     82  F   UNL A   1      43.441  31.842  25.635  1.00  0.00    -0.206 F 
ATOM     83  C   UNL A   1      44.340  35.337  25.870  1.00  0.00     0.022 A 
BRANCH  80  84
ATOM     84  S   UNL A   1      45.292  36.968  27.920  1.00  0.00     0.124 S 
ATOM     85  O   UNL A   1      46.602  36.676  28.490  1.00  0.00    -0.237 OA
ATOM     86  O   UNL A   1      45.278  37.863  26.767  1.00  0.00    -0.237 OA
ATOM     87  O   UNL A   1      44.223  37.190  28.891  1.00  0.00    -0.744 OA
ENDBRANCH  80  84
ENDBRANCH  53  77
BRANCH  65  88
ATOM     88  C   UNL A   1      48.391  27.202  27.512  1.00  0.00     0.023 A 
ATOM     89  C   UNL A   1      49.747  27.380  27.834  1.00  0.00     0.031 A 
ATOM     90  C   UNL A   1      48.082  26.547  26.305  1.00  0.00     0.131 A 
ATOM     91  C   UNL A   1      50.741  26.967  26.932  1.00  0.00     0.055 A 
ATOM     92  C   UNL A   1      49.076  26.068  25.450  1.00  0.00     0.041 A 
ATOM     93  F   UNL A   1      46.805  26.354  25.938  1.00  0.00    -0.206 F 
ATOM     94  C   UNL A   1      50.415  26.291  25.753  1.00  0.00     0.022 A 
BRANCH  91  95
ATOM     95  S   UNL A   1      52.464  27.431  27.261  1.00  0.00     0.124 S 
ATOM     96  O   UNL A   1      52.366  28.033  28.586  1.00  0.00    -0.237 OA
ATOM     97  O   UNL A   1      53.151  26.146  27.194  1.00  0.00    -0.237 OA
ATOM     98  O   UNL A   1      52.782  28.360  26.178  1.00  0.00    -0.744 OA
ENDBRANCH  91  95
ENDBRANCH  65  88
ENDBRANCH  39  40
ENDBRANCH  32  34
ENDBRANCH  31  32
ENDBRANCH  30  31
ENDBRANCH  29  30
ENDBRANCH  28  29
ENDBRANCH  27  28
ENDBRANCH  26  27
ENDBRANCH   1  26
TORSDOF 27
ENDMDL
