MODEL 1
REMARK VINA RESULT:      -9.8      0.000      0.000
REMARK SMILES O=C(OCCOCCOCCOC(=O)C1([NH+]2CCOCC2)CCC1)c1ccc(-c2c3nc(c(-c4cc(S(=O)(=O)[O-])ccc4F)c4ccc([nH]4)c(-c4cc(S(=O)(=O)[O-])ccc4F)c4nc(c(-c5cc(S(=O)(=O)[O-])ccc5F)c5ccc2[nH]5)C=C4)C=C3)cc1
REMARK SMILES IDX 7 1 6 2 5 3 4 4 3 5 2 6 1 7 25 8 26 9 87 10 27 11 86 12
REMARK SMILES IDX 28 13 29 14 30 15 80 16 31 17 85 18 79 19 81 20 32 21 84 22
REMARK SMILES IDX 78 23 77 24 33 26 65 27 45 28 64 29 46 30 49 31 63 32 82 33
REMARK SMILES IDX 47 34 48 35 62 37 83 38 50 39 34 40 35 41 43 42 36 43 42 44
REMARK SMILES IDX 44 45 41 46 37 47 38 48 39 49 40 50 66 51 67 52 75 53 68 54
REMARK SMILES IDX 74 55 76 56 73 57 69 58 70 59 71 60 72 61 51 62 52 63 60 64
REMARK SMILES IDX 53 65 59 66 61 67 58 68 54 69 55 70 56 71 57 72 8 73 9 74
REMARK SMILES IDX 10 75 11 76 12 77 13 78 14 79 15 80 22 81 24 82 23 83 16 84
REMARK SMILES IDX 17 85 21 86 18 88 20 89 19 90
REMARK H PARENT 81 25 49 36 16 87
REMARK Flexibility Score: inf
ROOT
ATOM      1  C   UNL A   1      35.039  21.545  25.449  1.00  0.00     0.188 C 
ENDROOT
BRANCH   1   2
ATOM      2  O   UNL A   1      36.422  21.358  25.773  1.00  0.00    -0.376 OA
BRANCH   2   3
ATOM      3  C   UNL A   1      37.231  21.067  24.629  1.00  0.00     0.202 C 
BRANCH   3   4
ATOM      4  C   UNL A   1      38.030  19.759  24.746  1.00  0.00     0.261 C 
BRANCH   4   5
ATOM      5  O   UNL A   1      38.848  19.685  25.925  1.00  0.00    -0.460 OA
BRANCH   5   6
ATOM      6  C   UNL A   1      40.064  20.234  26.165  1.00  0.00     0.338 C 
ATOM      7  O   UNL A   1      41.050  19.524  25.955  1.00  0.00    -0.246 OA
BRANCH   6   8
ATOM      8  C   UNL A   1      40.309  21.638  26.652  1.00  0.00     0.060 A 
ATOM      9  C   UNL A   1      39.780  22.814  26.115  1.00  0.00     0.016 A 
ATOM     10  C   UNL A   1      41.172  21.767  27.761  1.00  0.00     0.016 A 
ATOM     11  C   UNL A   1      40.153  24.071  26.596  1.00  0.00     0.010 A 
ATOM     12  C   UNL A   1      41.549  23.019  28.255  1.00  0.00     0.010 A 
ATOM     13  C   UNL A   1      41.076  24.177  27.633  1.00  0.00    -0.014 A 
BRANCH  13  14
ATOM     14  C   UNL A   1      41.711  25.486  27.884  1.00  0.00     0.031 A 
ATOM     15  C   UNL A   1      40.905  26.521  28.600  1.00  0.00     0.074 A 
ATOM     16  C   UNL A   1      42.996  25.712  27.574  1.00  0.00     0.049 A 
ATOM     17  N   UNL A   1      41.229  27.742  28.924  1.00  0.00    -0.248 NA
ATOM     18  C   UNL A   1      39.555  26.112  29.015  1.00  0.00     0.031 C 
ATOM     19  C   UNL A   1      43.882  24.721  26.982  1.00  0.00     0.029 A 
ATOM     20  N   UNL A   1      43.784  26.822  27.723  1.00  0.00    -0.354 N 
ATOM     21  C   UNL A   1      40.123  28.250  29.591  1.00  0.00     0.074 A 
ATOM     22  C   UNL A   1      39.113  27.214  29.596  1.00  0.00     0.031 C 
ATOM     23  C   UNL A   1      45.099  25.262  26.827  1.00  0.00     0.029 A 
ATOM     24  C   UNL A   1      45.053  26.660  27.221  1.00  0.00     0.049 A 
ATOM     25  H   UNL A   1      43.472  27.654  28.148  1.00  0.00     0.167 HD
ATOM     26  C   UNL A   1      39.971  29.479  30.141  1.00  0.00     0.034 A 
ATOM     27  C   UNL A   1      46.053  27.544  27.044  1.00  0.00     0.034 A 
ATOM     28  C   UNL A   1      40.974  30.509  30.043  1.00  0.00     0.049 A 
ATOM     29  C   UNL A   1      45.818  28.949  27.517  1.00  0.00     0.074 A 
ATOM     30  C   UNL A   1      40.913  31.824  30.462  1.00  0.00     0.029 A 
ATOM     31  N   UNL A   1      42.223  30.337  29.450  1.00  0.00    -0.354 N 
ATOM     32  N   UNL A   1      44.749  29.445  28.098  1.00  0.00    -0.248 NA
ATOM     33  C   UNL A   1      46.906  29.910  27.320  1.00  0.00     0.031 C 
ATOM     34  C   UNL A   1      42.096  32.462  30.065  1.00  0.00     0.029 A 
ATOM     35  C   UNL A   1      42.929  31.528  29.464  1.00  0.00     0.049 A 
ATOM     36  H   UNL A   1      42.556  29.490  29.074  1.00  0.00     0.167 HD
ATOM     37  C   UNL A   1      45.041  30.776  28.358  1.00  0.00     0.074 A 
ATOM     38  C   UNL A   1      46.390  31.002  27.871  1.00  0.00     0.031 C 
ATOM     39  C   UNL A   1      44.270  31.721  28.954  1.00  0.00     0.034 A 
BRANCH  26  40
ATOM     40  C   UNL A   1      38.626  29.756  30.765  1.00  0.00     0.023 A 
ATOM     41  C   UNL A   1      37.610  30.424  30.056  1.00  0.00     0.031 A 
ATOM     42  C   UNL A   1      38.423  29.511  32.134  1.00  0.00     0.131 A 
ATOM     43  C   UNL A   1      36.495  30.930  30.743  1.00  0.00     0.055 A 
ATOM     44  C   UNL A   1      37.266  29.934  32.792  1.00  0.00     0.041 A 
ATOM     45  F   UNL A   1      39.371  28.910  32.869  1.00  0.00    -0.206 F 
ATOM     46  C   UNL A   1      36.306  30.671  32.103  1.00  0.00     0.022 A 
BRANCH  43  47
ATOM     47  S   UNL A   1      35.418  32.112  29.884  1.00  0.00     0.124 S 
ATOM     48  O   UNL A   1      36.374  33.157  29.501  1.00  0.00    -0.237 OA
ATOM     49  O   UNL A   1      34.869  31.321  28.804  1.00  0.00    -0.237 OA
ATOM     50  O   UNL A   1      34.461  32.517  30.921  1.00  0.00    -0.744 OA
ENDBRANCH  43  47
ENDBRANCH  26  40
BRANCH  27  51
ATOM     51  C   UNL A   1      47.295  27.136  26.323  1.00  0.00     0.023 A 
ATOM     52  C   UNL A   1      47.487  27.398  24.957  1.00  0.00     0.031 A 
ATOM     53  C   UNL A   1      48.338  26.493  27.020  1.00  0.00     0.131 A 
ATOM     54  C   UNL A   1      48.687  27.012  24.332  1.00  0.00     0.055 A 
ATOM     55  C   UNL A   1      49.542  26.147  26.404  1.00  0.00     0.041 A 
ATOM     56  F   UNL A   1      48.213  26.222  28.329  1.00  0.00    -0.206 F 
ATOM     57  C   UNL A   1      49.720  26.403  25.051  1.00  0.00     0.022 A 
BRANCH  54  58
ATOM     58  S   UNL A   1      48.871  27.271  22.545  1.00  0.00     0.124 S 
ATOM     59  O   UNL A   1      48.530  25.955  22.017  1.00  0.00    -0.237 OA
ATOM     60  O   UNL A   1      47.904  28.333  22.286  1.00  0.00    -0.237 OA
ATOM     61  O   UNL A   1      50.273  27.656  22.396  1.00  0.00    -0.744 OA
ENDBRANCH  54  58
ENDBRANCH  27  51
BRANCH  39  62
ATOM     62  C   UNL A   1      44.901  33.071  29.149  1.00  0.00     0.023 A 
ATOM     63  C   UNL A   1      44.922  34.030  28.124  1.00  0.00     0.031 A 
ATOM     64  C   UNL A   1      45.483  33.396  30.385  1.00  0.00     0.131 A 
ATOM     65  C   UNL A   1      45.555  35.261  28.343  1.00  0.00     0.055 A 
ATOM     66  C   UNL A   1      46.066  34.641  30.613  1.00  0.00     0.041 A 
ATOM     67  F   UNL A   1      45.488  32.507  31.393  1.00  0.00    -0.206 F 
ATOM     68  C   UNL A   1      46.113  35.578  29.585  1.00  0.00     0.022 A 
BRANCH  65  69
ATOM     69  S   UNL A   1      45.694  36.426  26.960  1.00  0.00     0.124 S 
ATOM     70  O   UNL A   1      44.563  37.316  27.200  1.00  0.00    -0.237 OA
ATOM     71  O   UNL A   1      47.018  37.005  27.168  1.00  0.00    -0.237 OA
ATOM     72  O   UNL A   1      45.572  35.571  25.780  1.00  0.00    -0.744 OA
ENDBRANCH  65  69
ENDBRANCH  39  62
ENDBRANCH  13  14
ENDBRANCH   6   8
ENDBRANCH   5   6
ENDBRANCH   4   5
ENDBRANCH   3   4
ENDBRANCH   2   3
ENDBRANCH   1   2
BRANCH   1  73
ATOM     73  C   UNL A   1      34.249  22.217  26.569  1.00  0.00     0.188 C 
BRANCH  73  74
ATOM     74  O   UNL A   1      32.852  22.240  26.280  1.00  0.00    -0.376 OA
BRANCH  74  75
ATOM     75  C   UNL A   1      32.130  23.206  27.048  1.00  0.00     0.202 C 
BRANCH  75  76
ATOM     76  C   UNL A   1      31.015  23.919  26.268  1.00  0.00     0.261 C 
BRANCH  76  77
ATOM     77  O   UNL A   1      31.169  25.338  26.113  1.00  0.00    -0.459 OA
BRANCH  77  78
ATOM     78  C   UNL A   1      30.906  25.881  24.885  1.00  0.00     0.368 C 
ATOM     79  O   UNL A   1      30.183  25.319  24.063  1.00  0.00    -0.245 OA
BRANCH  78  80
ATOM     80  C   UNL A   1      31.675  27.276  24.691  1.00  0.00     0.196 C 
ATOM     81  C   UNL A   1      30.813  28.395  24.025  1.00  0.00     0.081 C 
ATOM     82  C   UNL A   1      31.795  28.217  25.920  1.00  0.00     0.081 C 
ATOM     83  C   UNL A   1      31.349  29.406  25.056  1.00  0.00     0.014 C 
BRANCH  80  84
ATOM     84  N   UNL A   1      32.977  27.052  24.002  1.00  0.00    -0.317 N 
ATOM     85  C   UNL A   1      32.888  27.066  22.528  1.00  0.00     0.292 C 
ATOM     86  C   UNL A   1      33.964  26.077  24.467  1.00  0.00     0.292 C 
ATOM     87  H   UNL A   1      33.411  27.901  24.368  1.00  0.00     0.349 HD
ATOM     88  C   UNL A   1      32.901  25.684  21.854  1.00  0.00     0.221 C 
ATOM     89  C   UNL A   1      33.901  24.724  23.757  1.00  0.00     0.221 C 
ATOM     90  O   UNL A   1      33.973  24.878  22.340  1.00  0.00    -0.370 OA
ENDBRANCH  80  84
ENDBRANCH  78  80
ENDBRANCH  77  78
ENDBRANCH  76  77
ENDBRANCH  75  76
ENDBRANCH  74  75
ENDBRANCH  73  74
ENDBRANCH   1  73
TORSDOF 21
ENDMDL
MODEL 2
REMARK VINA RESULT:      -9.7      1.607      2.239
REMARK SMILES O=C(OCCOCCOCCOC(=O)C1([NH+]2CCOCC2)CCC1)c1ccc(-c2c3nc(c(-c4cc(S(=O)(=O)[O-])ccc4F)c4ccc([nH]4)c(-c4cc(S(=O)(=O)[O-])ccc4F)c4nc(c(-c5cc(S(=O)(=O)[O-])ccc5F)c5ccc2[nH]5)C=C4)C=C3)cc1
REMARK SMILES IDX 7 1 6 2 5 3 4 4 3 5 2 6 1 7 25 8 26 9 87 10 27 11 86 12
REMARK SMILES IDX 28 13 29 14 30 15 80 16 31 17 85 18 79 19 81 20 32 21 84 22
REMARK SMILES IDX 78 23 77 24 33 26 65 27 45 28 64 29 46 30 49 31 63 32 82 33
REMARK SMILES IDX 47 34 48 35 62 37 83 38 50 39 34 40 35 41 43 42 36 43 42 44
REMARK SMILES IDX 44 45 41 46 37 47 38 48 39 49 40 50 66 51 67 52 75 53 68 54
REMARK SMILES IDX 74 55 76 56 73 57 69 58 70 59 71 60 72 61 51 62 52 63 60 64
REMARK SMILES IDX 53 65 59 66 61 67 58 68 54 69 55 70 56 71 57 72 8 73 9 74
REMARK SMILES IDX 10 75 11 76 12 77 13 78 14 79 15 80 22 81 24 82 23 83 16 84
REMARK SMILES IDX 17 85 21 86 18 88 20 89 19 90
REMARK H PARENT 81 25 49 36 16 87
REMARK Flexibility Score: inf
ROOT
ATOM      1  C   UNL A   1      34.340  20.530  24.700  1.00  0.00     0.188 C 
ENDROOT
BRANCH   1   2
ATOM      2  O   UNL A   1      35.555  19.799  24.903  1.00  0.00    -0.376 OA
BRANCH   2   3
ATOM      3  C   UNL A   1      36.690  20.646  25.106  1.00  0.00     0.202 C 
BRANCH   3   4
ATOM      4  C   UNL A   1      38.041  19.931  24.939  1.00  0.00     0.261 C 
BRANCH   4   5
ATOM      5  O   UNL A   1      38.845  19.929  26.130  1.00  0.00    -0.460 OA
BRANCH   5   6
ATOM      6  C   UNL A   1      40.064  20.480  26.347  1.00  0.00     0.338 C 
ATOM      7  O   UNL A   1      41.046  19.754  26.170  1.00  0.00    -0.246 OA
BRANCH   6   8
ATOM      8  C   UNL A   1      40.319  21.902  26.770  1.00  0.00     0.060 A 
ATOM      9  C   UNL A   1      39.761  23.055  26.209  1.00  0.00     0.016 A 
ATOM     10  C   UNL A   1      41.223  22.078  27.838  1.00  0.00     0.016 A 
ATOM     11  C   UNL A   1      40.144  24.331  26.627  1.00  0.00     0.010 A 
ATOM     12  C   UNL A   1      41.611  23.351  28.269  1.00  0.00     0.010 A 
ATOM     13  C   UNL A   1      41.106  24.481  27.623  1.00  0.00    -0.014 A 
BRANCH  13  14
ATOM     14  C   UNL A   1      41.742  25.803  27.798  1.00  0.00     0.031 A 
ATOM     15  C   UNL A   1      40.990  26.835  28.574  1.00  0.00     0.074 A 
ATOM     16  C   UNL A   1      42.989  26.042  27.367  1.00  0.00     0.049 A 
ATOM     17  N   UNL A   1      41.324  28.064  28.853  1.00  0.00    -0.248 NA
ATOM     18  C   UNL A   1      39.691  26.412  29.118  1.00  0.00     0.031 C 
ATOM     19  C   UNL A   1      43.831  25.056  26.706  1.00  0.00     0.029 A 
ATOM     20  N   UNL A   1      43.770  27.165  27.429  1.00  0.00    -0.354 N 
ATOM     21  C   UNL A   1      40.277  28.565  29.614  1.00  0.00     0.074 A 
ATOM     22  C   UNL A   1      39.288  27.515  29.725  1.00  0.00     0.031 C 
ATOM     23  C   UNL A   1      45.020  25.613  26.432  1.00  0.00     0.029 A 
ATOM     24  C   UNL A   1      44.989  27.015  26.813  1.00  0.00     0.049 A 
ATOM     25  H   UNL A   1      43.486  27.998  27.872  1.00  0.00     0.167 HD
ATOM     26  C   UNL A   1      40.158  29.799  30.161  1.00  0.00     0.034 A 
ATOM     27  C   UNL A   1      45.955  27.911  26.534  1.00  0.00     0.034 A 
ATOM     28  C   UNL A   1      41.132  30.841  29.959  1.00  0.00     0.049 A 
ATOM     29  C   UNL A   1      45.743  29.318  27.011  1.00  0.00     0.074 A 
ATOM     30  C   UNL A   1      41.090  32.161  30.367  1.00  0.00     0.029 A 
ATOM     31  N   UNL A   1      42.323  30.679  29.254  1.00  0.00    -0.354 N 
ATOM     32  N   UNL A   1      44.725  29.807  27.683  1.00  0.00    -0.248 NA
ATOM     33  C   UNL A   1      46.793  30.292  26.702  1.00  0.00     0.031 C 
ATOM     34  C   UNL A   1      42.221  32.810  29.854  1.00  0.00     0.029 A 
ATOM     35  C   UNL A   1      43.008  31.881  29.188  1.00  0.00     0.049 A 
ATOM     36  H   UNL A   1      42.633  29.833  28.858  1.00  0.00     0.167 HD
ATOM     37  C   UNL A   1      45.020  31.145  27.900  1.00  0.00     0.074 A 
ATOM     38  C   UNL A   1      46.315  31.383  27.286  1.00  0.00     0.031 C 
ATOM     39  C   UNL A   1      44.293  32.086  28.554  1.00  0.00     0.034 A 
BRANCH  26  40
ATOM     40  C   UNL A   1      38.873  30.065  30.905  1.00  0.00     0.023 A 
ATOM     41  C   UNL A   1      37.824  30.800  30.321  1.00  0.00     0.031 A 
ATOM     42  C   UNL A   1      38.768  29.735  32.268  1.00  0.00     0.131 A 
ATOM     43  C   UNL A   1      36.780  31.286  31.124  1.00  0.00     0.055 A 
ATOM     44  C   UNL A   1      37.678  30.141  33.039  1.00  0.00     0.041 A 
ATOM     45  F   UNL A   1      39.753  29.066  32.887  1.00  0.00    -0.206 F 
ATOM     46  C   UNL A   1      36.688  30.942  32.475  1.00  0.00     0.022 A 
BRANCH  43  47
ATOM     47  S   UNL A   1      35.673  32.546  30.428  1.00  0.00     0.124 S 
ATOM     48  O   UNL A   1      34.411  32.236  31.107  1.00  0.00    -0.237 OA
ATOM     49  O   UNL A   1      36.318  33.784  30.808  1.00  0.00    -0.237 OA
ATOM     50  O   UNL A   1      35.678  32.246  28.990  1.00  0.00    -0.744 OA
ENDBRANCH  43  47
ENDBRANCH  26  40
BRANCH  27  51
ATOM     51  C   UNL A   1      47.131  27.511  25.705  1.00  0.00     0.023 A 
ATOM     52  C   UNL A   1      47.215  27.808  24.336  1.00  0.00     0.031 A 
ATOM     53  C   UNL A   1      48.219  26.840  26.299  1.00  0.00     0.131 A 
ATOM     54  C   UNL A   1      48.357  27.428  23.606  1.00  0.00     0.055 A 
ATOM     55  C   UNL A   1      49.366  26.501  25.580  1.00  0.00     0.041 A 
ATOM     56  F   UNL A   1      48.197  26.536  27.607  1.00  0.00    -0.206 F 
ATOM     57  C   UNL A   1      49.437  26.791  24.223  1.00  0.00     0.022 A 
BRANCH  54  58
ATOM     58  S   UNL A   1      48.400  27.733  21.818  1.00  0.00     0.124 S 
ATOM     59  O   UNL A   1      49.608  28.539  21.681  1.00  0.00    -0.237 OA
ATOM     60  O   UNL A   1      48.469  26.380  21.275  1.00  0.00    -0.237 OA
ATOM     61  O   UNL A   1      47.147  28.442  21.560  1.00  0.00    -0.744 OA
ENDBRANCH  54  58
ENDBRANCH  27  51
BRANCH  39  62
ATOM     62  C   UNL A   1      44.919  33.447  28.674  1.00  0.00     0.023 A 
ATOM     63  C   UNL A   1      45.848  33.746  29.684  1.00  0.00     0.031 A 
ATOM     64  C   UNL A   1      44.579  34.454  27.756  1.00  0.00     0.131 A 
ATOM     65  C   UNL A   1      46.376  35.040  29.777  1.00  0.00     0.055 A 
ATOM     66  C   UNL A   1      45.147  35.725  27.822  1.00  0.00     0.041 A 
ATOM     67  F   UNL A   1      43.693  34.213  26.775  1.00  0.00    -0.206 F 
ATOM     68  C   UNL A   1      46.044  36.026  28.843  1.00  0.00     0.022 A 
BRANCH  65  69
ATOM     69  S   UNL A   1      47.462  35.439  31.173  1.00  0.00     0.124 S 
ATOM     70  O   UNL A   1      46.827  36.636  31.716  1.00  0.00    -0.237 OA
ATOM     71  O   UNL A   1      47.371  34.238  31.997  1.00  0.00    -0.237 OA
ATOM     72  O   UNL A   1      48.763  35.658  30.542  1.00  0.00    -0.744 OA
ENDBRANCH  65  69
ENDBRANCH  39  62
ENDBRANCH  13  14
ENDBRANCH   6   8
ENDBRANCH   5   6
ENDBRANCH   4   5
ENDBRANCH   3   4
ENDBRANCH   2   3
ENDBRANCH   1   2
BRANCH   1  73
ATOM     73  C   UNL A   1      33.179  19.646  24.251  1.00  0.00     0.188 C 
BRANCH  73  74
ATOM     74  O   UNL A   1      31.920  20.224  24.595  1.00  0.00    -0.376 OA
BRANCH  74  75
ATOM     75  C   UNL A   1      31.912  21.652  24.519  1.00  0.00     0.202 C 
BRANCH  75  76
ATOM     76  C   UNL A   1      30.860  22.321  25.415  1.00  0.00     0.261 C 
BRANCH  76  77
ATOM     77  O   UNL A   1      30.753  23.748  25.295  1.00  0.00    -0.459 OA
BRANCH  77  78
ATOM     78  C   UNL A   1      31.546  24.520  26.098  1.00  0.00     0.368 C 
ATOM     79  O   UNL A   1      31.628  24.332  27.312  1.00  0.00    -0.245 OA
BRANCH  78  80
ATOM     80  C   UNL A   1      32.287  25.667  25.254  1.00  0.00     0.196 C 
ATOM     81  C   UNL A   1      33.805  25.398  25.005  1.00  0.00     0.081 C 
ATOM     82  C   UNL A   1      32.118  25.656  23.711  1.00  0.00     0.081 C 
ATOM     83  C   UNL A   1      33.633  25.848  23.541  1.00  0.00     0.014 C 
BRANCH  80  84
ATOM     84  N   UNL A   1      32.020  27.002  25.858  1.00  0.00    -0.317 N 
ATOM     85  C   UNL A   1      31.135  27.863  25.047  1.00  0.00     0.292 C 
ATOM     86  C   UNL A   1      33.052  27.788  26.535  1.00  0.00     0.292 C 
ATOM     87  H   UNL A   1      31.543  26.627  26.679  1.00  0.00     0.349 HD
ATOM     88  C   UNL A   1      31.844  28.963  24.239  1.00  0.00     0.221 C 
ATOM     89  C   UNL A   1      33.719  28.848  25.658  1.00  0.00     0.221 C 
ATOM     90  O   UNL A   1      32.750  29.704  25.054  1.00  0.00    -0.370 OA
ENDBRANCH  80  84
ENDBRANCH  78  80
ENDBRANCH  77  78
ENDBRANCH  76  77
ENDBRANCH  75  76
ENDBRANCH  74  75
ENDBRANCH  73  74
ENDBRANCH   1  73
TORSDOF 21
ENDMDL
MODEL 3
REMARK VINA RESULT:      -9.5      2.389      8.124
REMARK SMILES O=C(OCCOCCOCCOC(=O)C1([NH+]2CCOCC2)CCC1)c1ccc(-c2c3nc(c(-c4cc(S(=O)(=O)[O-])ccc4F)c4ccc([nH]4)c(-c4cc(S(=O)(=O)[O-])ccc4F)c4nc(c(-c5cc(S(=O)(=O)[O-])ccc5F)c5ccc2[nH]5)C=C4)C=C3)cc1
REMARK SMILES IDX 7 1 6 2 5 3 4 4 3 5 2 6 1 7 25 8 26 9 87 10 27 11 86 12
REMARK SMILES IDX 28 13 29 14 30 15 80 16 31 17 85 18 79 19 81 20 32 21 84 22
REMARK SMILES IDX 78 23 77 24 33 26 65 27 45 28 64 29 46 30 49 31 63 32 82 33
REMARK SMILES IDX 47 34 48 35 62 37 83 38 50 39 34 40 35 41 43 42 36 43 42 44
REMARK SMILES IDX 44 45 41 46 37 47 38 48 39 49 40 50 66 51 67 52 75 53 68 54
REMARK SMILES IDX 74 55 76 56 73 57 69 58 70 59 71 60 72 61 51 62 52 63 60 64
REMARK SMILES IDX 53 65 59 66 61 67 58 68 54 69 55 70 56 71 57 72 8 73 9 74
REMARK SMILES IDX 10 75 11 76 12 77 13 78 14 79 15 80 22 81 24 82 23 83 16 84
REMARK SMILES IDX 17 85 21 86 18 88 20 89 19 90
REMARK H PARENT 81 25 49 36 16 87
REMARK Flexibility Score: inf
ROOT
ATOM      1  C   UNL A   1      35.171  22.504  24.424  1.00  0.00     0.188 C 
ENDROOT
BRANCH   1   2
ATOM      2  O   UNL A   1      36.304  21.812  23.885  1.00  0.00    -0.376 OA
BRANCH   2   3
ATOM      3  C   UNL A   1      37.018  21.057  24.869  1.00  0.00     0.202 C 
BRANCH   3   4
ATOM      4  C   UNL A   1      37.790  21.920  25.881  1.00  0.00     0.261 C 
BRANCH   4   5
ATOM      5  O   UNL A   1      39.159  21.522  26.054  1.00  0.00    -0.460 OA
BRANCH   5   6
ATOM      6  C   UNL A   1      40.199  22.218  26.576  1.00  0.00     0.338 C 
ATOM      7  O   UNL A   1      41.270  21.618  26.698  1.00  0.00    -0.246 OA
BRANCH   6   8
ATOM      8  C   UNL A   1      40.158  23.661  27.004  1.00  0.00     0.060 A 
ATOM      9  C   UNL A   1      39.626  24.733  26.282  1.00  0.00     0.016 A 
ATOM     10  C   UNL A   1      40.728  23.951  28.261  1.00  0.00     0.016 A 
ATOM     11  C   UNL A   1      39.727  26.048  26.743  1.00  0.00     0.010 A 
ATOM     12  C   UNL A   1      40.831  25.262  28.736  1.00  0.00     0.010 A 
ATOM     13  C   UNL A   1      40.374  26.319  27.946  1.00  0.00    -0.014 A 
BRANCH  13  14
ATOM     14  C   UNL A   1      40.774  27.711  28.235  1.00  0.00     0.031 A 
ATOM     15  C   UNL A   1      42.203  28.083  28.001  1.00  0.00     0.074 A 
ATOM     16  C   UNL A   1      39.875  28.638  28.597  1.00  0.00     0.049 A 
ATOM     17  N   UNL A   1      42.800  29.226  28.190  1.00  0.00    -0.248 NA
ATOM     18  C   UNL A   1      43.067  27.018  27.470  1.00  0.00     0.031 C 
ATOM     19  C   UNL A   1      38.449  28.385  28.734  1.00  0.00     0.029 A 
ATOM     20  N   UNL A   1      40.013  29.966  28.897  1.00  0.00    -0.354 N 
ATOM     21  C   UNL A   1      44.115  29.024  27.793  1.00  0.00     0.074 A 
ATOM     22  C   UNL A   1      44.230  27.641  27.384  1.00  0.00     0.031 C 
ATOM     23  C   UNL A   1      37.836  29.527  29.080  1.00  0.00     0.029 A 
ATOM     24  C   UNL A   1      38.836  30.562  29.280  1.00  0.00     0.049 A 
ATOM     25  H   UNL A   1      40.871  30.447  28.844  1.00  0.00     0.167 HD
ATOM     26  C   UNL A   1      45.132  29.919  27.784  1.00  0.00     0.034 A 
ATOM     27  C   UNL A   1      38.587  31.785  29.786  1.00  0.00     0.034 A 
ATOM     28  C   UNL A   1      44.992  31.266  28.276  1.00  0.00     0.049 A 
ATOM     29  C   UNL A   1      39.753  32.722  29.918  1.00  0.00     0.074 A 
ATOM     30  C   UNL A   1      45.959  32.243  28.420  1.00  0.00     0.029 A 
ATOM     31  N   UNL A   1      43.798  31.815  28.738  1.00  0.00    -0.354 N 
ATOM     32  N   UNL A   1      41.009  32.511  29.595  1.00  0.00    -0.248 NA
ATOM     33  C   UNL A   1      39.481  34.050  30.473  1.00  0.00     0.031 C 
ATOM     34  C   UNL A   1      45.364  33.357  29.027  1.00  0.00     0.029 A 
ATOM     35  C   UNL A   1      44.009  33.105  29.196  1.00  0.00     0.049 A 
ATOM     36  H   UNL A   1      42.929  31.353  28.740  1.00  0.00     0.167 HD
ATOM     37  C   UNL A   1      41.679  33.690  29.887  1.00  0.00     0.074 A 
ATOM     38  C   UNL A   1      40.683  34.608  30.411  1.00  0.00     0.031 C 
ATOM     39  C   UNL A   1      42.993  33.989  29.727  1.00  0.00     0.034 A 
BRANCH  26  40
ATOM     40  C   UNL A   1      46.470  29.386  27.336  1.00  0.00     0.023 A 
ATOM     41  C   UNL A   1      46.693  28.984  26.005  1.00  0.00     0.031 A 
ATOM     42  C   UNL A   1      47.471  29.112  28.284  1.00  0.00     0.131 A 
ATOM     43  C   UNL A   1      47.829  28.224  25.686  1.00  0.00     0.055 A 
ATOM     44  C   UNL A   1      48.643  28.438  27.939  1.00  0.00     0.041 A 
ATOM     45  F   UNL A   1      47.299  29.440  29.573  1.00  0.00    -0.206 F 
ATOM     46  C   UNL A   1      48.817  27.967  26.640  1.00  0.00     0.022 A 
BRANCH  43  47
ATOM     47  S   UNL A   1      47.885  27.394  24.072  1.00  0.00     0.124 S 
ATOM     48  O   UNL A   1      47.029  26.228  24.311  1.00  0.00    -0.237 OA
ATOM     49  O   UNL A   1      47.359  28.401  23.175  1.00  0.00    -0.237 OA
ATOM     50  O   UNL A   1      49.309  27.077  23.901  1.00  0.00    -0.744 OA
ENDBRANCH  43  47
ENDBRANCH  26  40
BRANCH  27  51
ATOM     51  C   UNL A   1      37.218  32.132  30.272  1.00  0.00     0.023 A 
ATOM     52  C   UNL A   1      36.297  32.830  29.476  1.00  0.00     0.031 A 
ATOM     53  C   UNL A   1      36.803  31.731  31.558  1.00  0.00     0.131 A 
ATOM     54  C   UNL A   1      35.011  33.110  29.975  1.00  0.00     0.055 A 
ATOM     55  C   UNL A   1      35.514  31.978  32.034  1.00  0.00     0.041 A 
ATOM     56  F   UNL A   1      37.640  31.056  32.362  1.00  0.00    -0.206 F 
ATOM     57  C   UNL A   1      34.611  32.675  31.242  1.00  0.00     0.022 A 
BRANCH  54  58
ATOM     58  S   UNL A   1      33.873  34.100  28.966  1.00  0.00     0.124 S 
ATOM     59  O   UNL A   1      32.940  34.598  29.971  1.00  0.00    -0.237 OA
ATOM     60  O   UNL A   1      34.765  35.091  28.375  1.00  0.00    -0.237 OA
ATOM     61  O   UNL A   1      33.313  33.128  28.028  1.00  0.00    -0.744 OA
ENDBRANCH  54  58
ENDBRANCH  27  51
BRANCH  39  62
ATOM     62  C   UNL A   1      43.406  35.389  30.083  1.00  0.00     0.023 A 
ATOM     63  C   UNL A   1      43.673  35.766  31.409  1.00  0.00     0.031 A 
ATOM     64  C   UNL A   1      43.539  36.355  29.072  1.00  0.00     0.131 A 
ATOM     65  C   UNL A   1      44.019  37.093  31.695  1.00  0.00     0.055 A 
ATOM     66  C   UNL A   1      43.933  37.661  29.356  1.00  0.00     0.041 A 
ATOM     67  F   UNL A   1      43.291  36.040  27.790  1.00  0.00    -0.206 F 
ATOM     68  C   UNL A   1      44.166  38.039  30.676  1.00  0.00     0.022 A 
BRANCH  65  69
ATOM     69  S   UNL A   1      44.218  37.587  33.429  1.00  0.00     0.124 S 
ATOM     70  O   UNL A   1      43.143  38.561  33.590  1.00  0.00    -0.237 OA
ATOM     71  O   UNL A   1      44.045  36.323  34.138  1.00  0.00    -0.237 OA
ATOM     72  O   UNL A   1      45.570  38.140  33.473  1.00  0.00    -0.744 OA
ENDBRANCH  65  69
ENDBRANCH  39  62
ENDBRANCH  13  14
ENDBRANCH   6   8
ENDBRANCH   5   6
ENDBRANCH   4   5
ENDBRANCH   3   4
ENDBRANCH   2   3
ENDBRANCH   1   2
BRANCH   1  73
ATOM     73  C   UNL A   1      34.135  21.565  25.036  1.00  0.00     0.188 C 
BRANCH  73  74
ATOM     74  O   UNL A   1      32.851  22.184  25.111  1.00  0.00    -0.376 OA
BRANCH  74  75
ATOM     75  C   UNL A   1      32.451  22.499  26.448  1.00  0.00     0.202 C 
BRANCH  75  76
ATOM     76  C   UNL A   1      31.734  23.851  26.585  1.00  0.00     0.261 C 
BRANCH  76  77
ATOM     77  O   UNL A   1      32.065  24.836  25.594  1.00  0.00    -0.459 OA
BRANCH  77  78
ATOM     78  C   UNL A   1      31.336  25.994  25.574  1.00  0.00     0.368 C 
ATOM     79  O   UNL A   1      30.105  25.993  25.582  1.00  0.00    -0.245 OA
BRANCH  78  80
ATOM     80  C   UNL A   1      32.294  27.281  25.510  1.00  0.00     0.196 C 
ATOM     81  C   UNL A   1      31.961  28.378  26.570  1.00  0.00     0.081 C 
ATOM     82  C   UNL A   1      33.692  27.180  26.176  1.00  0.00     0.081 C 
ATOM     83  C   UNL A   1      33.466  28.536  26.862  1.00  0.00     0.014 C 
BRANCH  80  84
ATOM     84  N   UNL A   1      32.350  27.809  24.118  1.00  0.00    -0.317 N 
ATOM     85  C   UNL A   1      31.507  29.000  23.892  1.00  0.00     0.292 C 
ATOM     86  C   UNL A   1      32.374  26.941  22.940  1.00  0.00     0.292 C 
ATOM     87  H   UNL A   1      33.343  28.044  24.160  1.00  0.00     0.349 HD
ATOM     88  C   UNL A   1      30.175  28.737  23.169  1.00  0.00     0.221 C 
ATOM     89  C   UNL A   1      31.008  26.718  22.290  1.00  0.00     0.221 C 
ATOM     90  O   UNL A   1      30.368  27.958  21.990  1.00  0.00    -0.370 OA
ENDBRANCH  80  84
ENDBRANCH  78  80
ENDBRANCH  77  78
ENDBRANCH  76  77
ENDBRANCH  75  76
ENDBRANCH  74  75
ENDBRANCH  73  74
ENDBRANCH   1  73
TORSDOF 21
ENDMDL
