MODEL 1
REMARK VINA RESULT:     -11.3      0.000      0.000
REMARK SMILES O=C(OCCOCCOCCOC(=O)c1ccccc1/N=C/c1coc2ccccc2c1=O)c1ccc(-c2c3nc(c(-c4cc(S(=O)(=O)[O-])ccc4F)c4ccc([nH]4)c(-c4cc(S(=O)(=O)[O-])ccc4F)c4nc(c(-c5cc(S(=O)(=O)[O-])ccc5F)c5ccc2[nH]5)C=C4)C=C3)cc1
REMARK SMILES IDX 7 1 6 2 5 3 4 4 3 5 2 6 1 7 34 8 35 9 96 10 36 11 95 12
REMARK SMILES IDX 37 13 38 14 39 15 89 16 40 17 94 18 88 19 90 20 41 21 93 22
REMARK SMILES IDX 87 23 86 24 42 26 74 27 54 28 73 29 55 30 58 31 72 32 91 33
REMARK SMILES IDX 56 34 57 35 71 37 92 38 59 39 43 40 44 41 52 42 45 43 51 44
REMARK SMILES IDX 53 45 50 46 46 47 47 48 48 49 49 50 75 51 76 52 84 53 77 54
REMARK SMILES IDX 83 55 85 56 82 57 78 58 79 59 80 60 81 61 60 62 61 63 69 64
REMARK SMILES IDX 62 65 68 66 70 67 67 68 63 69 64 70 65 71 66 72 8 73 9 74
REMARK SMILES IDX 10 75 11 76 12 77 13 78 14 79 15 80 16 81 20 82 17 83 19 84
REMARK SMILES IDX 18 85 21 86 22 87 23 88 24 89 32 90 25 91 31 92 33 93 26 94
REMARK SMILES IDX 30 95 27 96 29 97 28 98
REMARK H PARENT 90 25 58 36
REMARK Flexibility Score: inf
ROOT
ATOM      1  C   UNL A   1      37.094  22.796  24.433  1.00  0.00     0.188 C 
ENDROOT
BRANCH   1   2
ATOM      2  O   UNL A   1      37.462  21.426  24.341  1.00  0.00    -0.376 OA
BRANCH   2   3
ATOM      3  C   UNL A   1      37.937  20.863  25.570  1.00  0.00     0.202 C 
BRANCH   3   4
ATOM      4  C   UNL A   1      39.315  21.382  26.006  1.00  0.00     0.261 C 
BRANCH   4   5
ATOM      5  O   UNL A   1      39.994  20.310  26.682  1.00  0.00    -0.460 OA
BRANCH   5   6
ATOM      6  C   UNL A   1      41.190  19.882  26.224  1.00  0.00     0.338 C 
ATOM      7  O   UNL A   1      41.517  18.760  25.869  1.00  0.00    -0.246 OA
BRANCH   6   8
ATOM      8  C   UNL A   1      42.088  21.039  26.351  1.00  0.00     0.060 A 
ATOM      9  C   UNL A   1      42.407  21.481  27.642  1.00  0.00     0.016 A 
ATOM     10  C   UNL A   1      42.532  21.733  25.226  1.00  0.00     0.016 A 
ATOM     11  C   UNL A   1      43.049  22.690  27.818  1.00  0.00     0.010 A 
ATOM     12  C   UNL A   1      43.210  22.943  25.405  1.00  0.00     0.010 A 
ATOM     13  C   UNL A   1      43.419  23.446  26.700  1.00  0.00    -0.014 A 
BRANCH  13  14
ATOM     14  C   UNL A   1      43.926  24.812  26.943  1.00  0.00     0.031 A 
ATOM     15  C   UNL A   1      43.068  25.779  27.707  1.00  0.00     0.074 A 
ATOM     16  C   UNL A   1      45.185  25.112  26.575  1.00  0.00     0.049 A 
ATOM     17  N   UNL A   1      43.329  27.010  28.052  1.00  0.00    -0.248 NA
ATOM     18  C   UNL A   1      41.730  25.311  28.107  1.00  0.00     0.031 C 
ATOM     19  C   UNL A   1      46.068  24.210  25.835  1.00  0.00     0.029 A 
ATOM     20  N   UNL A   1      45.962  26.213  26.817  1.00  0.00    -0.354 N 
ATOM     21  C   UNL A   1      42.154  27.501  28.612  1.00  0.00     0.074 A 
ATOM     22  C   UNL A   1      41.200  26.413  28.620  1.00  0.00     0.031 C 
ATOM     23  C   UNL A   1      47.290  24.760  25.761  1.00  0.00     0.029 A 
ATOM     24  C   UNL A   1      47.275  26.062  26.421  1.00  0.00     0.049 A 
ATOM     25  H   UNL A   1      45.615  27.036  27.232  1.00  0.00     0.167 HD
ATOM     26  C   UNL A   1      41.898  28.766  29.019  1.00  0.00     0.034 A 
ATOM     27  C   UNL A   1      48.334  26.879  26.611  1.00  0.00     0.034 A 
ATOM     28  C   UNL A   1      42.896  29.807  29.017  1.00  0.00     0.049 A 
ATOM     29  C   UNL A   1      48.055  28.216  27.255  1.00  0.00     0.074 A 
ATOM     30  C   UNL A   1      42.763  31.142  29.352  1.00  0.00     0.029 A 
ATOM     31  N   UNL A   1      44.227  29.615  28.664  1.00  0.00    -0.354 N 
ATOM     32  N   UNL A   1      46.923  28.678  27.739  1.00  0.00    -0.248 NA
ATOM     33  C   UNL A   1      49.177  29.157  27.334  1.00  0.00     0.031 C 
ATOM     34  C   UNL A   1      44.001  31.766  29.151  1.00  0.00     0.029 A 
ATOM     35  C   UNL A   1      44.919  30.810  28.748  1.00  0.00     0.049 A 
ATOM     36  H   UNL A   1      44.620  28.753  28.395  1.00  0.00     0.167 HD
ATOM     37  C   UNL A   1      47.183  29.994  28.099  1.00  0.00     0.074 A 
ATOM     38  C   UNL A   1      48.604  30.204  27.905  1.00  0.00     0.031 C 
ATOM     39  C   UNL A   1      46.326  30.974  28.482  1.00  0.00     0.034 A 
BRANCH  26  40
ATOM     40  C   UNL A   1      40.467  29.110  29.345  1.00  0.00     0.023 A 
ATOM     41  C   UNL A   1      39.962  29.115  30.655  1.00  0.00     0.031 A 
ATOM     42  C   UNL A   1      39.573  29.380  28.292  1.00  0.00     0.131 A 
ATOM     43  C   UNL A   1      38.590  29.324  30.871  1.00  0.00     0.055 A 
ATOM     44  C   UNL A   1      38.223  29.655  28.519  1.00  0.00     0.041 A 
ATOM     45  F   UNL A   1      39.993  29.357  27.017  1.00  0.00    -0.206 F 
ATOM     46  C   UNL A   1      37.721  29.616  29.815  1.00  0.00     0.022 A 
BRANCH  43  47
ATOM     47  S   UNL A   1      37.921  29.097  32.543  1.00  0.00     0.124 S 
ATOM     48  O   UNL A   1      36.551  29.576  32.377  1.00  0.00    -0.237 OA
ATOM     49  O   UNL A   1      38.074  27.662  32.754  1.00  0.00    -0.237 OA
ATOM     50  O   UNL A   1      38.776  29.942  33.374  1.00  0.00    -0.744 OA
ENDBRANCH  43  47
ENDBRANCH  26  40
BRANCH  27  51
ATOM     51  C   UNL A   1      49.723  26.508  26.194  1.00  0.00     0.023 A 
ATOM     52  C   UNL A   1      50.246  26.944  24.960  1.00  0.00     0.031 A 
ATOM     53  C   UNL A   1      50.552  25.698  26.991  1.00  0.00     0.131 A 
ATOM     54  C   UNL A   1      51.541  26.569  24.560  1.00  0.00     0.055 A 
ATOM     55  C   UNL A   1      51.859  25.375  26.617  1.00  0.00     0.041 A 
ATOM     56  F   UNL A   1      50.113  25.219  28.166  1.00  0.00    -0.206 F 
ATOM     57  C   UNL A   1      52.358  25.804  25.392  1.00  0.00     0.022 A 
BRANCH  54  58
ATOM     58  S   UNL A   1      52.130  27.050  22.912  1.00  0.00     0.124 S 
ATOM     59  O   UNL A   1      50.887  27.098  22.150  1.00  0.00    -0.237 OA
ATOM     60  O   UNL A   1      52.768  28.332  23.183  1.00  0.00    -0.237 OA
ATOM     61  O   UNL A   1      53.044  25.968  22.552  1.00  0.00    -0.744 OA
ENDBRANCH  54  58
ENDBRANCH  27  51
BRANCH  39  62
ATOM     62  C   UNL A   1      46.920  32.350  28.590  1.00  0.00     0.023 A 
ATOM     63  C   UNL A   1      46.941  33.199  27.467  1.00  0.00     0.031 A 
ATOM     64  C   UNL A   1      47.494  32.805  29.785  1.00  0.00     0.131 A 
ATOM     65  C   UNL A   1      47.583  34.439  27.544  1.00  0.00     0.055 A 
ATOM     66  C   UNL A   1      48.083  34.066  29.871  1.00  0.00     0.041 A 
ATOM     67  F   UNL A   1      47.498  32.029  30.881  1.00  0.00    -0.206 F 
ATOM     68  C   UNL A   1      48.143  34.885  28.744  1.00  0.00     0.022 A 
BRANCH  65  69
ATOM     69  S   UNL A   1      47.749  35.423  26.030  1.00  0.00     0.124 S 
ATOM     70  O   UNL A   1      46.361  35.765  25.739  1.00  0.00    -0.237 OA
ATOM     71  O   UNL A   1      48.599  36.527  26.465  1.00  0.00    -0.237 OA
ATOM     72  O   UNL A   1      48.372  34.496  25.088  1.00  0.00    -0.744 OA
ENDBRANCH  65  69
ENDBRANCH  39  62
ENDBRANCH  13  14
ENDBRANCH   6   8
ENDBRANCH   5   6
ENDBRANCH   4   5
ENDBRANCH   3   4
ENDBRANCH   2   3
ENDBRANCH   1   2
BRANCH   1  73
ATOM     73  C   UNL A   1      35.834  23.186  23.656  1.00  0.00     0.188 C 
BRANCH  73  74
ATOM     74  O   UNL A   1      34.828  23.982  24.252  1.00  0.00    -0.376 OA
BRANCH  74  75
ATOM     75  C   UNL A   1      34.882  24.285  25.632  1.00  0.00     0.202 C 
BRANCH  75  76
ATOM     76  C   UNL A   1      33.830  23.725  26.595  1.00  0.00     0.261 C 
BRANCH  76  77
ATOM     77  O   UNL A   1      32.481  24.179  26.458  1.00  0.00    -0.460 OA
BRANCH  77  78
ATOM     78  C   UNL A   1      31.570  23.179  26.421  1.00  0.00     0.340 C 
ATOM     79  O   UNL A   1      30.739  22.901  27.269  1.00  0.00    -0.246 OA
BRANCH  78  80
ATOM     80  C   UNL A   1      31.839  22.330  25.259  1.00  0.00     0.085 A 
ATOM     81  C   UNL A   1      32.321  21.027  25.446  1.00  0.00     0.018 A 
ATOM     82  C   UNL A   1      31.570  22.839  23.976  1.00  0.00     0.077 A 
ATOM     83  C   UNL A   1      32.583  20.224  24.337  1.00  0.00     0.001 A 
ATOM     84  C   UNL A   1      31.880  22.024  22.879  1.00  0.00     0.029 A 
ATOM     85  C   UNL A   1      32.390  20.732  23.053  1.00  0.00     0.002 A 
BRANCH  82  86
ATOM     86  N   UNL A   1      30.660  23.875  23.746  1.00  0.00    -0.255 NA
ATOM     87  C   UNL A   1      30.901  25.040  23.244  1.00  0.00     0.127 C 
BRANCH  87  88
ATOM     88  C   UNL A   1      29.940  26.187  23.507  1.00  0.00     0.076 A 
ATOM     89  C   UNL A   1      29.632  26.270  24.817  1.00  0.00     0.209 A 
ATOM     90  C   UNL A   1      30.522  27.511  23.063  1.00  0.00     0.201 A 
ATOM     91  O   UNL A   1      30.375  27.029  25.739  1.00  0.00    -0.463 OA
ATOM     92  C   UNL A   1      31.646  27.941  23.911  1.00  0.00     0.065 A 
ATOM     93  O   UNL A   1      30.172  28.079  22.038  1.00  0.00    -0.288 OA
ATOM     94  C   UNL A   1      31.555  27.545  25.251  1.00  0.00     0.137 A 
ATOM     95  C   UNL A   1      32.854  28.322  23.335  1.00  0.00     0.016 A 
ATOM     96  C   UNL A   1      32.686  27.499  26.040  1.00  0.00     0.048 A 
ATOM     97  C   UNL A   1      33.998  28.218  24.115  1.00  0.00     0.001 A 
ATOM     98  C   UNL A   1      33.912  27.779  25.441  1.00  0.00     0.004 A 
ENDBRANCH  87  88
ENDBRANCH  82  86
ENDBRANCH  78  80
ENDBRANCH  77  78
ENDBRANCH  76  77
ENDBRANCH  75  76
ENDBRANCH  74  75
ENDBRANCH  73  74
ENDBRANCH   1  73
TORSDOF 22
ENDMDL
MODEL 2
REMARK VINA RESULT:     -11.2      6.537     12.013
REMARK SMILES O=C(OCCOCCOCCOC(=O)c1ccccc1/N=C/c1coc2ccccc2c1=O)c1ccc(-c2c3nc(c(-c4cc(S(=O)(=O)[O-])ccc4F)c4ccc([nH]4)c(-c4cc(S(=O)(=O)[O-])ccc4F)c4nc(c(-c5cc(S(=O)(=O)[O-])ccc5F)c5ccc2[nH]5)C=C4)C=C3)cc1
REMARK SMILES IDX 7 1 6 2 5 3 4 4 3 5 2 6 1 7 34 8 35 9 96 10 36 11 95 12
REMARK SMILES IDX 37 13 38 14 39 15 89 16 40 17 94 18 88 19 90 20 41 21 93 22
REMARK SMILES IDX 87 23 86 24 42 26 74 27 54 28 73 29 55 30 58 31 72 32 91 33
REMARK SMILES IDX 56 34 57 35 71 37 92 38 59 39 43 40 44 41 52 42 45 43 51 44
REMARK SMILES IDX 53 45 50 46 46 47 47 48 48 49 49 50 75 51 76 52 84 53 77 54
REMARK SMILES IDX 83 55 85 56 82 57 78 58 79 59 80 60 81 61 60 62 61 63 69 64
REMARK SMILES IDX 62 65 68 66 70 67 67 68 63 69 64 70 65 71 66 72 8 73 9 74
REMARK SMILES IDX 10 75 11 76 12 77 13 78 14 79 15 80 16 81 20 82 17 83 19 84
REMARK SMILES IDX 18 85 21 86 22 87 23 88 24 89 32 90 25 91 31 92 33 93 26 94
REMARK SMILES IDX 30 95 27 96 29 97 28 98
REMARK H PARENT 90 25 58 36
REMARK Flexibility Score: inf
ROOT
ATOM      1  C   UNL A   1      35.202  32.624  28.795  1.00  0.00     0.188 C 
ENDROOT
BRANCH   1   2
ATOM      2  O   UNL A   1      35.319  34.000  29.131  1.00  0.00    -0.376 OA
BRANCH   2   3
ATOM      3  C   UNL A   1      34.437  34.859  28.397  1.00  0.00     0.202 C 
BRANCH   3   4
ATOM      4  C   UNL A   1      33.361  35.535  29.259  1.00  0.00     0.261 C 
BRANCH   4   5
ATOM      5  O   UNL A   1      33.229  34.775  30.473  1.00  0.00    -0.460 OA
BRANCH   5   6
ATOM      6  C   UNL A   1      33.155  35.416  31.658  1.00  0.00     0.338 C 
ATOM      7  O   UNL A   1      32.463  36.373  31.970  1.00  0.00    -0.246 OA
BRANCH   6   8
ATOM      8  C   UNL A   1      34.188  34.793  32.499  1.00  0.00     0.060 A 
ATOM      9  C   UNL A   1      35.438  35.422  32.573  1.00  0.00     0.016 A 
ATOM     10  C   UNL A   1      33.964  33.567  33.126  1.00  0.00     0.016 A 
ATOM     11  C   UNL A   1      36.506  34.766  33.152  1.00  0.00     0.010 A 
ATOM     12  C   UNL A   1      35.039  32.918  33.738  1.00  0.00     0.010 A 
ATOM     13  C   UNL A   1      36.321  33.494  33.703  1.00  0.00    -0.014 A 
BRANCH  13  14
ATOM     14  C   UNL A   1      37.528  32.760  34.134  1.00  0.00     0.031 A 
ATOM     15  C   UNL A   1      38.211  31.850  33.155  1.00  0.00     0.074 A 
ATOM     16  C   UNL A   1      38.044  33.017  35.350  1.00  0.00     0.049 A 
ATOM     17  N   UNL A   1      39.292  31.137  33.316  1.00  0.00    -0.248 NA
ATOM     18  C   UNL A   1      37.580  31.698  31.833  1.00  0.00     0.031 C 
ATOM     19  C   UNL A   1      37.426  33.897  36.342  1.00  0.00     0.029 A 
ATOM     20  N   UNL A   1      39.217  32.625  35.937  1.00  0.00    -0.354 N 
ATOM     21  C   UNL A   1      39.412  30.369  32.162  1.00  0.00     0.074 A 
ATOM     22  C   UNL A   1      38.330  30.753  31.282  1.00  0.00     0.031 C 
ATOM     23  C   UNL A   1      38.268  34.045  37.377  1.00  0.00     0.029 A 
ATOM     24  C   UNL A   1      39.471  33.254  37.139  1.00  0.00     0.049 A 
ATOM     25  H   UNL A   1      39.821  31.956  35.541  1.00  0.00     0.167 HD
ATOM     26  C   UNL A   1      40.316  29.394  31.908  1.00  0.00     0.034 A 
ATOM     27  C   UNL A   1      40.570  33.207  37.923  1.00  0.00     0.034 A 
ATOM     28  C   UNL A   1      41.394  29.071  32.809  1.00  0.00     0.049 A 
ATOM     29  C   UNL A   1      41.662  32.250  37.508  1.00  0.00     0.074 A 
ATOM     30  C   UNL A   1      42.348  28.076  32.705  1.00  0.00     0.029 A 
ATOM     31  N   UNL A   1      41.660  29.757  33.989  1.00  0.00    -0.354 N 
ATOM     32  N   UNL A   1      41.734  31.499  36.430  1.00  0.00    -0.248 NA
ATOM     33  C   UNL A   1      42.791  32.097  38.431  1.00  0.00     0.031 C 
ATOM     34  C   UNL A   1      43.158  28.128  33.847  1.00  0.00     0.029 A 
ATOM     35  C   UNL A   1      42.746  29.191  34.634  1.00  0.00     0.049 A 
ATOM     36  H   UNL A   1      41.150  30.532  34.318  1.00  0.00     0.167 HD
ATOM     37  C   UNL A   1      42.876  30.725  36.595  1.00  0.00     0.074 A 
ATOM     38  C   UNL A   1      43.527  31.195  37.800  1.00  0.00     0.031 C 
ATOM     39  C   UNL A   1      43.316  29.666  35.869  1.00  0.00     0.034 A 
BRANCH  26  40
ATOM     40  C   UNL A   1      40.077  28.530  30.697  1.00  0.00     0.023 A 
ATOM     41  C   UNL A   1      40.691  28.766  29.456  1.00  0.00     0.031 A 
ATOM     42  C   UNL A   1      39.151  27.473  30.784  1.00  0.00     0.131 A 
ATOM     43  C   UNL A   1      40.325  27.994  28.341  1.00  0.00     0.055 A 
ATOM     44  C   UNL A   1      38.842  26.665  29.688  1.00  0.00     0.041 A 
ATOM     45  F   UNL A   1      38.509  27.222  31.937  1.00  0.00    -0.206 F 
ATOM     46  C   UNL A   1      39.423  26.932  28.453  1.00  0.00     0.022 A 
BRANCH  43  47
ATOM     47  S   UNL A   1      40.955  28.465  26.706  1.00  0.00     0.124 S 
ATOM     48  O   UNL A   1      42.197  29.150  27.058  1.00  0.00    -0.237 OA
ATOM     49  O   UNL A   1      41.104  27.176  26.039  1.00  0.00    -0.237 OA
ATOM     50  O   UNL A   1      39.906  29.327  26.167  1.00  0.00    -0.744 OA
ENDBRANCH  43  47
ENDBRANCH  26  40
BRANCH  27  51
ATOM     51  C   UNL A   1      40.714  34.039  39.160  1.00  0.00     0.023 A 
ATOM     52  C   UNL A   1      41.382  35.280  39.119  1.00  0.00     0.031 A 
ATOM     53  C   UNL A   1      40.220  33.618  40.406  1.00  0.00     0.131 A 
ATOM     54  C   UNL A   1      41.540  36.045  40.288  1.00  0.00     0.055 A 
ATOM     55  C   UNL A   1      40.329  34.406  41.555  1.00  0.00     0.041 A 
ATOM     56  F   UNL A   1      39.600  32.433  40.530  1.00  0.00    -0.206 F 
ATOM     57  C   UNL A   1      40.998  35.624  41.502  1.00  0.00     0.022 A 
BRANCH  54  58
ATOM     58  S   UNL A   1      42.510  37.577  40.217  1.00  0.00     0.124 S 
ATOM     59  O   UNL A   1      43.730  37.194  40.918  1.00  0.00    -0.237 OA
ATOM     60  O   UNL A   1      42.634  37.788  38.779  1.00  0.00    -0.237 OA
ATOM     61  O   UNL A   1      41.665  38.544  40.913  1.00  0.00    -0.744 OA
ENDBRANCH  54  58
ENDBRANCH  27  51
BRANCH  39  62
ATOM     62  C   UNL A   1      44.481  28.918  36.455  1.00  0.00     0.023 A 
ATOM     63  C   UNL A   1      44.264  27.729  37.177  1.00  0.00     0.031 A 
ATOM     64  C   UNL A   1      45.792  29.397  36.331  1.00  0.00     0.131 A 
ATOM     65  C   UNL A   1      45.338  27.090  37.805  1.00  0.00     0.055 A 
ATOM     66  C   UNL A   1      46.867  28.724  36.912  1.00  0.00     0.041 A 
ATOM     67  F   UNL A   1      46.047  30.528  35.653  1.00  0.00    -0.206 F 
ATOM     68  C   UNL A   1      46.643  27.572  37.665  1.00  0.00     0.022 A 
BRANCH  65  69
ATOM     69  S   UNL A   1      44.994  25.667  38.874  1.00  0.00     0.124 S 
ATOM     70  O   UNL A   1      44.589  26.315  40.118  1.00  0.00    -0.237 OA
ATOM     71  O   UNL A   1      43.936  24.974  38.144  1.00  0.00    -0.237 OA
ATOM     72  O   UNL A   1      46.273  24.963  38.927  1.00  0.00    -0.744 OA
ENDBRANCH  65  69
ENDBRANCH  39  62
ENDBRANCH  13  14
ENDBRANCH   6   8
ENDBRANCH   5   6
ENDBRANCH   4   5
ENDBRANCH   3   4
ENDBRANCH   2   3
ENDBRANCH   1   2
BRANCH   1  73
ATOM     73  C   UNL A   1      34.065  32.283  27.829  1.00  0.00     0.188 C 
BRANCH  73  74
ATOM     74  O   UNL A   1      33.499  30.987  27.799  1.00  0.00    -0.376 OA
BRANCH  74  75
ATOM     75  C   UNL A   1      33.932  30.041  26.840  1.00  0.00     0.202 C 
BRANCH  75  76
ATOM     76  C   UNL A   1      34.119  28.570  27.226  1.00  0.00     0.261 C 
BRANCH  76  77
ATOM     77  O   UNL A   1      33.247  27.602  26.636  1.00  0.00    -0.460 OA
BRANCH  77  78
ATOM     78  C   UNL A   1      31.943  27.777  26.952  1.00  0.00     0.340 C 
ATOM     79  O   UNL A   1      31.462  27.919  28.064  1.00  0.00    -0.246 OA
BRANCH  78  80
ATOM     80  C   UNL A   1      31.131  27.592  25.748  1.00  0.00     0.085 A 
ATOM     81  C   UNL A   1      31.129  28.579  24.752  1.00  0.00     0.018 A 
ATOM     82  C   UNL A   1      30.396  26.402  25.607  1.00  0.00     0.077 A 
ATOM     83  C   UNL A   1      30.350  28.403  23.610  1.00  0.00     0.001 A 
ATOM     84  C   UNL A   1      29.591  26.270  24.468  1.00  0.00     0.029 A 
ATOM     85  C   UNL A   1      29.558  27.262  23.481  1.00  0.00     0.002 A 
BRANCH  82  86
ATOM     86  N   UNL A   1      30.731  25.220  26.275  1.00  0.00    -0.255 NA
ATOM     87  C   UNL A   1      31.618  24.345  25.935  1.00  0.00     0.127 C 
BRANCH  87  88
ATOM     88  C   UNL A   1      31.523  22.928  26.473  1.00  0.00     0.076 A 
ATOM     89  C   UNL A   1      31.313  22.044  25.475  1.00  0.00     0.209 A 
ATOM     90  C   UNL A   1      32.779  22.529  27.214  1.00  0.00     0.201 A 
ATOM     91  O   UNL A   1      32.353  21.423  24.762  1.00  0.00    -0.463 OA
ATOM     92  C   UNL A   1      33.933  22.367  26.313  1.00  0.00     0.065 A 
ATOM     93  O   UNL A   1      32.843  22.481  28.434  1.00  0.00    -0.288 OA
ATOM     94  C   UNL A   1      33.613  21.911  25.027  1.00  0.00     0.137 A 
ATOM     95  C   UNL A   1      35.136  23.008  26.590  1.00  0.00     0.016 A 
ATOM     96  C   UNL A   1      34.491  22.113  23.981  1.00  0.00     0.048 A 
ATOM     97  C   UNL A   1      35.989  23.261  25.524  1.00  0.00     0.001 A 
ATOM     98  C   UNL A   1      35.649  22.845  24.232  1.00  0.00     0.004 A 
ENDBRANCH  87  88
ENDBRANCH  82  86
ENDBRANCH  78  80
ENDBRANCH  77  78
ENDBRANCH  76  77
ENDBRANCH  75  76
ENDBRANCH  74  75
ENDBRANCH  73  74
ENDBRANCH   1  73
TORSDOF 22
ENDMDL
MODEL 3
REMARK VINA RESULT:     -10.8      2.266      3.972
REMARK SMILES O=C(OCCOCCOCCOC(=O)c1ccccc1/N=C/c1coc2ccccc2c1=O)c1ccc(-c2c3nc(c(-c4cc(S(=O)(=O)[O-])ccc4F)c4ccc([nH]4)c(-c4cc(S(=O)(=O)[O-])ccc4F)c4nc(c(-c5cc(S(=O)(=O)[O-])ccc5F)c5ccc2[nH]5)C=C4)C=C3)cc1
REMARK SMILES IDX 7 1 6 2 5 3 4 4 3 5 2 6 1 7 34 8 35 9 96 10 36 11 95 12
REMARK SMILES IDX 37 13 38 14 39 15 89 16 40 17 94 18 88 19 90 20 41 21 93 22
REMARK SMILES IDX 87 23 86 24 42 26 74 27 54 28 73 29 55 30 58 31 72 32 91 33
REMARK SMILES IDX 56 34 57 35 71 37 92 38 59 39 43 40 44 41 52 42 45 43 51 44
REMARK SMILES IDX 53 45 50 46 46 47 47 48 48 49 49 50 75 51 76 52 84 53 77 54
REMARK SMILES IDX 83 55 85 56 82 57 78 58 79 59 80 60 81 61 60 62 61 63 69 64
REMARK SMILES IDX 62 65 68 66 70 67 67 68 63 69 64 70 65 71 66 72 8 73 9 74
REMARK SMILES IDX 10 75 11 76 12 77 13 78 14 79 15 80 16 81 20 82 17 83 19 84
REMARK SMILES IDX 18 85 21 86 22 87 23 88 24 89 32 90 25 91 31 92 33 93 26 94
REMARK SMILES IDX 30 95 27 96 29 97 28 98
REMARK H PARENT 90 25 58 36
REMARK Flexibility Score: inf
ROOT
ATOM      1  C   UNL A   1      34.501  23.067  23.122  1.00  0.00     0.188 C 
ENDROOT
BRANCH   1   2
ATOM      2  O   UNL A   1      34.294  21.907  23.918  1.00  0.00    -0.376 OA
BRANCH   2   3
ATOM      3  C   UNL A   1      35.084  21.868  25.113  1.00  0.00     0.202 C 
BRANCH   3   4
ATOM      4  C   UNL A   1      36.566  21.545  24.874  1.00  0.00     0.261 C 
BRANCH   4   5
ATOM      5  O   UNL A   1      37.335  22.264  25.854  1.00  0.00    -0.460 OA
BRANCH   5   6
ATOM      6  C   UNL A   1      38.603  21.885  26.118  1.00  0.00     0.338 C 
ATOM      7  O   UNL A   1      39.114  20.783  25.998  1.00  0.00    -0.246 OA
BRANCH   6   8
ATOM      8  C   UNL A   1      39.244  23.070  26.710  1.00  0.00     0.060 A 
ATOM      9  C   UNL A   1      38.711  24.327  26.396  1.00  0.00     0.016 A 
ATOM     10  C   UNL A   1      40.399  22.953  27.483  1.00  0.00     0.016 A 
ATOM     11  C   UNL A   1      39.405  25.472  26.730  1.00  0.00     0.010 A 
ATOM     12  C   UNL A   1      41.085  24.116  27.847  1.00  0.00     0.010 A 
ATOM     13  C   UNL A   1      40.615  25.371  27.424  1.00  0.00    -0.014 A 
BRANCH  13  14
ATOM     14  C   UNL A   1      41.409  26.606  27.587  1.00  0.00     0.031 A 
ATOM     15  C   UNL A   1      40.964  27.626  28.593  1.00  0.00     0.074 A 
ATOM     16  C   UNL A   1      42.567  26.725  26.913  1.00  0.00     0.049 A 
ATOM     17  N   UNL A   1      41.525  28.760  28.914  1.00  0.00    -0.248 NA
ATOM     18  C   UNL A   1      39.708  27.352  29.311  1.00  0.00     0.031 C 
ATOM     19  C   UNL A   1      43.054  25.762  25.925  1.00  0.00     0.029 A 
ATOM     20  N   UNL A   1      43.569  27.656  26.991  1.00  0.00    -0.354 N 
ATOM     21  C   UNL A   1      40.640  29.385  29.786  1.00  0.00     0.074 A 
ATOM     22  C   UNL A   1      39.536  28.475  29.996  1.00  0.00     0.031 C 
ATOM     23  C   UNL A   1      44.297  26.107  25.556  1.00  0.00     0.029 A 
ATOM     24  C   UNL A   1      44.689  27.327  26.256  1.00  0.00     0.049 A 
ATOM     25  H   UNL A   1      43.496  28.483  27.521  1.00  0.00     0.167 HD
ATOM     26  C   UNL A   1      40.732  30.633  30.304  1.00  0.00     0.034 A 
ATOM     27  C   UNL A   1      45.893  27.936  26.196  1.00  0.00     0.034 A 
ATOM     28  C   UNL A   1      41.871  31.489  30.086  1.00  0.00     0.049 A 
ATOM     29  C   UNL A   1      46.037  29.235  26.952  1.00  0.00     0.074 A 
ATOM     30  C   UNL A   1      42.075  32.791  30.505  1.00  0.00     0.029 A 
ATOM     31  N   UNL A   1      43.012  31.113  29.386  1.00  0.00    -0.354 N 
ATOM     32  N   UNL A   1      45.168  29.832  27.739  1.00  0.00    -0.248 NA
ATOM     33  C   UNL A   1      47.296  29.966  26.775  1.00  0.00     0.031 C 
ATOM     34  C   UNL A   1      43.315  33.217  30.013  1.00  0.00     0.029 A 
ATOM     35  C   UNL A   1      43.911  32.163  29.338  1.00  0.00     0.049 A 
ATOM     36  H   UNL A   1      43.159  30.227  28.983  1.00  0.00     0.167 HD
ATOM     37  C   UNL A   1      45.748  31.047  28.078  1.00  0.00     0.074 A 
ATOM     38  C   UNL A   1      47.088  31.037  27.525  1.00  0.00     0.031 C 
ATOM     39  C   UNL A   1      45.210  32.116  28.718  1.00  0.00     0.034 A 
BRANCH  26  40
ATOM     40  C   UNL A   1      39.518  31.177  31.012  1.00  0.00     0.023 A 
ATOM     41  C   UNL A   1      39.449  31.324  32.407  1.00  0.00     0.031 A 
ATOM     42  C   UNL A   1      38.375  31.499  30.257  1.00  0.00     0.131 A 
ATOM     43  C   UNL A   1      38.242  31.721  33.006  1.00  0.00     0.055 A 
ATOM     44  C   UNL A   1      37.199  31.959  30.853  1.00  0.00     0.041 A 
ATOM     45  F   UNL A   1      38.373  31.347  28.923  1.00  0.00    -0.206 F 
ATOM     46  C   UNL A   1      37.124  32.061  32.238  1.00  0.00     0.022 A 
BRANCH  43  47
ATOM     47  S   UNL A   1      38.106  31.679  34.815  1.00  0.00     0.124 S 
ATOM     48  O   UNL A   1      36.813  32.325  35.025  1.00  0.00    -0.237 OA
ATOM     49  O   UNL A   1      38.161  30.251  35.105  1.00  0.00    -0.237 OA
ATOM     50  O   UNL A   1      39.263  32.450  35.265  1.00  0.00    -0.744 OA
ENDBRANCH  43  47
ENDBRANCH  26  40
BRANCH  27  51
ATOM     51  C   UNL A   1      47.040  27.379  25.410  1.00  0.00     0.023 A 
ATOM     52  C   UNL A   1      47.243  27.754  24.067  1.00  0.00     0.031 A 
ATOM     53  C   UNL A   1      47.943  26.452  25.960  1.00  0.00     0.131 A 
ATOM     54  C   UNL A   1      48.304  27.208  23.324  1.00  0.00     0.055 A 
ATOM     55  C   UNL A   1      49.030  25.954  25.237  1.00  0.00     0.041 A 
ATOM     56  F   UNL A   1      47.797  26.023  27.224  1.00  0.00    -0.206 F 
ATOM     57  C   UNL A   1      49.212  26.325  23.909  1.00  0.00     0.022 A 
BRANCH  54  58
ATOM     58  S   UNL A   1      48.456  27.623  21.564  1.00  0.00     0.124 S 
ATOM     59  O   UNL A   1      48.723  26.318  20.969  1.00  0.00    -0.237 OA
ATOM     60  O   UNL A   1      47.151  28.206  21.278  1.00  0.00    -0.237 OA
ATOM     61  O   UNL A   1      49.573  28.565  21.536  1.00  0.00    -0.744 OA
ENDBRANCH  54  58
ENDBRANCH  27  51
BRANCH  39  62
ATOM     62  C   UNL A   1      46.055  33.359  28.728  1.00  0.00     0.023 A 
ATOM     63  C   UNL A   1      46.260  34.083  27.538  1.00  0.00     0.031 A 
ATOM     64  C   UNL A   1      46.683  33.804  29.899  1.00  0.00     0.131 A 
ATOM     65  C   UNL A   1      47.125  35.180  27.531  1.00  0.00     0.055 A 
ATOM     66  C   UNL A   1      47.502  34.934  29.897  1.00  0.00     0.041 A 
ATOM     67  F   UNL A   1      46.519  33.145  31.057  1.00  0.00    -0.206 F 
ATOM     68  C   UNL A   1      47.738  35.621  28.707  1.00  0.00     0.022 A 
BRANCH  65  69
ATOM     69  S   UNL A   1      47.504  35.973  25.945  1.00  0.00     0.124 S 
ATOM     70  O   UNL A   1      46.970  35.009  24.989  1.00  0.00    -0.237 OA
ATOM     71  O   UNL A   1      46.781  37.238  26.045  1.00  0.00    -0.237 OA
ATOM     72  O   UNL A   1      48.961  36.091  25.962  1.00  0.00    -0.744 OA
ENDBRANCH  65  69
ENDBRANCH  39  62
ENDBRANCH  13  14
ENDBRANCH   6   8
ENDBRANCH   5   6
ENDBRANCH   4   5
ENDBRANCH   3   4
ENDBRANCH   2   3
ENDBRANCH   1   2
BRANCH   1  73
ATOM     73  C   UNL A   1      33.307  23.490  22.265  1.00  0.00     0.188 C 
BRANCH  73  74
ATOM     74  O   UNL A   1      33.045  24.857  22.005  1.00  0.00    -0.376 OA
BRANCH  74  75
ATOM     75  C   UNL A   1      31.721  25.351  22.054  1.00  0.00     0.202 C 
BRANCH  75  76
ATOM     76  C   UNL A   1      31.450  26.859  22.012  1.00  0.00     0.261 C 
BRANCH  76  77
ATOM     77  O   UNL A   1      31.466  27.582  23.246  1.00  0.00    -0.460 OA
BRANCH  77  78
ATOM     78  C   UNL A   1      30.267  27.619  23.872  1.00  0.00     0.340 C 
ATOM     79  O   UNL A   1      29.787  26.772  24.607  1.00  0.00    -0.246 OA
BRANCH  78  80
ATOM     80  C   UNL A   1      29.513  28.778  23.392  1.00  0.00     0.085 A 
ATOM     81  C   UNL A   1      28.364  28.586  22.612  1.00  0.00     0.018 A 
ATOM     82  C   UNL A   1      29.947  30.064  23.760  1.00  0.00     0.077 A 
ATOM     83  C   UNL A   1      27.652  29.693  22.150  1.00  0.00     0.001 A 
ATOM     84  C   UNL A   1      29.236  31.158  23.249  1.00  0.00     0.029 A 
ATOM     85  C   UNL A   1      28.104  30.978  22.444  1.00  0.00     0.002 A 
BRANCH  82  86
ATOM     86  N   UNL A   1      30.734  30.304  24.891  1.00  0.00    -0.255 NA
ATOM     87  C   UNL A   1      31.844  29.730  25.216  1.00  0.00     0.127 C 
BRANCH  87  88
ATOM     88  C   UNL A   1      32.304  29.745  26.663  1.00  0.00     0.076 A 
ATOM     89  C   UNL A   1      31.402  29.145  27.465  1.00  0.00     0.209 A 
ATOM     90  C   UNL A   1      33.636  29.049  26.830  1.00  0.00     0.201 A 
ATOM     91  O   UNL A   1      31.417  27.768  27.751  1.00  0.00    -0.463 OA
ATOM     92  C   UNL A   1      33.537  27.594  26.626  1.00  0.00     0.065 A 
ATOM     93  O   UNL A   1      34.687  29.655  26.985  1.00  0.00    -0.288 OA
ATOM     94  C   UNL A   1      32.314  27.030  27.011  1.00  0.00     0.137 A 
ATOM     95  C   UNL A   1      34.405  26.946  25.752  1.00  0.00     0.016 A 
ATOM     96  C   UNL A   1      31.923  25.807  26.504  1.00  0.00     0.048 A 
ATOM     97  C   UNL A   1      33.982  25.745  25.200  1.00  0.00     0.001 A 
ATOM     98  C   UNL A   1      32.740  25.204  25.551  1.00  0.00     0.004 A 
ENDBRANCH  87  88
ENDBRANCH  82  86
ENDBRANCH  78  80
ENDBRANCH  77  78
ENDBRANCH  76  77
ENDBRANCH  75  76
ENDBRANCH  74  75
ENDBRANCH  73  74
ENDBRANCH   1  73
TORSDOF 22
ENDMDL
