MODEL 1
REMARK VINA RESULT:     -10.0      0.000      0.000
REMARK SMILES CC1(C)CCC[C@@H]1NC(=O)CC1(C(=O)OCCOCCOCCOC(=O)c2ccc(-c3c4nc(c(-c5cc(S(=O)(=O)[O-])ccc5F)c5ccc([nH]5)c(-c5cc(S(=O)(=O)[O-])ccc5F)c5nc(c(-c6cc(S(=O)(=O)[O-])ccc6F)c6ccc3[nH]6)C=C5)C=C4)cc2)CCCCC1
REMARK SMILES IDX 19 1 18 2 17 3 16 4 15 5 13 6 14 7 12 8 90 9 94 10 91 11
REMARK SMILES IDX 93 12 92 13 11 14 9 15 8 16 10 18 7 19 1 20 2 21 3 22 4 23
REMARK SMILES IDX 5 24 6 25 20 26 21 27 22 28 23 29 24 30 25 31 26 32 27 33
REMARK SMILES IDX 28 34 89 35 29 36 88 37 30 38 31 39 32 40 82 41 33 42 87 43
REMARK SMILES IDX 81 44 83 45 34 46 86 47 80 48 79 49 35 51 67 52 47 53 66 54
REMARK SMILES IDX 48 55 51 56 65 57 84 58 49 59 50 60 64 62 85 63 52 64 36 65
REMARK SMILES IDX 37 66 45 67 38 68 44 69 46 70 43 71 39 72 40 73 41 74 42 75
REMARK SMILES IDX 68 76 69 77 77 78 70 79 76 80 78 81 75 82 71 83 72 84 73 85
REMARK SMILES IDX 74 86 53 87 54 88 62 89 55 90 61 91 63 92 60 93 56 94 57 95
REMARK SMILES IDX 58 96 59 97
REMARK H PARENT 8 17 83 50 51 61
REMARK Flexibility Score: inf
ROOT
ATOM      1  C   UNL A   1      33.197  27.273  22.899  1.00  0.00     0.188 C 
ENDROOT
BRANCH   1   2
ATOM      2  O   UNL A   1      32.371  26.593  21.959  1.00  0.00    -0.376 OA
BRANCH   2   3
ATOM      3  C   UNL A   1      32.946  25.517  21.222  1.00  0.00     0.202 C 
BRANCH   3   4
ATOM      4  C   UNL A   1      32.880  24.155  21.909  1.00  0.00     0.261 C 
BRANCH   4   5
ATOM      5  O   UNL A   1      33.802  24.110  23.016  1.00  0.00    -0.463 OA
BRANCH   5   6
ATOM      6  C   UNL A   1      33.317  23.717  24.220  1.00  0.00     0.312 C 
ATOM      7  O   UNL A   1      32.351  24.240  24.764  1.00  0.00    -0.252 OA
BRANCH   6   8
ATOM      8  C   UNL A   1      34.100  22.541  24.839  1.00  0.00     0.077 C 
ATOM      9  C   UNL A   1      34.761  23.116  26.115  1.00  0.00     0.019 C 
ATOM     10  C   UNL A   1      35.199  21.929  23.943  1.00  0.00     0.019 C 
ATOM     11  C   UNL A   1      35.922  24.066  25.779  1.00  0.00     0.001 C 
ATOM     12  C   UNL A   1      36.434  22.781  23.683  1.00  0.00     0.001 C 
ATOM     13  C   UNL A   1      37.001  23.364  24.963  1.00  0.00     0.000 C 
BRANCH   8  14
ATOM     14  C   UNL A   1      33.005  21.459  25.120  1.00  0.00     0.118 C 
BRANCH  14  15
ATOM     15  C   UNL A   1      32.572  20.614  23.937  1.00  0.00     0.221 C 
ATOM     16  N   UNL A   1      32.775  19.268  23.884  1.00  0.00    -0.353 N 
ATOM     17  H   UNL A   1      32.581  18.885  22.998  1.00  0.00     0.163 HD
ATOM     18  O   UNL A   1      32.019  21.139  22.968  1.00  0.00    -0.275 OA
BRANCH  16  19
ATOM     19  C   UNL A   1      33.220  18.265  24.855  1.00  0.00     0.087 C 
ATOM     20  C   UNL A   1      35.789  18.097  24.625  1.00  0.00     0.013 C 
ATOM     21  C   UNL A   1      34.443  17.405  24.399  1.00  0.00    -0.015 C 
ATOM     22  C   UNL A   1      34.373  16.975  22.922  1.00  0.00     0.013 C 
ATOM     23  C   UNL A   1      34.347  16.156  25.306  1.00  0.00     0.008 C 
ATOM     24  C   UNL A   1      32.877  15.983  25.661  1.00  0.00     0.003 C 
ATOM     25  C   UNL A   1      32.153  17.191  25.089  1.00  0.00     0.025 C 
ENDBRANCH  16  19
ENDBRANCH  14  15
ENDBRANCH   8  14
ENDBRANCH   6   8
ENDBRANCH   5   6
ENDBRANCH   4   5
ENDBRANCH   3   4
ENDBRANCH   2   3
ENDBRANCH   1   2
BRANCH   1  26
ATOM     26  C   UNL A   1      32.540  27.705  24.220  1.00  0.00     0.188 C 
BRANCH  26  27
ATOM     27  O   UNL A   1      31.458  28.624  24.179  1.00  0.00    -0.376 OA
BRANCH  27  28
ATOM     28  C   UNL A   1      31.568  29.754  25.038  1.00  0.00     0.202 C 
BRANCH  28  29
ATOM     29  C   UNL A   1      32.163  29.443  26.409  1.00  0.00     0.261 C 
BRANCH  29  30
ATOM     30  O   UNL A   1      33.499  29.966  26.523  1.00  0.00    -0.460 OA
BRANCH  30  31
ATOM     31  C   UNL A   1      33.565  31.134  27.202  1.00  0.00     0.338 C 
ATOM     32  O   UNL A   1      32.781  32.061  27.105  1.00  0.00    -0.246 OA
BRANCH  31  33
ATOM     33  C   UNL A   1      34.724  31.153  28.126  1.00  0.00     0.060 A 
ATOM     34  C   UNL A   1      35.669  32.183  28.109  1.00  0.00     0.016 A 
ATOM     35  C   UNL A   1      34.966  30.012  28.888  1.00  0.00     0.016 A 
ATOM     36  C   UNL A   1      36.901  32.020  28.748  1.00  0.00     0.010 A 
ATOM     37  C   UNL A   1      36.167  29.884  29.590  1.00  0.00     0.010 A 
ATOM     38  C   UNL A   1      37.172  30.859  29.479  1.00  0.00    -0.014 A 
BRANCH  38  39
ATOM     39  C   UNL A   1      38.519  30.596  30.061  1.00  0.00     0.031 A 
ATOM     40  C   UNL A   1      39.444  29.618  29.379  1.00  0.00     0.074 A 
ATOM     41  C   UNL A   1      38.913  31.202  31.196  1.00  0.00     0.049 A 
ATOM     42  N   UNL A   1      40.501  29.006  29.847  1.00  0.00    -0.248 NA
ATOM     43  C   UNL A   1      39.118  29.273  27.986  1.00  0.00     0.031 C 
ATOM     44  C   UNL A   1      38.166  32.237  31.911  1.00  0.00     0.029 A 
ATOM     45  N   UNL A   1      40.038  31.016  31.962  1.00  0.00    -0.354 N 
ATOM     46  C   UNL A   1      40.932  28.158  28.829  1.00  0.00     0.074 A 
ATOM     47  C   UNL A   1      40.022  28.341  27.718  1.00  0.00     0.031 C 
ATOM     48  C   UNL A   1      38.846  32.590  33.011  1.00  0.00     0.029 A 
ATOM     49  C   UNL A   1      40.021  31.734  33.135  1.00  0.00     0.049 A 
ATOM     50  H   UNL A   1      40.781  30.427  31.698  1.00  0.00     0.167 HD
ATOM     51  C   UNL A   1      41.981  27.297  28.836  1.00  0.00     0.034 A 
ATOM     52  C   UNL A   1      40.809  31.658  34.225  1.00  0.00     0.034 A 
ATOM     53  C   UNL A   1      42.892  27.158  29.949  1.00  0.00     0.049 A 
ATOM     54  C   UNL A   1      41.923  30.648  34.247  1.00  0.00     0.074 A 
ATOM     55  C   UNL A   1      43.991  26.323  30.071  1.00  0.00     0.029 A 
ATOM     56  N   UNL A   1      42.814  27.880  31.135  1.00  0.00    -0.354 N 
ATOM     57  N   UNL A   1      42.264  29.775  33.327  1.00  0.00    -0.248 NA
ATOM     58  C   UNL A   1      42.744  30.602  35.461  1.00  0.00     0.031 C 
ATOM     59  C   UNL A   1      44.538  26.498  31.348  1.00  0.00     0.029 A 
ATOM     60  C   UNL A   1      43.825  27.491  32.002  1.00  0.00     0.049 A 
ATOM     61  H   UNL A   1      42.138  28.568  31.331  1.00  0.00     0.167 HD
ATOM     62  C   UNL A   1      43.345  29.075  33.854  1.00  0.00     0.074 A 
ATOM     63  C   UNL A   1      43.612  29.647  35.159  1.00  0.00     0.031 C 
ATOM     64  C   UNL A   1      44.052  28.050  33.312  1.00  0.00     0.034 A 
BRANCH  51  65
ATOM     65  C   UNL A   1      42.146  26.385  27.644  1.00  0.00     0.023 A 
ATOM     66  C   UNL A   1      41.649  25.071  27.624  1.00  0.00     0.031 A 
ATOM     67  C   UNL A   1      42.843  26.840  26.509  1.00  0.00     0.131 A 
ATOM     68  C   UNL A   1      41.906  24.240  26.520  1.00  0.00     0.055 A 
ATOM     69  C   UNL A   1      43.034  26.033  25.385  1.00  0.00     0.041 A 
ATOM     70  F   UNL A   1      43.362  28.077  26.477  1.00  0.00    -0.206 F 
ATOM     71  C   UNL A   1      42.576  24.720  25.392  1.00  0.00     0.022 A 
BRANCH  68  72
ATOM     72  S   UNL A   1      41.469  22.483  26.629  1.00  0.00     0.124 S 
ATOM     73  O   UNL A   1      40.013  22.544  26.745  1.00  0.00    -0.237 OA
ATOM     74  O   UNL A   1      41.988  21.949  25.376  1.00  0.00    -0.237 OA
ATOM     75  O   UNL A   1      42.161  22.030  27.835  1.00  0.00    -0.744 OA
ENDBRANCH  68  72
ENDBRANCH  51  65
BRANCH  52  76
ATOM     76  C   UNL A   1      40.499  32.488  35.423  1.00  0.00     0.023 A 
ATOM     77  C   UNL A   1      41.118  33.729  35.632  1.00  0.00     0.031 A 
ATOM     78  C   UNL A   1      39.574  32.039  36.385  1.00  0.00     0.131 A 
ATOM     79  C   UNL A   1      40.818  34.471  36.785  1.00  0.00     0.055 A 
ATOM     80  C   UNL A   1      39.242  32.803  37.504  1.00  0.00     0.041 A 
ATOM     81  F   UNL A   1      38.955  30.857  36.232  1.00  0.00    -0.206 F 
ATOM     82  C   UNL A   1      39.872  34.024  37.713  1.00  0.00     0.022 A 
BRANCH  79  83
ATOM     83  S   UNL A   1      41.727  36.010  37.090  1.00  0.00     0.124 S 
ATOM     84  O   UNL A   1      42.158  36.373  35.744  1.00  0.00    -0.237 OA
ATOM     85  O   UNL A   1      40.699  36.857  37.685  1.00  0.00    -0.237 OA
ATOM     86  O   UNL A   1      42.797  35.600  37.997  1.00  0.00    -0.744 OA
ENDBRANCH  79  83
ENDBRANCH  52  76
BRANCH  64  87
ATOM     87  C   UNL A   1      45.192  27.512  34.140  1.00  0.00     0.023 A 
ATOM     88  C   UNL A   1      45.011  26.437  35.028  1.00  0.00     0.031 A 
ATOM     89  C   UNL A   1      46.460  28.114  34.076  1.00  0.00     0.131 A 
ATOM     90  C   UNL A   1      46.063  26.040  35.864  1.00  0.00     0.055 A 
ATOM     91  C   UNL A   1      47.520  27.677  34.871  1.00  0.00     0.041 A 
ATOM     92  F   UNL A   1      46.685  29.146  33.246  1.00  0.00    -0.206 F 
ATOM     93  C   UNL A   1      47.320  26.645  35.784  1.00  0.00     0.022 A 
BRANCH  90  94
ATOM     94  S   UNL A   1      45.737  24.790  37.139  1.00  0.00     0.124 S 
ATOM     95  O   UNL A   1      44.617  24.053  36.562  1.00  0.00    -0.237 OA
ATOM     96  O   UNL A   1      47.007  24.073  37.204  1.00  0.00    -0.237 OA
ATOM     97  O   UNL A   1      45.412  25.584  38.322  1.00  0.00    -0.744 OA
ENDBRANCH  90  94
ENDBRANCH  64  87
ENDBRANCH  38  39
ENDBRANCH  31  33
ENDBRANCH  30  31
ENDBRANCH  29  30
ENDBRANCH  28  29
ENDBRANCH  27  28
ENDBRANCH  26  27
ENDBRANCH   1  26
TORSDOF 23
ENDMDL
MODEL 2
REMARK VINA RESULT:     -10.0      1.836      2.416
REMARK SMILES CC1(C)CCC[C@@H]1NC(=O)CC1(C(=O)OCCOCCOCCOC(=O)c2ccc(-c3c4nc(c(-c5cc(S(=O)(=O)[O-])ccc5F)c5ccc([nH]5)c(-c5cc(S(=O)(=O)[O-])ccc5F)c5nc(c(-c6cc(S(=O)(=O)[O-])ccc6F)c6ccc3[nH]6)C=C5)C=C4)cc2)CCCCC1
REMARK SMILES IDX 19 1 18 2 17 3 16 4 15 5 13 6 14 7 12 8 90 9 94 10 91 11
REMARK SMILES IDX 93 12 92 13 11 14 9 15 8 16 10 18 7 19 1 20 2 21 3 22 4 23
REMARK SMILES IDX 5 24 6 25 20 26 21 27 22 28 23 29 24 30 25 31 26 32 27 33
REMARK SMILES IDX 28 34 89 35 29 36 88 37 30 38 31 39 32 40 82 41 33 42 87 43
REMARK SMILES IDX 81 44 83 45 34 46 86 47 80 48 79 49 35 51 67 52 47 53 66 54
REMARK SMILES IDX 48 55 51 56 65 57 84 58 49 59 50 60 64 62 85 63 52 64 36 65
REMARK SMILES IDX 37 66 45 67 38 68 44 69 46 70 43 71 39 72 40 73 41 74 42 75
REMARK SMILES IDX 68 76 69 77 77 78 70 79 76 80 78 81 75 82 71 83 72 84 73 85
REMARK SMILES IDX 74 86 53 87 54 88 62 89 55 90 61 91 63 92 60 93 56 94 57 95
REMARK SMILES IDX 58 96 59 97
REMARK H PARENT 8 17 83 50 51 61
REMARK Flexibility Score: inf
ROOT
ATOM      1  C   UNL A   1      30.766  28.391  24.506  1.00  0.00     0.188 C 
ENDROOT
BRANCH   1   2
ATOM      2  O   UNL A   1      29.761  27.707  23.765  1.00  0.00    -0.376 OA
BRANCH   2   3
ATOM      3  C   UNL A   1      29.565  26.320  24.030  1.00  0.00     0.202 C 
BRANCH   3   4
ATOM      4  C   UNL A   1      30.108  25.836  25.373  1.00  0.00     0.261 C 
BRANCH   4   5
ATOM      5  O   UNL A   1      30.308  24.409  25.345  1.00  0.00    -0.463 OA
BRANCH   5   6
ATOM      6  C   UNL A   1      31.344  23.908  26.061  1.00  0.00     0.312 C 
ATOM      7  O   UNL A   1      31.522  24.142  27.251  1.00  0.00    -0.252 OA
BRANCH   6   8
ATOM      8  C   UNL A   1      32.281  23.008  25.229  1.00  0.00     0.077 C 
ATOM      9  C   UNL A   1      33.715  23.417  25.642  1.00  0.00     0.019 C 
ATOM     10  C   UNL A   1      32.147  23.144  23.697  1.00  0.00     0.019 C 
ATOM     11  C   UNL A   1      34.100  24.797  25.083  1.00  0.00     0.001 C 
ATOM     12  C   UNL A   1      32.635  24.445  23.074  1.00  0.00     0.001 C 
ATOM     13  C   UNL A   1      34.021  24.825  23.561  1.00  0.00     0.000 C 
BRANCH   8  14
ATOM     14  C   UNL A   1      31.887  21.553  25.652  1.00  0.00     0.118 C 
BRANCH  14  15
ATOM     15  C   UNL A   1      32.960  20.742  26.355  1.00  0.00     0.221 C 
ATOM     16  N   UNL A   1      33.194  19.431  26.066  1.00  0.00    -0.353 N 
ATOM     17  H   UNL A   1      33.810  19.002  26.703  1.00  0.00     0.163 HD
ATOM     18  O   UNL A   1      33.656  21.259  27.231  1.00  0.00    -0.275 OA
BRANCH  16  19
ATOM     19  C   UNL A   1      32.732  18.519  25.016  1.00  0.00     0.087 C 
ATOM     20  C   UNL A   1      33.729  16.197  25.558  1.00  0.00     0.013 C 
ATOM     21  C   UNL A   1      33.752  17.404  24.618  1.00  0.00    -0.015 C 
ATOM     22  C   UNL A   1      35.205  17.906  24.526  1.00  0.00     0.013 C 
ATOM     23  C   UNL A   1      33.264  16.973  23.214  1.00  0.00     0.008 C 
ATOM     24  C   UNL A   1      32.570  18.181  22.601  1.00  0.00     0.003 C 
ATOM     25  C   UNL A   1      32.528  19.247  23.684  1.00  0.00     0.025 C 
ENDBRANCH  16  19
ENDBRANCH  14  15
ENDBRANCH   8  14
ENDBRANCH   6   8
ENDBRANCH   5   6
ENDBRANCH   4   5
ENDBRANCH   3   4
ENDBRANCH   2   3
ENDBRANCH   1   2
BRANCH   1  26
ATOM     26  C   UNL A   1      30.956  29.887  24.208  1.00  0.00     0.188 C 
BRANCH  26  27
ATOM     27  O   UNL A   1      30.071  30.823  24.807  1.00  0.00    -0.376 OA
BRANCH  27  28
ATOM     28  C   UNL A   1      30.661  32.039  25.253  1.00  0.00     0.202 C 
BRANCH  28  29
ATOM     29  C   UNL A   1      31.073  32.034  26.723  1.00  0.00     0.261 C 
BRANCH  29  30
ATOM     30  O   UNL A   1      32.494  31.853  26.859  1.00  0.00    -0.460 OA
BRANCH  30  31
ATOM     31  C   UNL A   1      32.845  30.608  27.254  1.00  0.00     0.338 C 
ATOM     32  O   UNL A   1      32.095  29.652  27.348  1.00  0.00    -0.246 OA
BRANCH  31  33
ATOM     33  C   UNL A   1      34.295  30.527  27.550  1.00  0.00     0.060 A 
ATOM     34  C   UNL A   1      35.013  29.334  27.416  1.00  0.00     0.016 A 
ATOM     35  C   UNL A   1      34.897  31.627  28.158  1.00  0.00     0.016 A 
ATOM     36  C   UNL A   1      36.276  29.204  27.999  1.00  0.00     0.010 A 
ATOM     37  C   UNL A   1      36.192  31.517  28.671  1.00  0.00     0.010 A 
ATOM     38  C   UNL A   1      36.872  30.288  28.651  1.00  0.00    -0.014 A 
BRANCH  38  39
ATOM     39  C   UNL A   1      38.156  30.146  29.394  1.00  0.00     0.031 A 
ATOM     40  C   UNL A   1      39.239  29.252  28.841  1.00  0.00     0.074 A 
ATOM     41  C   UNL A   1      38.356  30.787  30.561  1.00  0.00     0.049 A 
ATOM     42  N   UNL A   1      40.281  28.737  29.440  1.00  0.00    -0.248 NA
ATOM     43  C   UNL A   1      39.115  28.878  27.423  1.00  0.00     0.031 C 
ATOM     44  C   UNL A   1      37.440  31.753  31.167  1.00  0.00     0.029 A 
ATOM     45  N   UNL A   1      39.391  30.701  31.459  1.00  0.00    -0.354 N 
ATOM     46  C   UNL A   1      40.904  27.928  28.492  1.00  0.00     0.074 A 
ATOM     47  C   UNL A   1      40.123  28.029  27.277  1.00  0.00     0.031 C 
ATOM     48  C   UNL A   1      37.949  32.166  32.337  1.00  0.00     0.029 A 
ATOM     49  C   UNL A   1      39.170  31.417  32.612  1.00  0.00     0.049 A 
ATOM     50  H   UNL A   1      40.210  30.180  31.294  1.00  0.00     0.167 HD
ATOM     51  C   UNL A   1      42.016  27.163  28.636  1.00  0.00     0.034 A 
ATOM     52  C   UNL A   1      39.824  31.413  33.790  1.00  0.00     0.034 A 
ATOM     53  C   UNL A   1      42.794  27.107  29.853  1.00  0.00     0.049 A 
ATOM     54  C   UNL A   1      41.011  30.505  33.959  1.00  0.00     0.074 A 
ATOM     55  C   UNL A   1      43.938  26.372  30.116  1.00  0.00     0.029 A 
ATOM     56  N   UNL A   1      42.510  27.820  31.011  1.00  0.00    -0.354 N 
ATOM     57  N   UNL A   1      41.536  29.664  33.097  1.00  0.00    -0.248 NA
ATOM     58  C   UNL A   1      41.680  30.533  35.264  1.00  0.00     0.031 C 
ATOM     59  C   UNL A   1      44.309  26.596  31.448  1.00  0.00     0.029 A 
ATOM     60  C   UNL A   1      43.439  27.524  31.998  1.00  0.00     0.049 A 
ATOM     61  H   UNL A   1      41.758  28.447  31.115  1.00  0.00     0.167 HD
ATOM     62  C   UNL A   1      42.602  29.063  33.760  1.00  0.00     0.074 A 
ATOM     63  C   UNL A   1      42.658  29.659  35.080  1.00  0.00     0.031 C 
ATOM     64  C   UNL A   1      43.456  28.103  33.320  1.00  0.00     0.034 A 
BRANCH  51  65
ATOM     65  C   UNL A   1      42.402  26.267  27.484  1.00  0.00     0.023 A 
ATOM     66  C   UNL A   1      41.949  24.941  27.373  1.00  0.00     0.031 A 
ATOM     67  C   UNL A   1      43.269  26.749  26.485  1.00  0.00     0.131 A 
ATOM     68  C   UNL A   1      42.411  24.128  26.324  1.00  0.00     0.055 A 
ATOM     69  C   UNL A   1      43.667  25.958  25.405  1.00  0.00     0.041 A 
ATOM     70  F   UNL A   1      43.754  27.999  26.549  1.00  0.00    -0.206 F 
ATOM     71  C   UNL A   1      43.249  24.634  25.328  1.00  0.00     0.022 A 
BRANCH  68  72
ATOM     72  S   UNL A   1      42.006  22.359  26.348  1.00  0.00     0.124 S 
ATOM     73  O   UNL A   1      42.743  21.869  25.185  1.00  0.00    -0.237 OA
ATOM     74  O   UNL A   1      42.511  21.937  27.649  1.00  0.00    -0.237 OA
ATOM     75  O   UNL A   1      40.551  22.337  26.206  1.00  0.00    -0.744 OA
ENDBRANCH  68  72
ENDBRANCH  51  65
BRANCH  52  76
ATOM     76  C   UNL A   1      39.300  32.214  34.932  1.00  0.00     0.023 A 
ATOM     77  C   UNL A   1      39.776  33.507  35.196  1.00  0.00     0.031 A 
ATOM     78  C   UNL A   1      38.311  31.686  35.783  1.00  0.00     0.131 A 
ATOM     79  C   UNL A   1      39.275  34.222  36.296  1.00  0.00     0.055 A 
ATOM     80  C   UNL A   1      37.781  32.420  36.844  1.00  0.00     0.041 A 
ATOM     81  F   UNL A   1      37.823  30.453  35.573  1.00  0.00    -0.206 F 
ATOM     82  C   UNL A   1      38.269  33.694  37.111  1.00  0.00     0.022 A 
BRANCH  79  83
ATOM     83  S   UNL A   1      40.000  35.838  36.686  1.00  0.00     0.124 S 
ATOM     84  O   UNL A   1      41.403  35.493  36.891  1.00  0.00    -0.237 OA
ATOM     85  O   UNL A   1      39.697  36.604  35.482  1.00  0.00    -0.237 OA
ATOM     86  O   UNL A   1      39.278  36.254  37.886  1.00  0.00    -0.744 OA
ENDBRANCH  79  83
ENDBRANCH  52  76
BRANCH  64  87
ATOM     87  C   UNL A   1      44.530  27.669  34.285  1.00  0.00     0.023 A 
ATOM     88  C   UNL A   1      45.754  28.354  34.377  1.00  0.00     0.031 A 
ATOM     89  C   UNL A   1      44.345  26.528  35.085  1.00  0.00     0.131 A 
ATOM     90  C   UNL A   1      46.771  27.855  35.202  1.00  0.00     0.055 A 
ATOM     91  C   UNL A   1      45.342  26.068  35.946  1.00  0.00     0.041 A 
ATOM     92  F   UNL A   1      43.195  25.837  35.033  1.00  0.00    -0.206 F 
ATOM     93  C   UNL A   1      46.569  26.722  35.996  1.00  0.00     0.022 A 
BRANCH  90  94
ATOM     94  S   UNL A   1      48.405  28.643  35.143  1.00  0.00     0.124 S 
ATOM     95  O   UNL A   1      49.167  27.831  36.087  1.00  0.00    -0.237 OA
ATOM     96  O   UNL A   1      48.770  28.497  33.737  1.00  0.00    -0.237 OA
ATOM     97  O   UNL A   1      48.141  30.013  35.576  1.00  0.00    -0.744 OA
ENDBRANCH  90  94
ENDBRANCH  64  87
ENDBRANCH  38  39
ENDBRANCH  31  33
ENDBRANCH  30  31
ENDBRANCH  29  30
ENDBRANCH  28  29
ENDBRANCH  27  28
ENDBRANCH  26  27
ENDBRANCH   1  26
TORSDOF 23
ENDMDL
MODEL 3
REMARK VINA RESULT:      -9.9      2.023      3.283
REMARK SMILES CC1(C)CCC[C@@H]1NC(=O)CC1(C(=O)OCCOCCOCCOC(=O)c2ccc(-c3c4nc(c(-c5cc(S(=O)(=O)[O-])ccc5F)c5ccc([nH]5)c(-c5cc(S(=O)(=O)[O-])ccc5F)c5nc(c(-c6cc(S(=O)(=O)[O-])ccc6F)c6ccc3[nH]6)C=C5)C=C4)cc2)CCCCC1
REMARK SMILES IDX 19 1 18 2 17 3 16 4 15 5 13 6 14 7 12 8 90 9 94 10 91 11
REMARK SMILES IDX 93 12 92 13 11 14 9 15 8 16 10 18 7 19 1 20 2 21 3 22 4 23
REMARK SMILES IDX 5 24 6 25 20 26 21 27 22 28 23 29 24 30 25 31 26 32 27 33
REMARK SMILES IDX 28 34 89 35 29 36 88 37 30 38 31 39 32 40 82 41 33 42 87 43
REMARK SMILES IDX 81 44 83 45 34 46 86 47 80 48 79 49 35 51 67 52 47 53 66 54
REMARK SMILES IDX 48 55 51 56 65 57 84 58 49 59 50 60 64 62 85 63 52 64 36 65
REMARK SMILES IDX 37 66 45 67 38 68 44 69 46 70 43 71 39 72 40 73 41 74 42 75
REMARK SMILES IDX 68 76 69 77 77 78 70 79 76 80 78 81 75 82 71 83 72 84 73 85
REMARK SMILES IDX 74 86 53 87 54 88 62 89 55 90 61 91 63 92 60 93 56 94 57 95
REMARK SMILES IDX 58 96 59 97
REMARK H PARENT 8 17 83 50 51 61
REMARK Flexibility Score: inf
ROOT
ATOM      1  C   UNL A   1      32.897  26.574  21.506  1.00  0.00     0.188 C 
ENDROOT
BRANCH   1   2
ATOM      2  O   UNL A   1      32.384  25.249  21.591  1.00  0.00    -0.376 OA
BRANCH   2   3
ATOM      3  C   UNL A   1      33.192  24.187  21.091  1.00  0.00     0.202 C 
BRANCH   3   4
ATOM      4  C   UNL A   1      33.285  22.963  22.000  1.00  0.00     0.261 C 
BRANCH   4   5
ATOM      5  O   UNL A   1      33.867  23.326  23.267  1.00  0.00    -0.463 OA
BRANCH   5   6
ATOM      6  C   UNL A   1      33.998  22.350  24.199  1.00  0.00     0.312 C 
ATOM      7  O   UNL A   1      33.343  21.314  24.191  1.00  0.00    -0.252 OA
BRANCH   6   8
ATOM      8  C   UNL A   1      35.058  22.670  25.273  1.00  0.00     0.077 C 
ATOM      9  C   UNL A   1      36.240  23.308  24.504  1.00  0.00     0.019 C 
ATOM     10  C   UNL A   1      35.581  21.458  26.073  1.00  0.00     0.019 C 
ATOM     11  C   UNL A   1      37.007  22.268  23.670  1.00  0.00     0.001 C 
ATOM     12  C   UNL A   1      36.456  20.462  25.325  1.00  0.00     0.001 C 
ATOM     13  C   UNL A   1      37.560  21.148  24.544  1.00  0.00     0.000 C 
BRANCH   8  14
ATOM     14  C   UNL A   1      34.328  23.653  26.248  1.00  0.00     0.118 C 
BRANCH  14  15
ATOM     15  C   UNL A   1      33.005  23.177  26.820  1.00  0.00     0.221 C 
ATOM     16  N   UNL A   1      31.811  23.725  26.458  1.00  0.00    -0.353 N 
ATOM     17  H   UNL A   1      31.063  23.420  27.020  1.00  0.00     0.163 HD
ATOM     18  O   UNL A   1      32.979  22.268  27.652  1.00  0.00    -0.275 OA
BRANCH  16  19
ATOM     19  C   UNL A   1      31.395  24.668  25.417  1.00  0.00     0.087 C 
ATOM     20  C   UNL A   1      30.949  26.925  26.595  1.00  0.00     0.013 C 
ATOM     21  C   UNL A   1      30.337  25.724  25.871  1.00  0.00    -0.015 C 
ATOM     22  C   UNL A   1      29.234  25.138  26.774  1.00  0.00     0.013 C 
ATOM     23  C   UNL A   1      29.716  26.191  24.533  1.00  0.00     0.008 C 
ATOM     24  C   UNL A   1      29.850  25.029  23.559  1.00  0.00     0.003 C 
ATOM     25  C   UNL A   1      30.662  23.961  24.273  1.00  0.00     0.025 C 
ENDBRANCH  16  19
ENDBRANCH  14  15
ENDBRANCH   8  14
ENDBRANCH   6   8
ENDBRANCH   5   6
ENDBRANCH   4   5
ENDBRANCH   3   4
ENDBRANCH   2   3
ENDBRANCH   1   2
BRANCH   1  26
ATOM     26  C   UNL A   1      32.314  27.612  22.479  1.00  0.00     0.188 C 
BRANCH  26  27
ATOM     27  O   UNL A   1      32.937  28.885  22.576  1.00  0.00    -0.376 OA
BRANCH  27  28
ATOM     28  C   UNL A   1      33.709  29.111  23.751  1.00  0.00     0.202 C 
BRANCH  28  29
ATOM     29  C   UNL A   1      32.893  29.568  24.958  1.00  0.00     0.261 C 
BRANCH  29  30
ATOM     30  O   UNL A   1      33.673  29.495  26.165  1.00  0.00    -0.460 OA
BRANCH  30  31
ATOM     31  C   UNL A   1      33.605  30.615  26.920  1.00  0.00     0.338 C 
ATOM     32  O   UNL A   1      32.714  31.446  26.884  1.00  0.00    -0.246 OA
BRANCH  31  33
ATOM     33  C   UNL A   1      34.760  30.712  27.844  1.00  0.00     0.060 A 
ATOM     34  C   UNL A   1      35.694  31.748  27.756  1.00  0.00     0.016 A 
ATOM     35  C   UNL A   1      35.009  29.631  28.687  1.00  0.00     0.016 A 
ATOM     36  C   UNL A   1      36.925  31.644  28.409  1.00  0.00     0.010 A 
ATOM     37  C   UNL A   1      36.209  29.566  29.400  1.00  0.00     0.010 A 
ATOM     38  C   UNL A   1      37.205  30.541  29.223  1.00  0.00    -0.014 A 
BRANCH  38  39
ATOM     39  C   UNL A   1      38.552  30.334  29.826  1.00  0.00     0.031 A 
ATOM     40  C   UNL A   1      39.529  29.398  29.157  1.00  0.00     0.074 A 
ATOM     41  C   UNL A   1      38.902  30.953  30.969  1.00  0.00     0.049 A 
ATOM     42  N   UNL A   1      40.604  28.831  29.641  1.00  0.00    -0.248 NA
ATOM     43  C   UNL A   1      39.241  29.044  27.758  1.00  0.00     0.031 C 
ATOM     44  C   UNL A   1      38.099  31.953  31.674  1.00  0.00     0.029 A 
ATOM     45  N   UNL A   1      40.020  30.813  31.753  1.00  0.00    -0.354 N 
ATOM     46  C   UNL A   1      41.087  28.006  28.629  1.00  0.00     0.074 A 
ATOM     47  C   UNL A   1      40.189  28.153  27.503  1.00  0.00     0.031 C 
ATOM     48  C   UNL A   1      38.745  32.331  32.786  1.00  0.00     0.029 A 
ATOM     49  C   UNL A   1      39.953  31.526  32.927  1.00  0.00     0.049 A 
ATOM     50  H   UNL A   1      40.792  30.257  31.500  1.00  0.00     0.167 HD
ATOM     51  C   UNL A   1      42.172  27.190  28.651  1.00  0.00     0.034 A 
ATOM     52  C   UNL A   1      40.726  31.481  34.030  1.00  0.00     0.034 A 
ATOM     53  C   UNL A   1      43.070  27.087  29.779  1.00  0.00     0.049 A 
ATOM     54  C   UNL A   1      41.882  30.518  34.068  1.00  0.00     0.074 A 
ATOM     55  C   UNL A   1      44.201  26.299  29.917  1.00  0.00     0.029 A 
ATOM     56  N   UNL A   1      42.941  27.801  30.964  1.00  0.00    -0.354 N 
ATOM     57  N   UNL A   1      42.275  29.664  33.152  1.00  0.00    -0.248 NA
ATOM     58  C   UNL A   1      42.684  30.504  35.296  1.00  0.00     0.031 C 
ATOM     59  C   UNL A   1      44.719  26.493  31.203  1.00  0.00     0.029 A 
ATOM     60  C   UNL A   1      43.954  27.453  31.847  1.00  0.00     0.049 A 
ATOM     61  H   UNL A   1      42.233  28.459  31.151  1.00  0.00     0.167 HD
ATOM     62  C   UNL A   1      43.376  29.009  33.696  1.00  0.00     0.074 A 
ATOM     63  C   UNL A   1      43.597  29.588  35.006  1.00  0.00     0.031 C 
ATOM     64  C   UNL A   1      44.135  28.017  33.163  1.00  0.00     0.034 A 
BRANCH  51  65
ATOM     65  C   UNL A   1      42.396  26.290  27.459  1.00  0.00     0.023 A 
ATOM     66  C   UNL A   1      41.943  24.959  27.423  1.00  0.00     0.031 A 
ATOM     67  C   UNL A   1      43.104  26.773  26.343  1.00  0.00     0.131 A 
ATOM     68  C   UNL A   1      42.254  24.143  26.322  1.00  0.00     0.055 A 
ATOM     69  C   UNL A   1      43.348  25.978  25.221  1.00  0.00     0.041 A 
ATOM     70  F   UNL A   1      43.582  28.027  26.329  1.00  0.00    -0.206 F 
ATOM     71  C   UNL A   1      42.934  24.650  25.212  1.00  0.00     0.022 A 
BRANCH  68  72
ATOM     72  S   UNL A   1      41.872  22.372  26.414  1.00  0.00     0.124 S 
ATOM     73  O   UNL A   1      42.753  21.823  25.385  1.00  0.00    -0.237 OA
ATOM     74  O   UNL A   1      42.218  22.045  27.792  1.00  0.00    -0.237 OA
ATOM     75  O   UNL A   1      40.446  22.310  26.097  1.00  0.00    -0.744 OA
ENDBRANCH  68  72
ENDBRANCH  51  65
BRANCH  52  76
ATOM     76  C   UNL A   1      40.361  32.292  35.225  1.00  0.00     0.023 A 
ATOM     77  C   UNL A   1      39.332  31.894  36.091  1.00  0.00     0.031 A 
ATOM     78  C   UNL A   1      41.041  33.490  35.512  1.00  0.00     0.131 A 
ATOM     79  C   UNL A   1      39.000  32.697  37.194  1.00  0.00     0.055 A 
ATOM     80  C   UNL A   1      40.741  34.259  36.637  1.00  0.00     0.041 A 
ATOM     81  F   UNL A   1      42.033  33.916  34.713  1.00  0.00    -0.206 F 
ATOM     82  C   UNL A   1      39.709  33.867  37.482  1.00  0.00     0.022 A 
BRANCH  79  83
ATOM     83  S   UNL A   1      37.584  32.221  38.222  1.00  0.00     0.124 S 
ATOM     84  O   UNL A   1      37.487  30.791  37.951  1.00  0.00    -0.237 OA
ATOM     85  O   UNL A   1      38.041  32.592  39.557  1.00  0.00    -0.237 OA
ATOM     86  O   UNL A   1      36.490  33.032  37.692  1.00  0.00    -0.744 OA
ENDBRANCH  79  83
ENDBRANCH  52  76
BRANCH  64  87
ATOM     87  C   UNL A   1      45.283  27.526  34.008  1.00  0.00     0.023 A 
ATOM     88  C   UNL A   1      45.124  26.464  34.916  1.00  0.00     0.031 A 
ATOM     89  C   UNL A   1      46.536  28.160  33.940  1.00  0.00     0.131 A 
ATOM     90  C   UNL A   1      46.181  26.111  35.766  1.00  0.00     0.055 A 
ATOM     91  C   UNL A   1      47.601  27.767  34.751  1.00  0.00     0.041 A 
ATOM     92  F   UNL A   1      46.739  29.182  33.092  1.00  0.00    -0.206 F 
ATOM     93  C   UNL A   1      47.423  26.747  35.681  1.00  0.00     0.022 A 
BRANCH  90  94
ATOM     94  S   UNL A   1      45.880  24.877  37.063  1.00  0.00     0.124 S 
ATOM     95  O   UNL A   1      47.069  24.036  36.963  1.00  0.00    -0.237 OA
ATOM     96  O   UNL A   1      45.782  25.704  38.262  1.00  0.00    -0.237 OA
ATOM     97  O   UNL A   1      44.633  24.239  36.646  1.00  0.00    -0.744 OA
ENDBRANCH  90  94
ENDBRANCH  64  87
ENDBRANCH  38  39
ENDBRANCH  31  33
ENDBRANCH  30  31
ENDBRANCH  29  30
ENDBRANCH  28  29
ENDBRANCH  27  28
ENDBRANCH  26  27
ENDBRANCH   1  26
TORSDOF 23
ENDMDL
