MODEL 1
REMARK VINA RESULT:     -10.1      0.000      0.000
REMARK SMILES [NH3+][C@@H](Cc1cccc(O)c1)C(=O)OCCOCCOCCOC(=O)c1ccc(-c2c3nc(c(-c4cc(S(=O)(=O)[O-])ccc4F)c4ccc([nH]4)c(-c4cc(S(=O)(=O)[O-])ccc4F)c4nc(c(-c5cc(S(=O)(=O)[O-])ccc5F)c5ccc2[nH]5)C=C4)C=C3)cc1
REMARK SMILES IDX 17 1 16 2 15 3 14 4 13 5 11 6 12 7 2 8 1 9 3 13 4 14 5 15
REMARK SMILES IDX 10 16 6 17 8 18 7 19 9 20 18 22 19 23 20 24 21 25 22 26
REMARK SMILES IDX 23 27 24 28 25 29 26 30 87 31 27 32 86 33 28 34 29 35 30 36
REMARK SMILES IDX 80 37 31 38 85 39 79 40 81 41 32 42 84 43 78 44 77 45 33 47
REMARK SMILES IDX 65 48 45 49 64 50 46 51 49 52 63 53 82 54 47 55 48 56 62 58
REMARK SMILES IDX 83 59 50 60 34 61 35 62 43 63 36 64 42 65 44 66 41 67 37 68
REMARK SMILES IDX 38 69 39 70 40 71 66 72 67 73 75 74 68 75 74 76 76 77 73 78
REMARK SMILES IDX 69 79 70 80 71 81 72 82 51 83 52 84 60 85 53 86 59 87 61 88
REMARK SMILES IDX 58 89 54 90 55 91 56 92 57 93
REMARK H PARENT 1 10 1 11 1 12 9 21 81 46 49 57
REMARK Flexibility Score: inf
ROOT
ATOM      1  C   UNL A   1      33.543  28.801  24.812  1.00  0.00     0.188 C 
ENDROOT
BRANCH   1   2
ATOM      2  O   UNL A   1      33.112  27.441  24.794  1.00  0.00    -0.376 OA
BRANCH   2   3
ATOM      3  C   UNL A   1      34.061  26.418  25.059  1.00  0.00     0.202 C 
BRANCH   3   4
ATOM      4  C   UNL A   1      33.653  25.223  25.933  1.00  0.00     0.261 C 
BRANCH   4   5
ATOM      5  O   UNL A   1      32.475  24.510  25.516  1.00  0.00    -0.459 OA
BRANCH   5   6
ATOM      6  C   UNL A   1      31.392  24.596  26.336  1.00  0.00     0.365 C 
ATOM      7  O   UNL A   1      31.157  23.812  27.251  1.00  0.00    -0.245 OA
BRANCH   6   8
ATOM      8  C   UNL A   1      30.408  25.717  25.961  1.00  0.00     0.296 C 
BRANCH   8   9
ATOM      9  N   UNL A   1      30.698  27.060  26.514  1.00  0.00    -0.346 N 
ATOM     10  H   UNL A   1      31.231  26.964  27.379  1.00  0.00     0.345 HD
ATOM     11  H   UNL A   1      29.822  27.546  26.707  1.00  0.00     0.345 HD
ATOM     12  H   UNL A   1      31.243  27.596  25.838  1.00  0.00     0.345 HD
ENDBRANCH   8   9
BRANCH   8  13
ATOM     13  C   UNL A   1      30.126  25.719  24.450  1.00  0.00     0.113 C 
BRANCH  13  14
ATOM     14  C   UNL A   1      29.506  26.936  23.789  1.00  0.00    -0.038 A 
ATOM     15  C   UNL A   1      30.363  27.827  23.122  1.00  0.00     0.004 A 
ATOM     16  C   UNL A   1      28.130  27.198  23.745  1.00  0.00     0.050 A 
ATOM     17  C   UNL A   1      29.869  28.953  22.462  1.00  0.00     0.004 A 
ATOM     18  C   UNL A   1      27.642  28.324  23.083  1.00  0.00     0.115 A 
ATOM     19  C   UNL A   1      28.500  29.207  22.442  1.00  0.00     0.046 A 
BRANCH  18  20
ATOM     20  O   UNL A   1      26.292  28.524  23.083  1.00  0.00    -0.508 OA
ATOM     21  H   UNL A   1      25.757  28.114  23.734  1.00  0.00     0.293 HD
ENDBRANCH  18  20
ENDBRANCH  13  14
ENDBRANCH   8  13
ENDBRANCH   6   8
ENDBRANCH   5   6
ENDBRANCH   4   5
ENDBRANCH   3   4
ENDBRANCH   2   3
ENDBRANCH   1   2
BRANCH   1  22
ATOM     22  C   UNL A   1      32.932  29.770  25.848  1.00  0.00     0.188 C 
BRANCH  22  23
ATOM     23  O   UNL A   1      31.559  30.025  25.650  1.00  0.00    -0.376 OA
BRANCH  23  24
ATOM     24  C   UNL A   1      31.101  31.345  25.844  1.00  0.00     0.202 C 
BRANCH  24  25
ATOM     25  C   UNL A   1      31.595  32.165  27.051  1.00  0.00     0.261 C 
BRANCH  25  26
ATOM     26  O   UNL A   1      32.620  33.146  26.819  1.00  0.00    -0.460 OA
BRANCH  26  27
ATOM     27  C   UNL A   1      33.170  33.740  27.903  1.00  0.00     0.338 C 
ATOM     28  O   UNL A   1      32.654  34.615  28.588  1.00  0.00    -0.246 OA
BRANCH  27  29
ATOM     29  C   UNL A   1      34.416  33.020  28.261  1.00  0.00     0.060 A 
ATOM     30  C   UNL A   1      34.350  31.656  28.575  1.00  0.00     0.016 A 
ATOM     31  C   UNL A   1      35.645  33.684  28.296  1.00  0.00     0.016 A 
ATOM     32  C   UNL A   1      35.503  30.960  28.954  1.00  0.00     0.010 A 
ATOM     33  C   UNL A   1      36.797  32.990  28.698  1.00  0.00     0.010 A 
ATOM     34  C   UNL A   1      36.727  31.631  29.062  1.00  0.00    -0.014 A 
BRANCH  34  35
ATOM     35  C   UNL A   1      37.878  30.971  29.740  1.00  0.00     0.031 A 
ATOM     36  C   UNL A   1      38.179  31.348  31.169  1.00  0.00     0.074 A 
ATOM     37  C   UNL A   1      38.622  30.028  29.129  1.00  0.00     0.049 A 
ATOM     38  N   UNL A   1      39.152  30.954  31.951  1.00  0.00    -0.248 NA
ATOM     39  C   UNL A   1      37.254  32.305  31.795  1.00  0.00     0.031 C 
ATOM     40  C   UNL A   1      38.409  29.534  27.770  1.00  0.00     0.029 A 
ATOM     41  N   UNL A   1      39.715  29.324  29.574  1.00  0.00    -0.354 N 
ATOM     42  C   UNL A   1      38.953  31.609  33.163  1.00  0.00     0.074 A 
ATOM     43  C   UNL A   1      37.798  32.465  32.991  1.00  0.00     0.031 C 
ATOM     44  C   UNL A   1      39.350  28.616  27.488  1.00  0.00     0.029 A 
ATOM     45  C   UNL A   1      40.258  28.484  28.628  1.00  0.00     0.049 A 
ATOM     46  H   UNL A   1      40.077  29.411  30.485  1.00  0.00     0.167 HD
ATOM     47  C   UNL A   1      39.654  31.496  34.319  1.00  0.00     0.034 A 
ATOM     48  C   UNL A   1      41.372  27.721  28.666  1.00  0.00     0.034 A 
ATOM     49  C   UNL A   1      40.817  30.656  34.475  1.00  0.00     0.049 A 
ATOM     50  C   UNL A   1      42.203  27.693  29.932  1.00  0.00     0.074 A 
ATOM     51  C   UNL A   1      41.610  30.482  35.597  1.00  0.00     0.029 A 
ATOM     52  N   UNL A   1      41.362  29.855  33.481  1.00  0.00    -0.354 N 
ATOM     53  N   UNL A   1      42.005  28.319  31.069  1.00  0.00    -0.248 NA
ATOM     54  C   UNL A   1      43.402  26.844  29.920  1.00  0.00     0.031 C 
ATOM     55  C   UNL A   1      42.671  29.638  35.260  1.00  0.00     0.029 A 
ATOM     56  C   UNL A   1      42.494  29.209  33.956  1.00  0.00     0.049 A 
ATOM     57  H   UNL A   1      40.999  29.761  32.571  1.00  0.00     0.167 HD
ATOM     58  C   UNL A   1      43.033  27.905  31.917  1.00  0.00     0.074 A 
ATOM     59  C   UNL A   1      43.833  26.962  31.167  1.00  0.00     0.031 C 
ATOM     60  C   UNL A   1      43.291  28.271  33.199  1.00  0.00     0.034 A 
BRANCH  47  61
ATOM     61  C   UNL A   1      39.199  32.335  35.489  1.00  0.00     0.023 A 
ATOM     62  C   UNL A   1      39.642  33.658  35.663  1.00  0.00     0.031 A 
ATOM     63  C   UNL A   1      38.328  31.801  36.456  1.00  0.00     0.131 A 
ATOM     64  C   UNL A   1      39.270  34.377  36.809  1.00  0.00     0.055 A 
ATOM     65  C   UNL A   1      37.893  32.551  37.550  1.00  0.00     0.041 A 
ATOM     66  F   UNL A   1      37.891  30.536  36.358  1.00  0.00    -0.206 F 
ATOM     67  C   UNL A   1      38.376  33.843  37.739  1.00  0.00     0.022 A 
BRANCH  64  68
ATOM     68  S   UNL A   1      40.082  35.965  37.138  1.00  0.00     0.124 S 
ATOM     69  O   UNL A   1      39.385  36.410  38.342  1.00  0.00    -0.237 OA
ATOM     70  O   UNL A   1      41.476  35.576  37.314  1.00  0.00    -0.237 OA
ATOM     71  O   UNL A   1      39.800  36.749  35.938  1.00  0.00    -0.744 OA
ENDBRANCH  64  68
ENDBRANCH  47  61
BRANCH  48  72
ATOM     72  C   UNL A   1      41.816  26.952  27.462  1.00  0.00     0.023 A 
ATOM     73  C   UNL A   1      41.692  25.554  27.398  1.00  0.00     0.031 A 
ATOM     74  C   UNL A   1      42.462  27.600  26.393  1.00  0.00     0.131 A 
ATOM     75  C   UNL A   1      42.262  24.847  26.326  1.00  0.00     0.055 A 
ATOM     76  C   UNL A   1      42.965  26.900  25.296  1.00  0.00     0.041 A 
ATOM     77  F   UNL A   1      42.621  28.934  26.404  1.00  0.00    -0.206 F 
ATOM     78  C   UNL A   1      42.883  25.512  25.267  1.00  0.00     0.022 A 
BRANCH  75  79
ATOM     79  S   UNL A   1      42.295  23.033  26.399  1.00  0.00     0.124 S 
ATOM     80  O   UNL A   1      43.272  22.713  25.364  1.00  0.00    -0.237 OA
ATOM     81  O   UNL A   1      42.716  22.792  27.775  1.00  0.00    -0.237 OA
ATOM     82  O   UNL A   1      40.917  22.654  26.095  1.00  0.00    -0.744 OA
ENDBRANCH  75  79
ENDBRANCH  48  72
BRANCH  60  83
ATOM     83  C   UNL A   1      44.457  27.598  33.891  1.00  0.00     0.023 A 
ATOM     84  C   UNL A   1      44.292  26.444  34.678  1.00  0.00     0.031 A 
ATOM     85  C   UNL A   1      45.752  28.136  33.780  1.00  0.00     0.131 A 
ATOM     86  C   UNL A   1      45.385  25.912  35.381  1.00  0.00     0.055 A 
ATOM     87  C   UNL A   1      46.849  27.559  34.421  1.00  0.00     0.041 A 
ATOM     88  F   UNL A   1      45.974  29.238  33.046  1.00  0.00    -0.206 F 
ATOM     89  C   UNL A   1      46.667  26.451  35.241  1.00  0.00     0.022 A 
BRANCH  86  90
ATOM     90  S   UNL A   1      45.088  24.580  36.577  1.00  0.00     0.124 S 
ATOM     91  O   UNL A   1      45.184  23.392  35.736  1.00  0.00    -0.237 OA
ATOM     92  O   UNL A   1      46.171  24.773  37.535  1.00  0.00    -0.237 OA
ATOM     93  O   UNL A   1      43.750  24.872  37.088  1.00  0.00    -0.744 OA
ENDBRANCH  86  90
ENDBRANCH  60  83
ENDBRANCH  34  35
ENDBRANCH  27  29
ENDBRANCH  26  27
ENDBRANCH  25  26
ENDBRANCH  24  25
ENDBRANCH  23  24
ENDBRANCH  22  23
ENDBRANCH   1  22
TORSDOF 24
ENDMDL
MODEL 2
REMARK VINA RESULT:     -10.1      1.350      1.636
REMARK SMILES [NH3+][C@@H](Cc1cccc(O)c1)C(=O)OCCOCCOCCOC(=O)c1ccc(-c2c3nc(c(-c4cc(S(=O)(=O)[O-])ccc4F)c4ccc([nH]4)c(-c4cc(S(=O)(=O)[O-])ccc4F)c4nc(c(-c5cc(S(=O)(=O)[O-])ccc5F)c5ccc2[nH]5)C=C4)C=C3)cc1
REMARK SMILES IDX 17 1 16 2 15 3 14 4 13 5 11 6 12 7 2 8 1 9 3 13 4 14 5 15
REMARK SMILES IDX 10 16 6 17 8 18 7 19 9 20 18 22 19 23 20 24 21 25 22 26
REMARK SMILES IDX 23 27 24 28 25 29 26 30 87 31 27 32 86 33 28 34 29 35 30 36
REMARK SMILES IDX 80 37 31 38 85 39 79 40 81 41 32 42 84 43 78 44 77 45 33 47
REMARK SMILES IDX 65 48 45 49 64 50 46 51 49 52 63 53 82 54 47 55 48 56 62 58
REMARK SMILES IDX 83 59 50 60 34 61 35 62 43 63 36 64 42 65 44 66 41 67 37 68
REMARK SMILES IDX 38 69 39 70 40 71 66 72 67 73 75 74 68 75 74 76 76 77 73 78
REMARK SMILES IDX 69 79 70 80 71 81 72 82 51 83 52 84 60 85 53 86 59 87 61 88
REMARK SMILES IDX 58 89 54 90 55 91 56 92 57 93
REMARK H PARENT 1 10 1 11 1 12 9 21 81 46 49 57
REMARK Flexibility Score: inf
ROOT
ATOM      1  C   UNL A   1      33.505  28.873  24.808  1.00  0.00     0.188 C 
ENDROOT
BRANCH   1   2
ATOM      2  O   UNL A   1      33.026  27.529  24.791  1.00  0.00    -0.376 OA
BRANCH   2   3
ATOM      3  C   UNL A   1      33.966  26.466  24.813  1.00  0.00     0.202 C 
BRANCH   3   4
ATOM      4  C   UNL A   1      33.692  25.239  25.696  1.00  0.00     0.261 C 
BRANCH   4   5
ATOM      5  O   UNL A   1      32.481  24.517  25.413  1.00  0.00    -0.459 OA
BRANCH   5   6
ATOM      6  C   UNL A   1      31.480  24.628  26.329  1.00  0.00     0.365 C 
ATOM      7  O   UNL A   1      31.357  23.895  27.306  1.00  0.00    -0.245 OA
BRANCH   6   8
ATOM      8  C   UNL A   1      30.433  25.702  25.990  1.00  0.00     0.296 C 
BRANCH   8   9
ATOM      9  N   UNL A   1      30.701  27.066  26.500  1.00  0.00    -0.346 N 
ATOM     10  H   UNL A   1      30.649  27.065  27.519  1.00  0.00     0.345 HD
ATOM     11  H   UNL A   1      30.006  27.713  26.126  1.00  0.00     0.345 HD
ATOM     12  H   UNL A   1      31.633  27.362  26.209  1.00  0.00     0.345 HD
ENDBRANCH   8   9
BRANCH   8  13
ATOM     13  C   UNL A   1      30.069  25.662  24.497  1.00  0.00     0.113 C 
BRANCH  13  14
ATOM     14  C   UNL A   1      29.506  26.895  23.814  1.00  0.00    -0.038 A 
ATOM     15  C   UNL A   1      30.407  27.738  23.141  1.00  0.00     0.004 A 
ATOM     16  C   UNL A   1      28.144  27.216  23.755  1.00  0.00     0.050 A 
ATOM     17  C   UNL A   1      29.967  28.875  22.460  1.00  0.00     0.004 A 
ATOM     18  C   UNL A   1      27.710  28.352  23.073  1.00  0.00     0.115 A 
ATOM     19  C   UNL A   1      28.611  29.187  22.426  1.00  0.00     0.046 A 
BRANCH  18  20
ATOM     20  O   UNL A   1      26.370  28.611  23.059  1.00  0.00    -0.508 OA
ATOM     21  H   UNL A   1      25.870  28.453  22.283  1.00  0.00     0.293 HD
ENDBRANCH  18  20
ENDBRANCH  13  14
ENDBRANCH   8  13
ENDBRANCH   6   8
ENDBRANCH   5   6
ENDBRANCH   4   5
ENDBRANCH   3   4
ENDBRANCH   2   3
ENDBRANCH   1   2
BRANCH   1  22
ATOM     22  C   UNL A   1      32.928  29.866  25.841  1.00  0.00     0.188 C 
BRANCH  22  23
ATOM     23  O   UNL A   1      31.557  30.142  25.661  1.00  0.00    -0.376 OA
BRANCH  23  24
ATOM     24  C   UNL A   1      31.108  31.450  25.937  1.00  0.00     0.202 C 
BRANCH  24  25
ATOM     25  C   UNL A   1      31.648  32.211  27.163  1.00  0.00     0.261 C 
BRANCH  25  26
ATOM     26  O   UNL A   1      32.654  33.214  26.938  1.00  0.00    -0.460 OA
BRANCH  26  27
ATOM     27  C   UNL A   1      33.217  33.785  28.028  1.00  0.00     0.338 C 
ATOM     28  O   UNL A   1      32.709  34.645  28.736  1.00  0.00    -0.246 OA
BRANCH  27  29
ATOM     29  C   UNL A   1      34.467  33.059  28.356  1.00  0.00     0.060 A 
ATOM     30  C   UNL A   1      34.401  31.694  28.671  1.00  0.00     0.016 A 
ATOM     31  C   UNL A   1      35.700  33.715  28.360  1.00  0.00     0.016 A 
ATOM     32  C   UNL A   1      35.559  30.992  29.023  1.00  0.00     0.010 A 
ATOM     33  C   UNL A   1      36.857  33.015  28.735  1.00  0.00     0.010 A 
ATOM     34  C   UNL A   1      36.789  31.656  29.101  1.00  0.00    -0.014 A 
BRANCH  34  35
ATOM     35  C   UNL A   1      37.952  30.990  29.752  1.00  0.00     0.031 A 
ATOM     36  C   UNL A   1      38.279  31.353  31.178  1.00  0.00     0.074 A 
ATOM     37  C   UNL A   1      38.685  30.054  29.118  1.00  0.00     0.049 A 
ATOM     38  N   UNL A   1      39.266  30.952  31.939  1.00  0.00    -0.248 NA
ATOM     39  C   UNL A   1      37.365  32.304  31.831  1.00  0.00     0.031 C 
ATOM     40  C   UNL A   1      38.447  29.573  27.759  1.00  0.00     0.029 A 
ATOM     41  N   UNL A   1      39.786  29.345  29.537  1.00  0.00    -0.354 N 
ATOM     42  C   UNL A   1      39.089  31.595  33.161  1.00  0.00     0.074 A 
ATOM     43  C   UNL A   1      37.931  32.453  33.018  1.00  0.00     0.031 C 
ATOM     44  C   UNL A   1      39.384  28.658  27.450  1.00  0.00     0.029 A 
ATOM     45  C   UNL A   1      40.312  28.514  28.572  1.00  0.00     0.049 A 
ATOM     46  H   UNL A   1      40.165  29.423  30.442  1.00  0.00     0.167 HD
ATOM     47  C   UNL A   1      39.811  31.471  34.302  1.00  0.00     0.034 A 
ATOM     48  C   UNL A   1      41.426  27.751  28.583  1.00  0.00     0.034 A 
ATOM     49  C   UNL A   1      40.977  30.630  34.430  1.00  0.00     0.049 A 
ATOM     50  C   UNL A   1      42.280  27.712  29.833  1.00  0.00     0.074 A 
ATOM     51  C   UNL A   1      41.790  30.445  35.535  1.00  0.00     0.029 A 
ATOM     52  N   UNL A   1      41.503  29.839  33.417  1.00  0.00    -0.354 N 
ATOM     53  N   UNL A   1      42.102  28.326  30.980  1.00  0.00    -0.248 NA
ATOM     54  C   UNL A   1      43.479  26.863  29.791  1.00  0.00     0.031 C 
ATOM     55  C   UNL A   1      42.845  29.604  35.171  1.00  0.00     0.029 A 
ATOM     56  C   UNL A   1      42.644  29.188  33.865  1.00  0.00     0.049 A 
ATOM     57  H   UNL A   1      41.124  29.753  32.513  1.00  0.00     0.167 HD
ATOM     58  C   UNL A   1      43.146  27.905  31.805  1.00  0.00     0.074 A 
ATOM     59  C   UNL A   1      43.932  26.969  31.031  1.00  0.00     0.031 C 
ATOM     60  C   UNL A   1      43.427  28.258  33.086  1.00  0.00     0.034 A 
BRANCH  47  61
ATOM     61  C   UNL A   1      39.377  32.298  35.489  1.00  0.00     0.023 A 
ATOM     62  C   UNL A   1      38.694  31.724  36.577  1.00  0.00     0.031 A 
ATOM     63  C   UNL A   1      39.629  33.681  35.527  1.00  0.00     0.131 A 
ATOM     64  C   UNL A   1      38.228  32.539  37.620  1.00  0.00     0.055 A 
ATOM     65  C   UNL A   1      39.236  34.472  36.608  1.00  0.00     0.041 A 
ATOM     66  F   UNL A   1      40.253  34.290  34.507  1.00  0.00    -0.206 F 
ATOM     67  C   UNL A   1      38.519  33.904  37.657  1.00  0.00     0.022 A 
BRANCH  64  68
ATOM     68  S   UNL A   1      37.114  31.813  38.854  1.00  0.00     0.124 S 
ATOM     69  O   UNL A   1      37.031  30.428  38.398  1.00  0.00    -0.237 OA
ATOM     70  O   UNL A   1      37.838  32.032  40.101  1.00  0.00    -0.237 OA
ATOM     71  O   UNL A   1      35.884  32.586  38.701  1.00  0.00    -0.744 OA
ENDBRANCH  64  68
ENDBRANCH  47  61
BRANCH  48  72
ATOM     72  C   UNL A   1      41.849  26.995  27.364  1.00  0.00     0.023 A 
ATOM     73  C   UNL A   1      41.662  25.606  27.262  1.00  0.00     0.031 A 
ATOM     74  C   UNL A   1      42.535  27.640  26.318  1.00  0.00     0.131 A 
ATOM     75  C   UNL A   1      42.211  24.901  26.177  1.00  0.00     0.055 A 
ATOM     76  C   UNL A   1      43.018  26.946  25.208  1.00  0.00     0.041 A 
ATOM     77  F   UNL A   1      42.754  28.965  26.366  1.00  0.00    -0.206 F 
ATOM     78  C   UNL A   1      42.874  25.564  25.142  1.00  0.00     0.022 A 
BRANCH  75  79
ATOM     79  S   UNL A   1      42.162  23.087  26.202  1.00  0.00     0.124 S 
ATOM     80  O   UNL A   1      42.931  22.787  27.405  1.00  0.00    -0.237 OA
ATOM     81  O   UNL A   1      40.728  22.824  26.276  1.00  0.00    -0.237 OA
ATOM     82  O   UNL A   1      42.799  22.711  24.943  1.00  0.00    -0.744 OA
ENDBRANCH  75  79
ENDBRANCH  48  72
BRANCH  60  83
ATOM     83  C   UNL A   1      44.606  27.578  33.749  1.00  0.00     0.023 A 
ATOM     84  C   UNL A   1      44.482  26.339  34.403  1.00  0.00     0.031 A 
ATOM     85  C   UNL A   1      45.871  28.195  33.749  1.00  0.00     0.131 A 
ATOM     86  C   UNL A   1      45.579  25.795  35.089  1.00  0.00     0.055 A 
ATOM     87  C   UNL A   1      46.976  27.612  34.369  1.00  0.00     0.041 A 
ATOM     88  F   UNL A   1      46.054  29.380  33.145  1.00  0.00    -0.206 F 
ATOM     89  C   UNL A   1      46.830  26.414  35.060  1.00  0.00     0.022 A 
BRANCH  86  90
ATOM     90  S   UNL A   1      45.318  24.328  36.125  1.00  0.00     0.124 S 
ATOM     91  O   UNL A   1      45.380  24.892  37.469  1.00  0.00    -0.237 OA
ATOM     92  O   UNL A   1      44.004  23.866  35.688  1.00  0.00    -0.237 OA
ATOM     93  O   UNL A   1      46.432  23.453  35.767  1.00  0.00    -0.744 OA
ENDBRANCH  86  90
ENDBRANCH  60  83
ENDBRANCH  34  35
ENDBRANCH  27  29
ENDBRANCH  26  27
ENDBRANCH  25  26
ENDBRANCH  24  25
ENDBRANCH  23  24
ENDBRANCH  22  23
ENDBRANCH   1  22
TORSDOF 24
ENDMDL
MODEL 3
REMARK VINA RESULT:      -9.6      3.618      7.244
REMARK SMILES [NH3+][C@@H](Cc1cccc(O)c1)C(=O)OCCOCCOCCOC(=O)c1ccc(-c2c3nc(c(-c4cc(S(=O)(=O)[O-])ccc4F)c4ccc([nH]4)c(-c4cc(S(=O)(=O)[O-])ccc4F)c4nc(c(-c5cc(S(=O)(=O)[O-])ccc5F)c5ccc2[nH]5)C=C4)C=C3)cc1
REMARK SMILES IDX 17 1 16 2 15 3 14 4 13 5 11 6 12 7 2 8 1 9 3 13 4 14 5 15
REMARK SMILES IDX 10 16 6 17 8 18 7 19 9 20 18 22 19 23 20 24 21 25 22 26
REMARK SMILES IDX 23 27 24 28 25 29 26 30 87 31 27 32 86 33 28 34 29 35 30 36
REMARK SMILES IDX 80 37 31 38 85 39 79 40 81 41 32 42 84 43 78 44 77 45 33 47
REMARK SMILES IDX 65 48 45 49 64 50 46 51 49 52 63 53 82 54 47 55 48 56 62 58
REMARK SMILES IDX 83 59 50 60 34 61 35 62 43 63 36 64 42 65 44 66 41 67 37 68
REMARK SMILES IDX 38 69 39 70 40 71 66 72 67 73 75 74 68 75 74 76 76 77 73 78
REMARK SMILES IDX 69 79 70 80 71 81 72 82 51 83 52 84 60 85 53 86 59 87 61 88
REMARK SMILES IDX 58 89 54 90 55 91 56 92 57 93
REMARK H PARENT 1 10 1 11 1 12 9 21 81 46 49 57
REMARK Flexibility Score: inf
ROOT
ATOM      1  C   UNL A   1      32.251  35.947  31.428  1.00  0.00     0.188 C 
ENDROOT
BRANCH   1   2
ATOM      2  O   UNL A   1      32.718  36.965  32.312  1.00  0.00    -0.376 OA
BRANCH   2   3
ATOM      3  C   UNL A   1      34.026  36.856  32.854  1.00  0.00     0.202 C 
BRANCH   3   4
ATOM      4  C   UNL A   1      34.588  35.464  33.182  1.00  0.00     0.261 C 
BRANCH   4   5
ATOM      5  O   UNL A   1      36.018  35.329  33.109  1.00  0.00    -0.459 OA
BRANCH   5   6
ATOM      6  C   UNL A   1      36.491  34.256  32.418  1.00  0.00     0.365 C 
ATOM      7  O   UNL A   1      35.807  33.560  31.673  1.00  0.00    -0.245 OA
BRANCH   6   8
ATOM      8  C   UNL A   1      37.959  33.910  32.721  1.00  0.00     0.296 C 
BRANCH   8   9
ATOM      9  N   UNL A   1      38.925  34.120  31.618  1.00  0.00    -0.346 N 
ATOM     10  H   UNL A   1      39.538  33.307  31.544  1.00  0.00     0.345 HD
ATOM     11  H   UNL A   1      39.485  34.951  31.809  1.00  0.00     0.345 HD
ATOM     12  H   UNL A   1      38.419  34.244  30.741  1.00  0.00     0.345 HD
ENDBRANCH   8   9
BRANCH   8  13
ATOM     13  C   UNL A   1      38.404  34.526  34.057  1.00  0.00     0.113 C 
BRANCH  13  14
ATOM     14  C   UNL A   1      38.354  33.705  35.332  1.00  0.00    -0.038 A 
ATOM     15  C   UNL A   1      38.516  34.381  36.553  1.00  0.00     0.004 A 
ATOM     16  C   UNL A   1      38.094  32.329  35.378  1.00  0.00     0.050 A 
ATOM     17  C   UNL A   1      38.451  33.704  37.772  1.00  0.00     0.004 A 
ATOM     18  C   UNL A   1      38.029  31.658  36.599  1.00  0.00     0.115 A 
ATOM     19  C   UNL A   1      38.208  32.334  37.798  1.00  0.00     0.046 A 
BRANCH  18  20
ATOM     20  O   UNL A   1      37.779  30.317  36.573  1.00  0.00    -0.508 OA
ATOM     21  H   UNL A   1      37.665  29.846  37.375  1.00  0.00     0.293 HD
ENDBRANCH  18  20
ENDBRANCH  13  14
ENDBRANCH   8  13
ENDBRANCH   6   8
ENDBRANCH   5   6
ENDBRANCH   4   5
ENDBRANCH   3   4
ENDBRANCH   2   3
ENDBRANCH   1   2
BRANCH   1  22
ATOM     22  C   UNL A   1      32.920  35.785  30.045  1.00  0.00     0.188 C 
BRANCH  22  23
ATOM     23  O   UNL A   1      33.023  34.446  29.616  1.00  0.00    -0.376 OA
BRANCH  23  24
ATOM     24  C   UNL A   1      33.584  34.205  28.344  1.00  0.00     0.202 C 
BRANCH  24  25
ATOM     25  C   UNL A   1      34.426  32.938  28.099  1.00  0.00     0.261 C 
BRANCH  25  26
ATOM     26  O   UNL A   1      33.786  31.663  28.280  1.00  0.00    -0.460 OA
BRANCH  26  27
ATOM     27  C   UNL A   1      34.321  30.601  27.635  1.00  0.00     0.338 C 
ATOM     28  O   UNL A   1      33.898  30.097  26.602  1.00  0.00    -0.246 OA
BRANCH  27  29
ATOM     29  C   UNL A   1      35.623  30.267  28.260  1.00  0.00     0.060 A 
ATOM     30  C   UNL A   1      36.805  30.518  27.550  1.00  0.00     0.016 A 
ATOM     31  C   UNL A   1      35.684  29.704  29.537  1.00  0.00     0.016 A 
ATOM     32  C   UNL A   1      38.046  30.177  28.098  1.00  0.00     0.010 A 
ATOM     33  C   UNL A   1      36.928  29.342  30.077  1.00  0.00     0.010 A 
ATOM     34  C   UNL A   1      38.115  29.546  29.347  1.00  0.00    -0.014 A 
BRANCH  34  35
ATOM     35  C   UNL A   1      39.393  28.924  29.794  1.00  0.00     0.031 A 
ATOM     36  C   UNL A   1      40.075  29.487  31.015  1.00  0.00     0.074 A 
ATOM     37  C   UNL A   1      39.927  27.859  29.164  1.00  0.00     0.049 A 
ATOM     38  N   UNL A   1      41.215  29.154  31.566  1.00  0.00    -0.248 NA
ATOM     39  C   UNL A   1      39.371  30.580  31.704  1.00  0.00     0.031 C 
ATOM     40  C   UNL A   1      39.347  27.185  28.005  1.00  0.00     0.029 A 
ATOM     41  N   UNL A   1      41.087  27.162  29.411  1.00  0.00    -0.354 N 
ATOM     42  C   UNL A   1      41.362  29.990  32.669  1.00  0.00     0.074 A 
ATOM     43  C   UNL A   1      40.220  30.880  32.674  1.00  0.00     0.031 C 
ATOM     44  C   UNL A   1      40.160  26.180  27.633  1.00  0.00     0.029 A 
ATOM     45  C   UNL A   1      41.339  26.161  28.500  1.00  0.00     0.049 A 
ATOM     46  H   UNL A   1      41.682  27.359  30.170  1.00  0.00     0.167 HD
ATOM     47  C   UNL A   1      42.346  30.005  33.602  1.00  0.00     0.034 A 
ATOM     48  C   UNL A   1      42.407  25.346  28.363  1.00  0.00     0.034 A 
ATOM     49  C   UNL A   1      43.492  29.129  33.577  1.00  0.00     0.049 A 
ATOM     50  C   UNL A   1      43.547  25.454  29.354  1.00  0.00     0.074 A 
ATOM     51  C   UNL A   1      44.554  29.074  34.464  1.00  0.00     0.029 A 
ATOM     52  N   UNL A   1      43.734  28.160  32.613  1.00  0.00    -0.354 N 
ATOM     53  N   UNL A   1      43.674  26.251  30.390  1.00  0.00    -0.248 NA
ATOM     54  C   UNL A   1      44.683  24.541  29.161  1.00  0.00     0.031 C 
ATOM     55  C   UNL A   1      45.470  28.126  33.997  1.00  0.00     0.029 A 
ATOM     56  C   UNL A   1      44.939  27.523  32.869  1.00  0.00     0.049 A 
ATOM     57  H   UNL A   1      43.137  27.955  31.857  1.00  0.00     0.167 HD
ATOM     58  C   UNL A   1      44.885  25.904  30.992  1.00  0.00     0.074 A 
ATOM     59  C   UNL A   1      45.435  24.815  30.216  1.00  0.00     0.031 C 
ATOM     60  C   UNL A   1      45.485  26.438  32.087  1.00  0.00     0.034 A 
BRANCH  47  61
ATOM     61  C   UNL A   1      42.239  31.033  34.704  1.00  0.00     0.023 A 
ATOM     62  C   UNL A   1      42.656  32.363  34.515  1.00  0.00     0.031 A 
ATOM     63  C   UNL A   1      41.733  30.677  35.967  1.00  0.00     0.131 A 
ATOM     64  C   UNL A   1      42.625  33.266  35.587  1.00  0.00     0.055 A 
ATOM     65  C   UNL A   1      41.626  31.603  37.006  1.00  0.00     0.041 A 
ATOM     66  F   UNL A   1      41.343  29.416  36.216  1.00  0.00    -0.206 F 
ATOM     67  C   UNL A   1      42.086  32.904  36.823  1.00  0.00     0.022 A 
BRANCH  64  68
ATOM     68  S   UNL A   1      43.429  34.879  35.384  1.00  0.00     0.124 S 
ATOM     69  O   UNL A   1      43.558  34.965  33.932  1.00  0.00    -0.237 OA
ATOM     70  O   UNL A   1      42.470  35.790  35.996  1.00  0.00    -0.237 OA
ATOM     71  O   UNL A   1      44.692  34.725  36.105  1.00  0.00    -0.744 OA
ENDBRANCH  64  68
ENDBRANCH  47  61
BRANCH  48  72
ATOM     72  C   UNL A   1      42.496  24.384  27.221  1.00  0.00     0.023 A 
ATOM     73  C   UNL A   1      41.971  23.084  27.316  1.00  0.00     0.031 A 
ATOM     74  C   UNL A   1      43.195  24.723  26.048  1.00  0.00     0.131 A 
ATOM     75  C   UNL A   1      42.211  22.154  26.290  1.00  0.00     0.055 A 
ATOM     76  C   UNL A   1      43.370  23.818  25.001  1.00  0.00     0.041 A 
ATOM     77  F   UNL A   1      43.729  25.947  25.906  1.00  0.00    -0.206 F 
ATOM     78  C   UNL A   1      42.892  22.517  25.126  1.00  0.00     0.022 A 
BRANCH  75  79
ATOM     79  S   UNL A   1      41.731  20.424  26.553  1.00  0.00     0.124 S 
ATOM     80  O   UNL A   1      41.902  20.285  27.995  1.00  0.00    -0.237 OA
ATOM     81  O   UNL A   1      40.355  20.413  26.067  1.00  0.00    -0.237 OA
ATOM     82  O   UNL A   1      42.685  19.677  25.736  1.00  0.00    -0.744 OA
ENDBRANCH  75  79
ENDBRANCH  48  72
BRANCH  60  83
ATOM     83  C   UNL A   1      46.781  25.804  32.545  1.00  0.00     0.023 A 
ATOM     84  C   UNL A   1      46.816  24.813  33.542  1.00  0.00     0.031 A 
ATOM     85  C   UNL A   1      48.006  26.218  31.989  1.00  0.00     0.131 A 
ATOM     86  C   UNL A   1      48.049  24.325  34.005  1.00  0.00     0.055 A 
ATOM     87  C   UNL A   1      49.224  25.674  32.400  1.00  0.00     0.041 A 
ATOM     88  F   UNL A   1      48.041  27.161  31.035  1.00  0.00    -0.206 F 
ATOM     89  C   UNL A   1      49.252  24.736  33.426  1.00  0.00     0.022 A 
BRANCH  86  90
ATOM     90  S   UNL A   1      48.067  23.238  35.457  1.00  0.00     0.124 S 
ATOM     91  O   UNL A   1      48.833  24.027  36.416  1.00  0.00    -0.237 OA
ATOM     92  O   UNL A   1      46.646  23.083  35.750  1.00  0.00    -0.237 OA
ATOM     93  O   UNL A   1      48.734  22.031  34.973  1.00  0.00    -0.744 OA
ENDBRANCH  86  90
ENDBRANCH  60  83
ENDBRANCH  34  35
ENDBRANCH  27  29
ENDBRANCH  26  27
ENDBRANCH  25  26
ENDBRANCH  24  25
ENDBRANCH  23  24
ENDBRANCH  22  23
ENDBRANCH   1  22
TORSDOF 24
ENDMDL
