MODEL 1
REMARK VINA RESULT:     -10.1      0.000      0.000
REMARK SMILES CC(C)CSc1cc2c(cc1Cl)C=C(C(=O)OCCOCCOCCOC(=O)c1ccc(-c3c4nc(c(-c5cc(S(=O)(=O)[O-])ccc5F)c5ccc([nH]5)c(-c5cc(S(=O)(=O)[O-])ccc5F)c5nc(c(-c6cc(S(=O)(=O)[O-])ccc6F)c6ccc3[nH]6)C=C5)C=C4)cc1)[C@H](C(F)(F)F)O2
REMARK SMILES IDX 21 1 20 2 19 3 18 4 17 5 15 6 16 7 14 8 6 9 7 10 11 11 8 12
REMARK SMILES IDX 10 13 12 14 9 15 97 16 13 17 92 18 5 19 4 20 2 21 1 22 3 23
REMARK SMILES IDX 93 24 94 25 95 26 96 27 22 28 23 29 24 30 25 31 26 32 27 33
REMARK SMILES IDX 28 34 29 35 30 36 91 37 31 38 90 39 32 40 33 41 34 42 84 43
REMARK SMILES IDX 35 44 89 45 83 46 85 47 36 48 88 49 82 50 81 51 37 53 69 54
REMARK SMILES IDX 49 55 68 56 50 57 53 58 67 59 86 60 51 61 52 62 66 64 87 65
REMARK SMILES IDX 54 66 38 67 39 68 47 69 40 70 46 71 48 72 45 73 41 74 42 75
REMARK SMILES IDX 43 76 44 77 70 78 71 79 79 80 72 81 78 82 80 83 77 84 73 85
REMARK SMILES IDX 74 86 75 87 76 88 55 89 56 90 64 91 57 92 63 93 65 94 62 95
REMARK SMILES IDX 58 96 59 97 60 98 61 99
REMARK H PARENT 85 52 53 63
REMARK Flexibility Score: inf
ROOT
ATOM      1  C   UNL A   1      40.988  19.926  26.489  1.00  0.00     0.188 C 
ENDROOT
BRANCH   1   2
ATOM      2  O   UNL A   1      40.518  21.191  26.941  1.00  0.00    -0.376 OA
BRANCH   2   3
ATOM      3  C   UNL A   1      39.387  21.796  26.336  1.00  0.00     0.202 C 
BRANCH   3   4
ATOM      4  C   UNL A   1      38.579  20.951  25.347  1.00  0.00     0.261 C 
BRANCH   4   5
ATOM      5  O   UNL A   1      37.416  21.619  24.829  1.00  0.00    -0.460 OA
BRANCH   5   6
ATOM      6  C   UNL A   1      36.291  20.872  24.798  1.00  0.00     0.338 C 
ATOM      7  O   UNL A   1      36.215  19.661  24.922  1.00  0.00    -0.246 OA
BRANCH   6   8
ATOM      8  C   UNL A   1      35.106  21.730  24.659  1.00  0.00     0.087 C 
ATOM      9  C   UNL A   1      32.155  25.766  24.204  1.00  0.00     0.030 A 
ATOM     10  C   UNL A   1      32.349  24.768  25.165  1.00  0.00     0.063 A 
ATOM     11  C   UNL A   1      33.017  25.764  23.085  1.00  0.00     0.055 A 
ATOM     12  C   UNL A   1      33.290  23.761  24.987  1.00  0.00     0.129 A 
ATOM     13  C   UNL A   1      34.016  24.786  22.940  1.00  0.00     0.033 A 
ATOM     14  Cl  UNL A   1      32.926  26.962  21.836  1.00  0.00    -0.083 Cl
ATOM     15  C   UNL A   1      34.146  23.772  23.888  1.00  0.00     0.019 A 
ATOM     16  O   UNL A   1      33.346  22.804  25.971  1.00  0.00    -0.475 OA
ATOM     17  C   UNL A   1      35.216  22.786  23.837  1.00  0.00     0.027 C 
ATOM     18  C   UNL A   1      33.919  21.530  25.558  1.00  0.00     0.316 C 
BRANCH   9  19
ATOM     19  S   UNL A   1      30.822  26.970  24.348  1.00  0.00    -0.124 SA
BRANCH  19  20
ATOM     20  C   UNL A   1      31.195  27.956  25.844  1.00  0.00     0.078 C 
BRANCH  20  21
ATOM     21  C   UNL A   1      31.907  29.300  25.586  1.00  0.00    -0.007 C 
ATOM     22  C   UNL A   1      33.226  29.215  24.814  1.00  0.00     0.008 C 
ATOM     23  C   UNL A   1      30.953  30.228  24.824  1.00  0.00     0.008 C 
ENDBRANCH  20  21
ENDBRANCH  19  20
ENDBRANCH   9  19
BRANCH  18  24
ATOM     24  C   UNL A   1      32.815  20.618  24.989  1.00  0.00     0.430 C 
ATOM     25  F   UNL A   1      32.733  20.710  23.642  1.00  0.00    -0.167 F 
ATOM     26  F   UNL A   1      33.068  19.313  25.266  1.00  0.00    -0.167 F 
ATOM     27  F   UNL A   1      31.591  20.899  25.493  1.00  0.00    -0.167 F 
ENDBRANCH  18  24
ENDBRANCH   6   8
ENDBRANCH   5   6
ENDBRANCH   4   5
ENDBRANCH   3   4
ENDBRANCH   2   3
ENDBRANCH   1   2
BRANCH   1  28
ATOM     28  C   UNL A   1      42.495  19.656  26.319  1.00  0.00     0.188 C 
BRANCH  28  29
ATOM     29  O   UNL A   1      43.110  20.412  25.291  1.00  0.00    -0.376 OA
BRANCH  29  30
ATOM     30  C   UNL A   1      43.535  21.718  25.651  1.00  0.00     0.202 C 
BRANCH  30  31
ATOM     31  C   UNL A   1      44.360  22.406  24.561  1.00  0.00     0.261 C 
BRANCH  31  32
ATOM     32  O   UNL A   1      44.147  23.823  24.448  1.00  0.00    -0.460 OA
BRANCH  32  33
ATOM     33  C   UNL A   1      45.140  24.640  24.872  1.00  0.00     0.338 C 
ATOM     34  O   UNL A   1      46.282  24.682  24.448  1.00  0.00    -0.246 OA
BRANCH  33  35
ATOM     35  C   UNL A   1      44.527  25.621  25.796  1.00  0.00     0.060 A 
ATOM     36  C   UNL A   1      43.836  25.180  26.928  1.00  0.00     0.016 A 
ATOM     37  C   UNL A   1      44.593  26.987  25.494  1.00  0.00     0.016 A 
ATOM     38  C   UNL A   1      43.220  26.110  27.766  1.00  0.00     0.010 A 
ATOM     39  C   UNL A   1      43.970  27.918  26.334  1.00  0.00     0.010 A 
ATOM     40  C   UNL A   1      43.289  27.486  27.483  1.00  0.00    -0.014 A 
BRANCH  40  41
ATOM     41  C   UNL A   1      42.809  28.458  28.498  1.00  0.00     0.031 A 
ATOM     42  C   UNL A   1      41.425  29.031  28.471  1.00  0.00     0.074 A 
ATOM     43  C   UNL A   1      43.663  28.807  29.479  1.00  0.00     0.049 A 
ATOM     44  N   UNL A   1      40.834  29.778  29.367  1.00  0.00    -0.248 NA
ATOM     45  C   UNL A   1      40.598  28.738  27.291  1.00  0.00     0.031 C 
ATOM     46  C   UNL A   1      45.045  28.337  29.578  1.00  0.00     0.029 A 
ATOM     47  N   UNL A   1      43.503  29.617  30.575  1.00  0.00    -0.354 N 
ATOM     48  C   UNL A   1      39.557  30.029  28.879  1.00  0.00     0.074 A 
ATOM     49  C   UNL A   1      39.479  29.395  27.579  1.00  0.00     0.031 C 
ATOM     50  C   UNL A   1      45.600  28.846  30.686  1.00  0.00     0.029 A 
ATOM     51  C   UNL A   1      44.625  29.696  31.366  1.00  0.00     0.049 A 
ATOM     52  H   UNL A   1      42.666  30.093  30.776  1.00  0.00     0.167 HD
ATOM     53  C   UNL A   1      38.546  30.706  29.478  1.00  0.00     0.034 A 
ATOM     54  C   UNL A   1      44.848  30.364  32.516  1.00  0.00     0.034 A 
ATOM     55  C   UNL A   1      38.652  31.339  30.771  1.00  0.00     0.049 A 
ATOM     56  C   UNL A   1      43.712  31.125  33.150  1.00  0.00     0.074 A 
ATOM     57  C   UNL A   1      37.661  31.993  31.485  1.00  0.00     0.029 A 
ATOM     58  N   UNL A   1      39.806  31.417  31.540  1.00  0.00    -0.354 N 
ATOM     59  N   UNL A   1      42.470  31.242  32.741  1.00  0.00    -0.248 NA
ATOM     60  C   UNL A   1      43.994  31.824  34.411  1.00  0.00     0.031 C 
ATOM     61  C   UNL A   1      38.231  32.528  32.641  1.00  0.00     0.029 A 
ATOM     62  C   UNL A   1      39.559  32.139  32.698  1.00  0.00     0.049 A 
ATOM     63  H   UNL A   1      40.672  31.016  31.298  1.00  0.00     0.167 HD
ATOM     64  C   UNL A   1      41.819  32.006  33.706  1.00  0.00     0.074 A 
ATOM     65  C   UNL A   1      42.797  32.300  34.732  1.00  0.00     0.031 C 
ATOM     66  C   UNL A   1      40.528  32.425  33.731  1.00  0.00     0.034 A 
BRANCH  53  67
ATOM     67  C   UNL A   1      37.206  30.784  28.784  1.00  0.00     0.023 A 
ATOM     68  C   UNL A   1      36.553  32.023  28.633  1.00  0.00     0.031 A 
ATOM     69  C   UNL A   1      36.499  29.617  28.441  1.00  0.00     0.131 A 
ATOM     70  C   UNL A   1      35.223  32.063  28.194  1.00  0.00     0.055 A 
ATOM     71  C   UNL A   1      35.188  29.666  27.964  1.00  0.00     0.041 A 
ATOM     72  F   UNL A   1      37.069  28.410  28.577  1.00  0.00    -0.206 F 
ATOM     73  C   UNL A   1      34.539  30.892  27.853  1.00  0.00     0.022 A 
BRANCH  70  74
ATOM     74  S   UNL A   1      34.300  33.624  28.126  1.00  0.00     0.124 S 
ATOM     75  O   UNL A   1      34.335  34.054  29.522  1.00  0.00    -0.237 OA
ATOM     76  O   UNL A   1      35.111  34.420  27.209  1.00  0.00    -0.237 OA
ATOM     77  O   UNL A   1      32.985  33.234  27.630  1.00  0.00    -0.744 OA
ENDBRANCH  70  74
ENDBRANCH  53  67
BRANCH  54  78
ATOM     78  C   UNL A   1      46.188  30.256  33.162  1.00  0.00     0.023 A 
ATOM     79  C   UNL A   1      46.444  29.266  34.128  1.00  0.00     0.031 A 
ATOM     80  C   UNL A   1      47.185  31.214  32.916  1.00  0.00     0.131 A 
ATOM     81  C   UNL A   1      47.636  29.302  34.863  1.00  0.00     0.055 A 
ATOM     82  C   UNL A   1      48.402  31.201  33.597  1.00  0.00     0.041 A 
ATOM     83  F   UNL A   1      46.979  32.188  32.016  1.00  0.00    -0.206 F 
ATOM     84  C   UNL A   1      48.625  30.252  34.590  1.00  0.00     0.022 A 
BRANCH  81  85
ATOM     85  S   UNL A   1      47.879  28.210  36.292  1.00  0.00     0.124 S 
ATOM     86  O   UNL A   1      49.327  28.265  36.474  1.00  0.00    -0.237 OA
ATOM     87  O   UNL A   1      47.087  28.885  37.319  1.00  0.00    -0.237 OA
ATOM     88  O   UNL A   1      47.347  26.929  35.843  1.00  0.00    -0.744 OA
ENDBRANCH  81  85
ENDBRANCH  54  78
BRANCH  66  89
ATOM     89  C   UNL A   1      40.057  33.259  34.902  1.00  0.00     0.023 A 
ATOM     90  C   UNL A   1      39.324  32.661  35.946  1.00  0.00     0.031 A 
ATOM     91  C   UNL A   1      40.197  34.659  34.910  1.00  0.00     0.131 A 
ATOM     92  C   UNL A   1      38.720  33.460  36.925  1.00  0.00     0.055 A 
ATOM     93  C   UNL A   1      39.638  35.447  35.917  1.00  0.00     0.041 A 
ATOM     94  F   UNL A   1      40.877  35.281  33.933  1.00  0.00    -0.206 F 
ATOM     95  C   UNL A   1      38.881  34.850  36.921  1.00  0.00     0.022 A 
BRANCH  92  96
ATOM     96  S   UNL A   1      37.628  32.742  38.183  1.00  0.00     0.124 S 
ATOM     97  O   UNL A   1      36.304  33.025  37.631  1.00  0.00    -0.237 OA
ATOM     98  O   UNL A   1      38.021  31.336  38.166  1.00  0.00    -0.237 OA
ATOM     99  O   UNL A   1      37.962  33.473  39.401  1.00  0.00    -0.744 OA
ENDBRANCH  92  96
ENDBRANCH  66  89
ENDBRANCH  40  41
ENDBRANCH  33  35
ENDBRANCH  32  33
ENDBRANCH  31  32
ENDBRANCH  30  31
ENDBRANCH  29  30
ENDBRANCH  28  29
ENDBRANCH   1  28
TORSDOF 24
ENDMDL
MODEL 2
REMARK VINA RESULT:      -9.8      5.283      7.638
REMARK SMILES CC(C)CSc1cc2c(cc1Cl)C=C(C(=O)OCCOCCOCCOC(=O)c1ccc(-c3c4nc(c(-c5cc(S(=O)(=O)[O-])ccc5F)c5ccc([nH]5)c(-c5cc(S(=O)(=O)[O-])ccc5F)c5nc(c(-c6cc(S(=O)(=O)[O-])ccc6F)c6ccc3[nH]6)C=C5)C=C4)cc1)[C@H](C(F)(F)F)O2
REMARK SMILES IDX 21 1 20 2 19 3 18 4 17 5 15 6 16 7 14 8 6 9 7 10 11 11 8 12
REMARK SMILES IDX 10 13 12 14 9 15 97 16 13 17 92 18 5 19 4 20 2 21 1 22 3 23
REMARK SMILES IDX 93 24 94 25 95 26 96 27 22 28 23 29 24 30 25 31 26 32 27 33
REMARK SMILES IDX 28 34 29 35 30 36 91 37 31 38 90 39 32 40 33 41 34 42 84 43
REMARK SMILES IDX 35 44 89 45 83 46 85 47 36 48 88 49 82 50 81 51 37 53 69 54
REMARK SMILES IDX 49 55 68 56 50 57 53 58 67 59 86 60 51 61 52 62 66 64 87 65
REMARK SMILES IDX 54 66 38 67 39 68 47 69 40 70 46 71 48 72 45 73 41 74 42 75
REMARK SMILES IDX 43 76 44 77 70 78 71 79 79 80 72 81 78 82 80 83 77 84 73 85
REMARK SMILES IDX 74 86 75 87 76 88 55 89 56 90 64 91 57 92 63 93 65 94 62 95
REMARK SMILES IDX 58 96 59 97 60 98 61 99
REMARK H PARENT 85 52 53 63
REMARK Flexibility Score: inf
ROOT
ATOM      1  C   UNL A   1      40.883  20.208  26.334  1.00  0.00     0.188 C 
ENDROOT
BRANCH   1   2
ATOM      2  O   UNL A   1      40.829  20.848  27.603  1.00  0.00    -0.376 OA
BRANCH   2   3
ATOM      3  C   UNL A   1      41.085  22.238  27.719  1.00  0.00     0.202 C 
BRANCH   3   4
ATOM      4  C   UNL A   1      40.050  23.197  27.124  1.00  0.00     0.261 C 
BRANCH   4   5
ATOM      5  O   UNL A   1      40.032  24.492  27.750  1.00  0.00    -0.460 OA
BRANCH   5   6
ATOM      6  C   UNL A   1      40.259  25.533  26.920  1.00  0.00     0.338 C 
ATOM      7  O   UNL A   1      40.541  25.475  25.735  1.00  0.00    -0.246 OA
BRANCH   6   8
ATOM      8  C   UNL A   1      40.051  26.807  27.624  1.00  0.00     0.087 C 
ATOM      9  C   UNL A   1      38.015  30.446  30.420  1.00  0.00     0.030 A 
ATOM     10  C   UNL A   1      38.357  30.288  29.072  1.00  0.00     0.063 A 
ATOM     11  C   UNL A   1      38.172  29.324  31.264  1.00  0.00     0.055 A 
ATOM     12  C   UNL A   1      38.913  29.106  28.597  1.00  0.00     0.129 A 
ATOM     13  C   UNL A   1      38.668  28.106  30.768  1.00  0.00     0.033 A 
ATOM     14  Cl  UNL A   1      37.748  29.355  32.944  1.00  0.00    -0.083 Cl
ATOM     15  C   UNL A   1      39.052  27.999  29.431  1.00  0.00     0.019 A 
ATOM     16  O   UNL A   1      39.263  29.093  27.269  1.00  0.00    -0.475 OA
ATOM     17  C   UNL A   1      39.489  26.741  28.841  1.00  0.00     0.027 C 
ATOM     18  C   UNL A   1      40.276  28.110  26.910  1.00  0.00     0.316 C 
BRANCH   9  19
ATOM     19  S   UNL A   1      37.458  32.029  31.074  1.00  0.00    -0.124 SA
BRANCH  19  20
ATOM     20  C   UNL A   1      38.808  33.218  30.734  1.00  0.00     0.078 C 
BRANCH  20  21
ATOM     21  C   UNL A   1      40.150  32.905  31.429  1.00  0.00    -0.007 C 
ATOM     22  C   UNL A   1      41.197  32.199  30.564  1.00  0.00     0.008 C 
ATOM     23  C   UNL A   1      40.751  34.214  31.954  1.00  0.00     0.008 C 
ENDBRANCH  20  21
ENDBRANCH  19  20
ENDBRANCH   9  19
BRANCH  18  24
ATOM     24  C   UNL A   1      41.682  28.717  27.085  1.00  0.00     0.430 C 
ATOM     25  F   UNL A   1      41.689  29.707  28.007  1.00  0.00    -0.167 F 
ATOM     26  F   UNL A   1      42.566  27.785  27.522  1.00  0.00    -0.167 F 
ATOM     27  F   UNL A   1      42.180  29.227  25.935  1.00  0.00    -0.167 F 
ENDBRANCH  18  24
ENDBRANCH   6   8
ENDBRANCH   5   6
ENDBRANCH   4   5
ENDBRANCH   3   4
ENDBRANCH   2   3
ENDBRANCH   1   2
BRANCH   1  28
ATOM     28  C   UNL A   1      42.119  19.393  25.910  1.00  0.00     0.188 C 
BRANCH  28  29
ATOM     29  O   UNL A   1      43.350  20.077  26.072  1.00  0.00    -0.376 OA
BRANCH  29  30
ATOM     30  C   UNL A   1      44.281  19.935  25.009  1.00  0.00     0.202 C 
BRANCH  30  31
ATOM     31  C   UNL A   1      45.611  20.648  25.273  1.00  0.00     0.261 C 
BRANCH  31  32
ATOM     32  O   UNL A   1      45.991  21.604  24.270  1.00  0.00    -0.460 OA
BRANCH  32  33
ATOM     33  C   UNL A   1      45.100  22.576  23.963  1.00  0.00     0.338 C 
ATOM     34  O   UNL A   1      44.305  22.572  23.039  1.00  0.00    -0.246 OA
BRANCH  33  35
ATOM     35  C   UNL A   1      45.118  23.548  25.080  1.00  0.00     0.060 A 
ATOM     36  C   UNL A   1      46.336  23.997  25.598  1.00  0.00     0.016 A 
ATOM     37  C   UNL A   1      43.909  23.964  25.651  1.00  0.00     0.016 A 
ATOM     38  C   UNL A   1      46.343  24.873  26.683  1.00  0.00     0.010 A 
ATOM     39  C   UNL A   1      43.919  24.841  26.743  1.00  0.00     0.010 A 
ATOM     40  C   UNL A   1      45.137  25.311  27.258  1.00  0.00    -0.014 A 
BRANCH  40  41
ATOM     41  C   UNL A   1      45.170  26.401  28.267  1.00  0.00     0.031 A 
ATOM     42  C   UNL A   1      45.310  27.843  27.888  1.00  0.00     0.074 A 
ATOM     43  C   UNL A   1      45.051  26.053  29.563  1.00  0.00     0.049 A 
ATOM     44  N   UNL A   1      45.217  28.900  28.653  1.00  0.00    -0.248 NA
ATOM     45  C   UNL A   1      45.598  28.144  26.478  1.00  0.00     0.031 C 
ATOM     46  C   UNL A   1      44.947  24.675  30.043  1.00  0.00     0.029 A 
ATOM     47  N   UNL A   1      44.985  26.814  30.703  1.00  0.00    -0.354 N 
ATOM     48  C   UNL A   1      45.408  29.997  27.821  1.00  0.00     0.074 A 
ATOM     49  C   UNL A   1      45.676  29.470  26.498  1.00  0.00     0.031 C 
ATOM     50  C   UNL A   1      44.807  24.687  31.375  1.00  0.00     0.029 A 
ATOM     51  C   UNL A   1      44.832  26.070  31.849  1.00  0.00     0.049 A 
ATOM     52  H   UNL A   1      45.041  27.796  30.700  1.00  0.00     0.167 HD
ATOM     53  C   UNL A   1      45.341  31.314  28.137  1.00  0.00     0.034 A 
ATOM     54  C   UNL A   1      44.714  26.450  33.138  1.00  0.00     0.034 A 
ATOM     55  C   UNL A   1      45.083  31.814  29.467  1.00  0.00     0.049 A 
ATOM     56  C   UNL A   1      44.661  27.920  33.464  1.00  0.00     0.074 A 
ATOM     57  C   UNL A   1      44.934  33.131  29.870  1.00  0.00     0.029 A 
ATOM     58  N   UNL A   1      44.949  31.036  30.610  1.00  0.00    -0.354 N 
ATOM     59  N   UNL A   1      44.710  28.946  32.646  1.00  0.00    -0.248 NA
ATOM     60  C   UNL A   1      44.514  28.289  34.878  1.00  0.00     0.031 C 
ATOM     61  C   UNL A   1      44.789  33.153  31.257  1.00  0.00     0.029 A 
ATOM     62  C   UNL A   1      44.759  31.848  31.719  1.00  0.00     0.049 A 
ATOM     63  H   UNL A   1      44.984  30.052  30.629  1.00  0.00     0.167 HD
ATOM     64  C   UNL A   1      44.575  30.079  33.444  1.00  0.00     0.074 A 
ATOM     65  C   UNL A   1      44.415  29.611  34.805  1.00  0.00     0.031 C 
ATOM     66  C   UNL A   1      44.587  31.385  33.077  1.00  0.00     0.034 A 
BRANCH  53  67
ATOM     67  C   UNL A   1      45.506  32.339  27.040  1.00  0.00     0.023 A 
ATOM     68  C   UNL A   1      46.678  33.118  26.964  1.00  0.00     0.031 A 
ATOM     69  C   UNL A   1      44.436  32.669  26.189  1.00  0.00     0.131 A 
ATOM     70  C   UNL A   1      46.735  34.211  26.089  1.00  0.00     0.055 A 
ATOM     71  C   UNL A   1      44.513  33.734  25.289  1.00  0.00     0.041 A 
ATOM     72  F   UNL A   1      43.292  31.967  26.229  1.00  0.00    -0.206 F 
ATOM     73  C   UNL A   1      45.661  34.520  25.248  1.00  0.00     0.022 A 
BRANCH  70  74
ATOM     74  S   UNL A   1      48.166  35.325  26.065  1.00  0.00     0.124 S 
ATOM     75  O   UNL A   1      48.693  35.166  27.419  1.00  0.00    -0.237 OA
ATOM     76  O   UNL A   1      48.988  34.746  25.006  1.00  0.00    -0.237 OA
ATOM     77  O   UNL A   1      47.590  36.633  25.774  1.00  0.00    -0.744 OA
ENDBRANCH  70  74
ENDBRANCH  53  67
BRANCH  54  78
ATOM     78  C   UNL A   1      44.553  25.399  34.185  1.00  0.00     0.023 A 
ATOM     79  C   UNL A   1      45.640  24.596  34.573  1.00  0.00     0.031 A 
ATOM     80  C   UNL A   1      43.287  25.104  34.718  1.00  0.00     0.131 A 
ATOM     81  C   UNL A   1      45.427  23.491  35.407  1.00  0.00     0.055 A 
ATOM     82  C   UNL A   1      43.093  24.047  35.609  1.00  0.00     0.041 A 
ATOM     83  F   UNL A   1      42.217  25.831  34.364  1.00  0.00    -0.206 F 
ATOM     84  C   UNL A   1      44.164  23.223  35.942  1.00  0.00     0.022 A 
BRANCH  81  85
ATOM     85  S   UNL A   1      46.749  22.284  35.705  1.00  0.00     0.124 S 
ATOM     86  O   UNL A   1      47.769  22.710  34.752  1.00  0.00    -0.237 OA
ATOM     87  O   UNL A   1      47.059  22.526  37.113  1.00  0.00    -0.237 OA
ATOM     88  O   UNL A   1      46.116  21.001  35.422  1.00  0.00    -0.744 OA
ENDBRANCH  81  85
ENDBRANCH  54  78
BRANCH  66  89
ATOM     89  C   UNL A   1      44.424  32.443  34.146  1.00  0.00     0.023 A 
ATOM     90  C   UNL A   1      45.560  33.003  34.765  1.00  0.00     0.031 A 
ATOM     91  C   UNL A   1      43.158  32.782  34.657  1.00  0.00     0.131 A 
ATOM     92  C   UNL A   1      45.409  33.831  35.885  1.00  0.00     0.055 A 
ATOM     93  C   UNL A   1      43.012  33.649  35.741  1.00  0.00     0.041 A 
ATOM     94  F   UNL A   1      42.044  32.268  34.111  1.00  0.00    -0.206 F 
ATOM     95  C   UNL A   1      44.141  34.164  36.371  1.00  0.00     0.022 A 
BRANCH  92  96
ATOM     96  S   UNL A   1      46.850  34.429  36.812  1.00  0.00     0.124 S 
ATOM     97  O   UNL A   1      47.937  34.198  35.862  1.00  0.00    -0.237 OA
ATOM     98  O   UNL A   1      46.510  35.830  37.040  1.00  0.00    -0.237 OA
ATOM     99  O   UNL A   1      46.879  33.587  38.003  1.00  0.00    -0.744 OA
ENDBRANCH  92  96
ENDBRANCH  66  89
ENDBRANCH  40  41
ENDBRANCH  33  35
ENDBRANCH  32  33
ENDBRANCH  31  32
ENDBRANCH  30  31
ENDBRANCH  29  30
ENDBRANCH  28  29
ENDBRANCH   1  28
TORSDOF 24
ENDMDL
MODEL 3
REMARK VINA RESULT:      -9.6      5.046      7.238
REMARK SMILES CC(C)CSc1cc2c(cc1Cl)C=C(C(=O)OCCOCCOCCOC(=O)c1ccc(-c3c4nc(c(-c5cc(S(=O)(=O)[O-])ccc5F)c5ccc([nH]5)c(-c5cc(S(=O)(=O)[O-])ccc5F)c5nc(c(-c6cc(S(=O)(=O)[O-])ccc6F)c6ccc3[nH]6)C=C5)C=C4)cc1)[C@H](C(F)(F)F)O2
REMARK SMILES IDX 21 1 20 2 19 3 18 4 17 5 15 6 16 7 14 8 6 9 7 10 11 11 8 12
REMARK SMILES IDX 10 13 12 14 9 15 97 16 13 17 92 18 5 19 4 20 2 21 1 22 3 23
REMARK SMILES IDX 93 24 94 25 95 26 96 27 22 28 23 29 24 30 25 31 26 32 27 33
REMARK SMILES IDX 28 34 29 35 30 36 91 37 31 38 90 39 32 40 33 41 34 42 84 43
REMARK SMILES IDX 35 44 89 45 83 46 85 47 36 48 88 49 82 50 81 51 37 53 69 54
REMARK SMILES IDX 49 55 68 56 50 57 53 58 67 59 86 60 51 61 52 62 66 64 87 65
REMARK SMILES IDX 54 66 38 67 39 68 47 69 40 70 46 71 48 72 45 73 41 74 42 75
REMARK SMILES IDX 43 76 44 77 70 78 71 79 79 80 72 81 78 82 80 83 77 84 73 85
REMARK SMILES IDX 74 86 75 87 76 88 55 89 56 90 64 91 57 92 63 93 65 94 62 95
REMARK SMILES IDX 58 96 59 97 60 98 61 99
REMARK H PARENT 85 52 53 63
REMARK Flexibility Score: inf
ROOT
ATOM      1  C   UNL A   1      41.627  20.010  26.269  1.00  0.00     0.188 C 
ENDROOT
BRANCH   1   2
ATOM      2  O   UNL A   1      41.945  20.736  27.451  1.00  0.00    -0.376 OA
BRANCH   2   3
ATOM      3  C   UNL A   1      41.882  22.153  27.463  1.00  0.00     0.202 C 
BRANCH   3   4
ATOM      4  C   UNL A   1      40.499  22.796  27.601  1.00  0.00     0.261 C 
BRANCH   4   5
ATOM      5  O   UNL A   1      40.536  24.153  28.076  1.00  0.00    -0.460 OA
BRANCH   5   6
ATOM      6  C   UNL A   1      40.260  25.094  27.147  1.00  0.00     0.338 C 
ATOM      7  O   UNL A   1      40.154  24.924  25.944  1.00  0.00    -0.246 OA
BRANCH   6   8
ATOM      8  C   UNL A   1      40.025  26.396  27.787  1.00  0.00     0.087 C 
ATOM      9  C   UNL A   1      37.885  30.144  30.352  1.00  0.00     0.030 A 
ATOM     10  C   UNL A   1      38.273  29.930  29.025  1.00  0.00     0.063 A 
ATOM     11  C   UNL A   1      38.015  29.060  31.249  1.00  0.00     0.055 A 
ATOM     12  C   UNL A   1      38.848  28.730  28.621  1.00  0.00     0.129 A 
ATOM     13  C   UNL A   1      38.531  27.824  30.823  1.00  0.00     0.033 A 
ATOM     14  Cl  UNL A   1      37.534  29.161  32.911  1.00  0.00    -0.083 Cl
ATOM     15  C   UNL A   1      38.962  27.661  29.507  1.00  0.00     0.019 A 
ATOM     16  O   UNL A   1      39.243  28.661  27.308  1.00  0.00    -0.475 OA
ATOM     17  C   UNL A   1      39.421  26.381  28.987  1.00  0.00     0.027 C 
ATOM     18  C   UNL A   1      40.271  27.668  27.026  1.00  0.00     0.316 C 
BRANCH   9  19
ATOM     19  S   UNL A   1      37.301  31.752  30.918  1.00  0.00    -0.124 SA
BRANCH  19  20
ATOM     20  C   UNL A   1      36.010  32.266  29.726  1.00  0.00     0.078 C 
BRANCH  20  21
ATOM     21  C   UNL A   1      34.807  33.012  30.340  1.00  0.00    -0.007 C 
ATOM     22  C   UNL A   1      35.111  33.855  31.580  1.00  0.00     0.008 C 
ATOM     23  C   UNL A   1      34.189  33.920  29.270  1.00  0.00     0.008 C 
ENDBRANCH  20  21
ENDBRANCH  19  20
ENDBRANCH   9  19
BRANCH  18  24
ATOM     24  C   UNL A   1      41.668  28.288  27.223  1.00  0.00     0.430 C 
ATOM     25  F   UNL A   1      42.143  28.067  28.470  1.00  0.00    -0.167 F 
ATOM     26  F   UNL A   1      42.571  27.739  26.370  1.00  0.00    -0.167 F 
ATOM     27  F   UNL A   1      41.684  29.624  27.010  1.00  0.00    -0.167 F 
ENDBRANCH  18  24
ENDBRANCH   6   8
ENDBRANCH   5   6
ENDBRANCH   4   5
ENDBRANCH   3   4
ENDBRANCH   2   3
ENDBRANCH   1   2
BRANCH   1  28
ATOM     28  C   UNL A   1      42.708  19.212  25.516  1.00  0.00     0.188 C 
BRANCH  28  29
ATOM     29  O   UNL A   1      44.035  19.636  25.780  1.00  0.00    -0.376 OA
BRANCH  29  30
ATOM     30  C   UNL A   1      44.842  19.891  24.640  1.00  0.00     0.202 C 
BRANCH  30  31
ATOM     31  C   UNL A   1      46.167  20.578  24.981  1.00  0.00     0.261 C 
BRANCH  31  32
ATOM     32  O   UNL A   1      46.426  21.785  24.246  1.00  0.00    -0.460 OA
BRANCH  32  33
ATOM     33  C   UNL A   1      45.372  22.597  23.986  1.00  0.00     0.338 C 
ATOM     34  O   UNL A   1      44.534  22.447  23.115  1.00  0.00    -0.246 OA
BRANCH  33  35
ATOM     35  C   UNL A   1      45.303  23.581  25.090  1.00  0.00     0.060 A 
ATOM     36  C   UNL A   1      46.424  23.816  25.890  1.00  0.00     0.016 A 
ATOM     37  C   UNL A   1      44.090  24.227  25.362  1.00  0.00     0.016 A 
ATOM     38  C   UNL A   1      46.333  24.709  26.959  1.00  0.00     0.010 A 
ATOM     39  C   UNL A   1      44.001  25.119  26.437  1.00  0.00     0.010 A 
ATOM     40  C   UNL A   1      45.126  25.375  27.236  1.00  0.00    -0.014 A 
BRANCH  40  41
ATOM     41  C   UNL A   1      45.119  26.470  28.240  1.00  0.00     0.031 A 
ATOM     42  C   UNL A   1      45.287  27.910  27.860  1.00  0.00     0.074 A 
ATOM     43  C   UNL A   1      44.935  26.130  29.529  1.00  0.00     0.049 A 
ATOM     44  N   UNL A   1      45.163  28.971  28.614  1.00  0.00    -0.248 NA
ATOM     45  C   UNL A   1      45.644  28.201  26.464  1.00  0.00     0.031 C 
ATOM     46  C   UNL A   1      44.799  24.756  30.011  1.00  0.00     0.029 A 
ATOM     47  N   UNL A   1      44.819  26.897  30.662  1.00  0.00    -0.354 N 
ATOM     48  C   UNL A   1      45.402  30.062  27.787  1.00  0.00     0.074 A 
ATOM     49  C   UNL A   1      45.729  29.527  26.481  1.00  0.00     0.031 C 
ATOM     50  C   UNL A   1      44.594  24.776  31.335  1.00  0.00     0.029 A 
ATOM     51  C   UNL A   1      44.606  26.161  31.803  1.00  0.00     0.049 A 
ATOM     52  H   UNL A   1      44.882  27.879  30.656  1.00  0.00     0.167 HD
ATOM     53  C   UNL A   1      45.328  31.382  28.093  1.00  0.00     0.034 A 
ATOM     54  C   UNL A   1      44.428  26.549  33.082  1.00  0.00     0.034 A 
ATOM     55  C   UNL A   1      45.010  31.890  29.407  1.00  0.00     0.049 A 
ATOM     56  C   UNL A   1      44.370  28.021  33.398  1.00  0.00     0.074 A 
ATOM     57  C   UNL A   1      44.851  33.210  29.795  1.00  0.00     0.029 A 
ATOM     58  N   UNL A   1      44.816  31.120  30.545  1.00  0.00    -0.354 N 
ATOM     59  N   UNL A   1      44.465  29.042  32.579  1.00  0.00    -0.248 NA
ATOM     60  C   UNL A   1      44.157  28.398  34.801  1.00  0.00     0.031 C 
ATOM     61  C   UNL A   1      44.639  33.241  31.174  1.00  0.00     0.029 A 
ATOM     62  C   UNL A   1      44.578  31.938  31.640  1.00  0.00     0.049 A 
ATOM     63  H   UNL A   1      44.843  30.135  30.572  1.00  0.00     0.167 HD
ATOM     64  C   UNL A   1      44.299  30.180  33.363  1.00  0.00     0.074 A 
ATOM     65  C   UNL A   1      44.071  29.720  34.717  1.00  0.00     0.031 C 
ATOM     66  C   UNL A   1      44.338  31.484  32.991  1.00  0.00     0.034 A 
BRANCH  53  67
ATOM     67  C   UNL A   1      45.554  32.400  27.000  1.00  0.00     0.023 A 
ATOM     68  C   UNL A   1      46.724  33.183  26.987  1.00  0.00     0.031 A 
ATOM     69  C   UNL A   1      44.533  32.718  26.085  1.00  0.00     0.131 A 
ATOM     70  C   UNL A   1      46.827  34.271  26.109  1.00  0.00     0.055 A 
ATOM     71  C   UNL A   1      44.658  33.777  25.184  1.00  0.00     0.041 A 
ATOM     72  F   UNL A   1      43.393  32.011  26.063  1.00  0.00    -0.206 F 
ATOM     73  C   UNL A   1      45.803  34.568  25.204  1.00  0.00     0.022 A 
BRANCH  70  74
ATOM     74  S   UNL A   1      48.253  35.392  26.161  1.00  0.00     0.124 S 
ATOM     75  O   UNL A   1      49.008  34.972  24.982  1.00  0.00    -0.237 OA
ATOM     76  O   UNL A   1      47.616  36.702  26.058  1.00  0.00    -0.237 OA
ATOM     77  O   UNL A   1      48.887  35.097  27.441  1.00  0.00    -0.744 OA
ENDBRANCH  70  74
ENDBRANCH  53  67
BRANCH  54  78
ATOM     78  C   UNL A   1      44.210  25.505  34.126  1.00  0.00     0.023 A 
ATOM     79  C   UNL A   1      45.238  24.613  34.479  1.00  0.00     0.031 A 
ATOM     80  C   UNL A   1      42.939  25.306  34.689  1.00  0.00     0.131 A 
ATOM     81  C   UNL A   1      44.958  23.521  35.311  1.00  0.00     0.055 A 
ATOM     82  C   UNL A   1      42.683  24.261  35.577  1.00  0.00     0.041 A 
ATOM     83  F   UNL A   1      41.921  26.120  34.368  1.00  0.00    -0.206 F 
ATOM     84  C   UNL A   1      43.692  23.350  35.877  1.00  0.00     0.022 A 
BRANCH  81  85
ATOM     85  S   UNL A   1      46.186  22.210  35.566  1.00  0.00     0.124 S 
ATOM     86  O   UNL A   1      45.609  21.101  34.811  1.00  0.00    -0.237 OA
ATOM     87  O   UNL A   1      47.386  22.810  34.988  1.00  0.00    -0.237 OA
ATOM     88  O   UNL A   1      46.215  22.039  37.014  1.00  0.00    -0.744 OA
ENDBRANCH  81  85
ENDBRANCH  54  78
BRANCH  66  89
ATOM     89  C   UNL A   1      44.131  32.549  34.045  1.00  0.00     0.023 A 
ATOM     90  C   UNL A   1      42.847  33.091  34.259  1.00  0.00     0.031 A 
ATOM     91  C   UNL A   1      45.216  33.131  34.723  1.00  0.00     0.131 A 
ATOM     92  C   UNL A   1      42.689  34.208  35.090  1.00  0.00     0.055 A 
ATOM     93  C   UNL A   1      45.046  34.212  35.591  1.00  0.00     0.041 A 
ATOM     94  F   UNL A   1      46.461  32.660  34.548  1.00  0.00    -0.206 F 
ATOM     95  C   UNL A   1      43.781  34.766  35.764  1.00  0.00     0.022 A 
BRANCH  92  96
ATOM     96  S   UNL A   1      41.084  35.038  35.252  1.00  0.00     0.124 S 
ATOM     97  O   UNL A   1      40.427  34.227  36.275  1.00  0.00    -0.237 OA
ATOM     98  O   UNL A   1      41.473  36.380  35.678  1.00  0.00    -0.237 OA
ATOM     99  O   UNL A   1      40.502  34.946  33.917  1.00  0.00    -0.744 OA
ENDBRANCH  92  96
ENDBRANCH  66  89
ENDBRANCH  40  41
ENDBRANCH  33  35
ENDBRANCH  32  33
ENDBRANCH  31  32
ENDBRANCH  30  31
ENDBRANCH  29  30
ENDBRANCH  28  29
ENDBRANCH   1  28
TORSDOF 24
ENDMDL
