MODEL 1
REMARK VINA RESULT:      -8.5      0.000      0.000
REMARK SMILES O=C(CCCN1C(=O)/C(=C\c2ccc(O)c(O)c2)SC1=S)OCCOCCOCCOC(=O)c1ccc(-c2c3nc(c(-c4cc(S(=O)(=O)[O-])ccc4F)c4ccc([nH]4)c(-c4cc(S(=O)(=O)[O-])ccc4F)c4nc(c(-c5cc(S(=O)(=O)[O-])ccc5F)c5ccc2[nH]5)C=C4)C=C3)cc1
REMARK SMILES IDX 26 1 25 2 24 3 23 4 22 5 2 6 1 7 3 8 4 9 5 10 6 11 7 12
REMARK SMILES IDX 20 13 8 14 9 15 19 16 21 17 10 18 11 19 12 20 18 21 13 22
REMARK SMILES IDX 16 23 14 24 17 25 15 27 27 29 28 30 29 31 30 32 31 33 32 34
REMARK SMILES IDX 33 35 34 36 35 37 96 38 36 39 95 40 37 41 38 42 39 43 89 44
REMARK SMILES IDX 40 45 94 46 88 47 90 48 41 49 93 50 87 51 86 52 42 54 74 55
REMARK SMILES IDX 54 56 73 57 55 58 58 59 72 60 91 61 56 62 57 63 71 65 92 66
REMARK SMILES IDX 59 67 43 68 44 69 52 70 45 71 51 72 53 73 50 74 46 75 47 76
REMARK SMILES IDX 48 77 49 78 75 79 76 80 84 81 77 82 83 83 85 84 82 85 78 86
REMARK SMILES IDX 79 87 80 88 81 89 60 90 61 91 69 92 62 93 68 94 70 95 67 96
REMARK SMILES IDX 63 97 64 98 65 99 66 100
REMARK H PARENT 17 26 15 28 90 53 58 64
REMARK Flexibility Score: inf
ROOT
ATOM      1  C   UNL A   1      46.077  19.646  25.288  1.00  0.00     0.188 C 
ENDROOT
BRANCH   1   2
ATOM      2  O   UNL A   1      46.665  20.936  25.167  1.00  0.00    -0.376 OA
BRANCH   2   3
ATOM      3  C   UNL A   1      45.743  21.949  24.802  1.00  0.00     0.202 C 
BRANCH   3   4
ATOM      4  C   UNL A   1      46.146  23.361  25.198  1.00  0.00     0.261 C 
BRANCH   4   5
ATOM      5  O   UNL A   1      46.440  23.547  26.584  1.00  0.00    -0.463 OA
BRANCH   5   6
ATOM      6  C   UNL A   1      47.458  24.304  27.049  1.00  0.00     0.305 C 
ATOM      7  O   UNL A   1      48.415  24.530  26.311  1.00  0.00    -0.252 OA
BRANCH   6   8
ATOM      8  C   UNL A   1      47.455  24.800  28.482  1.00  0.00     0.124 C 
BRANCH   8   9
ATOM      9  C   UNL A   1      46.103  25.203  29.065  1.00  0.00     0.034 C 
BRANCH   9  10
ATOM     10  C   UNL A   1      46.021  26.509  29.880  1.00  0.00     0.128 C 
BRANCH  10  11
ATOM     11  N   UNL A   1      45.050  26.592  30.985  1.00  0.00    -0.293 N 
ATOM     12  C   UNL A   1      44.741  25.459  31.719  1.00  0.00     0.266 C 
ATOM     13  C   UNL A   1      44.570  27.774  31.521  1.00  0.00     0.148 C 
ATOM     14  O   UNL A   1      45.141  24.330  31.482  1.00  0.00    -0.268 OA
ATOM     15  C   UNL A   1      43.884  25.812  32.894  1.00  0.00     0.081 C 
ATOM     16  S   UNL A   1      43.325  27.429  32.725  1.00  0.00    -0.054 SA
ATOM     17  S   UNL A   1      45.049  29.340  31.182  1.00  0.00    -0.052 S 
ATOM     18  C   UNL A   1      43.764  25.129  34.041  1.00  0.00     0.029 C 
BRANCH  18  19
ATOM     19  C   UNL A   1      44.698  24.059  34.400  1.00  0.00    -0.020 A 
ATOM     20  C   UNL A   1      44.177  22.753  34.516  1.00  0.00     0.012 A 
ATOM     21  C   UNL A   1      46.056  24.287  34.617  1.00  0.00     0.058 A 
ATOM     22  C   UNL A   1      44.986  21.690  34.908  1.00  0.00     0.051 A 
ATOM     23  C   UNL A   1      46.859  23.214  34.990  1.00  0.00     0.157 A 
ATOM     24  C   UNL A   1      46.329  21.934  35.152  1.00  0.00     0.157 A 
BRANCH  23  25
ATOM     25  O   UNL A   1      48.189  23.429  35.212  1.00  0.00    -0.504 OA
ATOM     26  H   UNL A   1      48.491  23.637  36.075  1.00  0.00     0.293 HD
ENDBRANCH  23  25
BRANCH  24  27
ATOM     27  O   UNL A   1      47.168  20.934  35.557  1.00  0.00    -0.504 OA
ATOM     28  H   UNL A   1      47.060  20.066  35.221  1.00  0.00     0.293 HD
ENDBRANCH  24  27
ENDBRANCH  18  19
ENDBRANCH  10  11
ENDBRANCH   9  10
ENDBRANCH   8   9
ENDBRANCH   6   8
ENDBRANCH   5   6
ENDBRANCH   4   5
ENDBRANCH   3   4
ENDBRANCH   2   3
ENDBRANCH   1   2
BRANCH   1  29
ATOM     29  C   UNL A   1      44.723  19.426  24.587  1.00  0.00     0.188 C 
BRANCH  29  30
ATOM     30  O   UNL A   1      43.520  19.860  25.205  1.00  0.00    -0.376 OA
BRANCH  30  31
ATOM     31  C   UNL A   1      42.638  18.906  25.787  1.00  0.00     0.202 C 
BRANCH  31  32
ATOM     32  C   UNL A   1      41.130  19.120  25.680  1.00  0.00     0.261 C 
BRANCH  32  33
ATOM     33  O   UNL A   1      40.711  20.426  26.098  1.00  0.00    -0.460 OA
BRANCH  33  34
ATOM     34  C   UNL A   1      40.836  20.665  27.427  1.00  0.00     0.338 C 
ATOM     35  O   UNL A   1      40.908  19.848  28.324  1.00  0.00    -0.246 OA
BRANCH  34  36
ATOM     36  C   UNL A   1      40.963  22.111  27.643  1.00  0.00     0.060 A 
ATOM     37  C   UNL A   1      40.208  22.991  26.859  1.00  0.00     0.016 A 
ATOM     38  C   UNL A   1      41.901  22.586  28.558  1.00  0.00     0.016 A 
ATOM     39  C   UNL A   1      40.388  24.366  26.995  1.00  0.00     0.010 A 
ATOM     40  C   UNL A   1      42.099  23.961  28.672  1.00  0.00     0.010 A 
ATOM     41  C   UNL A   1      41.355  24.854  27.882  1.00  0.00    -0.014 A 
BRANCH  41  42
ATOM     42  C   UNL A   1      41.685  26.296  27.918  1.00  0.00     0.031 A 
ATOM     43  C   UNL A   1      42.979  26.755  27.312  1.00  0.00     0.074 A 
ATOM     44  C   UNL A   1      40.859  27.161  28.531  1.00  0.00     0.049 A 
ATOM     45  N   UNL A   1      43.544  27.931  27.363  1.00  0.00    -0.248 NA
ATOM     46  C   UNL A   1      43.742  25.751  26.551  1.00  0.00     0.031 C 
ATOM     47  C   UNL A   1      39.559  26.819  29.108  1.00  0.00     0.029 A 
ATOM     48  N   UNL A   1      41.005  28.499  28.800  1.00  0.00    -0.354 N 
ATOM     49  C   UNL A   1      44.735  27.808  26.657  1.00  0.00     0.074 A 
ATOM     50  C   UNL A   1      44.816  26.440  26.193  1.00  0.00     0.031 C 
ATOM     51  C   UNL A   1      39.043  27.911  29.696  1.00  0.00     0.029 A 
ATOM     52  C   UNL A   1      39.997  29.012  29.585  1.00  0.00     0.049 A 
ATOM     53  H   UNL A   1      41.757  29.038  28.466  1.00  0.00     0.167 HD
ATOM     54  C   UNL A   1      45.677  28.756  26.431  1.00  0.00     0.034 A 
ATOM     55  C   UNL A   1      39.891  30.215  30.186  1.00  0.00     0.034 A 
ATOM     56  C   UNL A   1      45.578  30.109  26.918  1.00  0.00     0.049 A 
ATOM     57  C   UNL A   1      41.007  31.219  29.999  1.00  0.00     0.074 A 
ATOM     58  C   UNL A   1      46.450  31.162  26.709  1.00  0.00     0.029 A 
ATOM     59  N   UNL A   1      44.561  30.589  27.734  1.00  0.00    -0.354 N 
ATOM     60  N   UNL A   1      42.109  31.109  29.291  1.00  0.00    -0.248 NA
ATOM     61  C   UNL A   1      40.866  32.508  30.690  1.00  0.00     0.031 C 
ATOM     62  C   UNL A   1      46.011  32.249  27.471  1.00  0.00     0.029 A 
ATOM     63  C   UNL A   1      44.815  31.905  28.082  1.00  0.00     0.049 A 
ATOM     64  H   UNL A   1      43.776  30.070  28.021  1.00  0.00     0.167 HD
ATOM     65  C   UNL A   1      42.776  32.324  29.436  1.00  0.00     0.074 A 
ATOM     66  C   UNL A   1      41.942  33.158  30.272  1.00  0.00     0.031 C 
ATOM     67  C   UNL A   1      43.972  32.718  28.927  1.00  0.00     0.034 A 
BRANCH  54  68
ATOM     68  C   UNL A   1      46.920  28.355  25.681  1.00  0.00     0.023 A 
ATOM     69  C   UNL A   1      46.986  28.369  24.278  1.00  0.00     0.031 A 
ATOM     70  C   UNL A   1      48.075  27.981  26.394  1.00  0.00     0.131 A 
ATOM     71  C   UNL A   1      48.171  27.986  23.632  1.00  0.00     0.055 A 
ATOM     72  C   UNL A   1      49.269  27.664  25.747  1.00  0.00     0.041 A 
ATOM     73  F   UNL A   1      48.060  27.924  27.735  1.00  0.00    -0.206 F 
ATOM     74  C   UNL A   1      49.321  27.659  24.357  1.00  0.00     0.022 A 
BRANCH  71  75
ATOM     75  S   UNL A   1      48.168  27.831  21.824  1.00  0.00     0.124 S 
ATOM     76  O   UNL A   1      48.426  26.404  21.648  1.00  0.00    -0.237 OA
ATOM     77  O   UNL A   1      46.828  28.285  21.471  1.00  0.00    -0.237 OA
ATOM     78  O   UNL A   1      49.256  28.710  21.402  1.00  0.00    -0.744 OA
ENDBRANCH  71  75
ENDBRANCH  54  68
BRANCH  55  79
ATOM     79  C   UNL A   1      38.741  30.524  31.090  1.00  0.00     0.023 A 
ATOM     80  C   UNL A   1      37.584  31.151  30.603  1.00  0.00     0.031 A 
ATOM     81  C   UNL A   1      38.826  30.289  32.475  1.00  0.00     0.131 A 
ATOM     82  C   UNL A   1      36.595  31.589  31.499  1.00  0.00     0.055 A 
ATOM     83  C   UNL A   1      37.805  30.658  33.353  1.00  0.00     0.041 A 
ATOM     84  F   UNL A   1      39.914  29.704  33.002  1.00  0.00    -0.206 F 
ATOM     85  C   UNL A   1      36.689  31.330  32.868  1.00  0.00     0.022 A 
BRANCH  82  86
ATOM     86  S   UNL A   1      35.252  32.631  30.864  1.00  0.00     0.124 S 
ATOM     87  O   UNL A   1      35.885  33.944  30.836  1.00  0.00    -0.237 OA
ATOM     88  O   UNL A   1      34.981  32.020  29.567  1.00  0.00    -0.237 OA
ATOM     89  O   UNL A   1      34.195  32.468  31.861  1.00  0.00    -0.744 OA
ENDBRANCH  82  86
ENDBRANCH  55  79
BRANCH  67  90
ATOM     90  C   UNL A   1      44.424  34.124  29.237  1.00  0.00     0.023 A 
ATOM     91  C   UNL A   1      45.201  34.416  30.370  1.00  0.00     0.031 A 
ATOM     92  C   UNL A   1      44.079  35.185  28.379  1.00  0.00     0.131 A 
ATOM     93  C   UNL A   1      45.566  35.743  30.644  1.00  0.00     0.055 A 
ATOM     94  C   UNL A   1      44.501  36.493  28.622  1.00  0.00     0.041 A 
ATOM     95  F   UNL A   1      43.335  34.963  27.283  1.00  0.00    -0.206 F 
ATOM     96  C   UNL A   1      45.239  36.779  29.766  1.00  0.00     0.022 A 
BRANCH  93  97
ATOM     97  S   UNL A   1      46.403  36.110  32.210  1.00  0.00     0.124 S 
ATOM     98  O   UNL A   1      45.287  36.479  33.073  1.00  0.00    -0.237 OA
ATOM     99  O   UNL A   1      47.058  34.844  32.521  1.00  0.00    -0.237 OA
ATOM    100  O   UNL A   1      47.309  37.206  31.866  1.00  0.00    -0.744 OA
ENDBRANCH  93  97
ENDBRANCH  67  90
ENDBRANCH  41  42
ENDBRANCH  34  36
ENDBRANCH  33  34
ENDBRANCH  32  33
ENDBRANCH  31  32
ENDBRANCH  30  31
ENDBRANCH  29  30
ENDBRANCH   1  29
TORSDOF 26
ENDMDL
MODEL 2
REMARK VINA RESULT:      -7.9      4.414      9.003
REMARK SMILES O=C(CCCN1C(=O)/C(=C\c2ccc(O)c(O)c2)SC1=S)OCCOCCOCCOC(=O)c1ccc(-c2c3nc(c(-c4cc(S(=O)(=O)[O-])ccc4F)c4ccc([nH]4)c(-c4cc(S(=O)(=O)[O-])ccc4F)c4nc(c(-c5cc(S(=O)(=O)[O-])ccc5F)c5ccc2[nH]5)C=C4)C=C3)cc1
REMARK SMILES IDX 26 1 25 2 24 3 23 4 22 5 2 6 1 7 3 8 4 9 5 10 6 11 7 12
REMARK SMILES IDX 20 13 8 14 9 15 19 16 21 17 10 18 11 19 12 20 18 21 13 22
REMARK SMILES IDX 16 23 14 24 17 25 15 27 27 29 28 30 29 31 30 32 31 33 32 34
REMARK SMILES IDX 33 35 34 36 35 37 96 38 36 39 95 40 37 41 38 42 39 43 89 44
REMARK SMILES IDX 40 45 94 46 88 47 90 48 41 49 93 50 87 51 86 52 42 54 74 55
REMARK SMILES IDX 54 56 73 57 55 58 58 59 72 60 91 61 56 62 57 63 71 65 92 66
REMARK SMILES IDX 59 67 43 68 44 69 52 70 45 71 51 72 53 73 50 74 46 75 47 76
REMARK SMILES IDX 48 77 49 78 75 79 76 80 84 81 77 82 83 83 85 84 82 85 78 86
REMARK SMILES IDX 79 87 80 88 81 89 60 90 61 91 69 92 62 93 68 94 70 95 67 96
REMARK SMILES IDX 63 97 64 98 65 99 66 100
REMARK H PARENT 17 26 15 28 90 53 58 64
REMARK Flexibility Score: inf
ROOT
ATOM      1  C   UNL A   1      46.708  25.662  39.849  1.00  0.00     0.188 C 
ENDROOT
BRANCH   1   2
ATOM      2  O   UNL A   1      45.372  25.182  39.764  1.00  0.00    -0.376 OA
BRANCH   2   3
ATOM      3  C   UNL A   1      45.279  23.769  39.688  1.00  0.00     0.202 C 
BRANCH   3   4
ATOM      4  C   UNL A   1      46.605  23.031  39.767  1.00  0.00     0.261 C 
BRANCH   4   5
ATOM      5  O   UNL A   1      46.546  21.728  40.350  1.00  0.00    -0.463 OA
BRANCH   5   6
ATOM      6  C   UNL A   1      47.285  20.674  39.934  1.00  0.00     0.305 C 
ATOM      7  O   UNL A   1      47.720  19.887  40.772  1.00  0.00    -0.252 OA
BRANCH   6   8
ATOM      8  C   UNL A   1      47.636  20.512  38.468  1.00  0.00     0.124 C 
BRANCH   8   9
ATOM      9  C   UNL A   1      46.502  20.099  37.534  1.00  0.00     0.034 C 
BRANCH   9  10
ATOM     10  C   UNL A   1      46.777  20.081  36.017  1.00  0.00     0.128 C 
BRANCH  10  11
ATOM     11  N   UNL A   1      46.880  21.365  35.302  1.00  0.00    -0.293 N 
ATOM     12  C   UNL A   1      45.732  22.075  34.989  1.00  0.00     0.266 C 
ATOM     13  C   UNL A   1      48.060  22.061  35.105  1.00  0.00     0.148 C 
ATOM     14  O   UNL A   1      44.589  21.690  35.175  1.00  0.00    -0.268 OA
ATOM     15  C   UNL A   1      46.082  23.420  34.436  1.00  0.00     0.081 C 
ATOM     16  S   UNL A   1      47.764  23.472  34.084  1.00  0.00    -0.054 SA
ATOM     17  S   UNL A   1      49.578  21.729  35.719  1.00  0.00    -0.052 S 
ATOM     18  C   UNL A   1      45.320  24.523  34.450  1.00  0.00     0.029 C 
BRANCH  18  19
ATOM     19  C   UNL A   1      44.116  24.615  35.279  1.00  0.00    -0.020 A 
ATOM     20  C   UNL A   1      42.932  24.038  34.773  1.00  0.00     0.012 A 
ATOM     21  C   UNL A   1      44.107  25.233  36.528  1.00  0.00     0.058 A 
ATOM     22  C   UNL A   1      41.732  24.130  35.473  1.00  0.00     0.051 A 
ATOM     23  C   UNL A   1      42.907  25.303  37.228  1.00  0.00     0.157 A 
ATOM     24  C   UNL A   1      41.729  24.775  36.700  1.00  0.00     0.157 A 
BRANCH  23  25
ATOM     25  O   UNL A   1      42.888  25.914  38.449  1.00  0.00    -0.504 OA
ATOM     26  H   UNL A   1      43.572  25.743  39.068  1.00  0.00     0.293 HD
ENDBRANCH  23  25
BRANCH  24  27
ATOM     27  O   UNL A   1      40.578  24.913  37.425  1.00  0.00    -0.504 OA
ATOM     28  H   UNL A   1      40.617  25.201  38.315  1.00  0.00     0.293 HD
ENDBRANCH  24  27
ENDBRANCH  18  19
ENDBRANCH  10  11
ENDBRANCH   9  10
ENDBRANCH   8   9
ENDBRANCH   6   8
ENDBRANCH   5   6
ENDBRANCH   4   5
ENDBRANCH   3   4
ENDBRANCH   2   3
ENDBRANCH   1   2
BRANCH   1  29
ATOM     29  C   UNL A   1      46.952  27.129  39.444  1.00  0.00     0.188 C 
BRANCH  29  30
ATOM     30  O   UNL A   1      47.676  27.432  38.260  1.00  0.00    -0.376 OA
BRANCH  30  31
ATOM     31  C   UNL A   1      48.542  26.456  37.689  1.00  0.00     0.202 C 
BRANCH  31  32
ATOM     32  C   UNL A   1      49.518  26.874  36.593  1.00  0.00     0.261 C 
BRANCH  32  33
ATOM     33  O   UNL A   1      48.904  27.001  35.303  1.00  0.00    -0.460 OA
BRANCH  33  34
ATOM     34  C   UNL A   1      48.842  28.268  34.826  1.00  0.00     0.338 C 
ATOM     35  O   UNL A   1      49.766  29.032  34.625  1.00  0.00    -0.246 OA
BRANCH  34  36
ATOM     36  C   UNL A   1      47.449  28.584  34.489  1.00  0.00     0.060 A 
ATOM     37  C   UNL A   1      46.423  27.759  34.967  1.00  0.00     0.016 A 
ATOM     38  C   UNL A   1      47.178  29.642  33.622  1.00  0.00     0.016 A 
ATOM     39  C   UNL A   1      45.107  27.999  34.579  1.00  0.00     0.010 A 
ATOM     40  C   UNL A   1      45.864  29.862  33.214  1.00  0.00     0.010 A 
ATOM     41  C   UNL A   1      44.827  29.034  33.679  1.00  0.00    -0.014 A 
BRANCH  41  42
ATOM     42  C   UNL A   1      43.467  29.198  33.119  1.00  0.00     0.031 A 
ATOM     43  C   UNL A   1      43.193  28.696  31.731  1.00  0.00     0.074 A 
ATOM     44  C   UNL A   1      42.518  29.833  33.828  1.00  0.00     0.049 A 
ATOM     45  N   UNL A   1      42.135  28.867  30.985  1.00  0.00    -0.248 NA
ATOM     46  C   UNL A   1      44.257  27.899  31.097  1.00  0.00     0.031 C 
ATOM     47  C   UNL A   1      42.675  30.314  35.201  1.00  0.00     0.029 A 
ATOM     48  N   UNL A   1      41.246  30.212  33.481  1.00  0.00    -0.354 N 
ATOM     49  C   UNL A   1      42.409  28.215  29.788  1.00  0.00     0.074 A 
ATOM     50  C   UNL A   1      43.736  27.651  29.904  1.00  0.00     0.031 C 
ATOM     51  C   UNL A   1      41.553  30.958  35.566  1.00  0.00     0.029 A 
ATOM     52  C   UNL A   1      40.624  30.981  34.439  1.00  0.00     0.049 A 
ATOM     53  H   UNL A   1      40.820  29.959  32.631  1.00  0.00     0.167 HD
ATOM     54  C   UNL A   1      41.621  28.111  28.691  1.00  0.00     0.034 A 
ATOM     55  C   UNL A   1      39.464  31.668  34.384  1.00  0.00     0.034 A 
ATOM     56  C   UNL A   1      40.306  28.696  28.596  1.00  0.00     0.049 A 
ATOM     57  C   UNL A   1      38.653  31.616  33.108  1.00  0.00     0.074 A 
ATOM     58  C   UNL A   1      39.404  28.614  27.551  1.00  0.00     0.029 A 
ATOM     59  N   UNL A   1      39.718  29.493  29.570  1.00  0.00    -0.354 N 
ATOM     60  N   UNL A   1      38.899  30.959  31.997  1.00  0.00    -0.248 NA
ATOM     61  C   UNL A   1      37.408  32.396  33.078  1.00  0.00     0.031 C 
ATOM     62  C   UNL A   1      38.312  29.434  27.853  1.00  0.00     0.029 A 
ATOM     63  C   UNL A   1      38.490  29.954  29.126  1.00  0.00     0.049 A 
ATOM     64  H   UNL A   1      40.116  29.698  30.446  1.00  0.00     0.167 HD
ATOM     65  C   UNL A   1      37.826  31.231  31.149  1.00  0.00     0.074 A 
ATOM     66  C   UNL A   1      36.922  32.086  31.886  1.00  0.00     0.031 C 
ATOM     67  C   UNL A   1      37.606  30.816  29.875  1.00  0.00     0.034 A 
BRANCH  54  68
ATOM     68  C   UNL A   1      42.174  27.397  27.485  1.00  0.00     0.023 A 
ATOM     69  C   UNL A   1      42.108  26.001  27.347  1.00  0.00     0.031 A 
ATOM     70  C   UNL A   1      42.751  28.140  26.438  1.00  0.00     0.131 A 
ATOM     71  C   UNL A   1      42.639  25.388  26.201  1.00  0.00     0.055 A 
ATOM     72  C   UNL A   1      43.218  27.530  25.274  1.00  0.00     0.041 A 
ATOM     73  F   UNL A   1      42.864  29.474  26.530  1.00  0.00    -0.206 F 
ATOM     74  C   UNL A   1      43.170  26.145  25.153  1.00  0.00     0.022 A 
BRANCH  71  75
ATOM     75  S   UNL A   1      42.712  23.576  26.135  1.00  0.00     0.124 S 
ATOM     76  O   UNL A   1      43.739  23.284  27.132  1.00  0.00    -0.237 OA
ATOM     77  O   UNL A   1      41.351  23.192  26.490  1.00  0.00    -0.237 OA
ATOM     78  O   UNL A   1      43.098  23.299  24.753  1.00  0.00    -0.744 OA
ENDBRANCH  71  75
ENDBRANCH  54  68
BRANCH  55  79
ATOM     79  C   UNL A   1      39.028  32.533  35.521  1.00  0.00     0.023 A 
ATOM     80  C   UNL A   1      39.507  33.844  35.661  1.00  0.00     0.031 A 
ATOM     81  C   UNL A   1      38.204  32.023  36.543  1.00  0.00     0.131 A 
ATOM     82  C   UNL A   1      39.223  34.573  36.827  1.00  0.00     0.055 A 
ATOM     83  C   UNL A   1      37.862  32.780  37.665  1.00  0.00     0.041 A 
ATOM     84  F   UNL A   1      37.726  30.770  36.472  1.00  0.00    -0.206 F 
ATOM     85  C   UNL A   1      38.389  34.057  37.822  1.00  0.00     0.022 A 
BRANCH  82  86
ATOM     86  S   UNL A   1      40.078  36.151  37.092  1.00  0.00     0.124 S 
ATOM     87  O   UNL A   1      41.453  35.711  37.299  1.00  0.00    -0.237 OA
ATOM     88  O   UNL A   1      39.811  36.856  35.842  1.00  0.00    -0.237 OA
ATOM     89  O   UNL A   1      39.415  36.704  38.272  1.00  0.00    -0.744 OA
ENDBRANCH  82  86
ENDBRANCH  55  79
BRANCH  67  90
ATOM     90  C   UNL A   1      36.320  31.256  29.219  1.00  0.00     0.023 A 
ATOM     91  C   UNL A   1      35.886  32.592  29.269  1.00  0.00     0.031 A 
ATOM     92  C   UNL A   1      35.524  30.327  28.524  1.00  0.00     0.131 A 
ATOM     93  C   UNL A   1      34.664  32.951  28.681  1.00  0.00     0.055 A 
ATOM     94  C   UNL A   1      34.343  30.704  27.884  1.00  0.00     0.041 A 
ATOM     95  F   UNL A   1      35.890  29.037  28.447  1.00  0.00    -0.206 F 
ATOM     96  C   UNL A   1      33.901  32.021  27.971  1.00  0.00     0.022 A 
BRANCH  93  97
ATOM     97  S   UNL A   1      34.041  34.636  28.927  1.00  0.00     0.124 S 
ATOM     98  O   UNL A   1      34.119  34.780  30.377  1.00  0.00    -0.237 OA
ATOM     99  O   UNL A   1      34.987  35.437  28.156  1.00  0.00    -0.237 OA
ATOM    100  O   UNL A   1      32.686  34.584  28.381  1.00  0.00    -0.744 OA
ENDBRANCH  93  97
ENDBRANCH  67  90
ENDBRANCH  41  42
ENDBRANCH  34  36
ENDBRANCH  33  34
ENDBRANCH  32  33
ENDBRANCH  31  32
ENDBRANCH  30  31
ENDBRANCH  29  30
ENDBRANCH   1  29
TORSDOF 26
ENDMDL
MODEL 3
REMARK VINA RESULT:      -7.9      3.593      9.535
REMARK SMILES O=C(CCCN1C(=O)/C(=C\c2ccc(O)c(O)c2)SC1=S)OCCOCCOCCOC(=O)c1ccc(-c2c3nc(c(-c4cc(S(=O)(=O)[O-])ccc4F)c4ccc([nH]4)c(-c4cc(S(=O)(=O)[O-])ccc4F)c4nc(c(-c5cc(S(=O)(=O)[O-])ccc5F)c5ccc2[nH]5)C=C4)C=C3)cc1
REMARK SMILES IDX 26 1 25 2 24 3 23 4 22 5 2 6 1 7 3 8 4 9 5 10 6 11 7 12
REMARK SMILES IDX 20 13 8 14 9 15 19 16 21 17 10 18 11 19 12 20 18 21 13 22
REMARK SMILES IDX 16 23 14 24 17 25 15 27 27 29 28 30 29 31 30 32 31 33 32 34
REMARK SMILES IDX 33 35 34 36 35 37 96 38 36 39 95 40 37 41 38 42 39 43 89 44
REMARK SMILES IDX 40 45 94 46 88 47 90 48 41 49 93 50 87 51 86 52 42 54 74 55
REMARK SMILES IDX 54 56 73 57 55 58 58 59 72 60 91 61 56 62 57 63 71 65 92 66
REMARK SMILES IDX 59 67 43 68 44 69 52 70 45 71 51 72 53 73 50 74 46 75 47 76
REMARK SMILES IDX 48 77 49 78 75 79 76 80 84 81 77 82 83 83 85 84 82 85 78 86
REMARK SMILES IDX 79 87 80 88 81 89 60 90 61 91 69 92 62 93 68 94 70 95 67 96
REMARK SMILES IDX 63 97 64 98 65 99 66 100
REMARK H PARENT 17 26 15 28 90 53 58 64
REMARK Flexibility Score: inf
ROOT
ATOM      1  C   UNL A   1      42.680  22.604  26.967  1.00  0.00     0.188 C 
ENDROOT
BRANCH   1   2
ATOM      2  O   UNL A   1      41.464  23.338  27.061  1.00  0.00    -0.376 OA
BRANCH   2   3
ATOM      3  C   UNL A   1      41.621  24.627  27.630  1.00  0.00     0.202 C 
BRANCH   3   4
ATOM      4  C   UNL A   1      40.823  25.732  26.956  1.00  0.00     0.261 C 
BRANCH   4   5
ATOM      5  O   UNL A   1      41.043  27.046  27.471  1.00  0.00    -0.463 OA
BRANCH   5   6
ATOM      6  C   UNL A   1      40.159  28.064  27.360  1.00  0.00     0.305 C 
ATOM      7  O   UNL A   1      40.425  29.002  26.611  1.00  0.00    -0.252 OA
BRANCH   6   8
ATOM      8  C   UNL A   1      38.899  28.083  28.203  1.00  0.00     0.124 C 
BRANCH   8   9
ATOM      9  C   UNL A   1      38.243  29.443  28.425  1.00  0.00     0.034 C 
BRANCH   9  10
ATOM     10  C   UNL A   1      37.327  29.619  29.653  1.00  0.00     0.128 C 
BRANCH  10  11
ATOM     11  N   UNL A   1      37.909  30.151  30.898  1.00  0.00    -0.293 N 
ATOM     12  C   UNL A   1      37.658  31.461  31.273  1.00  0.00     0.266 C 
ATOM     13  C   UNL A   1      38.516  29.379  31.873  1.00  0.00     0.148 C 
ATOM     14  O   UNL A   1      37.049  32.284  30.607  1.00  0.00    -0.268 OA
ATOM     15  C   UNL A   1      38.189  31.724  32.646  1.00  0.00     0.081 C 
ATOM     16  S   UNL A   1      39.199  30.419  33.127  1.00  0.00    -0.054 SA
ATOM     17  S   UNL A   1      38.614  27.714  31.969  1.00  0.00    -0.052 S 
ATOM     18  C   UNL A   1      37.768  32.660  33.510  1.00  0.00     0.029 C 
BRANCH  18  19
ATOM     19  C   UNL A   1      36.511  33.383  33.306  1.00  0.00    -0.020 A 
ATOM     20  C   UNL A   1      36.595  34.730  32.895  1.00  0.00     0.012 A 
ATOM     21  C   UNL A   1      35.262  32.793  33.494  1.00  0.00     0.058 A 
ATOM     22  C   UNL A   1      35.450  35.504  32.733  1.00  0.00     0.051 A 
ATOM     23  C   UNL A   1      34.124  33.570  33.312  1.00  0.00     0.157 A 
ATOM     24  C   UNL A   1      34.215  34.915  32.954  1.00  0.00     0.157 A 
BRANCH  23  25
ATOM     25  O   UNL A   1      32.897  33.001  33.501  1.00  0.00    -0.504 OA
ATOM     26  H   UNL A   1      32.245  33.060  32.829  1.00  0.00     0.293 HD
ENDBRANCH  23  25
BRANCH  24  27
ATOM     27  O   UNL A   1      33.056  35.629  32.829  1.00  0.00    -0.504 OA
ATOM     28  H   UNL A   1      32.409  35.366  32.204  1.00  0.00     0.293 HD
ENDBRANCH  24  27
ENDBRANCH  18  19
ENDBRANCH  10  11
ENDBRANCH   9  10
ENDBRANCH   8   9
ENDBRANCH   6   8
ENDBRANCH   5   6
ENDBRANCH   4   5
ENDBRANCH   3   4
ENDBRANCH   2   3
ENDBRANCH   1   2
BRANCH   1  29
ATOM     29  C   UNL A   1      42.971  21.898  25.630  1.00  0.00     0.188 C 
BRANCH  29  30
ATOM     30  O   UNL A   1      43.381  22.653  24.498  1.00  0.00    -0.376 OA
BRANCH  30  31
ATOM     31  C   UNL A   1      44.711  23.157  24.427  1.00  0.00     0.202 C 
BRANCH  31  32
ATOM     32  C   UNL A   1      45.026  24.521  25.036  1.00  0.00     0.261 C 
BRANCH  32  33
ATOM     33  O   UNL A   1      46.363  24.966  24.772  1.00  0.00    -0.460 OA
BRANCH  33  34
ATOM     34  C   UNL A   1      46.529  26.311  24.790  1.00  0.00     0.338 C 
ATOM     35  O   UNL A   1      46.890  27.027  23.877  1.00  0.00    -0.246 OA
BRANCH  34  36
ATOM     36  C   UNL A   1      46.112  26.826  26.100  1.00  0.00     0.060 A 
ATOM     37  C   UNL A   1      44.747  26.964  26.381  1.00  0.00     0.016 A 
ATOM     38  C   UNL A   1      47.081  27.255  27.006  1.00  0.00     0.016 A 
ATOM     39  C   UNL A   1      44.344  27.535  27.586  1.00  0.00     0.010 A 
ATOM     40  C   UNL A   1      46.675  27.851  28.199  1.00  0.00     0.010 A 
ATOM     41  C   UNL A   1      45.308  28.006  28.487  1.00  0.00    -0.014 A 
BRANCH  41  42
ATOM     42  C   UNL A   1      44.905  28.769  29.689  1.00  0.00     0.031 A 
ATOM     43  C   UNL A   1      44.870  28.063  31.013  1.00  0.00     0.074 A 
ATOM     44  C   UNL A   1      44.529  30.055  29.576  1.00  0.00     0.049 A 
ATOM     45  N   UNL A   1      44.406  28.482  32.160  1.00  0.00    -0.248 NA
ATOM     46  C   UNL A   1      45.428  26.701  31.048  1.00  0.00     0.031 C 
ATOM     47  C   UNL A   1      44.574  30.839  28.342  1.00  0.00     0.029 A 
ATOM     48  N   UNL A   1      44.005  30.918  30.505  1.00  0.00    -0.354 N 
ATOM     49  C   UNL A   1      44.599  27.432  33.050  1.00  0.00     0.074 A 
ATOM     50  C   UNL A   1      45.216  26.352  32.309  1.00  0.00     0.031 C 
ATOM     51  C   UNL A   1      44.062  32.058  28.583  1.00  0.00     0.029 A 
ATOM     52  C   UNL A   1      43.605  32.121  29.969  1.00  0.00     0.049 A 
ATOM     53  H   UNL A   1      43.923  30.698  31.461  1.00  0.00     0.167 HD
ATOM     54  C   UNL A   1      44.277  27.377  34.365  1.00  0.00     0.034 A 
ATOM     55  C   UNL A   1      42.901  33.128  30.525  1.00  0.00     0.034 A 
ATOM     56  C   UNL A   1      43.649  28.463  35.076  1.00  0.00     0.049 A 
ATOM     57  C   UNL A   1      42.466  32.997  31.968  1.00  0.00     0.074 A 
ATOM     58  C   UNL A   1      43.320  28.534  36.418  1.00  0.00     0.029 A 
ATOM     59  N   UNL A   1      43.229  29.655  34.499  1.00  0.00    -0.354 N 
ATOM     60  N   UNL A   1      42.693  32.019  32.815  1.00  0.00    -0.248 NA
ATOM     61  C   UNL A   1      41.680  34.104  32.530  1.00  0.00     0.031 C 
ATOM     62  C   UNL A   1      42.621  29.726  36.633  1.00  0.00     0.029 A 
ATOM     63  C   UNL A   1      42.595  30.442  35.446  1.00  0.00     0.049 A 
ATOM     64  H   UNL A   1      43.363  29.903  33.556  1.00  0.00     0.167 HD
ATOM     65  C   UNL A   1      42.098  32.408  34.014  1.00  0.00     0.074 A 
ATOM     66  C   UNL A   1      41.528  33.718  33.788  1.00  0.00     0.031 C 
ATOM     67  C   UNL A   1      42.024  31.745  35.196  1.00  0.00     0.034 A 
BRANCH  54  68
ATOM     68  C   UNL A   1      44.535  26.092  35.106  1.00  0.00     0.023 A 
ATOM     69  C   UNL A   1      45.708  25.878  35.848  1.00  0.00     0.031 A 
ATOM     70  C   UNL A   1      43.566  25.072  35.092  1.00  0.00     0.131 A 
ATOM     71  C   UNL A   1      45.896  24.660  36.520  1.00  0.00     0.055 A 
ATOM     72  C   UNL A   1      43.730  23.890  35.815  1.00  0.00     0.041 A 
ATOM     73  F   UNL A   1      42.438  25.211  34.377  1.00  0.00    -0.206 F 
ATOM     74  C   UNL A   1      44.904  23.676  36.530  1.00  0.00     0.022 A 
BRANCH  71  75
ATOM     75  S   UNL A   1      47.497  24.339  37.311  1.00  0.00     0.124 S 
ATOM     76  O   UNL A   1      48.122  23.428  36.355  1.00  0.00    -0.237 OA
ATOM     77  O   UNL A   1      48.081  25.672  37.396  1.00  0.00    -0.237 OA
ATOM     78  O   UNL A   1      47.132  23.734  38.590  1.00  0.00    -0.744 OA
ENDBRANCH  71  75
ENDBRANCH  54  68
BRANCH  55  79
ATOM     79  C   UNL A   1      42.482  34.312  29.715  1.00  0.00     0.023 A 
ATOM     80  C   UNL A   1      43.391  35.334  29.399  1.00  0.00     0.031 A 
ATOM     81  C   UNL A   1      41.139  34.489  29.332  1.00  0.00     0.131 A 
ATOM     82  C   UNL A   1      42.935  36.514  28.791  1.00  0.00     0.055 A 
ATOM     83  C   UNL A   1      40.705  35.632  28.660  1.00  0.00     0.041 A 
ATOM     84  F   UNL A   1      40.220  33.552  29.618  1.00  0.00    -0.206 F 
ATOM     85  C   UNL A   1      41.602  36.663  28.403  1.00  0.00     0.022 A 
BRANCH  82  86
ATOM     86  S   UNL A   1      44.081  37.913  28.647  1.00  0.00     0.124 S 
ATOM     87  O   UNL A   1      43.172  39.051  28.729  1.00  0.00    -0.237 OA
ATOM     88  O   UNL A   1      44.958  37.707  29.795  1.00  0.00    -0.237 OA
ATOM     89  O   UNL A   1      44.707  37.707  27.342  1.00  0.00    -0.744 OA
ENDBRANCH  82  86
ENDBRANCH  55  79
BRANCH  67  90
ATOM     90  C   UNL A   1      41.332  32.446  36.339  1.00  0.00     0.023 A 
ATOM     91  C   UNL A   1      39.995  32.171  36.672  1.00  0.00     0.031 A 
ATOM     92  C   UNL A   1      42.024  33.397  37.111  1.00  0.00     0.131 A 
ATOM     93  C   UNL A   1      39.376  32.876  37.716  1.00  0.00     0.055 A 
ATOM     94  C   UNL A   1      41.423  34.046  38.190  1.00  0.00     0.041 A 
ATOM     95  F   UNL A   1      43.303  33.701  36.835  1.00  0.00    -0.206 F 
ATOM     96  C   UNL A   1      40.088  33.795  38.490  1.00  0.00     0.022 A 
BRANCH  93  97
ATOM     97  S   UNL A   1      37.601  32.635  37.996  1.00  0.00     0.124 S 
ATOM     98  O   UNL A   1      37.014  33.372  36.883  1.00  0.00    -0.237 OA
ATOM     99  O   UNL A   1      37.467  31.183  37.940  1.00  0.00    -0.237 OA
ATOM    100  O   UNL A   1      37.379  33.225  39.316  1.00  0.00    -0.744 OA
ENDBRANCH  93  97
ENDBRANCH  67  90
ENDBRANCH  41  42
ENDBRANCH  34  36
ENDBRANCH  33  34
ENDBRANCH  32  33
ENDBRANCH  31  32
ENDBRANCH  30  31
ENDBRANCH  29  30
ENDBRANCH   1  29
TORSDOF 26
ENDMDL
