MODEL 1
REMARK VINA RESULT:     -10.3      0.000      0.000
REMARK SMILES COc1ccc(C(=O)N[C@H](C(=O)OCCOCCOCCOC(=O)c2ccc(-c3c4nc(c(-c5cc(S(=O)(=O)[O-])ccc5F)c5ccc([nH]5)c(-c5cc(S(=O)(=O)[O-])ccc5F)c5nc(c(-c6cc(S(=O)(=O)[O-])ccc6F)c6ccc3[nH]6)C=C5)C=C4)cc2)C2=C(C)N=N[C@H]2C)c(F)c1F
REMARK SMILES IDX 17 1 16 2 15 3 14 4 13 5 11 6 12 7 10 8 9 9 7 10 8 11 6 13
REMARK SMILES IDX 3 14 4 15 97 16 5 17 95 18 98 19 96 20 2 21 1 22 88 23 89 24
REMARK SMILES IDX 93 25 90 26 91 27 92 28 94 29 18 30 19 31 20 32 21 33 22 34
REMARK SMILES IDX 23 35 24 36 25 37 26 38 87 39 27 40 86 41 28 42 29 43 30 44
REMARK SMILES IDX 80 45 31 46 85 47 79 48 81 49 32 50 84 51 78 52 77 53 33 55
REMARK SMILES IDX 65 56 45 57 64 58 46 59 49 60 63 61 82 62 47 63 48 64 62 66
REMARK SMILES IDX 83 67 50 68 34 69 35 70 43 71 36 72 42 73 44 74 41 75 37 76
REMARK SMILES IDX 38 77 39 78 40 79 66 80 67 81 75 82 68 83 74 84 76 85 73 86
REMARK SMILES IDX 69 87 70 88 71 89 72 90 51 91 52 92 60 93 53 94 59 95 61 96
REMARK SMILES IDX 58 97 54 98 55 99 56 100 57 101
REMARK H PARENT 9 12 81 54 49 65
REMARK Flexibility Score: inf
ROOT
ATOM      1  C   UNL A   1      32.420  29.895  25.838  1.00  0.00     0.188 C 
ENDROOT
BRANCH   1   2
ATOM      2  O   UNL A   1      32.401  28.574  25.337  1.00  0.00    -0.376 OA
BRANCH   2   3
ATOM      3  C   UNL A   1      31.540  28.225  24.261  1.00  0.00     0.202 C 
BRANCH   3   4
ATOM      4  C   UNL A   1      30.468  27.148  24.469  1.00  0.00     0.261 C 
BRANCH   4   5
ATOM      5  O   UNL A   1      30.297  26.322  23.302  1.00  0.00    -0.461 OA
BRANCH   5   6
ATOM      6  C   UNL A   1      31.212  25.343  23.097  1.00  0.00     0.333 C 
ATOM      7  O   UNL A   1      32.218  25.490  22.410  1.00  0.00    -0.249 OA
BRANCH   6   8
ATOM      8  C   UNL A   1      30.973  24.073  23.965  1.00  0.00     0.223 C 
BRANCH   8   9
ATOM      9  N   UNL A   1      31.072  22.894  23.081  1.00  0.00    -0.335 N 
ATOM     10  C   UNL A   1      32.031  21.960  22.804  1.00  0.00     0.255 C 
ATOM     11  O   UNL A   1      31.785  21.108  21.952  1.00  0.00    -0.269 OA
ATOM     12  H   UNL A   1      30.246  22.743  22.566  1.00  0.00     0.165 HD
BRANCH  10  13
ATOM     13  C   UNL A   1      33.370  21.996  23.403  1.00  0.00     0.078 A 
ATOM     14  C   UNL A   1      35.839  22.360  24.676  1.00  0.00     0.157 A 
ATOM     15  C   UNL A   1      35.525  23.110  23.540  1.00  0.00     0.050 A 
ATOM     16  C   UNL A   1      34.959  21.354  25.087  1.00  0.00     0.201 A 
ATOM     17  C   UNL A   1      34.291  22.930  22.904  1.00  0.00     0.021 A 
ATOM     18  C   UNL A   1      33.743  21.156  24.441  1.00  0.00     0.175 A 
ATOM     19  F   UNL A   1      35.244  20.617  26.172  1.00  0.00    -0.200 F 
ATOM     20  F   UNL A   1      32.925  20.188  24.875  1.00  0.00    -0.203 F 
BRANCH  14  21
ATOM     21  O   UNL A   1      36.961  22.526  25.438  1.00  0.00    -0.494 OA
ATOM     22  C   UNL A   1      37.489  23.846  25.504  1.00  0.00     0.278 C 
ENDBRANCH  14  21
ENDBRANCH  10  13
ENDBRANCH   8   9
BRANCH   8  23
ATOM     23  C   UNL A   1      31.700  23.838  25.265  1.00  0.00     0.012 C 
ATOM     24  C   UNL A   1      32.749  24.337  25.947  1.00  0.00     0.064 C 
ATOM     25  C   UNL A   1      31.115  22.832  26.222  1.00  0.00     0.156 C 
ATOM     26  C   UNL A   1      33.737  25.420  25.681  1.00  0.00     0.069 C 
ATOM     27  N   UNL A   1      32.940  23.708  27.158  1.00  0.00    -0.160 NA
ATOM     28  N   UNL A   1      32.064  22.836  27.355  1.00  0.00    -0.181 NA
ATOM     29  C   UNL A   1      29.747  23.219  26.771  1.00  0.00     0.040 C 
ENDBRANCH   8  23
ENDBRANCH   6   8
ENDBRANCH   5   6
ENDBRANCH   4   5
ENDBRANCH   3   4
ENDBRANCH   2   3
ENDBRANCH   1   2
BRANCH   1  30
ATOM     30  C   UNL A   1      33.550  30.382  26.773  1.00  0.00     0.188 C 
BRANCH  30  31
ATOM     31  O   UNL A   1      33.327  31.380  27.752  1.00  0.00    -0.376 OA
BRANCH  31  32
ATOM     32  C   UNL A   1      32.581  32.534  27.412  1.00  0.00     0.202 C 
BRANCH  32  33
ATOM     33  C   UNL A   1      33.093  33.909  27.845  1.00  0.00     0.261 C 
BRANCH  33  34
ATOM     34  O   UNL A   1      32.595  34.338  29.120  1.00  0.00    -0.460 OA
BRANCH  34  35
ATOM     35  C   UNL A   1      33.482  35.012  29.888  1.00  0.00     0.338 C 
ATOM     36  O   UNL A   1      33.325  36.123  30.393  1.00  0.00    -0.246 OA
BRANCH  35  37
ATOM     37  C   UNL A   1      34.636  34.153  30.186  1.00  0.00     0.060 A 
ATOM     38  C   UNL A   1      34.489  33.120  31.123  1.00  0.00     0.016 A 
ATOM     39  C   UNL A   1      35.877  34.410  29.599  1.00  0.00     0.016 A 
ATOM     40  C   UNL A   1      35.591  32.358  31.501  1.00  0.00     0.010 A 
ATOM     41  C   UNL A   1      36.987  33.664  30.003  1.00  0.00     0.010 A 
ATOM     42  C   UNL A   1      36.855  32.660  30.980  1.00  0.00    -0.014 A 
BRANCH  42  43
ATOM     43  C   UNL A   1      38.069  32.088  31.611  1.00  0.00     0.031 A 
ATOM     44  C   UNL A   1      38.776  30.967  30.898  1.00  0.00     0.074 A 
ATOM     45  C   UNL A   1      38.540  32.557  32.780  1.00  0.00     0.049 A 
ATOM     46  N   UNL A   1      39.779  30.228  31.293  1.00  0.00    -0.248 NA
ATOM     47  C   UNL A   1      38.271  30.632  29.556  1.00  0.00     0.031 C 
ATOM     48  C   UNL A   1      37.983  33.685  33.523  1.00  0.00     0.029 A 
ATOM     49  N   UNL A   1      39.592  32.130  33.552  1.00  0.00    -0.354 N 
ATOM     50  C   UNL A   1      40.020  29.334  30.254  1.00  0.00     0.074 A 
ATOM     51  C   UNL A   1      39.035  29.604  29.229  1.00  0.00     0.031 C 
ATOM     52  C   UNL A   1      38.690  33.852  34.655  1.00  0.00     0.029 A 
ATOM     53  C   UNL A   1      39.716  32.814  34.739  1.00  0.00     0.049 A 
ATOM     54  H   UNL A   1      40.199  31.405  33.281  1.00  0.00     0.167 HD
ATOM     55  C   UNL A   1      40.978  28.380  30.165  1.00  0.00     0.034 A 
ATOM     56  C   UNL A   1      40.541  32.599  35.784  1.00  0.00     0.034 A 
ATOM     57  C   UNL A   1      41.942  28.118  31.206  1.00  0.00     0.049 A 
ATOM     58  C   UNL A   1      41.533  31.459  35.709  1.00  0.00     0.074 A 
ATOM     59  C   UNL A   1      42.953  27.174  31.229  1.00  0.00     0.029 A 
ATOM     60  N   UNL A   1      42.009  28.798  32.417  1.00  0.00    -0.354 N 
ATOM     61  N   UNL A   1      41.743  30.605  34.732  1.00  0.00    -0.248 NA
ATOM     62  C   UNL A   1      42.400  31.256  36.877  1.00  0.00     0.031 C 
ATOM     63  C   UNL A   1      43.579  27.231  32.478  1.00  0.00     0.029 A 
ATOM     64  C   UNL A   1      43.020  28.272  33.204  1.00  0.00     0.049 A 
ATOM     65  H   UNL A   1      41.422  29.546  32.676  1.00  0.00     0.167 HD
ATOM     66  C   UNL A   1      42.794  29.792  35.155  1.00  0.00     0.074 A 
ATOM     67  C   UNL A   1      43.179  30.265  36.468  1.00  0.00     0.031 C 
ATOM     68  C   UNL A   1      43.391  28.753  34.515  1.00  0.00     0.034 A 
BRANCH  55  69
ATOM     69  C   UNL A   1      40.982  27.514  28.927  1.00  0.00     0.023 A 
ATOM     70  C   UNL A   1      41.949  27.663  27.919  1.00  0.00     0.031 A 
ATOM     71  C   UNL A   1      39.978  26.549  28.738  1.00  0.00     0.131 A 
ATOM     72  C   UNL A   1      41.852  26.911  26.738  1.00  0.00     0.055 A 
ATOM     73  C   UNL A   1      39.934  25.745  27.598  1.00  0.00     0.041 A 
ATOM     74  F   UNL A   1      39.011  26.379  29.654  1.00  0.00    -0.206 F 
ATOM     75  C   UNL A   1      40.866  25.933  26.582  1.00  0.00     0.022 A 
BRANCH  72  76
ATOM     76  S   UNL A   1      42.943  27.324  25.350  1.00  0.00     0.124 S 
ATOM     77  O   UNL A   1      44.150  27.769  26.045  1.00  0.00    -0.237 OA
ATOM     78  O   UNL A   1      43.046  26.055  24.638  1.00  0.00    -0.237 OA
ATOM     79  O   UNL A   1      42.217  28.378  24.644  1.00  0.00    -0.744 OA
ENDBRANCH  72  76
ENDBRANCH  55  69
BRANCH  56  80
ATOM     80  C   UNL A   1      40.442  33.435  37.018  1.00  0.00     0.023 A 
ATOM     81  C   UNL A   1      39.722  32.993  38.139  1.00  0.00     0.031 A 
ATOM     82  C   UNL A   1      41.003  34.723  37.064  1.00  0.00     0.131 A 
ATOM     83  C   UNL A   1      39.537  33.850  39.235  1.00  0.00     0.055 A 
ATOM     84  C   UNL A   1      40.869  35.549  38.181  1.00  0.00     0.041 A 
ATOM     85  F   UNL A   1      41.695  35.202  36.016  1.00  0.00    -0.206 F 
ATOM     86  C   UNL A   1      40.118  35.119  39.271  1.00  0.00     0.022 A 
BRANCH  83  87
ATOM     87  S   UNL A   1      38.431  33.323  40.575  1.00  0.00     0.124 S 
ATOM     88  O   UNL A   1      37.179  33.111  39.858  1.00  0.00    -0.237 OA
ATOM     89  O   UNL A   1      39.101  32.124  41.067  1.00  0.00    -0.237 OA
ATOM     90  O   UNL A   1      38.440  34.462  41.491  1.00  0.00    -0.744 OA
ENDBRANCH  83  87
ENDBRANCH  56  80
BRANCH  68  91
ATOM     91  C   UNL A   1      44.566  28.100  35.206  1.00  0.00     0.023 A 
ATOM     92  C   UNL A   1      44.424  26.930  35.973  1.00  0.00     0.031 A 
ATOM     93  C   UNL A   1      45.849  28.666  35.095  1.00  0.00     0.131 A 
ATOM     94  C   UNL A   1      45.535  26.398  36.647  1.00  0.00     0.055 A 
ATOM     95  C   UNL A   1      46.962  28.094  35.714  1.00  0.00     0.041 A 
ATOM     96  F   UNL A   1      46.044  29.783  34.378  1.00  0.00    -0.206 F 
ATOM     97  C   UNL A   1      46.806  26.962  36.507  1.00  0.00     0.022 A 
BRANCH  94  98
ATOM     98  S   UNL A   1      45.280  25.014  37.792  1.00  0.00     0.124 S 
ATOM     99  O   UNL A   1      46.312  25.255  38.795  1.00  0.00    -0.237 OA
ATOM    100  O   UNL A   1      43.903  25.222  38.231  1.00  0.00    -0.237 OA
ATOM    101  O   UNL A   1      45.490  23.833  36.957  1.00  0.00    -0.744 OA
ENDBRANCH  94  98
ENDBRANCH  68  91
ENDBRANCH  42  43
ENDBRANCH  35  37
ENDBRANCH  34  35
ENDBRANCH  33  34
ENDBRANCH  32  33
ENDBRANCH  31  32
ENDBRANCH  30  31
ENDBRANCH   1  30
TORSDOF 24
ENDMDL
MODEL 2
REMARK VINA RESULT:     -10.0      2.146      3.156
REMARK SMILES COc1ccc(C(=O)N[C@H](C(=O)OCCOCCOCCOC(=O)c2ccc(-c3c4nc(c(-c5cc(S(=O)(=O)[O-])ccc5F)c5ccc([nH]5)c(-c5cc(S(=O)(=O)[O-])ccc5F)c5nc(c(-c6cc(S(=O)(=O)[O-])ccc6F)c6ccc3[nH]6)C=C5)C=C4)cc2)C2=C(C)N=N[C@H]2C)c(F)c1F
REMARK SMILES IDX 17 1 16 2 15 3 14 4 13 5 11 6 12 7 10 8 9 9 7 10 8 11 6 13
REMARK SMILES IDX 3 14 4 15 97 16 5 17 95 18 98 19 96 20 2 21 1 22 88 23 89 24
REMARK SMILES IDX 93 25 90 26 91 27 92 28 94 29 18 30 19 31 20 32 21 33 22 34
REMARK SMILES IDX 23 35 24 36 25 37 26 38 87 39 27 40 86 41 28 42 29 43 30 44
REMARK SMILES IDX 80 45 31 46 85 47 79 48 81 49 32 50 84 51 78 52 77 53 33 55
REMARK SMILES IDX 65 56 45 57 64 58 46 59 49 60 63 61 82 62 47 63 48 64 62 66
REMARK SMILES IDX 83 67 50 68 34 69 35 70 43 71 36 72 42 73 44 74 41 75 37 76
REMARK SMILES IDX 38 77 39 78 40 79 66 80 67 81 75 82 68 83 74 84 76 85 73 86
REMARK SMILES IDX 69 87 70 88 71 89 72 90 51 91 52 92 60 93 53 94 59 95 61 96
REMARK SMILES IDX 58 97 54 98 55 99 56 100 57 101
REMARK H PARENT 9 12 81 54 49 65
REMARK Flexibility Score: inf
ROOT
ATOM      1  C   UNL A   1      35.218  32.401  28.278  1.00  0.00     0.188 C 
ENDROOT
BRANCH   1   2
ATOM      2  O   UNL A   1      34.807  31.073  28.030  1.00  0.00    -0.376 OA
BRANCH   2   3
ATOM      3  C   UNL A   1      33.696  30.811  27.182  1.00  0.00     0.202 C 
BRANCH   3   4
ATOM      4  C   UNL A   1      33.551  29.430  26.530  1.00  0.00     0.261 C 
BRANCH   4   5
ATOM      5  O   UNL A   1      32.183  29.130  26.197  1.00  0.00    -0.461 OA
BRANCH   5   6
ATOM      6  C   UNL A   1      31.639  28.022  26.758  1.00  0.00     0.333 C 
ATOM      7  O   UNL A   1      31.120  28.012  27.870  1.00  0.00    -0.249 OA
BRANCH   6   8
ATOM      8  C   UNL A   1      31.561  26.805  25.791  1.00  0.00     0.223 C 
BRANCH   8   9
ATOM      9  N   UNL A   1      30.668  25.798  26.399  1.00  0.00    -0.335 N 
ATOM     10  C   UNL A   1      30.688  24.439  26.546  1.00  0.00     0.255 C 
ATOM     11  O   UNL A   1      29.725  23.898  27.087  1.00  0.00    -0.269 OA
ATOM     12  H   UNL A   1      29.863  26.204  26.796  1.00  0.00     0.165 HD
BRANCH  10  13
ATOM     13  C   UNL A   1      31.756  23.596  25.996  1.00  0.00     0.078 A 
ATOM     14  C   UNL A   1      33.709  21.763  25.178  1.00  0.00     0.157 A 
ATOM     15  C   UNL A   1      33.880  22.477  26.366  1.00  0.00     0.050 A 
ATOM     16  C   UNL A   1      32.618  22.066  24.357  1.00  0.00     0.201 A 
ATOM     17  C   UNL A   1      32.904  23.393  26.776  1.00  0.00     0.021 A 
ATOM     18  C   UNL A   1      31.660  22.993  24.751  1.00  0.00     0.175 A 
ATOM     19  F   UNL A   1      32.439  21.397  23.207  1.00  0.00    -0.200 F 
ATOM     20  F   UNL A   1      30.624  23.245  23.939  1.00  0.00    -0.203 F 
BRANCH  14  21
ATOM     21  O   UNL A   1      34.539  20.771  24.733  1.00  0.00    -0.494 OA
ATOM     22  C   UNL A   1      34.013  19.449  24.767  1.00  0.00     0.278 C 
ENDBRANCH  14  21
ENDBRANCH  10  13
ENDBRANCH   8   9
BRANCH   8  23
ATOM     23  C   UNL A   1      31.275  26.965  24.318  1.00  0.00     0.012 C 
ATOM     24  C   UNL A   1      30.514  27.725  23.508  1.00  0.00     0.064 C 
ATOM     25  C   UNL A   1      32.095  26.149  23.354  1.00  0.00     0.156 C 
ATOM     26  C   UNL A   1      29.532  28.822  23.737  1.00  0.00     0.069 C 
ATOM     27  N   UNL A   1      30.693  27.422  22.176  1.00  0.00    -0.160 NA
ATOM     28  N   UNL A   1      31.555  26.525  22.031  1.00  0.00    -0.181 NA
ATOM     29  C   UNL A   1      33.580  26.493  23.355  1.00  0.00     0.040 C 
ENDBRANCH   8  23
ENDBRANCH   6   8
ENDBRANCH   5   6
ENDBRANCH   4   5
ENDBRANCH   3   4
ENDBRANCH   2   3
ENDBRANCH   1   2
BRANCH   1  30
ATOM     30  C   UNL A   1      34.195  33.558  28.349  1.00  0.00     0.188 C 
BRANCH  30  31
ATOM     31  O   UNL A   1      34.605  34.909  28.444  1.00  0.00    -0.376 OA
BRANCH  31  32
ATOM     32  C   UNL A   1      33.626  35.930  28.516  1.00  0.00     0.202 C 
BRANCH  32  33
ATOM     33  C   UNL A   1      32.731  36.019  29.752  1.00  0.00     0.261 C 
BRANCH  33  34
ATOM     34  O   UNL A   1      33.451  36.210  30.978  1.00  0.00    -0.460 OA
BRANCH  34  35
ATOM     35  C   UNL A   1      33.282  35.238  31.903  1.00  0.00     0.338 C 
ATOM     36  O   UNL A   1      32.239  34.950  32.489  1.00  0.00    -0.246 OA
BRANCH  35  37
ATOM     37  C   UNL A   1      34.508  34.435  32.010  1.00  0.00     0.060 A 
ATOM     38  C   UNL A   1      34.464  33.219  32.706  1.00  0.00     0.016 A 
ATOM     39  C   UNL A   1      35.713  34.914  31.490  1.00  0.00     0.016 A 
ATOM     40  C   UNL A   1      35.631  32.488  32.912  1.00  0.00     0.010 A 
ATOM     41  C   UNL A   1      36.887  34.194  31.723  1.00  0.00     0.010 A 
ATOM     42  C   UNL A   1      36.856  32.999  32.466  1.00  0.00    -0.014 A 
BRANCH  42  43
ATOM     43  C   UNL A   1      38.124  32.409  32.959  1.00  0.00     0.031 A 
ATOM     44  C   UNL A   1      38.763  31.318  32.142  1.00  0.00     0.074 A 
ATOM     45  C   UNL A   1      38.702  32.837  34.095  1.00  0.00     0.049 A 
ATOM     46  N   UNL A   1      39.800  30.570  32.413  1.00  0.00    -0.248 NA
ATOM     47  C   UNL A   1      38.135  31.032  30.841  1.00  0.00     0.031 C 
ATOM     48  C   UNL A   1      38.215  33.934  34.929  1.00  0.00     0.029 A 
ATOM     49  N   UNL A   1      39.821  32.387  34.749  1.00  0.00    -0.354 N 
ATOM     50  C   UNL A   1      39.944  29.717  31.324  1.00  0.00     0.074 A 
ATOM     51  C   UNL A   1      38.867  30.020  30.405  1.00  0.00     0.031 C 
ATOM     52  C   UNL A   1      39.024  34.062  35.996  1.00  0.00     0.029 A 
ATOM     53  C   UNL A   1      40.055  33.026  35.944  1.00  0.00     0.049 A 
ATOM     54  H   UNL A   1      40.402  31.675  34.396  1.00  0.00     0.167 HD
ATOM     55  C   UNL A   1      40.891  28.771  31.110  1.00  0.00     0.034 A 
ATOM     56  C   UNL A   1      40.975  32.776  36.899  1.00  0.00     0.034 A 
ATOM     57  C   UNL A   1      41.948  28.476  32.045  1.00  0.00     0.049 A 
ATOM     58  C   UNL A   1      41.957  31.645  36.689  1.00  0.00     0.074 A 
ATOM     59  C   UNL A   1      42.957  27.536  31.939  1.00  0.00     0.029 A 
ATOM     60  N   UNL A   1      42.127  29.111  33.270  1.00  0.00    -0.354 N 
ATOM     61  N   UNL A   1      42.075  30.829  35.666  1.00  0.00    -0.248 NA
ATOM     62  C   UNL A   1      42.930  31.403  37.763  1.00  0.00     0.031 C 
ATOM     63  C   UNL A   1      43.698  27.550  33.125  1.00  0.00     0.029 A 
ATOM     64  C   UNL A   1      43.208  28.560  33.939  1.00  0.00     0.049 A 
ATOM     65  H   UNL A   1      41.565  29.845  33.611  1.00  0.00     0.167 HD
ATOM     66  C   UNL A   1      43.162  30.006  35.958  1.00  0.00     0.074 A 
ATOM     67  C   UNL A   1      43.668  30.432  37.246  1.00  0.00     0.031 C 
ATOM     68  C   UNL A   1      43.699  28.994  35.227  1.00  0.00     0.034 A 
BRANCH  55  69
ATOM     69  C   UNL A   1      40.780  27.952  29.846  1.00  0.00     0.023 A 
ATOM     70  C   UNL A   1      41.669  28.120  28.770  1.00  0.00     0.031 A 
ATOM     71  C   UNL A   1      39.743  27.014  29.701  1.00  0.00     0.131 A 
ATOM     72  C   UNL A   1      41.465  27.414  27.575  1.00  0.00     0.055 A 
ATOM     73  C   UNL A   1      39.594  26.253  28.540  1.00  0.00     0.041 A 
ATOM     74  F   UNL A   1      38.847  26.828  30.683  1.00  0.00    -0.206 F 
ATOM     75  C   UNL A   1      40.449  26.462  27.462  1.00  0.00     0.022 A 
BRANCH  72  76
ATOM     76  S   UNL A   1      42.455  27.858  26.122  1.00  0.00     0.124 S 
ATOM     77  O   UNL A   1      42.254  29.304  26.057  1.00  0.00    -0.237 OA
ATOM     78  O   UNL A   1      43.791  27.415  26.502  1.00  0.00    -0.237 OA
ATOM     79  O   UNL A   1      41.831  27.102  25.038  1.00  0.00    -0.744 OA
ENDBRANCH  72  76
ENDBRANCH  55  69
BRANCH  56  80
ATOM     80  C   UNL A   1      40.990  33.565  38.167  1.00  0.00     0.023 A 
ATOM     81  C   UNL A   1      41.919  34.598  38.369  1.00  0.00     0.031 A 
ATOM     82  C   UNL A   1      40.124  33.246  39.228  1.00  0.00     0.131 A 
ATOM     83  C   UNL A   1      41.997  35.237  39.617  1.00  0.00     0.055 A 
ATOM     84  C   UNL A   1      40.163  33.925  40.445  1.00  0.00     0.041 A 
ATOM     85  F   UNL A   1      39.220  32.260  39.094  1.00  0.00    -0.206 F 
ATOM     86  C   UNL A   1      41.115  34.918  40.651  1.00  0.00     0.022 A 
BRANCH  83  87
ATOM     87  S   UNL A   1      43.343  36.420  39.906  1.00  0.00     0.124 S 
ATOM     88  O   UNL A   1      43.245  37.272  38.726  1.00  0.00    -0.237 OA
ATOM     89  O   UNL A   1      42.947  37.027  41.172  1.00  0.00    -0.237 OA
ATOM     90  O   UNL A   1      44.532  35.573  39.967  1.00  0.00    -0.744 OA
ENDBRANCH  83  87
ENDBRANCH  56  80
BRANCH  68  91
ATOM     91  C   UNL A   1      44.934  28.321  35.780  1.00  0.00     0.023 A 
ATOM     92  C   UNL A   1      44.859  27.176  36.592  1.00  0.00     0.031 A 
ATOM     93  C   UNL A   1      46.207  28.843  35.490  1.00  0.00     0.131 A 
ATOM     94  C   UNL A   1      46.031  26.626  37.134  1.00  0.00     0.055 A 
ATOM     95  C   UNL A   1      47.374  28.252  35.977  1.00  0.00     0.041 A 
ATOM     96  F   UNL A   1      46.340  29.936  34.722  1.00  0.00    -0.206 F 
ATOM     97  C   UNL A   1      47.289  27.146  36.816  1.00  0.00     0.022 A 
BRANCH  94  98
ATOM     98  S   UNL A   1      45.887  25.279  38.341  1.00  0.00     0.124 S 
ATOM     99  O   UNL A   1      46.898  24.339  37.869  1.00  0.00    -0.237 OA
ATOM    100  O   UNL A   1      46.184  25.956  39.600  1.00  0.00    -0.237 OA
ATOM    101  O   UNL A   1      44.504  24.830  38.191  1.00  0.00    -0.744 OA
ENDBRANCH  94  98
ENDBRANCH  68  91
ENDBRANCH  42  43
ENDBRANCH  35  37
ENDBRANCH  34  35
ENDBRANCH  33  34
ENDBRANCH  32  33
ENDBRANCH  31  32
ENDBRANCH  30  31
ENDBRANCH   1  30
TORSDOF 24
ENDMDL
MODEL 3
REMARK VINA RESULT:      -9.7      5.422      9.414
REMARK SMILES COc1ccc(C(=O)N[C@H](C(=O)OCCOCCOCCOC(=O)c2ccc(-c3c4nc(c(-c5cc(S(=O)(=O)[O-])ccc5F)c5ccc([nH]5)c(-c5cc(S(=O)(=O)[O-])ccc5F)c5nc(c(-c6cc(S(=O)(=O)[O-])ccc6F)c6ccc3[nH]6)C=C5)C=C4)cc2)C2=C(C)N=N[C@H]2C)c(F)c1F
REMARK SMILES IDX 17 1 16 2 15 3 14 4 13 5 11 6 12 7 10 8 9 9 7 10 8 11 6 13
REMARK SMILES IDX 3 14 4 15 97 16 5 17 95 18 98 19 96 20 2 21 1 22 88 23 89 24
REMARK SMILES IDX 93 25 90 26 91 27 92 28 94 29 18 30 19 31 20 32 21 33 22 34
REMARK SMILES IDX 23 35 24 36 25 37 26 38 87 39 27 40 86 41 28 42 29 43 30 44
REMARK SMILES IDX 80 45 31 46 85 47 79 48 81 49 32 50 84 51 78 52 77 53 33 55
REMARK SMILES IDX 65 56 45 57 64 58 46 59 49 60 63 61 82 62 47 63 48 64 62 66
REMARK SMILES IDX 83 67 50 68 34 69 35 70 43 71 36 72 42 73 44 74 41 75 37 76
REMARK SMILES IDX 38 77 39 78 40 79 66 80 67 81 75 82 68 83 74 84 76 85 73 86
REMARK SMILES IDX 69 87 70 88 71 89 72 90 51 91 52 92 60 93 53 94 59 95 61 96
REMARK SMILES IDX 58 97 54 98 55 99 56 100 57 101
REMARK H PARENT 9 12 81 54 49 65
REMARK Flexibility Score: inf
ROOT
ATOM      1  C   UNL A   1      35.058  20.225  25.029  1.00  0.00     0.188 C 
ENDROOT
BRANCH   1   2
ATOM      2  O   UNL A   1      34.234  21.338  25.308  1.00  0.00    -0.376 OA
BRANCH   2   3
ATOM      3  C   UNL A   1      33.185  21.235  26.262  1.00  0.00     0.202 C 
BRANCH   3   4
ATOM      4  C   UNL A   1      33.232  22.088  27.535  1.00  0.00     0.261 C 
BRANCH   4   5
ATOM      5  O   UNL A   1      33.401  23.488  27.242  1.00  0.00    -0.461 OA
BRANCH   5   6
ATOM      6  C   UNL A   1      32.353  24.131  26.673  1.00  0.00     0.333 C 
ATOM      7  O   UNL A   1      31.209  24.088  27.117  1.00  0.00    -0.249 OA
BRANCH   6   8
ATOM      8  C   UNL A   1      32.759  25.086  25.512  1.00  0.00     0.223 C 
BRANCH   8   9
ATOM      9  N   UNL A   1      33.579  26.173  26.084  1.00  0.00    -0.335 N 
ATOM     10  C   UNL A   1      33.548  27.539  26.051  1.00  0.00     0.255 C 
ATOM     11  O   UNL A   1      34.443  28.156  26.625  1.00  0.00    -0.269 OA
ATOM     12  H   UNL A   1      34.331  25.831  26.621  1.00  0.00     0.165 HD
BRANCH  10  13
ATOM     13  C   UNL A   1      32.555  28.292  25.275  1.00  0.00     0.078 A 
ATOM     14  C   UNL A   1      30.433  29.512  23.913  1.00  0.00     0.157 A 
ATOM     15  C   UNL A   1      30.931  28.285  23.468  1.00  0.00     0.050 A 
ATOM     16  C   UNL A   1      31.084  30.166  24.963  1.00  0.00     0.201 A 
ATOM     17  C   UNL A   1      31.991  27.674  24.149  1.00  0.00     0.021 A 
ATOM     18  C   UNL A   1      32.153  29.572  25.625  1.00  0.00     0.175 A 
ATOM     19  F   UNL A   1      30.627  31.349  25.402  1.00  0.00    -0.200 F 
ATOM     20  F   UNL A   1      32.741  30.230  26.634  1.00  0.00    -0.203 F 
BRANCH  14  21
ATOM     21  O   UNL A   1      29.339  30.147  23.395  1.00  0.00    -0.494 OA
ATOM     22  C   UNL A   1      28.616  29.439  22.393  1.00  0.00     0.278 C 
ENDBRANCH  14  21
ENDBRANCH  10  13
ENDBRANCH   8   9
BRANCH   8  23
ATOM     23  C   UNL A   1      33.355  24.577  24.223  1.00  0.00     0.012 C 
ATOM     24  C   UNL A   1      34.547  24.168  23.747  1.00  0.00     0.064 C 
ATOM     25  C   UNL A   1      32.418  24.316  23.073  1.00  0.00     0.156 C 
ATOM     26  C   UNL A   1      35.910  24.041  24.337  1.00  0.00     0.069 C 
ATOM     27  N   UNL A   1      34.483  23.773  22.429  1.00  0.00    -0.160 NA
ATOM     28  N   UNL A   1      33.313  23.858  21.990  1.00  0.00    -0.181 NA
ATOM     29  C   UNL A   1      31.410  23.204  23.334  1.00  0.00     0.040 C 
ENDBRANCH   8  23
ENDBRANCH   6   8
ENDBRANCH   5   6
ENDBRANCH   4   5
ENDBRANCH   3   4
ENDBRANCH   2   3
ENDBRANCH   1   2
BRANCH   1  30
ATOM     30  C   UNL A   1      36.580  20.388  24.814  1.00  0.00     0.188 C 
BRANCH  30  31
ATOM     31  O   UNL A   1      37.342  21.319  25.559  1.00  0.00    -0.376 OA
BRANCH  31  32
ATOM     32  C   UNL A   1      38.746  21.368  25.383  1.00  0.00     0.202 C 
BRANCH  32  33
ATOM     33  C   UNL A   1      39.652  21.389  26.615  1.00  0.00     0.261 C 
BRANCH  33  34
ATOM     34  O   UNL A   1      40.483  20.226  26.744  1.00  0.00    -0.460 OA
BRANCH  34  35
ATOM     35  C   UNL A   1      41.701  20.321  26.164  1.00  0.00     0.338 C 
ATOM     36  O   UNL A   1      42.209  19.521  25.378  1.00  0.00    -0.246 OA
BRANCH  35  37
ATOM     37  C   UNL A   1      42.302  21.625  26.476  1.00  0.00     0.060 A 
ATOM     38  C   UNL A   1      42.565  21.947  27.815  1.00  0.00     0.016 A 
ATOM     39  C   UNL A   1      42.537  22.555  25.461  1.00  0.00     0.016 A 
ATOM     40  C   UNL A   1      43.036  23.214  28.149  1.00  0.00     0.010 A 
ATOM     41  C   UNL A   1      42.981  23.835  25.802  1.00  0.00     0.010 A 
ATOM     42  C   UNL A   1      43.198  24.180  27.149  1.00  0.00    -0.014 A 
BRANCH  42  43
ATOM     43  C   UNL A   1      43.376  25.605  27.521  1.00  0.00     0.031 A 
ATOM     44  C   UNL A   1      44.757  26.196  27.421  1.00  0.00     0.074 A 
ATOM     45  C   UNL A   1      42.339  26.359  27.925  1.00  0.00     0.049 A 
ATOM     46  N   UNL A   1      45.191  27.370  27.794  1.00  0.00    -0.248 NA
ATOM     47  C   UNL A   1      45.788  25.332  26.823  1.00  0.00     0.031 C 
ATOM     48  C   UNL A   1      40.948  25.917  27.990  1.00  0.00     0.029 A 
ATOM     49  N   UNL A   1      42.302  27.657  28.370  1.00  0.00    -0.354 N 
ATOM     50  C   UNL A   1      46.548  27.385  27.487  1.00  0.00     0.074 A 
ATOM     51  C   UNL A   1      46.868  26.090  26.928  1.00  0.00     0.031 C 
ATOM     52  C   UNL A   1      40.193  26.924  28.466  1.00  0.00     0.029 A 
ATOM     53  C   UNL A   1      41.054  28.062  28.783  1.00  0.00     0.049 A 
ATOM     54  H   UNL A   1      43.093  28.242  28.391  1.00  0.00     0.167 HD
ATOM     55  C   UNL A   1      47.441  28.391  27.652  1.00  0.00     0.034 A 
ATOM     56  C   UNL A   1      40.665  29.208  29.379  1.00  0.00     0.034 A 
ATOM     57  C   UNL A   1      47.103  29.671  28.224  1.00  0.00     0.049 A 
ATOM     58  C   UNL A   1      41.700  30.277  29.653  1.00  0.00     0.074 A 
ATOM     59  C   UNL A   1      47.925  30.761  28.448  1.00  0.00     0.029 A 
ATOM     60  N   UNL A   1      45.838  30.031  28.676  1.00  0.00    -0.354 N 
ATOM     61  N   UNL A   1      42.985  30.277  29.377  1.00  0.00    -0.248 NA
ATOM     62  C   UNL A   1      41.230  31.500  30.317  1.00  0.00     0.031 C 
ATOM     63  C   UNL A   1      47.180  31.748  29.100  1.00  0.00     0.029 A 
ATOM     64  C   UNL A   1      45.868  31.312  29.206  1.00  0.00     0.049 A 
ATOM     65  H   UNL A   1      45.038  29.458  28.627  1.00  0.00     0.167 HD
ATOM     66  C   UNL A   1      43.465  31.517  29.798  1.00  0.00     0.074 A 
ATOM     67  C   UNL A   1      42.330  32.238  30.335  1.00  0.00     0.031 C 
ATOM     68  C   UNL A   1      44.726  32.018  29.741  1.00  0.00     0.034 A 
BRANCH  55  69
ATOM     69  C   UNL A   1      48.875  28.115  27.267  1.00  0.00     0.023 A 
ATOM     70  C   UNL A   1      49.334  28.276  25.948  1.00  0.00     0.031 A 
ATOM     71  C   UNL A   1      49.787  27.648  28.229  1.00  0.00     0.131 A 
ATOM     72  C   UNL A   1      50.647  27.907  25.614  1.00  0.00     0.055 A 
ATOM     73  C   UNL A   1      51.115  27.360  27.907  1.00  0.00     0.041 A 
ATOM     74  F   UNL A   1      49.400  27.449  29.499  1.00  0.00    -0.206 F 
ATOM     75  C   UNL A   1      51.548  27.475  26.590  1.00  0.00     0.022 A 
BRANCH  72  76
ATOM     76  S   UNL A   1      51.118  27.862  23.863  1.00  0.00     0.124 S 
ATOM     77  O   UNL A   1      49.930  27.271  23.251  1.00  0.00    -0.237 OA
ATOM     78  O   UNL A   1      51.359  29.269  23.564  1.00  0.00    -0.237 OA
ATOM     79  O   UNL A   1      52.305  27.010  23.849  1.00  0.00    -0.744 OA
ENDBRANCH  72  76
ENDBRANCH  55  69
BRANCH  56  80
ATOM     80  C   UNL A   1      39.248  29.398  29.813  1.00  0.00     0.023 A 
ATOM     81  C   UNL A   1      38.380  30.246  29.108  1.00  0.00     0.031 A 
ATOM     82  C   UNL A   1      38.765  28.791  30.986  1.00  0.00     0.131 A 
ATOM     83  C   UNL A   1      37.095  30.507  29.610  1.00  0.00     0.055 A 
ATOM     84  C   UNL A   1      37.465  29.004  31.447  1.00  0.00     0.041 A 
ATOM     85  F   UNL A   1      39.554  27.977  31.706  1.00  0.00    -0.206 F 
ATOM     86  C   UNL A   1      36.626  29.881  30.766  1.00  0.00     0.022 A 
BRANCH  83  87
ATOM     87  S   UNL A   1      36.079  31.765  28.785  1.00  0.00     0.124 S 
ATOM     88  O   UNL A   1      37.009  32.885  28.697  1.00  0.00    -0.237 OA
ATOM     89  O   UNL A   1      35.743  31.108  27.527  1.00  0.00    -0.237 OA
ATOM     90  O   UNL A   1      34.959  31.954  29.706  1.00  0.00    -0.744 OA
ENDBRANCH  83  87
ENDBRANCH  56  80
BRANCH  68  91
ATOM     91  C   UNL A   1      44.929  33.437  30.218  1.00  0.00     0.023 A 
ATOM     92  C   UNL A   1      45.286  33.734  31.545  1.00  0.00     0.031 A 
ATOM     93  C   UNL A   1      44.755  34.510  29.325  1.00  0.00     0.131 A 
ATOM     94  C   UNL A   1      45.400  35.073  31.955  1.00  0.00     0.055 A 
ATOM     95  C   UNL A   1      44.934  35.835  29.722  1.00  0.00     0.041 A 
ATOM     96  F   UNL A   1      44.411  34.287  28.047  1.00  0.00    -0.206 F 
ATOM     97  C   UNL A   1      45.245  36.124  31.047  1.00  0.00     0.022 A 
BRANCH  94  98
ATOM     98  S   UNL A   1      45.656  35.427  33.715  1.00  0.00     0.124 S 
ATOM     99  O   UNL A   1      44.332  35.173  34.272  1.00  0.00    -0.237 OA
ATOM    100  O   UNL A   1      46.695  34.468  34.079  1.00  0.00    -0.237 OA
ATOM    101  O   UNL A   1      46.076  36.827  33.727  1.00  0.00    -0.744 OA
ENDBRANCH  94  98
ENDBRANCH  68  91
ENDBRANCH  42  43
ENDBRANCH  35  37
ENDBRANCH  34  35
ENDBRANCH  33  34
ENDBRANCH  32  33
ENDBRANCH  31  32
ENDBRANCH  30  31
ENDBRANCH   1  30
TORSDOF 24
ENDMDL
