MODEL 1
REMARK VINA RESULT:     -12.1      0.000      0.000
REMARK SMILES Cc1cccc(-n2ncc(C(=O)Nc3cccc(C(=O)OCCOCCOCCOC(=O)c4ccc(-c5c6nc(c(-c7cc(S(=O)(=O)[O-])ccc7F)c7ccc([nH]7)c(-c7cc(S(=O)(=O)[O-])ccc7F)c7nc(c(-c8cc(S(=O)(=O)[O-])ccc8F)c8ccc5[nH]8)C=C7)C=C6)cc4)c3C)c2C)c1
REMARK SMILES IDX 25 1 24 2 23 3 22 4 21 5 19 6 20 7 18 8 14 9 15 10 96 11
REMARK SMILES IDX 16 12 97 13 17 14 13 15 11 16 12 17 10 19 7 20 8 21 98 22
REMARK SMILES IDX 9 23 99 24 6 25 1 26 2 27 3 28 100 29 4 30 5 31 26 32 27 33
REMARK SMILES IDX 28 34 29 35 30 36 31 37 32 38 33 39 34 40 95 41 35 42 94 43
REMARK SMILES IDX 36 44 37 45 38 46 88 47 39 48 93 49 87 50 89 51 40 52 92 53
REMARK SMILES IDX 86 54 85 55 41 57 73 58 53 59 72 60 54 61 57 62 71 63 90 64
REMARK SMILES IDX 55 65 56 66 70 68 91 69 58 70 42 71 43 72 51 73 44 74 50 75
REMARK SMILES IDX 52 76 49 77 45 78 46 79 47 80 48 81 74 82 75 83 83 84 76 85
REMARK SMILES IDX 82 86 84 87 81 88 77 89 78 90 79 91 80 92 59 93 60 94 68 95
REMARK SMILES IDX 61 96 67 97 69 98 66 99 62 100 63 101 64 102 65 103
REMARK H PARENT 13 18 89 56 57 67
REMARK Flexibility Score: inf
ROOT
ATOM      1  C   UNL A   1      34.796  32.866  32.578  1.00  0.00     0.188 C 
ENDROOT
BRANCH   1   2
ATOM      2  O   UNL A   1      33.762  33.747  32.129  1.00  0.00    -0.376 OA
BRANCH   2   3
ATOM      3  C   UNL A   1      34.063  34.824  31.233  1.00  0.00     0.202 C 
BRANCH   3   4
ATOM      4  C   UNL A   1      33.614  34.869  29.690  1.00  0.00     0.261 C 
BRANCH   4   5
ATOM      5  O   UNL A   1      34.314  34.019  28.694  1.00  0.00    -0.460 OA
BRANCH   5   6
ATOM      6  C   UNL A   1      34.819  32.727  28.651  1.00  0.00     0.338 C 
ATOM      7  O   UNL A   1      35.843  32.472  29.277  1.00  0.00    -0.246 OA
BRANCH   6   8
ATOM      8  C   UNL A   1      34.083  31.463  27.610  1.00  0.00     0.065 A 
ATOM      9  C   UNL A   1      32.439  29.820  26.455  1.00  0.00     0.045 A 
ATOM     10  C   UNL A   1      33.245  28.773  26.856  1.00  0.00     0.026 A 
ATOM     11  C   UNL A   1      32.757  31.173  26.830  1.00  0.00    -0.013 A 
ATOM     12  C   UNL A   1      34.444  29.029  27.521  1.00  0.00     0.003 A 
ATOM     13  C   UNL A   1      31.404  31.951  26.574  1.00  0.00     0.047 C 
ATOM     14  C   UNL A   1      34.872  30.326  27.843  1.00  0.00     0.016 A 
BRANCH   9  15
ATOM     15  N   UNL A   1      31.333  29.535  25.610  1.00  0.00    -0.322 N 
ATOM     16  C   UNL A   1      31.174  28.686  24.532  1.00  0.00     0.259 C 
ATOM     17  O   UNL A   1      30.155  28.818  23.850  1.00  0.00    -0.269 OA
ATOM     18  H   UNL A   1      30.521  30.043  25.837  1.00  0.00     0.170 HD
BRANCH  16  19
ATOM     19  C   UNL A   1      32.121  27.606  24.271  1.00  0.00     0.081 A 
ATOM     20  N   UNL A   1      33.191  25.650  24.304  1.00  0.00    -0.237 N 
ATOM     21  N   UNL A   1      34.003  26.484  23.619  1.00  0.00    -0.175 NA
ATOM     22  C   UNL A   1      32.113  26.332  24.849  1.00  0.00     0.054 A 
ATOM     23  C   UNL A   1      33.343  27.634  23.577  1.00  0.00     0.149 A 
ATOM     24  C   UNL A   1      31.262  25.803  25.955  1.00  0.00     0.068 C 
BRANCH  20  25
ATOM     25  C   UNL A   1      33.516  24.270  24.328  1.00  0.00     0.065 A 
ATOM     26  C   UNL A   1      36.306  22.124  25.771  1.00  0.00     0.044 C 
ATOM     27  C   UNL A   1      35.083  22.537  25.009  1.00  0.00    -0.049 A 
ATOM     28  C   UNL A   1      34.310  21.594  24.322  1.00  0.00     0.003 A 
ATOM     29  C   UNL A   1      34.693  23.878  24.983  1.00  0.00     0.031 A 
ATOM     30  C   UNL A   1      33.152  21.985  23.642  1.00  0.00     0.002 A 
ATOM     31  C   UNL A   1      32.743  23.321  23.652  1.00  0.00     0.028 A 
ENDBRANCH  20  25
ENDBRANCH  16  19
ENDBRANCH   9  15
ENDBRANCH   6   8
ENDBRANCH   5   6
ENDBRANCH   4   5
ENDBRANCH   3   4
ENDBRANCH   2   3
ENDBRANCH   1   2
BRANCH   1  32
ATOM     32  C   UNL A   1      35.566  33.095  33.852  1.00  0.00     0.188 C 
BRANCH  32  33
ATOM     33  O   UNL A   1      36.851  32.493  33.725  1.00  0.00    -0.376 OA
BRANCH  33  34
ATOM     34  C   UNL A   1      37.625  32.550  34.908  1.00  0.00     0.202 C 
BRANCH  34  35
ATOM     35  C   UNL A   1      38.354  31.237  35.264  1.00  0.00     0.261 C 
BRANCH  35  36
ATOM     36  O   UNL A   1      39.626  31.098  34.584  1.00  0.00    -0.460 OA
BRANCH  36  37
ATOM     37  C   UNL A   1      40.630  30.410  35.242  1.00  0.00     0.338 C 
ATOM     38  O   UNL A   1      40.831  30.486  36.425  1.00  0.00    -0.246 OA
BRANCH  37  39
ATOM     39  C   UNL A   1      41.287  29.435  34.306  1.00  0.00     0.060 A 
ATOM     40  C   UNL A   1      42.626  29.432  33.896  1.00  0.00     0.016 A 
ATOM     41  C   UNL A   1      40.457  28.571  33.671  1.00  0.00     0.016 A 
ATOM     42  C   UNL A   1      43.065  28.703  32.718  1.00  0.00     0.010 A 
ATOM     43  C   UNL A   1      40.867  28.059  32.446  1.00  0.00     0.010 A 
ATOM     44  C   UNL A   1      42.178  28.027  31.860  1.00  0.00    -0.014 A 
BRANCH  44  45
ATOM     45  C   UNL A   1      42.584  27.486  30.293  1.00  0.00     0.031 A 
ATOM     46  C   UNL A   1      43.362  26.064  29.659  1.00  0.00     0.074 A 
ATOM     47  C   UNL A   1      42.221  28.313  29.287  1.00  0.00     0.049 A 
ATOM     48  N   UNL A   1      43.547  25.909  28.369  1.00  0.00    -0.248 NA
ATOM     49  C   UNL A   1      43.996  24.825  30.264  1.00  0.00     0.031 C 
ATOM     50  C   UNL A   1      42.093  28.057  27.856  1.00  0.00     0.029 A 
ATOM     51  N   UNL A   1      41.977  29.681  29.370  1.00  0.00    -0.354 N 
ATOM     52  C   UNL A   1      43.854  24.587  28.090  1.00  0.00     0.074 A 
ATOM     53  C   UNL A   1      44.290  23.996  29.277  1.00  0.00     0.031 C 
ATOM     54  C   UNL A   1      42.151  29.224  27.201  1.00  0.00     0.029 A 
ATOM     55  C   UNL A   1      42.460  30.242  28.181  1.00  0.00     0.049 A 
ATOM     56  H   UNL A   1      41.551  30.158  30.119  1.00  0.00     0.167 HD
ATOM     57  C   UNL A   1      43.618  24.027  26.884  1.00  0.00     0.034 A 
ATOM     58  C   UNL A   1      43.517  31.094  28.230  1.00  0.00     0.034 A 
ATOM     59  C   UNL A   1      43.755  25.049  25.874  1.00  0.00     0.049 A 
ATOM     60  C   UNL A   1      44.698  30.496  27.476  1.00  0.00     0.074 A 
ATOM     61  C   UNL A   1      42.948  25.775  25.031  1.00  0.00     0.029 A 
ATOM     62  N   UNL A   1      44.958  25.724  25.909  1.00  0.00    -0.354 N 
ATOM     63  N   UNL A   1      44.600  29.466  26.669  1.00  0.00    -0.248 NA
ATOM     64  C   UNL A   1      46.082  30.938  27.608  1.00  0.00     0.031 C 
ATOM     65  C   UNL A   1      43.647  27.008  24.746  1.00  0.00     0.029 A 
ATOM     66  C   UNL A   1      44.897  26.976  25.353  1.00  0.00     0.049 A 
ATOM     67  H   UNL A   1      45.781  25.344  26.296  1.00  0.00     0.167 HD
ATOM     68  C   UNL A   1      45.838  29.016  26.309  1.00  0.00     0.074 A 
ATOM     69  C   UNL A   1      46.738  30.000  26.899  1.00  0.00     0.031 C 
ATOM     70  C   UNL A   1      46.046  27.851  25.608  1.00  0.00     0.034 A 
BRANCH  57  71
ATOM     71  C   UNL A   1      43.249  22.568  26.712  1.00  0.00     0.023 A 
ATOM     72  C   UNL A   1      44.126  21.729  26.011  1.00  0.00     0.031 A 
ATOM     73  C   UNL A   1      41.991  21.986  27.044  1.00  0.00     0.131 A 
ATOM     74  C   UNL A   1      43.746  20.417  25.655  1.00  0.00     0.055 A 
ATOM     75  C   UNL A   1      41.646  20.660  26.752  1.00  0.00     0.041 A 
ATOM     76  F   UNL A   1      40.995  22.682  27.611  1.00  0.00    -0.206 F 
ATOM     77  C   UNL A   1      42.521  19.870  26.037  1.00  0.00     0.022 A 
BRANCH  74  78
ATOM     78  S   UNL A   1      44.847  19.454  24.587  1.00  0.00     0.124 S 
ATOM     79  O   UNL A   1      46.153  20.011  24.923  1.00  0.00    -0.237 OA
ATOM     80  O   UNL A   1      44.591  18.088  25.030  1.00  0.00    -0.237 OA
ATOM     81  O   UNL A   1      44.372  19.764  23.240  1.00  0.00    -0.744 OA
ENDBRANCH  74  78
ENDBRANCH  57  71
BRANCH  58  82
ATOM     82  C   UNL A   1      43.434  31.982  29.452  1.00  0.00     0.023 A 
ATOM     83  C   UNL A   1      42.277  32.819  29.551  1.00  0.00     0.031 A 
ATOM     84  C   UNL A   1      44.169  31.804  30.632  1.00  0.00     0.131 A 
ATOM     85  C   UNL A   1      41.813  33.296  30.789  1.00  0.00     0.055 A 
ATOM     86  C   UNL A   1      43.746  32.359  31.859  1.00  0.00     0.041 A 
ATOM     87  F   UNL A   1      45.218  30.970  30.669  1.00  0.00    -0.206 F 
ATOM     88  C   UNL A   1      42.547  33.071  31.948  1.00  0.00     0.022 A 
BRANCH  85  89
ATOM     89  S   UNL A   1      40.129  33.985  30.949  1.00  0.00     0.124 S 
ATOM     90  O   UNL A   1      40.157  34.554  32.291  1.00  0.00    -0.237 OA
ATOM     91  O   UNL A   1      40.039  34.947  29.856  1.00  0.00    -0.237 OA
ATOM     92  O   UNL A   1      39.283  32.805  30.778  1.00  0.00    -0.744 OA
ENDBRANCH  85  89
ENDBRANCH  58  82
BRANCH  70  93
ATOM     93  C   UNL A   1      47.445  27.414  25.211  1.00  0.00     0.023 A 
ATOM     94  C   UNL A   1      47.791  27.378  23.858  1.00  0.00     0.031 A 
ATOM     95  C   UNL A   1      48.454  26.988  26.111  1.00  0.00     0.131 A 
ATOM     96  C   UNL A   1      49.103  27.088  23.458  1.00  0.00     0.055 A 
ATOM     97  C   UNL A   1      49.722  26.571  25.699  1.00  0.00     0.041 A 
ATOM     98  F   UNL A   1      48.296  27.007  27.441  1.00  0.00    -0.206 F 
ATOM     99  C   UNL A   1      50.065  26.650  24.363  1.00  0.00     0.022 A 
BRANCH  96 100
ATOM    100  S   UNL A   1      49.555  27.446  21.747  1.00  0.00     0.124 S 
ATOM    101  O   UNL A   1      50.978  27.131  21.720  1.00  0.00    -0.237 OA
ATOM    102  O   UNL A   1      48.686  26.520  21.023  1.00  0.00    -0.237 OA
ATOM    103  O   UNL A   1      49.223  28.861  21.596  1.00  0.00    -0.744 OA
ENDBRANCH  96 100
ENDBRANCH  70  93
ENDBRANCH  44  45
ENDBRANCH  37  39
ENDBRANCH  36  37
ENDBRANCH  35  36
ENDBRANCH  34  35
ENDBRANCH  33  34
ENDBRANCH  32  33
ENDBRANCH   1  32
TORSDOF 23
ENDMDL
MODEL 2
REMARK VINA RESULT:     -11.2      1.976      2.369
REMARK SMILES Cc1cccc(-n2ncc(C(=O)Nc3cccc(C(=O)OCCOCCOCCOC(=O)c4ccc(-c5c6nc(c(-c7cc(S(=O)(=O)[O-])ccc7F)c7ccc([nH]7)c(-c7cc(S(=O)(=O)[O-])ccc7F)c7nc(c(-c8cc(S(=O)(=O)[O-])ccc8F)c8ccc5[nH]8)C=C7)C=C6)cc4)c3C)c2C)c1
REMARK SMILES IDX 25 1 24 2 23 3 22 4 21 5 19 6 20 7 18 8 14 9 15 10 96 11
REMARK SMILES IDX 16 12 97 13 17 14 13 15 11 16 12 17 10 19 7 20 8 21 98 22
REMARK SMILES IDX 9 23 99 24 6 25 1 26 2 27 3 28 100 29 4 30 5 31 26 32 27 33
REMARK SMILES IDX 28 34 29 35 30 36 31 37 32 38 33 39 34 40 95 41 35 42 94 43
REMARK SMILES IDX 36 44 37 45 38 46 88 47 39 48 93 49 87 50 89 51 40 52 92 53
REMARK SMILES IDX 86 54 85 55 41 57 73 58 53 59 72 60 54 61 57 62 71 63 90 64
REMARK SMILES IDX 55 65 56 66 70 68 91 69 58 70 42 71 43 72 51 73 44 74 50 75
REMARK SMILES IDX 52 76 49 77 45 78 46 79 47 80 48 81 74 82 75 83 83 84 76 85
REMARK SMILES IDX 82 86 84 87 81 88 77 89 78 90 79 91 80 92 59 93 60 94 68 95
REMARK SMILES IDX 61 96 67 97 69 98 66 99 62 100 63 101 64 102 65 103
REMARK H PARENT 13 18 89 56 57 67
REMARK Flexibility Score: inf
ROOT
ATOM      1  C   UNL A   1      34.834  32.874  32.586  1.00  0.00     0.188 C 
ENDROOT
BRANCH   1   2
ATOM      2  O   UNL A   1      33.748  33.712  32.177  1.00  0.00    -0.376 OA
BRANCH   2   3
ATOM      3  C   UNL A   1      33.974  34.810  31.285  1.00  0.00     0.202 C 
BRANCH   3   4
ATOM      4  C   UNL A   1      33.460  34.858  29.763  1.00  0.00     0.261 C 
BRANCH   4   5
ATOM      5  O   UNL A   1      34.159  34.062  28.723  1.00  0.00    -0.460 OA
BRANCH   5   6
ATOM      6  C   UNL A   1      34.748  32.808  28.643  1.00  0.00     0.338 C 
ATOM      7  O   UNL A   1      35.823  32.623  29.205  1.00  0.00    -0.246 OA
BRANCH   6   8
ATOM      8  C   UNL A   1      34.040  31.498  27.640  1.00  0.00     0.065 A 
ATOM      9  C   UNL A   1      32.432  29.788  26.532  1.00  0.00     0.045 A 
ATOM     10  C   UNL A   1      33.254  28.770  26.971  1.00  0.00     0.026 A 
ATOM     11  C   UNL A   1      32.724  31.159  26.864  1.00  0.00    -0.013 A 
ATOM     12  C   UNL A   1      34.445  29.068  27.632  1.00  0.00     0.003 A 
ATOM     13  C   UNL A   1      31.359  31.903  26.577  1.00  0.00     0.047 C 
ATOM     14  C   UNL A   1      34.848  30.383  27.914  1.00  0.00     0.016 A 
BRANCH   9  15
ATOM     15  N   UNL A   1      31.335  29.457  25.692  1.00  0.00    -0.322 N 
ATOM     16  C   UNL A   1      31.211  28.610  24.607  1.00  0.00     0.259 C 
ATOM     17  O   UNL A   1      30.182  28.697  23.933  1.00  0.00    -0.269 OA
ATOM     18  H   UNL A   1      30.501  29.922  25.928  1.00  0.00     0.170 HD
BRANCH  16  19
ATOM     19  C   UNL A   1      32.208  27.580  24.331  1.00  0.00     0.081 A 
ATOM     20  N   UNL A   1      33.371  25.677  24.339  1.00  0.00    -0.237 N 
ATOM     21  N   UNL A   1      34.139  26.557  23.659  1.00  0.00    -0.175 NA
ATOM     22  C   UNL A   1      32.264  26.301  24.895  1.00  0.00     0.054 A 
ATOM     23  C   UNL A   1      33.424  27.674  23.632  1.00  0.00     0.149 A 
ATOM     24  C   UNL A   1      31.444  25.720  25.999  1.00  0.00     0.068 C 
BRANCH  20  25
ATOM     25  C   UNL A   1      33.763  24.315  24.346  1.00  0.00     0.065 A 
ATOM     26  C   UNL A   1      32.313  21.026  23.102  1.00  0.00     0.044 C 
ATOM     27  C   UNL A   1      33.214  22.013  23.780  1.00  0.00    -0.049 A 
ATOM     28  C   UNL A   1      34.385  21.595  24.423  1.00  0.00     0.003 A 
ATOM     29  C   UNL A   1      32.898  23.373  23.771  1.00  0.00     0.031 A 
ATOM     30  C   UNL A   1      35.237  22.527  25.023  1.00  0.00     0.002 A 
ATOM     31  C   UNL A   1      34.937  23.892  24.977  1.00  0.00     0.028 A 
ENDBRANCH  20  25
ENDBRANCH  16  19
ENDBRANCH   9  15
ENDBRANCH   6   8
ENDBRANCH   5   6
ENDBRANCH   4   5
ENDBRANCH   3   4
ENDBRANCH   2   3
ENDBRANCH   1   2
BRANCH   1  32
ATOM     32  C   UNL A   1      35.633  33.127  33.837  1.00  0.00     0.188 C 
BRANCH  32  33
ATOM     33  O   UNL A   1      36.951  32.617  33.650  1.00  0.00    -0.376 OA
BRANCH  33  34
ATOM     34  C   UNL A   1      37.778  32.748  34.791  1.00  0.00     0.202 C 
BRANCH  34  35
ATOM     35  C   UNL A   1      38.460  31.439  35.244  1.00  0.00     0.261 C 
BRANCH  35  36
ATOM     36  O   UNL A   1      39.751  31.233  34.622  1.00  0.00    -0.460 OA
BRANCH  36  37
ATOM     37  C   UNL A   1      40.667  30.445  35.298  1.00  0.00     0.338 C 
ATOM     38  O   UNL A   1      40.824  30.472  36.489  1.00  0.00    -0.246 OA
BRANCH  37  39
ATOM     39  C   UNL A   1      41.279  29.445  34.359  1.00  0.00     0.060 A 
ATOM     40  C   UNL A   1      42.638  29.298  34.054  1.00  0.00     0.016 A 
ATOM     41  C   UNL A   1      40.409  28.722  33.612  1.00  0.00     0.016 A 
ATOM     42  C   UNL A   1      43.085  28.579  32.872  1.00  0.00     0.010 A 
ATOM     43  C   UNL A   1      40.856  28.225  32.394  1.00  0.00     0.010 A 
ATOM     44  C   UNL A   1      42.199  28.061  31.910  1.00  0.00    -0.014 A 
BRANCH  44  45
ATOM     45  C   UNL A   1      42.668  27.552  30.349  1.00  0.00     0.031 A 
ATOM     46  C   UNL A   1      43.454  26.134  29.716  1.00  0.00     0.074 A 
ATOM     47  C   UNL A   1      42.361  28.409  29.349  1.00  0.00     0.049 A 
ATOM     48  N   UNL A   1      43.695  26.008  28.432  1.00  0.00    -0.248 NA
ATOM     49  C   UNL A   1      44.044  24.873  30.317  1.00  0.00     0.031 C 
ATOM     50  C   UNL A   1      42.294  28.189  27.908  1.00  0.00     0.029 A 
ATOM     51  N   UNL A   1      42.132  29.777  29.456  1.00  0.00    -0.354 N 
ATOM     52  C   UNL A   1      43.996  24.689  28.133  1.00  0.00     0.074 A 
ATOM     53  C   UNL A   1      44.371  24.063  29.324  1.00  0.00     0.031 C 
ATOM     54  C   UNL A   1      42.396  29.371  27.286  1.00  0.00     0.029 A 
ATOM     55  C   UNL A   1      42.675  30.360  28.304  1.00  0.00     0.049 A 
ATOM     56  H   UNL A   1      41.678  30.242  30.196  1.00  0.00     0.167 HD
ATOM     57  C   UNL A   1      43.808  24.163  26.904  1.00  0.00     0.034 A 
ATOM     58  C   UNL A   1      43.740  31.195  28.421  1.00  0.00     0.034 A 
ATOM     59  C   UNL A   1      44.003  25.206  25.928  1.00  0.00     0.049 A 
ATOM     60  C   UNL A   1      44.945  30.599  27.705  1.00  0.00     0.074 A 
ATOM     61  C   UNL A   1      43.244  25.964  25.068  1.00  0.00     0.029 A 
ATOM     62  N   UNL A   1      45.212  25.863  26.033  1.00  0.00    -0.354 N 
ATOM     63  N   UNL A   1      44.870  29.590  26.869  1.00  0.00    -0.248 NA
ATOM     64  C   UNL A   1      46.328  31.017  27.910  1.00  0.00     0.031 C 
ATOM     65  C   UNL A   1      43.971  27.194  24.846  1.00  0.00     0.029 A 
ATOM     66  C   UNL A   1      45.192  27.129  25.507  1.00  0.00     0.049 A 
ATOM     67  H   UNL A   1      46.011  25.462  26.447  1.00  0.00     0.167 HD
ATOM     68  C   UNL A   1      46.116  29.131  26.553  1.00  0.00     0.074 A 
ATOM     69  C   UNL A   1      47.003  30.088  27.207  1.00  0.00     0.031 C 
ATOM     70  C   UNL A   1      46.340  27.982  25.834  1.00  0.00     0.034 A 
BRANCH  57  71
ATOM     71  C   UNL A   1      43.427  22.714  26.680  1.00  0.00     0.023 A 
ATOM     72  C   UNL A   1      44.341  21.869  26.035  1.00  0.00     0.031 A 
ATOM     73  C   UNL A   1      42.137  22.150  26.905  1.00  0.00     0.131 A 
ATOM     74  C   UNL A   1      43.966  20.570  25.628  1.00  0.00     0.055 A 
ATOM     75  C   UNL A   1      41.793  20.836  26.564  1.00  0.00     0.041 A 
ATOM     76  F   UNL A   1      41.113  22.856  27.405  1.00  0.00    -0.206 F 
ATOM     77  C   UNL A   1      42.707  20.040  25.905  1.00  0.00     0.022 A 
BRANCH  74  78
ATOM     78  S   UNL A   1      45.130  19.603  24.633  1.00  0.00     0.124 S 
ATOM     79  O   UNL A   1      44.973  18.268  25.200  1.00  0.00    -0.237 OA
ATOM     80  O   UNL A   1      44.617  19.798  23.281  1.00  0.00    -0.237 OA
ATOM     81  O   UNL A   1      46.419  20.239  24.900  1.00  0.00    -0.744 OA
ENDBRANCH  74  78
ENDBRANCH  57  71
BRANCH  58  82
ATOM     82  C   UNL A   1      43.613  32.054  29.660  1.00  0.00     0.023 A 
ATOM     83  C   UNL A   1      44.405  31.664  30.786  1.00  0.00     0.031 A 
ATOM     84  C   UNL A   1      43.096  33.356  29.691  1.00  0.00     0.131 A 
ATOM     85  C   UNL A   1      44.780  32.582  31.781  1.00  0.00     0.055 A 
ATOM     86  C   UNL A   1      43.404  34.250  30.739  1.00  0.00     0.041 A 
ATOM     87  F   UNL A   1      42.416  33.851  28.647  1.00  0.00    -0.206 F 
ATOM     88  C   UNL A   1      44.278  33.879  31.764  1.00  0.00     0.022 A 
BRANCH  85  89
ATOM     89  S   UNL A   1      46.120  32.186  32.957  1.00  0.00     0.124 S 
ATOM     90  O   UNL A   1      47.098  31.529  32.098  1.00  0.00    -0.237 OA
ATOM     91  O   UNL A   1      46.516  33.487  33.487  1.00  0.00    -0.237 OA
ATOM     92  O   UNL A   1      45.449  31.323  33.929  1.00  0.00    -0.744 OA
ENDBRANCH  85  89
ENDBRANCH  58  82
BRANCH  70  93
ATOM     93  C   UNL A   1      47.750  27.533  25.488  1.00  0.00     0.023 A 
ATOM     94  C   UNL A   1      48.656  27.272  26.519  1.00  0.00     0.031 A 
ATOM     95  C   UNL A   1      48.261  27.387  24.174  1.00  0.00     0.131 A 
ATOM     96  C   UNL A   1      49.928  26.750  26.245  1.00  0.00     0.055 A 
ATOM     97  C   UNL A   1      49.574  26.994  23.902  1.00  0.00     0.041 A 
ATOM     98  F   UNL A   1      47.509  27.556  23.079  1.00  0.00    -0.206 F 
ATOM     99  C   UNL A   1      50.410  26.640  24.944  1.00  0.00     0.022 A 
BRANCH  96 100
ATOM    100  S   UNL A   1      50.872  26.078  27.628  1.00  0.00     0.124 S 
ATOM    101  O   UNL A   1      52.107  26.852  27.577  1.00  0.00    -0.237 OA
ATOM    102  O   UNL A   1      49.984  26.373  28.750  1.00  0.00    -0.237 OA
ATOM    103  O   UNL A   1      51.007  24.662  27.294  1.00  0.00    -0.744 OA
ENDBRANCH  96 100
ENDBRANCH  70  93
ENDBRANCH  44  45
ENDBRANCH  37  39
ENDBRANCH  36  37
ENDBRANCH  35  36
ENDBRANCH  34  35
ENDBRANCH  33  34
ENDBRANCH  32  33
ENDBRANCH   1  32
TORSDOF 23
ENDMDL
MODEL 3
REMARK VINA RESULT:     -11.1      1.817      2.155
REMARK SMILES Cc1cccc(-n2ncc(C(=O)Nc3cccc(C(=O)OCCOCCOCCOC(=O)c4ccc(-c5c6nc(c(-c7cc(S(=O)(=O)[O-])ccc7F)c7ccc([nH]7)c(-c7cc(S(=O)(=O)[O-])ccc7F)c7nc(c(-c8cc(S(=O)(=O)[O-])ccc8F)c8ccc5[nH]8)C=C7)C=C6)cc4)c3C)c2C)c1
REMARK SMILES IDX 25 1 24 2 23 3 22 4 21 5 19 6 20 7 18 8 14 9 15 10 96 11
REMARK SMILES IDX 16 12 97 13 17 14 13 15 11 16 12 17 10 19 7 20 8 21 98 22
REMARK SMILES IDX 9 23 99 24 6 25 1 26 2 27 3 28 100 29 4 30 5 31 26 32 27 33
REMARK SMILES IDX 28 34 29 35 30 36 31 37 32 38 33 39 34 40 95 41 35 42 94 43
REMARK SMILES IDX 36 44 37 45 38 46 88 47 39 48 93 49 87 50 89 51 40 52 92 53
REMARK SMILES IDX 86 54 85 55 41 57 73 58 53 59 72 60 54 61 57 62 71 63 90 64
REMARK SMILES IDX 55 65 56 66 70 68 91 69 58 70 42 71 43 72 51 73 44 74 50 75
REMARK SMILES IDX 52 76 49 77 45 78 46 79 47 80 48 81 74 82 75 83 83 84 76 85
REMARK SMILES IDX 82 86 84 87 81 88 77 89 78 90 79 91 80 92 59 93 60 94 68 95
REMARK SMILES IDX 61 96 67 97 69 98 66 99 62 100 63 101 64 102 65 103
REMARK H PARENT 13 18 89 56 57 67
REMARK Flexibility Score: inf
ROOT
ATOM      1  C   UNL A   1      35.070  32.548  31.874  1.00  0.00     0.188 C 
ENDROOT
BRANCH   1   2
ATOM      2  O   UNL A   1      34.045  33.435  31.414  1.00  0.00    -0.376 OA
BRANCH   2   3
ATOM      3  C   UNL A   1      34.295  34.333  30.327  1.00  0.00     0.202 C 
BRANCH   3   4
ATOM      4  C   UNL A   1      33.711  34.140  28.841  1.00  0.00     0.261 C 
BRANCH   4   5
ATOM      5  O   UNL A   1      34.268  33.081  27.962  1.00  0.00    -0.460 OA
BRANCH   5   6
ATOM      6  C   UNL A   1      34.514  31.718  28.060  1.00  0.00     0.338 C 
ATOM      7  O   UNL A   1      35.347  31.325  28.871  1.00  0.00    -0.246 OA
BRANCH   6   8
ATOM      8  C   UNL A   1      33.737  30.540  26.951  1.00  0.00     0.065 A 
ATOM      9  C   UNL A   1      32.036  29.040  25.688  1.00  0.00     0.045 A 
ATOM     10  C   UNL A   1      32.769  27.934  26.069  1.00  0.00     0.026 A 
ATOM     11  C   UNL A   1      32.419  30.357  26.126  1.00  0.00    -0.013 A 
ATOM     12  C   UNL A   1      33.961  28.093  26.774  1.00  0.00     0.003 A 
ATOM     13  C   UNL A   1      31.121  31.222  25.865  1.00  0.00     0.047 C 
ATOM     14  C   UNL A   1      34.453  29.351  27.160  1.00  0.00     0.016 A 
BRANCH   9  15
ATOM     15  N   UNL A   1      30.940  28.852  24.804  1.00  0.00    -0.322 N 
ATOM     16  C   UNL A   1      30.740  28.008  23.729  1.00  0.00     0.259 C 
ATOM     17  O   UNL A   1      29.765  28.229  23.007  1.00  0.00    -0.269 OA
ATOM     18  H   UNL A   1      30.173  29.440  24.994  1.00  0.00     0.170 HD
BRANCH  16  19
ATOM     19  C   UNL A   1      31.585  26.838  23.517  1.00  0.00     0.081 A 
ATOM     20  N   UNL A   1      32.483  24.800  23.643  1.00  0.00    -0.237 N 
ATOM     21  N   UNL A   1      33.353  25.522  22.905  1.00  0.00    -0.175 NA
ATOM     22  C   UNL A   1      31.476  25.601  24.162  1.00  0.00     0.054 A 
ATOM     23  C   UNL A   1      32.795  26.722  22.809  1.00  0.00     0.149 A 
ATOM     24  C   UNL A   1      30.599  25.207  25.304  1.00  0.00     0.068 C 
BRANCH  20  25
ATOM     25  C   UNL A   1      32.688  23.400  23.737  1.00  0.00     0.065 A 
ATOM     26  C   UNL A   1      35.221  21.094  25.392  1.00  0.00     0.044 C 
ATOM     27  C   UNL A   1      34.071  21.574  24.559  1.00  0.00    -0.049 A 
ATOM     28  C   UNL A   1      33.250  20.670  23.876  1.00  0.00     0.003 A 
ATOM     29  C   UNL A   1      33.798  22.940  24.461  1.00  0.00     0.031 A 
ATOM     30  C   UNL A   1      32.159  21.125  23.129  1.00  0.00     0.002 A 
ATOM     31  C   UNL A   1      31.866  22.490  23.066  1.00  0.00     0.028 A 
ENDBRANCH  20  25
ENDBRANCH  16  19
ENDBRANCH   9  15
ENDBRANCH   6   8
ENDBRANCH   5   6
ENDBRANCH   4   5
ENDBRANCH   3   4
ENDBRANCH   2   3
ENDBRANCH   1   2
BRANCH   1  32
ATOM     32  C   UNL A   1      36.020  32.907  32.985  1.00  0.00     0.188 C 
BRANCH  32  33
ATOM     33  O   UNL A   1      37.245  32.206  32.784  1.00  0.00    -0.376 OA
BRANCH  33  34
ATOM     34  C   UNL A   1      38.141  32.303  33.876  1.00  0.00     0.202 C 
BRANCH  34  35
ATOM     35  C   UNL A   1      38.604  30.948  34.450  1.00  0.00     0.261 C 
BRANCH  35  36
ATOM     36  O   UNL A   1      40.008  30.684  34.207  1.00  0.00    -0.460 OA
BRANCH  36  37
ATOM     37  C   UNL A   1      40.595  29.651  34.915  1.00  0.00     0.338 C 
ATOM     38  O   UNL A   1      40.494  29.511  36.105  1.00  0.00    -0.246 OA
BRANCH  37  39
ATOM     39  C   UNL A   1      41.201  28.655  33.967  1.00  0.00     0.060 A 
ATOM     40  C   UNL A   1      42.522  28.191  33.965  1.00  0.00     0.016 A 
ATOM     41  C   UNL A   1      40.430  28.295  32.911  1.00  0.00     0.016 A 
ATOM     42  C   UNL A   1      43.104  27.540  32.802  1.00  0.00     0.010 A 
ATOM     43  C   UNL A   1      41.071  27.860  31.758  1.00  0.00     0.010 A 
ATOM     44  C   UNL A   1      42.423  27.408  31.578  1.00  0.00    -0.014 A 
BRANCH  44  45
ATOM     45  C   UNL A   1      43.176  27.001  30.100  1.00  0.00     0.031 A 
ATOM     46  C   UNL A   1      43.901  25.553  29.461  1.00  0.00     0.074 A 
ATOM     47  C   UNL A   1      43.224  27.996  29.187  1.00  0.00     0.049 A 
ATOM     48  N   UNL A   1      44.418  25.528  28.255  1.00  0.00    -0.248 NA
ATOM     49  C   UNL A   1      44.166  24.158  29.995  1.00  0.00     0.031 C 
ATOM     50  C   UNL A   1      43.470  27.944  27.749  1.00  0.00     0.029 A 
ATOM     51  N   UNL A   1      43.154  29.364  29.430  1.00  0.00    -0.354 N 
ATOM     52  C   UNL A   1      44.609  24.217  27.849  1.00  0.00     0.074 A 
ATOM     53  C   UNL A   1      44.611  23.417  28.993  1.00  0.00     0.031 C 
ATOM     54  C   UNL A   1      43.866  29.155  27.334  1.00  0.00     0.029 A 
ATOM     55  C   UNL A   1      44.022  29.974  28.516  1.00  0.00     0.049 A 
ATOM     56  H   UNL A   1      42.603  29.814  30.112  1.00  0.00     0.167 HD
ATOM     57  C   UNL A   1      44.648  23.860  26.547  1.00  0.00     0.034 A 
ATOM     58  C   UNL A   1      45.128  30.615  28.976  1.00  0.00     0.034 A 
ATOM     59  C   UNL A   1      45.199  24.958  25.791  1.00  0.00     0.049 A 
ATOM     60  C   UNL A   1      46.381  29.918  28.463  1.00  0.00     0.074 A 
ATOM     61  C   UNL A   1      44.767  25.912  24.901  1.00  0.00     0.029 A 
ATOM     62  N   UNL A   1      46.423  25.403  26.247  1.00  0.00    -0.354 N 
ATOM     63  N   UNL A   1      46.375  29.028  27.499  1.00  0.00    -0.248 NA
ATOM     64  C   UNL A   1      47.719  30.090  29.019  1.00  0.00     0.031 C 
ATOM     65  C   UNL A   1      45.677  27.030  25.015  1.00  0.00     0.029 A 
ATOM     66  C   UNL A   1      46.690  26.705  25.909  1.00  0.00     0.049 A 
ATOM     67  H   UNL A   1      47.046  24.840  26.764  1.00  0.00     0.167 HD
ATOM     68  C   UNL A   1      47.592  28.415  27.400  1.00  0.00     0.074 A 
ATOM     69  C   UNL A   1      48.415  29.147  28.357  1.00  0.00     0.031 C 
ATOM     70  C   UNL A   1      47.829  27.328  26.593  1.00  0.00     0.034 A 
BRANCH  57  71
ATOM     71  C   UNL A   1      44.148  22.521  26.047  1.00  0.00     0.023 A 
ATOM     72  C   UNL A   1      42.812  22.169  26.281  1.00  0.00     0.031 A 
ATOM     73  C   UNL A   1      44.960  21.482  25.505  1.00  0.00     0.131 A 
ATOM     74  C   UNL A   1      42.346  20.864  26.012  1.00  0.00     0.055 A 
ATOM     75  C   UNL A   1      44.476  20.211  25.172  1.00  0.00     0.041 A 
ATOM     76  F   UNL A   1      46.283  21.611  25.327  1.00  0.00    -0.206 F 
ATOM     77  C   UNL A   1      43.162  19.889  25.441  1.00  0.00     0.022 A 
BRANCH  74  78
ATOM     78  S   UNL A   1      40.664  20.423  26.514  1.00  0.00     0.124 S 
ATOM     79  O   UNL A   1      39.908  21.602  26.103  1.00  0.00    -0.237 OA
ATOM     80  O   UNL A   1      40.424  19.201  25.753  1.00  0.00    -0.237 OA
ATOM     81  O   UNL A   1      40.777  20.236  27.960  1.00  0.00    -0.744 OA
ENDBRANCH  74  78
ENDBRANCH  57  71
BRANCH  58  82
ATOM     82  C   UNL A   1      44.826  31.347  30.265  1.00  0.00     0.023 A 
ATOM     83  C   UNL A   1      44.111  32.581  30.142  1.00  0.00     0.031 A 
ATOM     84  C   UNL A   1      44.854  30.775  31.544  1.00  0.00     0.131 A 
ATOM     85  C   UNL A   1      43.345  33.100  31.200  1.00  0.00     0.055 A 
ATOM     86  C   UNL A   1      44.154  31.349  32.628  1.00  0.00     0.041 A 
ATOM     87  F   UNL A   1      45.420  29.578  31.750  1.00  0.00    -0.206 F 
ATOM     88  C   UNL A   1      43.365  32.489  32.448  1.00  0.00     0.022 A 
BRANCH  85  89
ATOM     89  S   UNL A   1      42.116  34.417  30.899  1.00  0.00     0.124 S 
ATOM     90  O   UNL A   1      42.956  35.528  30.467  1.00  0.00    -0.237 OA
ATOM     91  O   UNL A   1      41.239  33.852  29.879  1.00  0.00    -0.237 OA
ATOM     92  O   UNL A   1      41.485  34.572  32.210  1.00  0.00    -0.744 OA
ENDBRANCH  85  89
ENDBRANCH  58  82
BRANCH  70  93
ATOM     93  C   UNL A   1      49.211  26.704  26.503  1.00  0.00     0.023 A 
ATOM     94  C   UNL A   1      50.037  27.027  25.423  1.00  0.00     0.031 A 
ATOM     95  C   UNL A   1      49.745  25.766  27.421  1.00  0.00     0.131 A 
ATOM     96  C   UNL A   1      51.358  26.561  25.362  1.00  0.00     0.055 A 
ATOM     97  C   UNL A   1      51.015  25.199  27.285  1.00  0.00     0.041 A 
ATOM     98  F   UNL A   1      49.099  25.387  28.531  1.00  0.00    -0.206 F 
ATOM     99  C   UNL A   1      51.845  25.621  26.265  1.00  0.00     0.022 A 
BRANCH  96 100
ATOM    100  S   UNL A   1      52.462  27.332  24.161  1.00  0.00     0.124 S 
ATOM    101  O   UNL A   1      52.871  26.204  23.333  1.00  0.00    -0.237 OA
ATOM    102  O   UNL A   1      51.565  28.294  23.525  1.00  0.00    -0.237 OA
ATOM    103  O   UNL A   1      53.515  27.914  24.990  1.00  0.00    -0.744 OA
ENDBRANCH  96 100
ENDBRANCH  70  93
ENDBRANCH  44  45
ENDBRANCH  37  39
ENDBRANCH  36  37
ENDBRANCH  35  36
ENDBRANCH  34  35
ENDBRANCH  33  34
ENDBRANCH  32  33
ENDBRANCH   1  32
TORSDOF 23
ENDMDL
