MODEL 1
REMARK VINA RESULT:     -12.4      0.000      0.000
REMARK SMILES COc1ccc(-c2[nH]nc3nc(-c4ccc(C(F)(F)F)cc4)cc(C(=O)OCCOCCOCCOC(=O)c4ccc(-c5c6nc(c(-c7cc(S(=O)(=O)[O-])ccc7F)c7ccc([nH]7)c(-c7cc(S(=O)(=O)[O-])ccc7F)c7nc(c(-c8cc(S(=O)(=O)[O-])ccc8F)c8ccc5[nH]8)C=C7)C=C6)cc4)c23)cc1
REMARK SMILES IDX 32 1 31 2 30 3 29 4 28 5 27 6 25 7 26 8 24 9 7 10 8 11
REMARK SMILES IDX 102 12 9 13 10 15 11 16 23 17 12 18 6 19 3 20 4 21 104 22
REMARK SMILES IDX 5 23 103 24 2 25 1 26 13 27 14 28 22 29 15 30 21 31 16 32
REMARK SMILES IDX 17 33 18 34 19 35 20 36 33 37 34 38 35 39 36 40 37 41 38 42
REMARK SMILES IDX 39 43 40 44 101 45 41 46 100 47 42 48 43 49 44 50 94 51
REMARK SMILES IDX 45 52 99 53 93 54 95 55 46 56 98 57 92 58 91 59 47 61 79 62
REMARK SMILES IDX 59 63 78 64 60 65 63 66 77 67 96 68 61 69 62 70 76 72 97 73
REMARK SMILES IDX 64 74 48 75 49 76 57 77 50 78 56 79 58 80 55 81 51 82 52 83
REMARK SMILES IDX 53 84 54 85 80 86 81 87 89 88 82 89 88 90 90 91 87 92 83 93
REMARK SMILES IDX 84 94 85 95 86 96 65 97 66 98 74 99 67 100 73 101 75 102
REMARK SMILES IDX 72 103 68 104 69 105 70 106 71 107
REMARK H PARENT 8 14 95 60 63 71
REMARK Flexibility Score: inf
ROOT
ATOM      1  C   UNL A   1      40.025  21.416  26.162  1.00  0.00     0.188 C 
ENDROOT
BRANCH   1   2
ATOM      2  C   UNL A   1      39.058  22.574  26.220  1.00  0.00     0.188 C 
BRANCH   2   3
ATOM      3  O   UNL A   1      37.674  22.310  26.078  1.00  0.00    -0.376 OA
BRANCH   3   4
ATOM      4  C   UNL A   1      37.318  21.731  24.814  1.00  0.00     0.202 C 
BRANCH   4   5
ATOM      5  C   UNL A   1      35.926  22.061  24.206  1.00  0.00     0.261 C 
BRANCH   5   6
ATOM      6  O   UNL A   1      35.416  23.402  24.416  1.00  0.00    -0.460 OA
BRANCH   6   7
ATOM      7  C   UNL A   1      34.324  23.814  23.718  1.00  0.00     0.339 C 
ATOM      8  O   UNL A   1      34.105  23.548  22.562  1.00  0.00    -0.246 OA
BRANCH   7   9
ATOM      9  C   UNL A   1      33.417  24.551  24.652  1.00  0.00     0.075 A 
ATOM     10  C   UNL A   1      31.730  22.772  25.322  1.00  0.00     0.075 A 
ATOM     11  N   UNL A   1      30.528  22.910  25.980  1.00  0.00    -0.275 N 
ATOM     12  C   UNL A   1      32.231  24.064  25.231  1.00  0.00     0.061 A 
ATOM     13  N   UNL A   1      30.285  24.139  26.452  1.00  0.00    -0.154 NA
ATOM     14  H   UNL A   1      29.897  22.163  26.096  1.00  0.00     0.190 HD
ATOM     15  C   UNL A   1      31.355  24.833  26.074  1.00  0.00     0.182 A 
ATOM     16  N   UNL A   1      31.625  26.104  26.449  1.00  0.00    -0.226 NA
ATOM     17  C   UNL A   1      33.688  25.861  25.120  1.00  0.00     0.045 A 
ATOM     18  C   UNL A   1      32.812  26.578  25.987  1.00  0.00     0.074 A 
BRANCH  10  19
ATOM     19  C   UNL A   1      32.262  21.436  25.087  1.00  0.00     0.001 A 
ATOM     20  C   UNL A   1      33.228  18.845  24.562  1.00  0.00     0.118 A 
ATOM     21  C   UNL A   1      33.442  19.453  25.803  1.00  0.00     0.047 A 
ATOM     22  C   UNL A   1      32.572  19.558  23.561  1.00  0.00     0.047 A 
ATOM     23  C   UNL A   1      32.972  20.744  26.065  1.00  0.00     0.014 A 
ATOM     24  C   UNL A   1      32.098  20.848  23.823  1.00  0.00     0.014 A 
BRANCH  20  25
ATOM     25  O   UNL A   1      33.697  17.565  24.460  1.00  0.00    -0.497 OA
ATOM     26  C   UNL A   1      34.046  17.107  23.158  1.00  0.00     0.278 C 
ENDBRANCH  20  25
ENDBRANCH  10  19
BRANCH  18  27
ATOM     27  C   UNL A   1      33.109  27.968  26.421  1.00  0.00     0.000 A 
ATOM     28  C   UNL A   1      34.432  28.425  26.591  1.00  0.00     0.011 A 
ATOM     29  C   UNL A   1      32.077  28.863  26.741  1.00  0.00     0.011 A 
ATOM     30  C   UNL A   1      34.708  29.715  27.073  1.00  0.00     0.014 A 
ATOM     31  C   UNL A   1      32.346  30.149  27.226  1.00  0.00     0.014 A 
ATOM     32  C   UNL A   1      33.664  30.588  27.405  1.00  0.00     0.056 A 
BRANCH  32  33
ATOM     33  C   UNL A   1      33.953  31.960  27.965  1.00  0.00     0.416 C 
ATOM     34  F   UNL A   1      33.035  32.890  27.578  1.00  0.00    -0.166 F 
ATOM     35  F   UNL A   1      33.964  31.988  29.326  1.00  0.00    -0.166 F 
ATOM     36  F   UNL A   1      35.163  32.459  27.576  1.00  0.00    -0.166 F 
ENDBRANCH  32  33
ENDBRANCH  18  27
ENDBRANCH   7   9
ENDBRANCH   6   7
ENDBRANCH   5   6
ENDBRANCH   4   5
ENDBRANCH   3   4
ENDBRANCH   2   3
ENDBRANCH   1   2
BRANCH   1  37
ATOM     37  O   UNL A   1      41.363  21.784  25.832  1.00  0.00    -0.376 OA
BRANCH  37  38
ATOM     38  C   UNL A   1      42.091  22.559  26.784  1.00  0.00     0.202 C 
BRANCH  38  39
ATOM     39  C   UNL A   1      42.489  23.975  26.378  1.00  0.00     0.261 C 
BRANCH  39  40
ATOM     40  O   UNL A   1      41.640  24.982  26.898  1.00  0.00    -0.460 OA
BRANCH  40  41
ATOM     41  C   UNL A   1      41.388  25.969  26.008  1.00  0.00     0.338 C 
ATOM     42  O   UNL A   1      41.871  26.105  24.894  1.00  0.00    -0.246 OA
BRANCH  41  43
ATOM     43  C   UNL A   1      40.467  26.933  26.610  1.00  0.00     0.060 A 
ATOM     44  C   UNL A   1      40.782  28.274  26.388  1.00  0.00     0.016 A 
ATOM     45  C   UNL A   1      39.689  26.502  27.692  1.00  0.00     0.016 A 
ATOM     46  C   UNL A   1      40.626  29.136  27.444  1.00  0.00     0.010 A 
ATOM     47  C   UNL A   1      39.558  27.358  28.752  1.00  0.00     0.010 A 
ATOM     48  C   UNL A   1      40.138  28.619  28.647  1.00  0.00    -0.014 A 
BRANCH  48  49
ATOM     49  C   UNL A   1      40.175  29.470  29.810  1.00  0.00     0.031 A 
ATOM     50  C   UNL A   1      38.941  30.262  29.929  1.00  0.00     0.074 A 
ATOM     51  C   UNL A   1      41.187  29.455  30.696  1.00  0.00     0.049 A 
ATOM     52  N   UNL A   1      38.794  31.512  29.654  1.00  0.00    -0.248 NA
ATOM     53  C   UNL A   1      37.675  29.532  30.114  1.00  0.00     0.031 C 
ATOM     54  C   UNL A   1      42.327  28.539  30.771  1.00  0.00     0.029 A 
ATOM     55  N   UNL A   1      41.351  30.232  31.796  1.00  0.00    -0.354 N 
ATOM     56  C   UNL A   1      37.460  31.780  29.915  1.00  0.00     0.074 A 
ATOM     57  C   UNL A   1      36.793  30.509  29.909  1.00  0.00     0.031 C 
ATOM     58  C   UNL A   1      42.918  28.666  31.985  1.00  0.00     0.029 A 
ATOM     59  C   UNL A   1      42.276  29.749  32.716  1.00  0.00     0.049 A 
ATOM     60  H   UNL A   1      40.854  31.070  31.933  1.00  0.00     0.167 HD
ATOM     61  C   UNL A   1      37.091  32.981  30.435  1.00  0.00     0.034 A 
ATOM     62  C   UNL A   1      42.426  30.170  34.004  1.00  0.00     0.034 A 
ATOM     63  C   UNL A   1      38.132  33.969  30.231  1.00  0.00     0.049 A 
ATOM     64  C   UNL A   1      41.848  31.542  34.066  1.00  0.00     0.074 A 
ATOM     65  C   UNL A   1      38.787  34.456  29.113  1.00  0.00     0.029 A 
ATOM     66  N   UNL A   1      38.936  34.303  31.301  1.00  0.00    -0.354 N 
ATOM     67  N   UNL A   1      42.358  32.558  33.421  1.00  0.00    -0.248 NA
ATOM     68  C   UNL A   1      40.434  31.674  34.395  1.00  0.00     0.031 C 
ATOM     69  C   UNL A   1      40.150  34.589  29.512  1.00  0.00     0.029 A 
ATOM     70  C   UNL A   1      40.241  34.276  30.870  1.00  0.00     0.049 A 
ATOM     71  H   UNL A   1      38.629  34.522  32.211  1.00  0.00     0.167 HD
ATOM     72  C   UNL A   1      41.271  33.231  32.882  1.00  0.00     0.074 A 
ATOM     73  C   UNL A   1      40.107  32.691  33.589  1.00  0.00     0.031 C 
ATOM     74  C   UNL A   1      41.374  33.936  31.716  1.00  0.00     0.034 A 
BRANCH  61  75
ATOM     75  C   UNL A   1      36.001  33.141  31.470  1.00  0.00     0.023 A 
ATOM     76  C   UNL A   1      34.955  34.021  31.148  1.00  0.00     0.031 A 
ATOM     77  C   UNL A   1      36.058  32.728  32.824  1.00  0.00     0.131 A 
ATOM     78  C   UNL A   1      34.118  34.542  32.147  1.00  0.00     0.055 A 
ATOM     79  C   UNL A   1      35.178  33.195  33.802  1.00  0.00     0.041 A 
ATOM     80  F   UNL A   1      37.012  31.928  33.312  1.00  0.00    -0.206 F 
ATOM     81  C   UNL A   1      34.223  34.137  33.474  1.00  0.00     0.022 A 
BRANCH  78  82
ATOM     82  S   UNL A   1      33.015  35.902  31.703  1.00  0.00     0.124 S 
ATOM     83  O   UNL A   1      32.955  35.765  30.252  1.00  0.00    -0.237 OA
ATOM     84  O   UNL A   1      31.802  35.552  32.435  1.00  0.00    -0.237 OA
ATOM     85  O   UNL A   1      33.722  37.082  32.194  1.00  0.00    -0.744 OA
ENDBRANCH  78  82
ENDBRANCH  61  75
BRANCH  62  86
ATOM     86  C   UNL A   1      42.662  29.315  35.208  1.00  0.00     0.023 A 
ATOM     87  C   UNL A   1      41.958  28.112  35.452  1.00  0.00     0.031 A 
ATOM     88  C   UNL A   1      43.785  29.556  36.033  1.00  0.00     0.131 A 
ATOM     89  C   UNL A   1      42.383  27.225  36.473  1.00  0.00     0.055 A 
ATOM     90  C   UNL A   1      44.199  28.679  37.039  1.00  0.00     0.041 A 
ATOM     91  F   UNL A   1      44.583  30.617  35.835  1.00  0.00    -0.206 F 
ATOM     92  C   UNL A   1      43.505  27.503  37.257  1.00  0.00     0.022 A 
BRANCH  89  93
ATOM     93  S   UNL A   1      41.534  25.632  36.750  1.00  0.00     0.124 S 
ATOM     94  O   UNL A   1      42.651  24.707  36.898  1.00  0.00    -0.237 OA
ATOM     95  O   UNL A   1      40.746  25.898  37.948  1.00  0.00    -0.237 OA
ATOM     96  O   UNL A   1      40.745  25.449  35.531  1.00  0.00    -0.744 OA
ENDBRANCH  89  93
ENDBRANCH  62  86
BRANCH  74  97
ATOM     97  C   UNL A   1      42.759  34.218  31.156  1.00  0.00     0.023 A 
ATOM     98  C   UNL A   1      43.405  33.462  30.150  1.00  0.00     0.031 A 
ATOM     99  C   UNL A   1      43.396  35.396  31.590  1.00  0.00     0.131 A 
ATOM    100  C   UNL A   1      44.645  33.890  29.630  1.00  0.00     0.055 A 
ATOM    101  C   UNL A   1      44.608  35.829  31.055  1.00  0.00     0.041 A 
ATOM    102  F   UNL A   1      42.825  36.173  32.526  1.00  0.00    -0.206 F 
ATOM    103  C   UNL A   1      45.241  35.074  30.076  1.00  0.00     0.022 A 
BRANCH 100 104
ATOM    104  S   UNL A   1      45.524  32.905  28.371  1.00  0.00     0.124 S 
ATOM    105  O   UNL A   1      46.924  33.028  28.758  1.00  0.00    -0.237 OA
ATOM    106  O   UNL A   1      44.928  31.583  28.532  1.00  0.00    -0.237 OA
ATOM    107  O   UNL A   1      45.179  33.576  27.115  1.00  0.00    -0.744 OA
ENDBRANCH 100 104
ENDBRANCH  74  97
ENDBRANCH  48  49
ENDBRANCH  41  43
ENDBRANCH  40  41
ENDBRANCH  39  40
ENDBRANCH  38  39
ENDBRANCH  37  38
ENDBRANCH   1  37
TORSDOF 24
ENDMDL
MODEL 2
REMARK VINA RESULT:     -11.7      2.040      2.329
REMARK SMILES COc1ccc(-c2[nH]nc3nc(-c4ccc(C(F)(F)F)cc4)cc(C(=O)OCCOCCOCCOC(=O)c4ccc(-c5c6nc(c(-c7cc(S(=O)(=O)[O-])ccc7F)c7ccc([nH]7)c(-c7cc(S(=O)(=O)[O-])ccc7F)c7nc(c(-c8cc(S(=O)(=O)[O-])ccc8F)c8ccc5[nH]8)C=C7)C=C6)cc4)c23)cc1
REMARK SMILES IDX 32 1 31 2 30 3 29 4 28 5 27 6 25 7 26 8 24 9 7 10 8 11
REMARK SMILES IDX 102 12 9 13 10 15 11 16 23 17 12 18 6 19 3 20 4 21 104 22
REMARK SMILES IDX 5 23 103 24 2 25 1 26 13 27 14 28 22 29 15 30 21 31 16 32
REMARK SMILES IDX 17 33 18 34 19 35 20 36 33 37 34 38 35 39 36 40 37 41 38 42
REMARK SMILES IDX 39 43 40 44 101 45 41 46 100 47 42 48 43 49 44 50 94 51
REMARK SMILES IDX 45 52 99 53 93 54 95 55 46 56 98 57 92 58 91 59 47 61 79 62
REMARK SMILES IDX 59 63 78 64 60 65 63 66 77 67 96 68 61 69 62 70 76 72 97 73
REMARK SMILES IDX 64 74 48 75 49 76 57 77 50 78 56 79 58 80 55 81 51 82 52 83
REMARK SMILES IDX 53 84 54 85 80 86 81 87 89 88 82 89 88 90 90 91 87 92 83 93
REMARK SMILES IDX 84 94 85 95 86 96 65 97 66 98 74 99 67 100 73 101 75 102
REMARK SMILES IDX 72 103 68 104 69 105 70 106 71 107
REMARK H PARENT 8 14 95 60 63 71
REMARK Flexibility Score: inf
ROOT
ATOM      1  C   UNL A   1      39.463  20.982  26.106  1.00  0.00     0.188 C 
ENDROOT
BRANCH   1   2
ATOM      2  C   UNL A   1      38.427  22.048  25.847  1.00  0.00     0.188 C 
BRANCH   2   3
ATOM      3  O   UNL A   1      37.223  21.682  25.196  1.00  0.00    -0.376 OA
BRANCH   3   4
ATOM      4  C   UNL A   1      36.996  22.373  23.959  1.00  0.00     0.202 C 
BRANCH   4   5
ATOM      5  C   UNL A   1      35.563  22.885  23.642  1.00  0.00     0.261 C 
BRANCH   5   6
ATOM      6  O   UNL A   1      35.159  24.137  24.252  1.00  0.00    -0.460 OA
BRANCH   6   7
ATOM      7  C   UNL A   1      34.238  24.916  23.624  1.00  0.00     0.339 C 
ATOM      8  O   UNL A   1      34.063  24.948  22.431  1.00  0.00    -0.246 OA
BRANCH   7   9
ATOM      9  C   UNL A   1      33.434  25.628  24.665  1.00  0.00     0.075 A 
ATOM     10  C   UNL A   1      31.632  23.933  25.245  1.00  0.00     0.075 A 
ATOM     11  N   UNL A   1      30.472  24.101  25.969  1.00  0.00    -0.275 N 
ATOM     12  C   UNL A   1      32.235  25.183  25.251  1.00  0.00     0.061 A 
ATOM     13  N   UNL A   1      30.352  25.294  26.565  1.00  0.00    -0.154 NA
ATOM     14  H   UNL A   1      29.786  23.399  26.044  1.00  0.00     0.190 HD
ATOM     15  C   UNL A   1      31.460  25.934  26.203  1.00  0.00     0.182 A 
ATOM     16  N   UNL A   1      31.851  27.138  26.682  1.00  0.00    -0.226 NA
ATOM     17  C   UNL A   1      33.832  26.861  25.240  1.00  0.00     0.045 A 
ATOM     18  C   UNL A   1      33.055  27.557  26.211  1.00  0.00     0.074 A 
BRANCH  10  19
ATOM     19  C   UNL A   1      32.040  22.587  24.861  1.00  0.00     0.001 A 
ATOM     20  C   UNL A   1      32.769  19.994  24.046  1.00  0.00     0.118 A 
ATOM     21  C   UNL A   1      32.996  20.425  25.357  1.00  0.00     0.047 A 
ATOM     22  C   UNL A   1      32.222  20.884  23.125  1.00  0.00     0.047 A 
ATOM     23  C   UNL A   1      32.644  21.717  25.763  1.00  0.00     0.014 A 
ATOM     24  C   UNL A   1      31.866  22.174  23.531  1.00  0.00     0.014 A 
BRANCH  20  25
ATOM     25  O   UNL A   1      33.116  18.695  23.800  1.00  0.00    -0.497 OA
ATOM     26  C   UNL A   1      32.369  17.688  24.476  1.00  0.00     0.278 C 
ENDBRANCH  20  25
ENDBRANCH  10  19
BRANCH  18  27
ATOM     27  C   UNL A   1      33.484  28.870  26.758  1.00  0.00     0.000 A 
ATOM     28  C   UNL A   1      34.747  29.046  27.358  1.00  0.00     0.011 A 
ATOM     29  C   UNL A   1      32.617  29.975  26.755  1.00  0.00     0.011 A 
ATOM     30  C   UNL A   1      35.121  30.268  27.941  1.00  0.00     0.014 A 
ATOM     31  C   UNL A   1      32.982  31.195  27.339  1.00  0.00     0.014 A 
ATOM     32  C   UNL A   1      34.235  31.354  27.946  1.00  0.00     0.056 A 
BRANCH  32  33
ATOM     33  C   UNL A   1      34.612  32.656  28.609  1.00  0.00     0.416 C 
ATOM     34  F   UNL A   1      33.752  33.669  28.308  1.00  0.00    -0.166 F 
ATOM     35  F   UNL A   1      34.635  32.575  29.968  1.00  0.00    -0.166 F 
ATOM     36  F   UNL A   1      35.848  33.110  28.247  1.00  0.00    -0.166 F 
ENDBRANCH  32  33
ENDBRANCH  18  27
ENDBRANCH   7   9
ENDBRANCH   6   7
ENDBRANCH   5   6
ENDBRANCH   4   5
ENDBRANCH   3   4
ENDBRANCH   2   3
ENDBRANCH   1   2
BRANCH   1  37
ATOM     37  O   UNL A   1      40.767  21.486  26.390  1.00  0.00    -0.376 OA
BRANCH  37  38
ATOM     38  C   UNL A   1      40.937  22.239  27.590  1.00  0.00     0.202 C 
BRANCH  38  39
ATOM     39  C   UNL A   1      41.475  23.661  27.455  1.00  0.00     0.261 C 
BRANCH  39  40
ATOM     40  O   UNL A   1      40.663  24.644  28.071  1.00  0.00    -0.460 OA
BRANCH  40  41
ATOM     41  C   UNL A   1      40.180  25.553  27.192  1.00  0.00     0.338 C 
ATOM     42  O   UNL A   1      40.317  25.557  25.979  1.00  0.00    -0.246 OA
BRANCH  41  43
ATOM     43  C   UNL A   1      39.498  26.617  27.931  1.00  0.00     0.060 A 
ATOM     44  C   UNL A   1      39.577  27.885  27.354  1.00  0.00     0.016 A 
ATOM     45  C   UNL A   1      39.264  26.414  29.296  1.00  0.00     0.016 A 
ATOM     46  C   UNL A   1      39.783  28.944  28.199  1.00  0.00     0.010 A 
ATOM     47  C   UNL A   1      39.495  27.469  30.137  1.00  0.00     0.010 A 
ATOM     48  C   UNL A   1      39.869  28.684  29.570  1.00  0.00    -0.014 A 
BRANCH  48  49
ATOM     49  C   UNL A   1      40.295  29.756  30.434  1.00  0.00     0.031 A 
ATOM     50  C   UNL A   1      39.178  30.656  30.756  1.00  0.00     0.074 A 
ATOM     51  C   UNL A   1      41.543  29.844  30.930  1.00  0.00     0.049 A 
ATOM     52  N   UNL A   1      38.960  31.828  30.264  1.00  0.00    -0.248 NA
ATOM     53  C   UNL A   1      38.036  30.092  31.495  1.00  0.00     0.031 C 
ATOM     54  C   UNL A   1      42.634  28.873  30.845  1.00  0.00     0.029 A 
ATOM     55  N   UNL A   1      42.068  30.820  31.713  1.00  0.00    -0.354 N 
ATOM     56  C   UNL A   1      37.790  32.256  30.868  1.00  0.00     0.074 A 
ATOM     57  C   UNL A   1      37.145  31.074  31.365  1.00  0.00     0.031 C 
ATOM     58  C   UNL A   1      43.593  29.204  31.745  1.00  0.00     0.029 A 
ATOM     59  C   UNL A   1      43.239  30.467  32.374  1.00  0.00     0.049 A 
ATOM     60  H   UNL A   1      41.652  31.707  31.805  1.00  0.00     0.167 HD
ATOM     61  C   UNL A   1      37.625  33.567  31.190  1.00  0.00     0.034 A 
ATOM     62  C   UNL A   1      43.809  31.139  33.416  1.00  0.00     0.034 A 
ATOM     63  C   UNL A   1      38.550  34.398  30.445  1.00  0.00     0.049 A 
ATOM     64  C   UNL A   1      43.297  32.536  33.343  1.00  0.00     0.074 A 
ATOM     65  C   UNL A   1      38.805  34.579  29.097  1.00  0.00     0.029 A 
ATOM     66  N   UNL A   1      39.665  34.883  31.097  1.00  0.00    -0.354 N 
ATOM     67  N   UNL A   1      43.577  33.345  32.356  1.00  0.00    -0.248 NA
ATOM     68  C   UNL A   1      42.072  32.854  34.067  1.00  0.00     0.031 C 
ATOM     69  C   UNL A   1      40.224  34.679  29.000  1.00  0.00     0.029 A 
ATOM     70  C   UNL A   1      40.755  34.654  30.291  1.00  0.00     0.049 A 
ATOM     71  H   UNL A   1      39.677  35.315  31.982  1.00  0.00     0.167 HD
ATOM     72  C   UNL A   1      42.379  33.978  32.053  1.00  0.00     0.074 A 
ATOM     73  C   UNL A   1      41.508  33.700  33.197  1.00  0.00     0.031 C 
ATOM     74  C   UNL A   1      42.100  34.408  30.786  1.00  0.00     0.034 A 
BRANCH  61  75
ATOM     75  C   UNL A   1      36.938  34.034  32.453  1.00  0.00     0.023 A 
ATOM     76  C   UNL A   1      37.547  33.676  33.667  1.00  0.00     0.031 A 
ATOM     77  C   UNL A   1      35.619  34.540  32.556  1.00  0.00     0.131 A 
ATOM     78  C   UNL A   1      36.826  33.706  34.870  1.00  0.00     0.055 A 
ATOM     79  C   UNL A   1      34.930  34.634  33.767  1.00  0.00     0.041 A 
ATOM     80  F   UNL A   1      34.877  34.888  31.499  1.00  0.00    -0.206 F 
ATOM     81  C   UNL A   1      35.520  34.181  34.930  1.00  0.00     0.022 A 
BRANCH  78  82
ATOM     82  S   UNL A   1      37.572  32.933  36.323  1.00  0.00     0.124 S 
ATOM     83  O   UNL A   1      36.587  33.240  37.353  1.00  0.00    -0.237 OA
ATOM     84  O   UNL A   1      37.656  31.537  35.906  1.00  0.00    -0.237 OA
ATOM     85  O   UNL A   1      38.852  33.624  36.452  1.00  0.00    -0.744 OA
ENDBRANCH  78  82
ENDBRANCH  61  75
BRANCH  62  86
ATOM     86  C   UNL A   1      44.420  30.541  34.644  1.00  0.00     0.023 A 
ATOM     87  C   UNL A   1      43.867  29.428  35.318  1.00  0.00     0.031 A 
ATOM     88  C   UNL A   1      45.723  30.923  35.037  1.00  0.00     0.131 A 
ATOM     89  C   UNL A   1      44.607  28.758  36.327  1.00  0.00     0.055 A 
ATOM     90  C   UNL A   1      46.447  30.261  36.032  1.00  0.00     0.041 A 
ATOM     91  F   UNL A   1      46.385  31.906  34.407  1.00  0.00    -0.206 F 
ATOM     92  C   UNL A   1      45.896  29.167  36.675  1.00  0.00     0.022 A 
BRANCH  89  93
ATOM     93  S   UNL A   1      43.941  27.272  37.153  1.00  0.00     0.124 S 
ATOM     94  O   UNL A   1      44.472  26.194  36.327  1.00  0.00    -0.237 OA
ATOM     95  O   UNL A   1      44.487  27.388  38.500  1.00  0.00    -0.237 OA
ATOM     96  O   UNL A   1      42.491  27.453  37.065  1.00  0.00    -0.744 OA
ENDBRANCH  89  93
ENDBRANCH  62  86
BRANCH  74  97
ATOM     97  C   UNL A   1      43.226  34.447  29.765  1.00  0.00     0.023 A 
ATOM     98  C   UNL A   1      43.566  33.396  28.881  1.00  0.00     0.031 A 
ATOM     99  C   UNL A   1      43.903  35.670  29.609  1.00  0.00     0.131 A 
ATOM    100  C   UNL A   1      44.560  33.593  27.899  1.00  0.00     0.055 A 
ATOM    101  C   UNL A   1      44.865  35.868  28.619  1.00  0.00     0.041 A 
ATOM    102  F   UNL A   1      43.611  36.717  30.399  1.00  0.00    -0.206 F 
ATOM    103  C   UNL A   1      45.201  34.828  27.763  1.00  0.00     0.022 A 
BRANCH 100 104
ATOM    104  S   UNL A   1      45.055  32.238  26.782  1.00  0.00     0.124 S 
ATOM    105  O   UNL A   1      43.852  31.987  25.996  1.00  0.00    -0.237 OA
ATOM    106  O   UNL A   1      46.182  32.819  26.061  1.00  0.00    -0.237 OA
ATOM    107  O   UNL A   1      45.416  31.156  27.701  1.00  0.00    -0.744 OA
ENDBRANCH 100 104
ENDBRANCH  74  97
ENDBRANCH  48  49
ENDBRANCH  41  43
ENDBRANCH  40  41
ENDBRANCH  39  40
ENDBRANCH  38  39
ENDBRANCH  37  38
ENDBRANCH   1  37
TORSDOF 24
ENDMDL
MODEL 3
REMARK VINA RESULT:     -11.5      4.301      6.922
REMARK SMILES COc1ccc(-c2[nH]nc3nc(-c4ccc(C(F)(F)F)cc4)cc(C(=O)OCCOCCOCCOC(=O)c4ccc(-c5c6nc(c(-c7cc(S(=O)(=O)[O-])ccc7F)c7ccc([nH]7)c(-c7cc(S(=O)(=O)[O-])ccc7F)c7nc(c(-c8cc(S(=O)(=O)[O-])ccc8F)c8ccc5[nH]8)C=C7)C=C6)cc4)c23)cc1
REMARK SMILES IDX 32 1 31 2 30 3 29 4 28 5 27 6 25 7 26 8 24 9 7 10 8 11
REMARK SMILES IDX 102 12 9 13 10 15 11 16 23 17 12 18 6 19 3 20 4 21 104 22
REMARK SMILES IDX 5 23 103 24 2 25 1 26 13 27 14 28 22 29 15 30 21 31 16 32
REMARK SMILES IDX 17 33 18 34 19 35 20 36 33 37 34 38 35 39 36 40 37 41 38 42
REMARK SMILES IDX 39 43 40 44 101 45 41 46 100 47 42 48 43 49 44 50 94 51
REMARK SMILES IDX 45 52 99 53 93 54 95 55 46 56 98 57 92 58 91 59 47 61 79 62
REMARK SMILES IDX 59 63 78 64 60 65 63 66 77 67 96 68 61 69 62 70 76 72 97 73
REMARK SMILES IDX 64 74 48 75 49 76 57 77 50 78 56 79 58 80 55 81 51 82 52 83
REMARK SMILES IDX 53 84 54 85 80 86 81 87 89 88 82 89 88 90 90 91 87 92 83 93
REMARK SMILES IDX 84 94 85 95 86 96 65 97 66 98 74 99 67 100 73 101 75 102
REMARK SMILES IDX 72 103 68 104 69 105 70 106 71 107
REMARK H PARENT 8 14 95 60 63 71
REMARK Flexibility Score: inf
ROOT
ATOM      1  C   UNL A   1      35.655  22.487  24.695  1.00  0.00     0.188 C 
ENDROOT
BRANCH   1   2
ATOM      2  C   UNL A   1      35.765  23.986  24.829  1.00  0.00     0.188 C 
BRANCH   2   3
ATOM      3  O   UNL A   1      34.923  24.649  25.755  1.00  0.00    -0.376 OA
BRANCH   3   4
ATOM      4  C   UNL A   1      34.225  25.776  25.204  1.00  0.00     0.202 C 
BRANCH   4   5
ATOM      5  C   UNL A   1      34.245  25.989  23.665  1.00  0.00     0.261 C 
BRANCH   5   6
ATOM      6  O   UNL A   1      33.002  26.392  23.038  1.00  0.00    -0.460 OA
BRANCH   6   7
ATOM      7  C   UNL A   1      32.217  25.449  22.451  1.00  0.00     0.339 C 
ATOM      8  O   UNL A   1      31.945  25.414  21.277  1.00  0.00    -0.246 OA
BRANCH   7   9
ATOM      9  C   UNL A   1      31.849  24.432  23.485  1.00  0.00     0.075 A 
ATOM     10  C   UNL A   1      30.256  25.711  24.996  1.00  0.00     0.075 A 
ATOM     11  N   UNL A   1      29.769  25.375  26.240  1.00  0.00    -0.275 N 
ATOM     12  C   UNL A   1      31.073  24.648  24.638  1.00  0.00     0.061 A 
ATOM     13  N   UNL A   1      30.074  24.135  26.644  1.00  0.00    -0.154 NA
ATOM     14  H   UNL A   1      29.238  25.997  26.789  1.00  0.00     0.190 HD
ATOM     15  C   UNL A   1      30.800  23.652  25.640  1.00  0.00     0.182 A 
ATOM     16  N   UNL A   1      31.218  22.370  25.535  1.00  0.00    -0.226 NA
ATOM     17  C   UNL A   1      32.213  23.066  23.388  1.00  0.00     0.045 A 
ATOM     18  C   UNL A   1      31.889  22.098  24.384  1.00  0.00     0.074 A 
BRANCH  10  19
ATOM     19  C   UNL A   1      29.700  26.869  24.305  1.00  0.00     0.001 A 
ATOM     20  C   UNL A   1      28.695  29.158  23.012  1.00  0.00     0.118 A 
ATOM     21  C   UNL A   1      27.899  28.021  23.181  1.00  0.00     0.047 A 
ATOM     22  C   UNL A   1      30.018  29.129  23.446  1.00  0.00     0.047 A 
ATOM     23  C   UNL A   1      28.398  26.877  23.815  1.00  0.00     0.014 A 
ATOM     24  C   UNL A   1      30.517  27.988  24.084  1.00  0.00     0.014 A 
BRANCH  20  25
ATOM     25  O   UNL A   1      28.066  30.218  22.421  1.00  0.00    -0.497 OA
ATOM     26  C   UNL A   1      27.443  31.162  23.286  1.00  0.00     0.278 C 
ENDBRANCH  20  25
ENDBRANCH  10  19
BRANCH  18  27
ATOM     27  C   UNL A   1      32.327  20.683  24.269  1.00  0.00     0.000 A 
ATOM     28  C   UNL A   1      32.918  20.000  25.351  1.00  0.00     0.011 A 
ATOM     29  C   UNL A   1      32.226  19.990  23.052  1.00  0.00     0.011 A 
ATOM     30  C   UNL A   1      33.399  18.687  25.217  1.00  0.00     0.014 A 
ATOM     31  C   UNL A   1      32.708  18.682  22.912  1.00  0.00     0.014 A 
ATOM     32  C   UNL A   1      33.307  18.018  23.990  1.00  0.00     0.056 A 
BRANCH  32  33
ATOM     33  C   UNL A   1      33.861  16.623  23.826  1.00  0.00     0.416 C 
ATOM     34  F   UNL A   1      32.949  15.656  24.126  1.00  0.00    -0.166 F 
ATOM     35  F   UNL A   1      34.281  16.362  22.558  1.00  0.00    -0.166 F 
ATOM     36  F   UNL A   1      34.937  16.371  24.629  1.00  0.00    -0.166 F 
ENDBRANCH  32  33
ENDBRANCH  18  27
ENDBRANCH   7   9
ENDBRANCH   6   7
ENDBRANCH   5   6
ENDBRANCH   4   5
ENDBRANCH   3   4
ENDBRANCH   2   3
ENDBRANCH   1   2
BRANCH   1  37
ATOM     37  O   UNL A   1      36.459  21.754  25.617  1.00  0.00    -0.376 OA
BRANCH  37  38
ATOM     38  C   UNL A   1      37.860  22.021  25.631  1.00  0.00     0.202 C 
BRANCH  38  39
ATOM     39  C   UNL A   1      38.802  20.828  25.497  1.00  0.00     0.261 C 
BRANCH  39  40
ATOM     40  O   UNL A   1      39.734  20.710  26.557  1.00  0.00    -0.460 OA
BRANCH  40  41
ATOM     41  C   UNL A   1      40.939  20.252  26.149  1.00  0.00     0.338 C 
ATOM     42  O   UNL A   1      41.182  19.188  25.598  1.00  0.00    -0.246 OA
BRANCH  41  43
ATOM     43  C   UNL A   1      41.973  21.214  26.533  1.00  0.00     0.060 A 
ATOM     44  C   UNL A   1      42.410  21.120  27.855  1.00  0.00     0.016 A 
ATOM     45  C   UNL A   1      42.084  22.386  25.775  1.00  0.00     0.016 A 
ATOM     46  C   UNL A   1      42.624  22.295  28.528  1.00  0.00     0.010 A 
ATOM     47  C   UNL A   1      42.272  23.559  26.455  1.00  0.00     0.010 A 
ATOM     48  C   UNL A   1      42.418  23.494  27.838  1.00  0.00    -0.014 A 
BRANCH  48  49
ATOM     49  C   UNL A   1      42.434  24.719  28.598  1.00  0.00     0.031 A 
ATOM     50  C   UNL A   1      41.178  25.465  28.431  1.00  0.00     0.074 A 
ATOM     51  C   UNL A   1      43.451  25.063  29.410  1.00  0.00     0.049 A 
ATOM     52  N   UNL A   1      40.992  26.517  27.710  1.00  0.00    -0.248 NA
ATOM     53  C   UNL A   1      39.935  24.824  28.894  1.00  0.00     0.031 C 
ATOM     54  C   UNL A   1      44.617  24.272  29.805  1.00  0.00     0.029 A 
ATOM     55  N   UNL A   1      43.596  26.199  30.137  1.00  0.00    -0.354 N 
ATOM     56  C   UNL A   1      39.653  26.828  27.873  1.00  0.00     0.074 A 
ATOM     57  C   UNL A   1      39.023  25.630  28.352  1.00  0.00     0.031 C 
ATOM     58  C   UNL A   1      45.209  24.859  30.875  1.00  0.00     0.029 A 
ATOM     59  C   UNL A   1      44.538  26.120  31.157  1.00  0.00     0.049 A 
ATOM     60  H   UNL A   1      43.074  27.014  29.958  1.00  0.00     0.167 HD
ATOM     61  C   UNL A   1      39.250  28.126  27.911  1.00  0.00     0.034 A 
ATOM     62  C   UNL A   1      44.681  26.997  32.192  1.00  0.00     0.034 A 
ATOM     63  C   UNL A   1      40.260  28.993  27.336  1.00  0.00     0.049 A 
ATOM     64  C   UNL A   1      44.062  28.276  31.744  1.00  0.00     0.074 A 
ATOM     65  C   UNL A   1      40.896  29.043  26.108  1.00  0.00     0.029 A 
ATOM     66  N   UNL A   1      41.058  29.725  28.192  1.00  0.00    -0.354 N 
ATOM     67  N   UNL A   1      44.540  28.990  30.759  1.00  0.00    -0.248 NA
ATOM     68  C   UNL A   1      42.647  28.485  32.021  1.00  0.00     0.031 C 
ATOM     69  C   UNL A   1      42.255  29.352  26.408  1.00  0.00     0.029 A 
ATOM     70  C   UNL A   1      42.362  29.572  27.782  1.00  0.00     0.049 A 
ATOM     71  H   UNL A   1      40.749  30.260  28.958  1.00  0.00     0.167 HD
ATOM     72  C   UNL A   1      43.430  29.384  30.024  1.00  0.00     0.074 A 
ATOM     73  C   UNL A   1      42.286  29.117  30.899  1.00  0.00     0.031 C 
ATOM     74  C   UNL A   1      43.507  29.604  28.677  1.00  0.00     0.034 A 
BRANCH  61  75
ATOM     75  C   UNL A   1      38.160  28.633  28.827  1.00  0.00     0.023 A 
ATOM     76  C   UNL A   1      37.187  29.463  28.245  1.00  0.00     0.031 A 
ATOM     77  C   UNL A   1      38.167  28.599  30.243  1.00  0.00     0.131 A 
ATOM     78  C   UNL A   1      36.377  30.290  29.039  1.00  0.00     0.055 A 
ATOM     79  C   UNL A   1      37.310  29.372  31.029  1.00  0.00     0.041 A 
ATOM     80  F   UNL A   1      39.050  27.897  30.960  1.00  0.00    -0.206 F 
ATOM     81  C   UNL A   1      36.432  30.253  30.428  1.00  0.00     0.022 A 
BRANCH  78  82
ATOM     82  S   UNL A   1      35.385  31.551  28.209  1.00  0.00     0.124 S 
ATOM     83  O   UNL A   1      34.578  32.058  29.313  1.00  0.00    -0.237 OA
ATOM     84  O   UNL A   1      36.415  32.449  27.696  1.00  0.00    -0.237 OA
ATOM     85  O   UNL A   1      34.657  30.793  27.195  1.00  0.00    -0.744 OA
ENDBRANCH  78  82
ENDBRANCH  61  75
BRANCH  62  86
ATOM     86  C   UNL A   1      44.948  26.660  33.625  1.00  0.00     0.023 A 
ATOM     87  C   UNL A   1      43.956  26.724  34.631  1.00  0.00     0.031 A 
ATOM     88  C   UNL A   1      46.158  26.024  33.984  1.00  0.00     0.131 A 
ATOM     89  C   UNL A   1      44.198  26.171  35.915  1.00  0.00     0.055 A 
ATOM     90  C   UNL A   1      46.392  25.482  35.250  1.00  0.00     0.041 A 
ATOM     91  F   UNL A   1      47.136  25.823  33.086  1.00  0.00    -0.206 F 
ATOM     92  C   UNL A   1      45.407  25.543  36.219  1.00  0.00     0.022 A 
BRANCH  89  93
ATOM     93  S   UNL A   1      42.901  26.175  37.201  1.00  0.00     0.124 S 
ATOM     94  O   UNL A   1      42.258  27.466  36.989  1.00  0.00    -0.237 OA
ATOM     95  O   UNL A   1      42.116  24.994  36.861  1.00  0.00    -0.237 OA
ATOM     96  O   UNL A   1      43.658  26.065  38.449  1.00  0.00    -0.744 OA
ENDBRANCH  89  93
ENDBRANCH  62  86
BRANCH  74  97
ATOM     97  C   UNL A   1      44.881  29.691  28.031  1.00  0.00     0.023 A 
ATOM     98  C   UNL A   1      45.537  28.636  27.354  1.00  0.00     0.031 A 
ATOM     99  C   UNL A   1      45.494  30.958  28.004  1.00  0.00     0.131 A 
ATOM    100  C   UNL A   1      46.762  28.872  26.696  1.00  0.00     0.055 A 
ATOM    101  C   UNL A   1      46.691  31.192  27.330  1.00  0.00     0.041 A 
ATOM    102  F   UNL A   1      44.912  32.009  28.607  1.00  0.00    -0.206 F 
ATOM    103  C   UNL A   1      47.334  30.149  26.677  1.00  0.00     0.022 A 
BRANCH 100 104
ATOM    104  S   UNL A   1      47.654  27.518  25.861  1.00  0.00     0.124 S 
ATOM    105  O   UNL A   1      48.075  26.658  26.961  1.00  0.00    -0.237 OA
ATOM    106  O   UNL A   1      46.634  26.969  24.973  1.00  0.00    -0.237 OA
ATOM    107  O   UNL A   1      48.749  28.206  25.173  1.00  0.00    -0.744 OA
ENDBRANCH 100 104
ENDBRANCH  74  97
ENDBRANCH  48  49
ENDBRANCH  41  43
ENDBRANCH  40  41
ENDBRANCH  39  40
ENDBRANCH  38  39
ENDBRANCH  37  38
ENDBRANCH   1  37
TORSDOF 24
ENDMDL
