MODEL 1
REMARK VINA RESULT:      -8.6      0.000      0.000
REMARK SMILES COc1cccc([C@@H]2CN(C(=O)CCSC)C[C@H]2C(=O)OCCOCCOCCOC(=O)c2ccc(-c3c4nc(c(-c5cc(S(=O)(=O)[O-])ccc5F)c5ccc([nH]5)c(-c5cc(S(=O)(=O)[O-])ccc5F)c5nc(c(-c6cc(S(=O)(=O)[O-])ccc6F)c6ccc3[nH]6)C=C5)C=C4)cc2)c1OC
REMARK SMILES IDX 25 1 24 2 23 3 22 4 21 5 19 6 20 7 18 8 8 9 9 10 10 11 17 12
REMARK SMILES IDX 7 13 3 14 4 15 96 16 5 17 6 18 2 19 1 20 97 21 98 22 11 23
REMARK SMILES IDX 12 24 13 25 14 26 15 27 16 28 26 29 27 30 28 31 29 32 30 33
REMARK SMILES IDX 31 34 32 35 33 36 34 37 95 38 35 39 94 40 36 41 37 42 38 43
REMARK SMILES IDX 88 44 39 45 93 46 87 47 89 48 40 49 92 50 86 51 85 52 41 54
REMARK SMILES IDX 73 55 53 56 72 57 54 58 57 59 71 60 90 61 55 62 56 63 70 65
REMARK SMILES IDX 91 66 58 67 42 68 43 69 51 70 44 71 50 72 52 73 49 74 45 75
REMARK SMILES IDX 46 76 47 77 48 78 74 79 75 80 83 81 76 82 82 83 84 84 81 85
REMARK SMILES IDX 77 86 78 87 79 88 80 89 59 90 60 91 68 92 61 93 67 94 69 95
REMARK SMILES IDX 66 96 62 97 63 98 64 99 65 100
REMARK H PARENT 89 53 57 64
REMARK Flexibility Score: inf
ROOT
ATOM      1  C   UNL A   1      41.245  21.949  26.193  1.00  0.00     0.188 C 
ENDROOT
BRANCH   1   2
ATOM      2  O   UNL A   1      39.897  21.983  26.641  1.00  0.00    -0.376 OA
BRANCH   2   3
ATOM      3  C   UNL A   1      38.885  22.491  25.786  1.00  0.00     0.202 C 
BRANCH   3   4
ATOM      4  C   UNL A   1      37.596  21.674  25.664  1.00  0.00     0.261 C 
BRANCH   4   5
ATOM      5  O   UNL A   1      36.650  22.164  24.684  1.00  0.00    -0.463 OA
BRANCH   5   6
ATOM      6  C   UNL A   1      35.710  23.022  25.157  1.00  0.00     0.311 C 
ATOM      7  O   UNL A   1      35.976  24.088  25.705  1.00  0.00    -0.252 OA
BRANCH   6   8
ATOM      8  C   UNL A   1      34.281  22.522  25.090  1.00  0.00     0.128 C 
ATOM      9  C   UNL A   1      33.271  23.033  24.032  1.00  0.00     0.059 C 
ATOM     10  C   UNL A   1      32.503  21.783  23.573  1.00  0.00     0.129 C 
ATOM     11  N   UNL A   1      33.193  20.636  24.118  1.00  0.00    -0.341 N 
ATOM     12  C   UNL A   1      34.364  21.017  24.873  1.00  0.00     0.135 C 
BRANCH   9  13
ATOM     13  C   UNL A   1      32.224  24.092  24.424  1.00  0.00     0.004 A 
ATOM     14  C   UNL A   1      31.248  26.344  24.376  1.00  0.00     0.161 A 
ATOM     15  C   UNL A   1      30.436  26.024  25.468  1.00  0.00     0.050 A 
ATOM     16  C   UNL A   1      32.160  25.396  23.867  1.00  0.00     0.164 A 
ATOM     17  C   UNL A   1      30.516  24.760  26.048  1.00  0.00     0.004 A 
ATOM     18  C   UNL A   1      31.394  23.805  25.530  1.00  0.00     0.008 A 
BRANCH  14  19
ATOM     19  O   UNL A   1      31.279  27.651  23.956  1.00  0.00    -0.493 OA
ATOM     20  C   UNL A   1      30.229  27.964  23.038  1.00  0.00     0.278 C 
ENDBRANCH  14  19
BRANCH  16  21
ATOM     21  O   UNL A   1      33.126  25.692  22.941  1.00  0.00    -0.493 OA
ATOM     22  C   UNL A   1      32.768  25.635  21.564  1.00  0.00     0.278 C 
ENDBRANCH  16  21
ENDBRANCH   9  13
BRANCH  11  23
ATOM     23  C   UNL A   1      32.815  19.320  24.017  1.00  0.00     0.223 C 
ATOM     24  O   UNL A   1      32.397  18.844  22.959  1.00  0.00    -0.275 OA
BRANCH  23  25
ATOM     25  C   UNL A   1      32.935  18.444  25.246  1.00  0.00     0.111 C 
BRANCH  25  26
ATOM     26  C   UNL A   1      32.250  17.098  25.034  1.00  0.00     0.079 C 
BRANCH  26  27
ATOM     27  S   UNL A   1      33.313  15.671  25.437  1.00  0.00    -0.165 SA
ATOM     28  C   UNL A   1      34.929  16.354  24.991  1.00  0.00     0.085 C 
ENDBRANCH  26  27
ENDBRANCH  25  26
ENDBRANCH  23  25
ENDBRANCH  11  23
ENDBRANCH   6   8
ENDBRANCH   5   6
ENDBRANCH   4   5
ENDBRANCH   3   4
ENDBRANCH   2   3
ENDBRANCH   1   2
BRANCH   1  29
ATOM     29  C   UNL A   1      42.003  20.617  26.167  1.00  0.00     0.188 C 
BRANCH  29  30
ATOM     30  O   UNL A   1      43.407  20.728  26.009  1.00  0.00    -0.376 OA
BRANCH  30  31
ATOM     31  C   UNL A   1      43.856  22.013  25.602  1.00  0.00     0.202 C 
BRANCH  31  32
ATOM     32  C   UNL A   1      44.829  22.595  26.632  1.00  0.00     0.261 C 
BRANCH  32  33
ATOM     33  O   UNL A   1      46.116  22.938  26.081  1.00  0.00    -0.460 OA
BRANCH  33  34
ATOM     34  C   UNL A   1      46.115  23.986  25.229  1.00  0.00     0.338 C 
ATOM     35  O   UNL A   1      46.205  23.934  24.008  1.00  0.00    -0.246 OA
BRANCH  34  36
ATOM     36  C   UNL A   1      45.776  25.208  25.973  1.00  0.00     0.060 A 
ATOM     37  C   UNL A   1      46.710  25.700  26.885  1.00  0.00     0.016 A 
ATOM     38  C   UNL A   1      44.527  25.813  25.858  1.00  0.00     0.016 A 
ATOM     39  C   UNL A   1      46.382  26.747  27.737  1.00  0.00     0.010 A 
ATOM     40  C   UNL A   1      44.195  26.866  26.723  1.00  0.00     0.010 A 
ATOM     41  C   UNL A   1      45.104  27.306  27.704  1.00  0.00    -0.014 A 
BRANCH  41  42
ATOM     42  C   UNL A   1      44.662  28.151  28.846  1.00  0.00     0.031 A 
ATOM     43  C   UNL A   1      44.506  29.631  28.610  1.00  0.00     0.074 A 
ATOM     44  C   UNL A   1      44.291  27.631  30.032  1.00  0.00     0.049 A 
ATOM     45  N   UNL A   1      44.298  30.597  29.467  1.00  0.00    -0.248 NA
ATOM     46  C   UNL A   1      44.591  30.075  27.211  1.00  0.00     0.031 C 
ATOM     47  C   UNL A   1      44.236  26.206  30.356  1.00  0.00     0.029 A 
ATOM     48  N   UNL A   1      43.883  28.253  31.188  1.00  0.00    -0.354 N 
ATOM     49  C   UNL A   1      44.276  31.768  28.717  1.00  0.00     0.074 A 
ATOM     50  C   UNL A   1      44.494  31.389  27.337  1.00  0.00     0.031 C 
ATOM     51  C   UNL A   1      43.827  26.064  31.629  1.00  0.00     0.029 A 
ATOM     52  C   UNL A   1      43.663  27.386  32.234  1.00  0.00     0.049 A 
ATOM     53  H   UNL A   1      43.760  29.227  31.260  1.00  0.00     0.167 HD
ATOM     54  C   UNL A   1      44.099  33.044  29.140  1.00  0.00     0.034 A 
ATOM     55  C   UNL A   1      43.413  27.631  33.537  1.00  0.00     0.034 A 
ATOM     56  C   UNL A   1      43.863  33.408  30.515  1.00  0.00     0.049 A 
ATOM     57  C   UNL A   1      43.338  29.066  34.015  1.00  0.00     0.074 A 
ATOM     58  C   UNL A   1      43.723  34.670  31.063  1.00  0.00     0.029 A 
ATOM     59  N   UNL A   1      43.722  32.504  31.560  1.00  0.00    -0.354 N 
ATOM     60  N   UNL A   1      43.438  30.177  33.321  1.00  0.00    -0.248 NA
ATOM     61  C   UNL A   1      43.128  29.277  35.454  1.00  0.00     0.031 C 
ATOM     62  C   UNL A   1      43.556  34.534  32.446  1.00  0.00     0.029 A 
ATOM     63  C   UNL A   1      43.515  33.183  32.751  1.00  0.00     0.049 A 
ATOM     64  H   UNL A   1      43.764  31.525  31.469  1.00  0.00     0.167 HD
ATOM     65  C   UNL A   1      43.271  31.214  34.238  1.00  0.00     0.074 A 
ATOM     66  C   UNL A   1      43.052  30.597  35.529  1.00  0.00     0.031 C 
ATOM     67  C   UNL A   1      43.293  32.556  34.032  1.00  0.00     0.034 A 
BRANCH  54  68
ATOM     68  C   UNL A   1      44.247  34.134  28.109  1.00  0.00     0.023 A 
ATOM     69  C   UNL A   1      45.490  34.464  27.544  1.00  0.00     0.031 A 
ATOM     70  C   UNL A   1      43.127  34.897  27.733  1.00  0.00     0.131 A 
ATOM     71  C   UNL A   1      45.597  35.576  26.694  1.00  0.00     0.055 A 
ATOM     72  C   UNL A   1      43.225  35.950  26.822  1.00  0.00     0.041 A 
ATOM     73  F   UNL A   1      41.920  34.645  28.264  1.00  0.00    -0.206 F 
ATOM     74  C   UNL A   1      44.468  36.305  26.309  1.00  0.00     0.022 A 
BRANCH  71  75
ATOM     75  S   UNL A   1      47.251  36.151  26.223  1.00  0.00     0.124 S 
ATOM     76  O   UNL A   1      46.958  37.477  25.682  1.00  0.00    -0.237 OA
ATOM     77  O   UNL A   1      47.968  36.124  27.492  1.00  0.00    -0.237 OA
ATOM     78  O   UNL A   1      47.689  35.166  25.236  1.00  0.00    -0.744 OA
ENDBRANCH  71  75
ENDBRANCH  54  68
BRANCH  55  79
ATOM     79  C   UNL A   1      43.306  26.512  34.520  1.00  0.00     0.023 A 
ATOM     80  C   UNL A   1      44.451  25.887  35.041  1.00  0.00     0.031 A 
ATOM     81  C   UNL A   1      42.051  25.989  34.883  1.00  0.00     0.131 A 
ATOM     82  C   UNL A   1      44.319  24.748  35.853  1.00  0.00     0.055 A 
ATOM     83  C   UNL A   1      41.923  24.894  35.737  1.00  0.00     0.041 A 
ATOM     84  F   UNL A   1      40.923  26.539  34.404  1.00  0.00    -0.206 F 
ATOM     85  C   UNL A   1      43.063  24.257  36.216  1.00  0.00     0.022 A 
BRANCH  82  86
ATOM     86  S   UNL A   1      45.819  23.854  36.348  1.00  0.00     0.124 S 
ATOM     87  O   UNL A   1      46.119  23.092  35.142  1.00  0.00    -0.237 OA
ATOM     88  O   UNL A   1      46.732  24.948  36.661  1.00  0.00    -0.237 OA
ATOM     89  O   UNL A   1      45.379  23.063  37.495  1.00  0.00    -0.744 OA
ENDBRANCH  82  86
ENDBRANCH  55  79
BRANCH  67  90
ATOM     90  C   UNL A   1      43.005  33.444  35.218  1.00  0.00     0.023 A 
ATOM     91  C   UNL A   1      41.710  33.908  35.507  1.00  0.00     0.031 A 
ATOM     92  C   UNL A   1      44.052  33.831  36.074  1.00  0.00     0.131 A 
ATOM     93  C   UNL A   1      41.504  34.774  36.593  1.00  0.00     0.055 A 
ATOM     94  C   UNL A   1      43.833  34.647  37.184  1.00  0.00     0.041 A 
ATOM     95  F   UNL A   1      45.309  33.417  35.846  1.00  0.00    -0.206 F 
ATOM     96  C   UNL A   1      42.555  35.134  37.442  1.00  0.00     0.022 A 
BRANCH  93  97
ATOM     97  S   UNL A   1      39.857  35.495  36.837  1.00  0.00     0.124 S 
ATOM     98  O   UNL A   1      39.886  36.636  35.928  1.00  0.00    -0.237 OA
ATOM     99  O   UNL A   1      38.976  34.396  36.452  1.00  0.00    -0.237 OA
ATOM    100  O   UNL A   1      39.838  35.835  38.258  1.00  0.00    -0.744 OA
ENDBRANCH  93  97
ENDBRANCH  67  90
ENDBRANCH  41  42
ENDBRANCH  34  36
ENDBRANCH  33  34
ENDBRANCH  32  33
ENDBRANCH  31  32
ENDBRANCH  30  31
ENDBRANCH  29  30
ENDBRANCH   1  29
TORSDOF 27
ENDMDL
MODEL 2
REMARK VINA RESULT:      -8.5      6.054     10.795
REMARK SMILES COc1cccc([C@@H]2CN(C(=O)CCSC)C[C@H]2C(=O)OCCOCCOCCOC(=O)c2ccc(-c3c4nc(c(-c5cc(S(=O)(=O)[O-])ccc5F)c5ccc([nH]5)c(-c5cc(S(=O)(=O)[O-])ccc5F)c5nc(c(-c6cc(S(=O)(=O)[O-])ccc6F)c6ccc3[nH]6)C=C5)C=C4)cc2)c1OC
REMARK SMILES IDX 25 1 24 2 23 3 22 4 21 5 19 6 20 7 18 8 8 9 9 10 10 11 17 12
REMARK SMILES IDX 7 13 3 14 4 15 96 16 5 17 6 18 2 19 1 20 97 21 98 22 11 23
REMARK SMILES IDX 12 24 13 25 14 26 15 27 16 28 26 29 27 30 28 31 29 32 30 33
REMARK SMILES IDX 31 34 32 35 33 36 34 37 95 38 35 39 94 40 36 41 37 42 38 43
REMARK SMILES IDX 88 44 39 45 93 46 87 47 89 48 40 49 92 50 86 51 85 52 41 54
REMARK SMILES IDX 73 55 53 56 72 57 54 58 57 59 71 60 90 61 55 62 56 63 70 65
REMARK SMILES IDX 91 66 58 67 42 68 43 69 51 70 44 71 50 72 52 73 49 74 45 75
REMARK SMILES IDX 46 76 47 77 48 78 74 79 75 80 83 81 76 82 82 83 84 84 81 85
REMARK SMILES IDX 77 86 78 87 79 88 80 89 59 90 60 91 68 92 61 93 67 94 69 95
REMARK SMILES IDX 66 96 62 97 63 98 64 99 65 100
REMARK H PARENT 89 53 57 64
REMARK Flexibility Score: inf
ROOT
ATOM      1  C   UNL A   1      34.558  33.193  28.936  1.00  0.00     0.188 C 
ENDROOT
BRANCH   1   2
ATOM      2  O   UNL A   1      33.960  31.926  28.697  1.00  0.00    -0.376 OA
BRANCH   2   3
ATOM      3  C   UNL A   1      33.600  31.557  27.374  1.00  0.00     0.202 C 
BRANCH   3   4
ATOM      4  C   UNL A   1      32.884  30.216  27.192  1.00  0.00     0.261 C 
BRANCH   4   5
ATOM      5  O   UNL A   1      32.855  29.717  25.834  1.00  0.00    -0.463 OA
BRANCH   5   6
ATOM      6  C   UNL A   1      32.897  28.366  25.707  1.00  0.00     0.311 C 
ATOM      7  O   UNL A   1      33.628  27.642  26.378  1.00  0.00    -0.252 OA
BRANCH   6   8
ATOM      8  C   UNL A   1      32.069  27.792  24.575  1.00  0.00     0.128 C 
ATOM      9  C   UNL A   1      31.258  26.481  24.720  1.00  0.00     0.059 C 
ATOM     10  C   UNL A   1      29.921  26.754  24.010  1.00  0.00     0.129 C 
ATOM     11  N   UNL A   1      29.873  28.170  23.727  1.00  0.00    -0.341 N 
ATOM     12  C   UNL A   1      31.047  28.861  24.210  1.00  0.00     0.135 C 
BRANCH   9  13
ATOM     13  C   UNL A   1      31.818  25.168  24.144  1.00  0.00     0.004 A 
ATOM     14  C   UNL A   1      32.713  22.889  24.329  1.00  0.00     0.161 A 
ATOM     15  C   UNL A   1      33.135  22.938  22.998  1.00  0.00     0.050 A 
ATOM     16  C   UNL A   1      32.081  24.005  24.915  1.00  0.00     0.164 A 
ATOM     17  C   UNL A   1      32.918  24.087  22.240  1.00  0.00     0.004 A 
ATOM     18  C   UNL A   1      32.264  25.185  22.804  1.00  0.00     0.008 A 
BRANCH  14  19
ATOM     19  O   UNL A   1      33.113  21.821  25.093  1.00  0.00    -0.493 OA
ATOM     20  C   UNL A   1      33.902  20.879  24.362  1.00  0.00     0.278 C 
ENDBRANCH  14  19
BRANCH  16  21
ATOM     21  O   UNL A   1      31.822  24.114  26.257  1.00  0.00    -0.493 OA
ATOM     22  C   UNL A   1      30.676  23.444  26.771  1.00  0.00     0.278 C 
ENDBRANCH  16  21
ENDBRANCH   9  13
BRANCH  11  23
ATOM     23  C   UNL A   1      28.891  28.842  23.041  1.00  0.00     0.223 C 
ATOM     24  O   UNL A   1      27.767  28.362  22.879  1.00  0.00    -0.275 OA
BRANCH  23  25
ATOM     25  C   UNL A   1      29.214  30.214  22.488  1.00  0.00     0.111 C 
BRANCH  25  26
ATOM     26  C   UNL A   1      28.267  30.589  21.353  1.00  0.00     0.079 C 
BRANCH  26  27
ATOM     27  S   UNL A   1      28.082  32.390  21.128  1.00  0.00    -0.165 SA
ATOM     28  C   UNL A   1      28.800  32.972  22.686  1.00  0.00     0.085 C 
ENDBRANCH  26  27
ENDBRANCH  25  26
ENDBRANCH  23  25
ENDBRANCH  11  23
ENDBRANCH   6   8
ENDBRANCH   5   6
ENDBRANCH   4   5
ENDBRANCH   3   4
ENDBRANCH   2   3
ENDBRANCH   1   2
BRANCH   1  29
ATOM     29  C   UNL A   1      34.771  33.672  30.375  1.00  0.00     0.188 C 
BRANCH  29  30
ATOM     30  O   UNL A   1      34.236  32.823  31.376  1.00  0.00    -0.376 OA
BRANCH  30  31
ATOM     31  C   UNL A   1      35.184  32.362  32.329  1.00  0.00     0.202 C 
BRANCH  31  32
ATOM     32  C   UNL A   1      36.540  32.113  31.662  1.00  0.00     0.261 C 
BRANCH  32  33
ATOM     33  O   UNL A   1      36.624  30.845  30.981  1.00  0.00    -0.460 OA
BRANCH  33  34
ATOM     34  C   UNL A   1      37.162  30.891  29.744  1.00  0.00     0.338 C 
ATOM     35  O   UNL A   1      36.679  30.426  28.719  1.00  0.00    -0.246 OA
BRANCH  34  36
ATOM     36  C   UNL A   1      38.336  31.778  29.765  1.00  0.00     0.060 A 
ATOM     37  C   UNL A   1      39.561  31.233  30.147  1.00  0.00     0.016 A 
ATOM     38  C   UNL A   1      38.227  33.143  29.510  1.00  0.00     0.016 A 
ATOM     39  C   UNL A   1      40.665  32.051  30.350  1.00  0.00     0.010 A 
ATOM     40  C   UNL A   1      39.341  33.968  29.721  1.00  0.00     0.010 A 
ATOM     41  C   UNL A   1      40.555  33.433  30.193  1.00  0.00    -0.014 A 
BRANCH  41  42
ATOM     42  C   UNL A   1      41.618  34.306  30.760  1.00  0.00     0.031 A 
ATOM     43  C   UNL A   1      41.638  34.514  32.253  1.00  0.00     0.074 A 
ATOM     44  C   UNL A   1      42.614  34.816  30.011  1.00  0.00     0.049 A 
ATOM     45  N   UNL A   1      42.345  35.347  32.971  1.00  0.00    -0.248 NA
ATOM     46  C   UNL A   1      40.739  33.653  33.038  1.00  0.00     0.031 C 
ATOM     47  C   UNL A   1      42.816  34.571  28.585  1.00  0.00     0.029 A 
ATOM     48  N   UNL A   1      43.651  35.648  30.359  1.00  0.00    -0.354 N 
ATOM     49  C   UNL A   1      41.941  35.146  34.287  1.00  0.00     0.074 A 
ATOM     50  C   UNL A   1      40.927  34.114  34.264  1.00  0.00     0.031 C 
ATOM     51  C   UNL A   1      43.905  35.246  28.176  1.00  0.00     0.029 A 
ATOM     52  C   UNL A   1      44.434  36.030  29.292  1.00  0.00     0.049 A 
ATOM     53  H   UNL A   1      43.818  35.944  31.283  1.00  0.00     0.167 HD
ATOM     54  C   UNL A   1      42.371  35.771  35.412  1.00  0.00     0.034 A 
ATOM     55  C   UNL A   1      45.425  36.943  29.215  1.00  0.00     0.034 A 
ATOM     56  C   UNL A   1      43.396  36.784  35.425  1.00  0.00     0.049 A 
ATOM     57  C   UNL A   1      45.809  37.719  30.457  1.00  0.00     0.074 A 
ATOM     58  C   UNL A   1      43.870  37.519  36.496  1.00  0.00     0.029 A 
ATOM     59  N   UNL A   1      44.114  37.198  34.311  1.00  0.00    -0.354 N 
ATOM     60  N   UNL A   1      45.340  37.611  31.680  1.00  0.00    -0.248 NA
ATOM     61  C   UNL A   1      46.849  38.746  30.304  1.00  0.00     0.031 C 
ATOM     62  C   UNL A   1      44.832  38.418  36.022  1.00  0.00     0.029 A 
ATOM     63  C   UNL A   1      45.014  38.190  34.667  1.00  0.00     0.049 A 
ATOM     64  H   UNL A   1      44.001  36.840  33.401  1.00  0.00     0.167 HD
ATOM     65  C   UNL A   1      46.053  38.536  32.443  1.00  0.00     0.074 A 
ATOM     66  C   UNL A   1      46.988  39.182  31.547  1.00  0.00     0.031 C 
ATOM     67  C   UNL A   1      45.946  38.823  33.765  1.00  0.00     0.034 A 
BRANCH  54  68
ATOM     68  C   UNL A   1      41.659  35.431  36.697  1.00  0.00     0.023 A 
ATOM     69  C   UNL A   1      42.136  34.446  37.578  1.00  0.00     0.031 A 
ATOM     70  C   UNL A   1      40.445  36.067  37.013  1.00  0.00     0.131 A 
ATOM     71  C   UNL A   1      41.365  34.072  38.689  1.00  0.00     0.055 A 
ATOM     72  C   UNL A   1      39.724  35.749  38.164  1.00  0.00     0.041 A 
ATOM     73  F   UNL A   1      39.927  36.996  36.192  1.00  0.00    -0.206 F 
ATOM     74  C   UNL A   1      40.175  34.735  39.002  1.00  0.00     0.022 A 
BRANCH  71  75
ATOM     75  S   UNL A   1      41.858  32.603  39.632  1.00  0.00     0.124 S 
ATOM     76  O   UNL A   1      42.980  33.117  40.413  1.00  0.00    -0.237 OA
ATOM     77  O   UNL A   1      40.648  32.289  40.382  1.00  0.00    -0.237 OA
ATOM     78  O   UNL A   1      42.219  31.637  38.596  1.00  0.00    -0.744 OA
ENDBRANCH  71  75
ENDBRANCH  54  68
BRANCH  55  79
ATOM     79  C   UNL A   1      46.072  37.261  27.907  1.00  0.00     0.023 A 
ATOM     80  C   UNL A   1      47.086  36.445  27.378  1.00  0.00     0.031 A 
ATOM     81  C   UNL A   1      45.746  38.438  27.210  1.00  0.00     0.131 A 
ATOM     82  C   UNL A   1      47.772  36.845  26.219  1.00  0.00     0.055 A 
ATOM     83  C   UNL A   1      46.389  38.800  26.026  1.00  0.00     0.041 A 
ATOM     84  F   UNL A   1      44.793  39.261  27.676  1.00  0.00    -0.206 F 
ATOM     85  C   UNL A   1      47.420  38.008  25.532  1.00  0.00     0.022 A 
BRANCH  82  86
ATOM     86  S   UNL A   1      49.202  35.869  25.675  1.00  0.00     0.124 S 
ATOM     87  O   UNL A   1      49.784  35.464  26.950  1.00  0.00    -0.237 OA
ATOM     88  O   UNL A   1      48.568  34.813  24.894  1.00  0.00    -0.237 OA
ATOM     89  O   UNL A   1      49.993  36.826  24.903  1.00  0.00    -0.744 OA
ENDBRANCH  82  86
ENDBRANCH  55  79
BRANCH  67  90
ATOM     90  C   UNL A   1      46.913  39.834  34.335  1.00  0.00     0.023 A 
ATOM     91  C   UNL A   1      48.181  39.464  34.817  1.00  0.00     0.031 A 
ATOM     92  C   UNL A   1      46.553  41.192  34.395  1.00  0.00     0.131 A 
ATOM     93  C   UNL A   1      49.023  40.434  35.384  1.00  0.00     0.055 A 
ATOM     94  C   UNL A   1      47.415  42.161  34.909  1.00  0.00     0.041 A 
ATOM     95  F   UNL A   1      45.354  41.601  33.948  1.00  0.00    -0.206 F 
ATOM     96  C   UNL A   1      48.654  41.782  35.419  1.00  0.00     0.022 A 
BRANCH  93  97
ATOM     97  S   UNL A   1      50.576  39.902  36.155  1.00  0.00     0.124 S 
ATOM     98  O   UNL A   1      50.169  38.687  36.853  1.00  0.00    -0.237 OA
ATOM     99  O   UNL A   1      51.447  39.710  34.999  1.00  0.00    -0.237 OA
ATOM    100  O   UNL A   1      50.933  41.025  37.020  1.00  0.00    -0.744 OA
ENDBRANCH  93  97
ENDBRANCH  67  90
ENDBRANCH  41  42
ENDBRANCH  34  36
ENDBRANCH  33  34
ENDBRANCH  32  33
ENDBRANCH  31  32
ENDBRANCH  30  31
ENDBRANCH  29  30
ENDBRANCH   1  29
TORSDOF 27
ENDMDL
MODEL 3
REMARK VINA RESULT:      -8.4      4.375      6.971
REMARK SMILES COc1cccc([C@@H]2CN(C(=O)CCSC)C[C@H]2C(=O)OCCOCCOCCOC(=O)c2ccc(-c3c4nc(c(-c5cc(S(=O)(=O)[O-])ccc5F)c5ccc([nH]5)c(-c5cc(S(=O)(=O)[O-])ccc5F)c5nc(c(-c6cc(S(=O)(=O)[O-])ccc6F)c6ccc3[nH]6)C=C5)C=C4)cc2)c1OC
REMARK SMILES IDX 25 1 24 2 23 3 22 4 21 5 19 6 20 7 18 8 8 9 9 10 10 11 17 12
REMARK SMILES IDX 7 13 3 14 4 15 96 16 5 17 6 18 2 19 1 20 97 21 98 22 11 23
REMARK SMILES IDX 12 24 13 25 14 26 15 27 16 28 26 29 27 30 28 31 29 32 30 33
REMARK SMILES IDX 31 34 32 35 33 36 34 37 95 38 35 39 94 40 36 41 37 42 38 43
REMARK SMILES IDX 88 44 39 45 93 46 87 47 89 48 40 49 92 50 86 51 85 52 41 54
REMARK SMILES IDX 73 55 53 56 72 57 54 58 57 59 71 60 90 61 55 62 56 63 70 65
REMARK SMILES IDX 91 66 58 67 42 68 43 69 51 70 44 71 50 72 52 73 49 74 45 75
REMARK SMILES IDX 46 76 47 77 48 78 74 79 75 80 83 81 76 82 82 83 84 84 81 85
REMARK SMILES IDX 77 86 78 87 79 88 80 89 59 90 60 91 68 92 61 93 67 94 69 95
REMARK SMILES IDX 66 96 62 97 63 98 64 99 65 100
REMARK H PARENT 89 53 57 64
REMARK Flexibility Score: inf
ROOT
ATOM      1  C   UNL A   1      41.076  20.543  26.141  1.00  0.00     0.188 C 
ENDROOT
BRANCH   1   2
ATOM      2  O   UNL A   1      39.973  21.395  26.420  1.00  0.00    -0.376 OA
BRANCH   2   3
ATOM      3  C   UNL A   1      38.797  21.302  25.629  1.00  0.00     0.202 C 
BRANCH   3   4
ATOM      4  C   UNL A   1      37.970  22.579  25.452  1.00  0.00     0.261 C 
BRANCH   4   5
ATOM      5  O   UNL A   1      36.879  22.476  24.508  1.00  0.00    -0.463 OA
BRANCH   5   6
ATOM      6  C   UNL A   1      35.796  23.250  24.780  1.00  0.00     0.311 C 
ATOM      7  O   UNL A   1      35.708  23.974  25.768  1.00  0.00    -0.252 OA
BRANCH   6   8
ATOM      8  C   UNL A   1      34.618  23.071  23.845  1.00  0.00     0.128 C 
ATOM      9  C   UNL A   1      33.271  22.465  24.312  1.00  0.00     0.059 C 
ATOM     10  C   UNL A   1      32.188  23.323  23.637  1.00  0.00     0.129 C 
ATOM     11  N   UNL A   1      32.853  24.470  23.061  1.00  0.00    -0.341 N 
ATOM     12  C   UNL A   1      34.274  24.458  23.319  1.00  0.00     0.135 C 
BRANCH   9  13
ATOM     13  C   UNL A   1      32.945  20.993  23.998  1.00  0.00     0.004 A 
ATOM     14  C   UNL A   1      33.168  18.571  24.332  1.00  0.00     0.161 A 
ATOM     15  C   UNL A   1      32.518  18.335  23.117  1.00  0.00     0.050 A 
ATOM     16  C   UNL A   1      33.409  19.891  24.765  1.00  0.00     0.164 A 
ATOM     17  C   UNL A   1      32.092  19.407  22.336  1.00  0.00     0.004 A 
ATOM     18  C   UNL A   1      32.298  20.718  22.773  1.00  0.00     0.008 A 
BRANCH  14  19
ATOM     19  O   UNL A   1      33.739  17.501  24.976  1.00  0.00    -0.493 OA
ATOM     20  C   UNL A   1      33.320  16.243  24.441  1.00  0.00     0.278 C 
ENDBRANCH  14  19
BRANCH  16  21
ATOM     21  O   UNL A   1      34.210  20.208  25.831  1.00  0.00    -0.493 OA
ATOM     22  C   UNL A   1      33.653  21.012  26.866  1.00  0.00     0.278 C 
ENDBRANCH  16  21
ENDBRANCH   9  13
BRANCH  11  23
ATOM     23  C   UNL A   1      32.280  25.462  22.305  1.00  0.00     0.223 C 
ATOM     24  O   UNL A   1      32.630  25.677  21.142  1.00  0.00    -0.275 OA
BRANCH  23  25
ATOM     25  C   UNL A   1      31.182  26.296  22.931  1.00  0.00     0.111 C 
BRANCH  25  26
ATOM     26  C   UNL A   1      31.008  27.621  22.195  1.00  0.00     0.079 C 
BRANCH  26  27
ATOM     27  S   UNL A   1      31.911  29.005  22.970  1.00  0.00    -0.165 SA
ATOM     28  C   UNL A   1      30.721  29.470  24.253  1.00  0.00     0.085 C 
ENDBRANCH  26  27
ENDBRANCH  25  26
ENDBRANCH  23  25
ENDBRANCH  11  23
ENDBRANCH   6   8
ENDBRANCH   5   6
ENDBRANCH   4   5
ENDBRANCH   3   4
ENDBRANCH   2   3
ENDBRANCH   1   2
BRANCH   1  29
ATOM     29  C   UNL A   1      42.494  21.122  26.116  1.00  0.00     0.188 C 
BRANCH  29  30
ATOM     30  O   UNL A   1      42.641  22.379  26.754  1.00  0.00    -0.376 OA
BRANCH  30  31
ATOM     31  C   UNL A   1      43.100  23.423  25.905  1.00  0.00     0.202 C 
BRANCH  31  32
ATOM     32  C   UNL A   1      43.156  24.751  26.666  1.00  0.00     0.261 C 
BRANCH  32  33
ATOM     33  O   UNL A   1      42.328  25.781  26.090  1.00  0.00    -0.460 OA
BRANCH  33  34
ATOM     34  C   UNL A   1      41.046  25.792  26.513  1.00  0.00     0.338 C 
ATOM     35  O   UNL A   1      40.202  24.928  26.306  1.00  0.00    -0.246 OA
BRANCH  34  36
ATOM     36  C   UNL A   1      40.859  26.909  27.451  1.00  0.00     0.060 A 
ATOM     37  C   UNL A   1      40.609  28.174  26.920  1.00  0.00     0.016 A 
ATOM     38  C   UNL A   1      41.023  26.747  28.825  1.00  0.00     0.016 A 
ATOM     39  C   UNL A   1      40.592  29.294  27.742  1.00  0.00     0.010 A 
ATOM     40  C   UNL A   1      41.012  27.880  29.652  1.00  0.00     0.010 A 
ATOM     41  C   UNL A   1      40.847  29.168  29.108  1.00  0.00    -0.014 A 
BRANCH  41  42
ATOM     42  C   UNL A   1      41.186  30.388  29.889  1.00  0.00     0.031 A 
ATOM     43  C   UNL A   1      42.596  30.913  29.802  1.00  0.00     0.074 A 
ATOM     44  C   UNL A   1      40.262  31.092  30.570  1.00  0.00     0.049 A 
ATOM     45  N   UNL A   1      43.185  31.847  30.503  1.00  0.00    -0.248 NA
ATOM     46  C   UNL A   1      43.452  30.300  28.774  1.00  0.00     0.031 C 
ATOM     47  C   UNL A   1      38.832  30.798  30.615  1.00  0.00     0.029 A 
ATOM     48  N   UNL A   1      40.399  32.214  31.353  1.00  0.00    -0.354 N 
ATOM     49  C   UNL A   1      44.494  31.900  30.035  1.00  0.00     0.074 A 
ATOM     50  C   UNL A   1      44.610  30.902  28.992  1.00  0.00     0.031 C 
ATOM     51  C   UNL A   1      38.223  31.710  31.394  1.00  0.00     0.029 A 
ATOM     52  C   UNL A   1      39.228  32.607  31.962  1.00  0.00     0.049 A 
ATOM     53  H   UNL A   1      41.253  32.690  31.469  1.00  0.00     0.167 HD
ATOM     54  C   UNL A   1      45.509  32.701  30.442  1.00  0.00     0.034 A 
ATOM     55  C   UNL A   1      39.005  33.545  32.907  1.00  0.00     0.034 A 
ATOM     56  C   UNL A   1      45.377  33.705  31.467  1.00  0.00     0.049 A 
ATOM     57  C   UNL A   1      40.173  34.348  33.438  1.00  0.00     0.074 A 
ATOM     58  C   UNL A   1      46.350  34.534  31.996  1.00  0.00     0.029 A 
ATOM     59  N   UNL A   1      44.191  34.023  32.116  1.00  0.00    -0.354 N 
ATOM     60  N   UNL A   1      41.436  34.312  33.077  1.00  0.00    -0.248 NA
ATOM     61  C   UNL A   1      39.885  35.311  34.511  1.00  0.00     0.031 C 
ATOM     62  C   UNL A   1      45.767  35.312  33.002  1.00  0.00     0.029 A 
ATOM     63  C   UNL A   1      44.413  35.023  33.050  1.00  0.00     0.049 A 
ATOM     64  H   UNL A   1      43.320  33.600  31.939  1.00  0.00     0.167 HD
ATOM     65  C   UNL A   1      42.082  35.269  33.859  1.00  0.00     0.074 A 
ATOM     66  C   UNL A   1      41.070  35.872  34.699  1.00  0.00     0.031 C 
ATOM     67  C   UNL A   1      43.393  35.620  33.879  1.00  0.00     0.034 A 
BRANCH  54  68
ATOM     68  C   UNL A   1      46.866  32.449  29.833  1.00  0.00     0.023 A 
ATOM     69  C   UNL A   1      47.390  33.261  28.813  1.00  0.00     0.031 A 
ATOM     70  C   UNL A   1      47.620  31.335  30.244  1.00  0.00     0.131 A 
ATOM     71  C   UNL A   1      48.594  32.902  28.186  1.00  0.00     0.055 A 
ATOM     72  C   UNL A   1      48.857  31.032  29.674  1.00  0.00     0.041 A 
ATOM     73  F   UNL A   1      47.155  30.509  31.195  1.00  0.00    -0.206 F 
ATOM     74  C   UNL A   1      49.343  31.808  28.627  1.00  0.00     0.022 A 
BRANCH  71  75
ATOM     75  S   UNL A   1      49.088  33.792  26.685  1.00  0.00     0.124 S 
ATOM     76  O   UNL A   1      50.513  33.480  26.614  1.00  0.00    -0.237 OA
ATOM     77  O   UNL A   1      48.247  33.179  25.664  1.00  0.00    -0.237 OA
ATOM     78  O   UNL A   1      48.778  35.186  26.996  1.00  0.00    -0.744 OA
ENDBRANCH  71  75
ENDBRANCH  54  68
BRANCH  55  79
ATOM     79  C   UNL A   1      37.645  33.728  33.496  1.00  0.00     0.023 A 
ATOM     80  C   UNL A   1      36.622  34.376  32.783  1.00  0.00     0.031 A 
ATOM     81  C   UNL A   1      37.375  33.336  34.820  1.00  0.00     0.131 A 
ATOM     82  C   UNL A   1      35.399  34.658  33.415  1.00  0.00     0.055 A 
ATOM     83  C   UNL A   1      36.137  33.564  35.423  1.00  0.00     0.041 A 
ATOM     84  F   UNL A   1      38.320  32.724  35.552  1.00  0.00    -0.206 F 
ATOM     85  C   UNL A   1      35.145  34.243  34.724  1.00  0.00     0.022 A 
BRANCH  82  86
ATOM     86  S   UNL A   1      34.176  35.665  32.530  1.00  0.00     0.124 S 
ATOM     87  O   UNL A   1      32.937  35.269  33.189  1.00  0.00    -0.237 OA
ATOM     88  O   UNL A   1      34.645  37.019  32.804  1.00  0.00    -0.237 OA
ATOM     89  O   UNL A   1      34.314  35.228  31.143  1.00  0.00    -0.744 OA
ENDBRANCH  82  86
ENDBRANCH  55  79
BRANCH  67  90
ATOM     90  C   UNL A   1      43.793  36.755  34.791  1.00  0.00     0.023 A 
ATOM     91  C   UNL A   1      43.785  38.095  34.364  1.00  0.00     0.031 A 
ATOM     92  C   UNL A   1      44.189  36.485  36.113  1.00  0.00     0.131 A 
ATOM     93  C   UNL A   1      44.215  39.108  35.235  1.00  0.00     0.055 A 
ATOM     94  C   UNL A   1      44.563  37.502  36.993  1.00  0.00     0.041 A 
ATOM     95  F   UNL A   1      44.214  35.224  36.575  1.00  0.00    -0.206 F 
ATOM     96  C   UNL A   1      44.589  38.822  36.551  1.00  0.00     0.022 A 
BRANCH  93  97
ATOM     97  S   UNL A   1      44.361  40.802  34.602  1.00  0.00     0.124 S 
ATOM     98  O   UNL A   1      44.121  41.598  35.801  1.00  0.00    -0.237 OA
ATOM     99  O   UNL A   1      45.726  40.824  34.086  1.00  0.00    -0.237 OA
ATOM    100  O   UNL A   1      43.314  40.881  33.585  1.00  0.00    -0.744 OA
ENDBRANCH  93  97
ENDBRANCH  67  90
ENDBRANCH  41  42
ENDBRANCH  34  36
ENDBRANCH  33  34
ENDBRANCH  32  33
ENDBRANCH  31  32
ENDBRANCH  30  31
ENDBRANCH  29  30
ENDBRANCH   1  29
TORSDOF 27
ENDMDL
