MODEL 1
REMARK VINA RESULT:     -10.4      0.000      0.000
REMARK SMILES COc1ccc(-n2ccnc2C[N@@H+]2Cc3[nH]cnc3C[C@@H]2C(=O)OCCOCCOCCOC(=O)c2ccc(-c3c4nc(c(-c5cc(S(=O)(=O)[O-])ccc5F)c5ccc([nH]5)c(-c5cc(S(=O)(=O)[O-])ccc5F)c5nc(c(-c6cc(S(=O)(=O)[O-])ccc6F)c6ccc3[nH]6)C=C5)C=C4)cc2)cc1
REMARK SMILES IDX 28 1 27 2 26 3 25 4 24 5 22 6 23 7 21 8 13 9 14 10 15 12
REMARK SMILES IDX 20 13 16 14 19 15 17 16 18 18 12 19 11 20 7 21 8 22 9 23
REMARK SMILES IDX 10 24 6 25 3 26 4 27 100 28 5 29 99 30 2 31 1 32 29 33 30 34
REMARK SMILES IDX 31 35 32 36 33 37 34 38 35 39 36 40 37 41 98 42 38 43 97 44
REMARK SMILES IDX 39 45 40 46 41 47 91 48 42 49 96 50 90 51 92 52 43 53 95 54
REMARK SMILES IDX 89 55 88 56 44 58 76 59 56 60 75 61 57 62 60 63 74 64 93 65
REMARK SMILES IDX 58 66 59 67 73 69 94 70 61 71 45 72 46 73 54 74 47 75 53 76
REMARK SMILES IDX 55 77 52 78 48 79 49 80 50 81 51 82 77 83 78 84 86 85 79 86
REMARK SMILES IDX 85 87 87 88 84 89 80 90 81 91 82 92 83 93 62 94 63 95 71 96
REMARK SMILES IDX 64 97 70 98 72 99 69 100 65 101 66 102 67 103 68 104
REMARK H PARENT 13 11 16 17 92 57 60 68
REMARK Flexibility Score: inf
ROOT
ATOM      1  C   UNL A   1      34.454  30.932  27.871  1.00  0.00     0.188 C 
ENDROOT
BRANCH   1   2
ATOM      2  O   UNL A   1      33.647  29.804  27.548  1.00  0.00    -0.376 OA
BRANCH   2   3
ATOM      3  C   UNL A   1      34.201  28.935  26.559  1.00  0.00     0.202 C 
BRANCH   3   4
ATOM      4  C   UNL A   1      33.494  28.952  25.192  1.00  0.00     0.261 C 
BRANCH   4   5
ATOM      5  O   UNL A   1      34.125  28.070  24.254  1.00  0.00    -0.459 OA
BRANCH   5   6
ATOM      6  C   UNL A   1      33.482  27.776  23.097  1.00  0.00     0.365 C 
ATOM      7  O   UNL A   1      34.024  27.725  22.000  1.00  0.00    -0.245 OA
BRANCH   6   8
ATOM      8  C   UNL A   1      32.001  27.501  23.390  1.00  0.00     0.301 C 
ATOM      9  N   UNL A   1      31.691  26.041  23.650  1.00  0.00    -0.312 N 
ATOM     10  C   UNL A   1      30.292  25.811  24.059  1.00  0.00     0.320 C 
ATOM     11  H   UNL A   1      32.178  25.751  24.498  1.00  0.00     0.349 HD
ATOM     12  C   UNL A   1      29.371  26.843  23.512  1.00  0.00     0.093 A 
ATOM     13  C   UNL A   1      31.110  28.178  22.326  1.00  0.00     0.136 C 
ATOM     14  N   UNL A   1      28.064  27.059  23.856  1.00  0.00    -0.344 N 
ATOM     15  C   UNL A   1      29.706  27.911  22.714  1.00  0.00     0.074 A 
ATOM     16  C   UNL A   1      27.675  28.220  23.238  1.00  0.00     0.197 A 
ATOM     17  H   UNL A   1      27.509  26.489  24.436  1.00  0.00     0.167 HD
ATOM     18  N   UNL A   1      28.644  28.747  22.520  1.00  0.00    -0.241 NA
BRANCH   9  19
ATOM     19  C   UNL A   1      32.317  25.133  22.675  1.00  0.00     0.340 C 
BRANCH  19  20
ATOM     20  C   UNL A   1      33.494  24.286  23.061  1.00  0.00     0.168 A 
ATOM     21  N   UNL A   1      33.515  23.417  24.145  1.00  0.00    -0.299 N 
ATOM     22  C   UNL A   1      34.756  22.819  24.147  1.00  0.00     0.113 A 
ATOM     23  C   UNL A   1      35.414  23.316  23.053  1.00  0.00     0.132 A 
ATOM     24  N   UNL A   1      34.641  24.235  22.402  1.00  0.00    -0.236 NA
BRANCH  21  25
ATOM     25  C   UNL A   1      32.528  23.216  25.134  1.00  0.00     0.047 A 
ATOM     26  C   UNL A   1      30.490  23.035  27.021  1.00  0.00     0.119 A 
ATOM     27  C   UNL A   1      30.459  22.226  25.885  1.00  0.00     0.048 A 
ATOM     28  C   UNL A   1      31.583  23.869  27.256  1.00  0.00     0.048 A 
ATOM     29  C   UNL A   1      31.473  22.322  24.930  1.00  0.00     0.030 A 
ATOM     30  C   UNL A   1      32.612  23.953  26.320  1.00  0.00     0.030 A 
BRANCH  26  31
ATOM     31  O   UNL A   1      29.441  22.919  27.892  1.00  0.00    -0.497 OA
ATOM     32  C   UNL A   1      28.393  22.097  27.373  1.00  0.00     0.278 C 
ENDBRANCH  26  31
ENDBRANCH  21  25
ENDBRANCH  19  20
ENDBRANCH   9  19
ENDBRANCH   6   8
ENDBRANCH   5   6
ENDBRANCH   4   5
ENDBRANCH   3   4
ENDBRANCH   2   3
ENDBRANCH   1   2
BRANCH   1  33
ATOM     33  C   UNL A   1      33.737  32.290  27.739  1.00  0.00     0.188 C 
BRANCH  33  34
ATOM     34  O   UNL A   1      34.472  33.509  27.718  1.00  0.00    -0.376 OA
BRANCH  34  35
ATOM     35  C   UNL A   1      35.700  33.627  28.429  1.00  0.00     0.202 C 
BRANCH  35  36
ATOM     36  C   UNL A   1      35.727  33.826  29.943  1.00  0.00     0.261 C 
BRANCH  36  37
ATOM     37  O   UNL A   1      36.789  33.164  30.608  1.00  0.00    -0.460 OA
BRANCH  37  38
ATOM     38  C   UNL A   1      36.583  31.846  30.778  1.00  0.00     0.338 C 
ATOM     39  O   UNL A   1      35.627  31.320  31.356  1.00  0.00    -0.246 OA
BRANCH  38  40
ATOM     40  C   UNL A   1      37.695  31.090  30.205  1.00  0.00     0.060 A 
ATOM     41  C   UNL A   1      37.523  29.707  30.089  1.00  0.00     0.016 A 
ATOM     42  C   UNL A   1      38.947  31.698  30.033  1.00  0.00     0.016 A 
ATOM     43  C   UNL A   1      38.641  28.908  30.013  1.00  0.00     0.010 A 
ATOM     44  C   UNL A   1      40.065  30.897  29.967  1.00  0.00     0.010 A 
ATOM     45  C   UNL A   1      39.898  29.514  30.049  1.00  0.00    -0.014 A 
BRANCH  45  46
ATOM     46  C   UNL A   1      41.044  28.661  30.288  1.00  0.00     0.031 A 
ATOM     47  C   UNL A   1      41.454  28.489  31.691  1.00  0.00     0.074 A 
ATOM     48  C   UNL A   1      41.632  27.989  29.281  1.00  0.00     0.049 A 
ATOM     49  N   UNL A   1      42.599  28.776  32.212  1.00  0.00    -0.248 NA
ATOM     50  C   UNL A   1      40.450  28.018  32.652  1.00  0.00     0.031 C 
ATOM     51  C   UNL A   1      41.163  27.875  27.899  1.00  0.00     0.029 A 
ATOM     52  N   UNL A   1      42.708  27.153  29.322  1.00  0.00    -0.354 N 
ATOM     53  C   UNL A   1      42.536  28.336  33.526  1.00  0.00     0.074 A 
ATOM     54  C   UNL A   1      41.154  28.020  33.783  1.00  0.00     0.031 C 
ATOM     55  C   UNL A   1      41.804  26.848  27.303  1.00  0.00     0.029 A 
ATOM     56  C   UNL A   1      42.788  26.305  28.227  1.00  0.00     0.049 A 
ATOM     57  H   UNL A   1      43.363  27.151  30.057  1.00  0.00     0.167 HD
ATOM     58  C   UNL A   1      43.661  28.078  34.243  1.00  0.00     0.034 A 
ATOM     59  C   UNL A   1      43.533  25.177  28.123  1.00  0.00     0.034 A 
ATOM     60  C   UNL A   1      44.827  28.689  33.652  1.00  0.00     0.049 A 
ATOM     61  C   UNL A   1      44.649  25.286  29.095  1.00  0.00     0.074 A 
ATOM     62  C   UNL A   1      45.169  29.987  33.321  1.00  0.00     0.029 A 
ATOM     63  N   UNL A   1      45.729  27.888  32.990  1.00  0.00    -0.354 N 
ATOM     64  N   UNL A   1      45.614  26.157  28.991  1.00  0.00    -0.248 NA
ATOM     65  C   UNL A   1      44.482  24.718  30.426  1.00  0.00     0.031 C 
ATOM     66  C   UNL A   1      45.931  29.878  32.123  1.00  0.00     0.029 A 
ATOM     67  C   UNL A   1      46.047  28.522  31.812  1.00  0.00     0.049 A 
ATOM     68  H   UNL A   1      46.081  27.023  33.302  1.00  0.00     0.167 HD
ATOM     69  C   UNL A   1      45.868  26.572  30.289  1.00  0.00     0.074 A 
ATOM     70  C   UNL A   1      45.246  25.558  31.132  1.00  0.00     0.031 C 
ATOM     71  C   UNL A   1      46.301  27.841  30.555  1.00  0.00     0.034 A 
BRANCH  58  72
ATOM     72  C   UNL A   1      43.750  27.043  35.331  1.00  0.00     0.023 A 
ATOM     73  C   UNL A   1      44.395  25.829  35.034  1.00  0.00     0.031 A 
ATOM     74  C   UNL A   1      43.017  27.077  36.539  1.00  0.00     0.131 A 
ATOM     75  C   UNL A   1      44.258  24.717  35.880  1.00  0.00     0.055 A 
ATOM     76  C   UNL A   1      42.951  25.994  37.418  1.00  0.00     0.041 A 
ATOM     77  F   UNL A   1      42.248  28.118  36.883  1.00  0.00    -0.206 F 
ATOM     78  C   UNL A   1      43.553  24.795  37.079  1.00  0.00     0.022 A 
BRANCH  75  79
ATOM     79  S   UNL A   1      44.856  23.112  35.291  1.00  0.00     0.124 S 
ATOM     80  O   UNL A   1      45.981  23.502  34.450  1.00  0.00    -0.237 OA
ATOM     81  O   UNL A   1      45.188  22.438  36.542  1.00  0.00    -0.237 OA
ATOM     82  O   UNL A   1      43.705  22.565  34.575  1.00  0.00    -0.744 OA
ENDBRANCH  75  79
ENDBRANCH  58  72
BRANCH  59  83
ATOM     83  C   UNL A   1      43.168  23.938  27.389  1.00  0.00     0.023 A 
ATOM     84  C   UNL A   1      43.972  23.412  26.361  1.00  0.00     0.031 A 
ATOM     85  C   UNL A   1      42.102  23.121  27.836  1.00  0.00     0.131 A 
ATOM     86  C   UNL A   1      43.684  22.143  25.812  1.00  0.00     0.055 A 
ATOM     87  C   UNL A   1      41.800  21.884  27.266  1.00  0.00     0.041 A 
ATOM     88  F   UNL A   1      41.364  23.453  28.906  1.00  0.00    -0.206 F 
ATOM     89  C   UNL A   1      42.597  21.385  26.252  1.00  0.00     0.022 A 
BRANCH  86  90
ATOM     90  S   UNL A   1      44.819  21.390  24.606  1.00  0.00     0.124 S 
ATOM     91  O   UNL A   1      44.628  22.235  23.432  1.00  0.00    -0.237 OA
ATOM     92  O   UNL A   1      46.110  21.495  25.278  1.00  0.00    -0.237 OA
ATOM     93  O   UNL A   1      44.312  20.024  24.472  1.00  0.00    -0.744 OA
ENDBRANCH  86  90
ENDBRANCH  59  83
BRANCH  71  94
ATOM     94  C   UNL A   1      46.814  28.687  29.406  1.00  0.00     0.023 A 
ATOM     95  C   UNL A   1      46.022  29.600  28.676  1.00  0.00     0.031 A 
ATOM     96  C   UNL A   1      48.192  28.656  29.121  1.00  0.00     0.131 A 
ATOM     97  C   UNL A   1      46.604  30.415  27.688  1.00  0.00     0.055 A 
ATOM     98  C   UNL A   1      48.772  29.483  28.158  1.00  0.00     0.041 A 
ATOM     99  F   UNL A   1      49.011  27.837  29.803  1.00  0.00    -0.206 F 
ATOM    100  C   UNL A   1      47.976  30.361  27.430  1.00  0.00     0.022 A 
BRANCH  97 101
ATOM    101  S   UNL A   1      45.571  31.552  26.709  1.00  0.00     0.124 S 
ATOM    102  O   UNL A   1      46.032  32.873  27.119  1.00  0.00    -0.237 OA
ATOM    103  O   UNL A   1      45.887  31.159  25.339  1.00  0.00    -0.237 OA
ATOM    104  O   UNL A   1      44.209  31.223  27.136  1.00  0.00    -0.744 OA
ENDBRANCH  97 101
ENDBRANCH  71  94
ENDBRANCH  45  46
ENDBRANCH  38  40
ENDBRANCH  37  38
ENDBRANCH  36  37
ENDBRANCH  35  36
ENDBRANCH  34  35
ENDBRANCH  33  34
ENDBRANCH   1  33
TORSDOF 24
ENDMDL
MODEL 2
REMARK VINA RESULT:     -10.0      2.213      2.542
REMARK SMILES COc1ccc(-n2ccnc2C[N@@H+]2Cc3[nH]cnc3C[C@@H]2C(=O)OCCOCCOCCOC(=O)c2ccc(-c3c4nc(c(-c5cc(S(=O)(=O)[O-])ccc5F)c5ccc([nH]5)c(-c5cc(S(=O)(=O)[O-])ccc5F)c5nc(c(-c6cc(S(=O)(=O)[O-])ccc6F)c6ccc3[nH]6)C=C5)C=C4)cc2)cc1
REMARK SMILES IDX 28 1 27 2 26 3 25 4 24 5 22 6 23 7 21 8 13 9 14 10 15 12
REMARK SMILES IDX 20 13 16 14 19 15 17 16 18 18 12 19 11 20 7 21 8 22 9 23
REMARK SMILES IDX 10 24 6 25 3 26 4 27 100 28 5 29 99 30 2 31 1 32 29 33 30 34
REMARK SMILES IDX 31 35 32 36 33 37 34 38 35 39 36 40 37 41 98 42 38 43 97 44
REMARK SMILES IDX 39 45 40 46 41 47 91 48 42 49 96 50 90 51 92 52 43 53 95 54
REMARK SMILES IDX 89 55 88 56 44 58 76 59 56 60 75 61 57 62 60 63 74 64 93 65
REMARK SMILES IDX 58 66 59 67 73 69 94 70 61 71 45 72 46 73 54 74 47 75 53 76
REMARK SMILES IDX 55 77 52 78 48 79 49 80 50 81 51 82 77 83 78 84 86 85 79 86
REMARK SMILES IDX 85 87 87 88 84 89 80 90 81 91 82 92 83 93 62 94 63 95 71 96
REMARK SMILES IDX 64 97 70 98 72 99 69 100 65 101 66 102 67 103 68 104
REMARK H PARENT 13 11 16 17 92 57 60 68
REMARK Flexibility Score: inf
ROOT
ATOM      1  C   UNL A   1      34.442  30.016  27.863  1.00  0.00     0.188 C 
ENDROOT
BRANCH   1   2
ATOM      2  O   UNL A   1      33.625  28.882  27.593  1.00  0.00    -0.376 OA
BRANCH   2   3
ATOM      3  C   UNL A   1      34.008  28.128  26.442  1.00  0.00     0.202 C 
BRANCH   3   4
ATOM      4  C   UNL A   1      33.588  28.727  25.087  1.00  0.00     0.261 C 
BRANCH   4   5
ATOM      5  O   UNL A   1      34.292  28.123  23.995  1.00  0.00    -0.459 OA
BRANCH   5   6
ATOM      6  C   UNL A   1      33.612  27.827  22.860  1.00  0.00     0.365 C 
ATOM      7  O   UNL A   1      34.116  27.779  21.745  1.00  0.00    -0.245 OA
BRANCH   6   8
ATOM      8  C   UNL A   1      32.143  27.544  23.203  1.00  0.00     0.301 C 
ATOM      9  N   UNL A   1      31.866  26.099  23.559  1.00  0.00    -0.312 N 
ATOM     10  C   UNL A   1      30.482  25.869  24.013  1.00  0.00     0.320 C 
ATOM     11  H   UNL A   1      32.377  25.870  24.412  1.00  0.00     0.349 HD
ATOM     12  C   UNL A   1      29.529  26.850  23.425  1.00  0.00     0.093 A 
ATOM     13  C   UNL A   1      31.216  28.139  22.120  1.00  0.00     0.136 C 
ATOM     14  N   UNL A   1      28.227  27.063  23.784  1.00  0.00    -0.344 N 
ATOM     15  C   UNL A   1      29.827  27.871  22.555  1.00  0.00     0.074 A 
ATOM     16  C   UNL A   1      27.802  28.177  23.105  1.00  0.00     0.197 A 
ATOM     17  H   UNL A   1      27.695  26.520  24.410  1.00  0.00     0.167 HD
ATOM     18  N   UNL A   1      28.746  28.676  22.334  1.00  0.00    -0.241 NA
BRANCH   9  19
ATOM     19  C   UNL A   1      32.488  25.143  22.628  1.00  0.00     0.340 C 
BRANCH  19  20
ATOM     20  C   UNL A   1      33.615  24.259  23.074  1.00  0.00     0.168 A 
ATOM     21  N   UNL A   1      33.560  23.411  24.174  1.00  0.00    -0.299 N 
ATOM     22  C   UNL A   1      34.776  22.765  24.235  1.00  0.00     0.113 A 
ATOM     23  C   UNL A   1      35.495  23.216  23.159  1.00  0.00     0.132 A 
ATOM     24  N   UNL A   1      34.785  24.151  22.462  1.00  0.00    -0.236 NA
BRANCH  21  25
ATOM     25  C   UNL A   1      32.528  23.266  25.126  1.00  0.00     0.047 A 
ATOM     26  C   UNL A   1      30.418  23.202  26.939  1.00  0.00     0.119 A 
ATOM     27  C   UNL A   1      30.380  22.398  25.801  1.00  0.00     0.048 A 
ATOM     28  C   UNL A   1      31.548  23.972  27.216  1.00  0.00     0.048 A 
ATOM     29  C   UNL A   1      31.432  22.435  24.882  1.00  0.00     0.030 A 
ATOM     30  C   UNL A   1      32.614  23.996  26.317  1.00  0.00     0.030 A 
BRANCH  26  31
ATOM     31  O   UNL A   1      29.333  23.147  27.772  1.00  0.00    -0.497 OA
ATOM     32  C   UNL A   1      28.512  22.005  27.518  1.00  0.00     0.278 C 
ENDBRANCH  26  31
ENDBRANCH  21  25
ENDBRANCH  19  20
ENDBRANCH   9  19
ENDBRANCH   6   8
ENDBRANCH   5   6
ENDBRANCH   4   5
ENDBRANCH   3   4
ENDBRANCH   2   3
ENDBRANCH   1   2
BRANCH   1  33
ATOM     33  C   UNL A   1      33.744  31.374  27.649  1.00  0.00     0.188 C 
BRANCH  33  34
ATOM     34  O   UNL A   1      34.499  32.568  27.469  1.00  0.00    -0.376 OA
BRANCH  34  35
ATOM     35  C   UNL A   1      35.801  32.693  28.031  1.00  0.00     0.202 C 
BRANCH  35  36
ATOM     36  C   UNL A   1      36.001  33.050  29.502  1.00  0.00     0.261 C 
BRANCH  36  37
ATOM     37  O   UNL A   1      37.112  32.420  30.119  1.00  0.00    -0.460 OA
BRANCH  37  38
ATOM     38  C   UNL A   1      36.926  31.111  30.358  1.00  0.00     0.338 C 
ATOM     39  O   UNL A   1      36.034  30.608  31.048  1.00  0.00    -0.246 OA
BRANCH  38  40
ATOM     40  C   UNL A   1      37.976  30.331  29.705  1.00  0.00     0.060 A 
ATOM     41  C   UNL A   1      37.772  28.951  29.613  1.00  0.00     0.016 A 
ATOM     42  C   UNL A   1      39.221  30.915  29.432  1.00  0.00     0.016 A 
ATOM     43  C   UNL A   1      38.866  28.132  29.455  1.00  0.00     0.010 A 
ATOM     44  C   UNL A   1      40.317  30.095  29.284  1.00  0.00     0.010 A 
ATOM     45  C   UNL A   1      40.133  28.715  29.389  1.00  0.00    -0.014 A 
BRANCH  45  46
ATOM     46  C   UNL A   1      41.279  27.843  29.544  1.00  0.00     0.031 A 
ATOM     47  C   UNL A   1      41.961  27.880  30.847  1.00  0.00     0.074 A 
ATOM     48  C   UNL A   1      41.630  26.978  28.574  1.00  0.00     0.049 A 
ATOM     49  N   UNL A   1      43.196  28.177  31.075  1.00  0.00    -0.248 NA
ATOM     50  C   UNL A   1      41.161  27.639  32.054  1.00  0.00     0.031 C 
ATOM     51  C   UNL A   1      40.885  26.667  27.352  1.00  0.00     0.029 A 
ATOM     52  N   UNL A   1      42.667  26.095  28.549  1.00  0.00    -0.354 N 
ATOM     53  C   UNL A   1      43.390  27.965  32.433  1.00  0.00     0.074 A 
ATOM     54  C   UNL A   1      42.081  27.783  33.007  1.00  0.00     0.031 C 
ATOM     55  C   UNL A   1      41.362  25.518  26.831  1.00  0.00     0.029 A 
ATOM     56  C   UNL A   1      42.498  25.074  27.624  1.00  0.00     0.049 A 
ATOM     57  H   UNL A   1      43.458  26.173  29.130  1.00  0.00     0.167 HD
ATOM     58  C   UNL A   1      44.630  27.759  32.949  1.00  0.00     0.034 A 
ATOM     59  C   UNL A   1      43.174  23.899  27.575  1.00  0.00     0.034 A 
ATOM     60  C   UNL A   1      45.668  28.189  32.043  1.00  0.00     0.049 A 
ATOM     61  C   UNL A   1      44.467  24.097  28.275  1.00  0.00     0.074 A 
ATOM     62  C   UNL A   1      45.971  29.390  31.430  1.00  0.00     0.029 A 
ATOM     63  N   UNL A   1      46.393  27.235  31.367  1.00  0.00    -0.354 N 
ATOM     64  N   UNL A   1      45.416  24.877  27.833  1.00  0.00    -0.248 NA
ATOM     65  C   UNL A   1      44.560  23.769  29.692  1.00  0.00     0.031 C 
ATOM     66  C   UNL A   1      46.469  29.037  30.143  1.00  0.00     0.029 A 
ATOM     67  C   UNL A   1      46.482  27.643  30.058  1.00  0.00     0.049 A 
ATOM     68  H   UNL A   1      46.776  26.412  31.750  1.00  0.00     0.167 HD
ATOM     69  C   UNL A   1      45.941  25.483  28.964  1.00  0.00     0.074 A 
ATOM     70  C   UNL A   1      45.475  24.664  30.076  1.00  0.00     0.031 C 
ATOM     71  C   UNL A   1      46.455  26.750  28.914  1.00  0.00     0.034 A 
BRANCH  58  72
ATOM     72  C   UNL A   1      44.910  26.914  34.162  1.00  0.00     0.023 A 
ATOM     73  C   UNL A   1      44.979  27.557  35.410  1.00  0.00     0.031 A 
ATOM     74  C   UNL A   1      45.366  25.576  34.125  1.00  0.00     0.131 A 
ATOM     75  C   UNL A   1      45.524  26.902  36.527  1.00  0.00     0.055 A 
ATOM     76  C   UNL A   1      45.831  24.902  35.256  1.00  0.00     0.041 A 
ATOM     77  F   UNL A   1      45.482  24.888  32.982  1.00  0.00    -0.206 F 
ATOM     78  C   UNL A   1      45.936  25.572  36.463  1.00  0.00     0.022 A 
BRANCH  75  79
ATOM     79  S   UNL A   1      45.862  27.878  38.014  1.00  0.00     0.124 S 
ATOM     80  O   UNL A   1      45.977  26.840  39.033  1.00  0.00    -0.237 OA
ATOM     81  O   UNL A   1      47.097  28.563  37.648  1.00  0.00    -0.237 OA
ATOM     82  O   UNL A   1      44.684  28.734  38.131  1.00  0.00    -0.744 OA
ENDBRANCH  75  79
ENDBRANCH  58  72
BRANCH  59  83
ATOM     83  C   UNL A   1      42.633  22.581  27.155  1.00  0.00     0.023 A 
ATOM     84  C   UNL A   1      43.363  21.697  26.340  1.00  0.00     0.031 A 
ATOM     85  C   UNL A   1      41.443  22.073  27.729  1.00  0.00     0.131 A 
ATOM     86  C   UNL A   1      42.889  20.386  26.110  1.00  0.00     0.055 A 
ATOM     87  C   UNL A   1      40.960  20.790  27.471  1.00  0.00     0.041 A 
ATOM     88  F   UNL A   1      40.746  22.774  28.636  1.00  0.00    -0.206 F 
ATOM     89  C   UNL A   1      41.687  19.936  26.661  1.00  0.00     0.022 A 
BRANCH  86  90
ATOM     90  S   UNL A   1      43.914  19.190  25.200  1.00  0.00     0.124 S 
ATOM     91  O   UNL A   1      43.085  17.990  25.226  1.00  0.00    -0.237 OA
ATOM     92  O   UNL A   1      44.078  19.837  23.903  1.00  0.00    -0.237 OA
ATOM     93  O   UNL A   1      45.136  19.115  26.001  1.00  0.00    -0.744 OA
ENDBRANCH  86  90
ENDBRANCH  59  83
BRANCH  71  94
ATOM     94  C   UNL A   1      46.746  27.360  27.556  1.00  0.00     0.023 A 
ATOM     95  C   UNL A   1      47.959  27.190  26.853  1.00  0.00     0.031 A 
ATOM     96  C   UNL A   1      45.706  28.039  26.896  1.00  0.00     0.131 A 
ATOM     97  C   UNL A   1      48.107  27.712  25.555  1.00  0.00     0.055 A 
ATOM     98  C   UNL A   1      45.846  28.535  25.599  1.00  0.00     0.041 A 
ATOM     99  F   UNL A   1      44.513  28.205  27.493  1.00  0.00    -0.206 F 
ATOM    100  C   UNL A   1      47.053  28.380  24.926  1.00  0.00     0.022 A 
BRANCH  97 101
ATOM    101  S   UNL A   1      49.689  27.540  24.671  1.00  0.00     0.124 S 
ATOM    102  O   UNL A   1      50.506  28.618  25.216  1.00  0.00    -0.237 OA
ATOM    103  O   UNL A   1      50.099  26.183  25.023  1.00  0.00    -0.237 OA
ATOM    104  O   UNL A   1      49.312  27.714  23.266  1.00  0.00    -0.744 OA
ENDBRANCH  97 101
ENDBRANCH  71  94
ENDBRANCH  45  46
ENDBRANCH  38  40
ENDBRANCH  37  38
ENDBRANCH  36  37
ENDBRANCH  35  36
ENDBRANCH  34  35
ENDBRANCH  33  34
ENDBRANCH   1  33
TORSDOF 24
ENDMDL
MODEL 3
REMARK VINA RESULT:      -8.5      7.671     14.422
REMARK SMILES COc1ccc(-n2ccnc2C[N@@H+]2Cc3[nH]cnc3C[C@@H]2C(=O)OCCOCCOCCOC(=O)c2ccc(-c3c4nc(c(-c5cc(S(=O)(=O)[O-])ccc5F)c5ccc([nH]5)c(-c5cc(S(=O)(=O)[O-])ccc5F)c5nc(c(-c6cc(S(=O)(=O)[O-])ccc6F)c6ccc3[nH]6)C=C5)C=C4)cc2)cc1
REMARK SMILES IDX 28 1 27 2 26 3 25 4 24 5 22 6 23 7 21 8 13 9 14 10 15 12
REMARK SMILES IDX 20 13 16 14 19 15 17 16 18 18 12 19 11 20 7 21 8 22 9 23
REMARK SMILES IDX 10 24 6 25 3 26 4 27 100 28 5 29 99 30 2 31 1 32 29 33 30 34
REMARK SMILES IDX 31 35 32 36 33 37 34 38 35 39 36 40 37 41 98 42 38 43 97 44
REMARK SMILES IDX 39 45 40 46 41 47 91 48 42 49 96 50 90 51 92 52 43 53 95 54
REMARK SMILES IDX 89 55 88 56 44 58 76 59 56 60 75 61 57 62 60 63 74 64 93 65
REMARK SMILES IDX 58 66 59 67 73 69 94 70 61 71 45 72 46 73 54 74 47 75 53 76
REMARK SMILES IDX 55 77 52 78 48 79 49 80 50 81 51 82 77 83 78 84 86 85 79 86
REMARK SMILES IDX 85 87 87 88 84 89 80 90 81 91 82 92 83 93 62 94 63 95 71 96
REMARK SMILES IDX 64 97 70 98 72 99 69 100 65 101 66 102 67 103 68 104
REMARK H PARENT 13 11 16 17 92 57 60 68
REMARK Flexibility Score: inf
ROOT
ATOM      1  C   UNL A   1      42.905  41.276  30.405  1.00  0.00     0.188 C 
ENDROOT
BRANCH   1   2
ATOM      2  O   UNL A   1      43.027  40.285  29.391  1.00  0.00    -0.376 OA
BRANCH   2   3
ATOM      3  C   UNL A   1      41.905  40.186  28.512  1.00  0.00     0.202 C 
BRANCH   3   4
ATOM      4  C   UNL A   1      42.173  40.584  27.049  1.00  0.00     0.261 C 
BRANCH   4   5
ATOM      5  O   UNL A   1      43.546  40.395  26.687  1.00  0.00    -0.459 OA
BRANCH   5   6
ATOM      6  C   UNL A   1      44.314  41.485  26.438  1.00  0.00     0.365 C 
ATOM      7  O   UNL A   1      44.313  42.501  27.122  1.00  0.00    -0.245 OA
BRANCH   6   8
ATOM      8  C   UNL A   1      45.183  41.227  25.199  1.00  0.00     0.301 C 
ATOM      9  N   UNL A   1      46.268  40.195  25.419  1.00  0.00    -0.312 N 
ATOM     10  C   UNL A   1      47.008  39.862  24.187  1.00  0.00     0.320 C 
ATOM     11  H   UNL A   1      45.828  39.296  25.615  1.00  0.00     0.349 HD
ATOM     12  C   UNL A   1      47.023  40.992  23.219  1.00  0.00     0.093 A 
ATOM     13  C   UNL A   1      45.665  42.564  24.596  1.00  0.00     0.136 C 
ATOM     14  N   UNL A   1      47.425  40.963  21.912  1.00  0.00    -0.344 N 
ATOM     15  C   UNL A   1      46.443  42.228  23.383  1.00  0.00     0.074 A 
ATOM     16  C   UNL A   1      47.091  42.176  21.364  1.00  0.00     0.197 A 
ATOM     17  H   UNL A   1      47.870  40.215  21.452  1.00  0.00     0.167 HD
ATOM     18  N   UNL A   1      46.514  42.972  22.240  1.00  0.00    -0.241 NA
BRANCH   9  19
ATOM     19  C   UNL A   1      47.011  40.392  26.675  1.00  0.00     0.340 C 
BRANCH  19  20
ATOM     20  C   UNL A   1      48.041  39.397  27.122  1.00  0.00     0.168 A 
ATOM     21  N   UNL A   1      47.777  38.058  27.387  1.00  0.00    -0.299 N 
ATOM     22  C   UNL A   1      48.976  37.484  27.748  1.00  0.00     0.113 A 
ATOM     23  C   UNL A   1      49.914  38.479  27.650  1.00  0.00     0.132 A 
ATOM     24  N   UNL A   1      49.329  39.659  27.287  1.00  0.00    -0.236 NA
BRANCH  21  25
ATOM     25  C   UNL A   1      46.535  37.388  27.392  1.00  0.00     0.047 A 
ATOM     26  C   UNL A   1      44.182  35.911  27.560  1.00  0.00     0.119 A 
ATOM     27  C   UNL A   1      44.245  37.184  28.125  1.00  0.00     0.048 A 
ATOM     28  C   UNL A   1      45.265  35.412  26.836  1.00  0.00     0.048 A 
ATOM     29  C   UNL A   1      45.427  37.925  28.053  1.00  0.00     0.030 A 
ATOM     30  C   UNL A   1      46.442  36.155  26.738  1.00  0.00     0.030 A 
BRANCH  26  31
ATOM     31  O   UNL A   1      43.007  35.226  27.707  1.00  0.00    -0.497 OA
ATOM     32  C   UNL A   1      41.868  36.089  27.670  1.00  0.00     0.278 C 
ENDBRANCH  26  31
ENDBRANCH  21  25
ENDBRANCH  19  20
ENDBRANCH   9  19
ENDBRANCH   6   8
ENDBRANCH   5   6
ENDBRANCH   4   5
ENDBRANCH   3   4
ENDBRANCH   2   3
ENDBRANCH   1   2
BRANCH   1  33
ATOM     33  C   UNL A   1      44.063  42.294  30.446  1.00  0.00     0.188 C 
BRANCH  33  34
ATOM     34  O   UNL A   1      45.108  42.179  31.407  1.00  0.00    -0.376 OA
BRANCH  34  35
ATOM     35  C   UNL A   1      44.807  42.036  32.791  1.00  0.00     0.202 C 
BRANCH  35  36
ATOM     36  C   UNL A   1      45.425  40.919  33.628  1.00  0.00     0.261 C 
BRANCH  36  37
ATOM     37  O   UNL A   1      45.676  39.717  32.920  1.00  0.00    -0.460 OA
BRANCH  37  38
ATOM     38  C   UNL A   1      45.562  38.611  33.676  1.00  0.00     0.338 C 
ATOM     39  O   UNL A   1      46.351  38.232  34.547  1.00  0.00    -0.246 OA
BRANCH  38  40
ATOM     40  C   UNL A   1      44.364  37.866  33.294  1.00  0.00     0.060 A 
ATOM     41  C   UNL A   1      43.282  37.916  34.178  1.00  0.00     0.016 A 
ATOM     42  C   UNL A   1      44.412  36.952  32.231  1.00  0.00     0.016 A 
ATOM     43  C   UNL A   1      42.346  36.908  34.129  1.00  0.00     0.010 A 
ATOM     44  C   UNL A   1      43.480  35.940  32.190  1.00  0.00     0.010 A 
ATOM     45  C   UNL A   1      42.513  35.884  33.195  1.00  0.00    -0.014 A 
BRANCH  45  46
ATOM     46  C   UNL A   1      41.716  34.688  33.365  1.00  0.00     0.031 A 
ATOM     47  C   UNL A   1      40.588  34.512  32.436  1.00  0.00     0.074 A 
ATOM     48  C   UNL A   1      42.059  33.746  34.263  1.00  0.00     0.049 A 
ATOM     49  N   UNL A   1      39.339  34.390  32.738  1.00  0.00    -0.248 NA
ATOM     50  C   UNL A   1      40.864  34.557  30.996  1.00  0.00     0.031 C 
ATOM     51  C   UNL A   1      43.290  33.684  35.055  1.00  0.00     0.029 A 
ATOM     52  N   UNL A   1      41.433  32.571  34.555  1.00  0.00    -0.354 N 
ATOM     53  C   UNL A   1      38.685  34.140  31.540  1.00  0.00     0.074 A 
ATOM     54  C   UNL A   1      39.640  34.402  30.493  1.00  0.00     0.031 C 
ATOM     55  C   UNL A   1      43.427  32.436  35.551  1.00  0.00     0.029 A 
ATOM     56  C   UNL A   1      42.255  31.653  35.193  1.00  0.00     0.049 A 
ATOM     57  H   UNL A   1      40.491  32.392  34.334  1.00  0.00     0.167 HD
ATOM     58  C   UNL A   1      37.464  33.544  31.508  1.00  0.00     0.034 A 
ATOM     59  C   UNL A   1      42.036  30.321  35.329  1.00  0.00     0.034 A 
ATOM     60  C   UNL A   1      36.805  33.602  32.790  1.00  0.00     0.049 A 
ATOM     61  C   UNL A   1      40.575  30.092  35.206  1.00  0.00     0.074 A 
ATOM     62  C   UNL A   1      36.435  34.632  33.635  1.00  0.00     0.029 A 
ATOM     63  N   UNL A   1      36.732  32.457  33.549  1.00  0.00    -0.354 N 
ATOM     64  N   UNL A   1      39.703  30.514  36.079  1.00  0.00    -0.248 NA
ATOM     65  C   UNL A   1      40.020  29.766  33.900  1.00  0.00     0.031 C 
ATOM     66  C   UNL A   1      36.628  34.123  34.951  1.00  0.00     0.029 A 
ATOM     67  C   UNL A   1      37.064  32.801  34.838  1.00  0.00     0.049 A 
ATOM     68  H   UNL A   1      36.489  31.558  33.228  1.00  0.00     0.167 HD
ATOM     69  C   UNL A   1      38.612  30.926  35.330  1.00  0.00     0.074 A 
ATOM     70  C   UNL A   1      38.808  30.316  34.020  1.00  0.00     0.031 C 
ATOM     71  C   UNL A   1      37.813  31.954  35.748  1.00  0.00     0.034 A 
BRANCH  58  72
ATOM     72  C   UNL A   1      36.982  32.667  30.386  1.00  0.00     0.023 A 
ATOM     73  C   UNL A   1      37.689  31.479  30.128  1.00  0.00     0.031 A 
ATOM     74  C   UNL A   1      36.042  33.057  29.404  1.00  0.00     0.131 A 
ATOM     75  C   UNL A   1      37.492  30.771  28.931  1.00  0.00     0.055 A 
ATOM     76  C   UNL A   1      35.791  32.306  28.254  1.00  0.00     0.041 A 
ATOM     77  F   UNL A   1      35.396  34.229  29.453  1.00  0.00    -0.206 F 
ATOM     78  C   UNL A   1      36.536  31.167  27.998  1.00  0.00     0.022 A 
BRANCH  75  79
ATOM     79  S   UNL A   1      38.642  29.432  28.527  1.00  0.00     0.124 S 
ATOM     80  O   UNL A   1      38.110  28.331  29.323  1.00  0.00    -0.237 OA
ATOM     81  O   UNL A   1      38.477  29.322  27.081  1.00  0.00    -0.237 OA
ATOM     82  O   UNL A   1      39.934  29.951  28.970  1.00  0.00    -0.744 OA
ENDBRANCH  75  79
ENDBRANCH  58  72
BRANCH  59  83
ATOM     83  C   UNL A   1      43.064  29.249  35.322  1.00  0.00     0.023 A 
ATOM     84  C   UNL A   1      43.104  28.243  36.306  1.00  0.00     0.031 A 
ATOM     85  C   UNL A   1      43.921  29.075  34.209  1.00  0.00     0.131 A 
ATOM     86  C   UNL A   1      43.983  27.146  36.166  1.00  0.00     0.055 A 
ATOM     87  C   UNL A   1      44.812  28.009  34.092  1.00  0.00     0.041 A 
ATOM     88  F   UNL A   1      43.862  29.891  33.144  1.00  0.00    -0.206 F 
ATOM     89  C   UNL A   1      44.843  27.033  35.072  1.00  0.00     0.022 A 
BRANCH  86  90
ATOM     90  S   UNL A   1      43.913  25.763  37.346  1.00  0.00     0.124 S 
ATOM     91  O   UNL A   1      43.128  24.773  36.616  1.00  0.00    -0.237 OA
ATOM     92  O   UNL A   1      45.322  25.451  37.551  1.00  0.00    -0.237 OA
ATOM     93  O   UNL A   1      43.243  26.346  38.509  1.00  0.00    -0.744 OA
ENDBRANCH  86  90
ENDBRANCH  59  83
BRANCH  71  94
ATOM     94  C   UNL A   1      37.929  32.422  37.186  1.00  0.00     0.023 A 
ATOM     95  C   UNL A   1      37.168  31.900  38.256  1.00  0.00     0.031 A 
ATOM     96  C   UNL A   1      38.939  33.349  37.504  1.00  0.00     0.131 A 
ATOM     97  C   UNL A   1      37.410  32.325  39.574  1.00  0.00     0.055 A 
ATOM     98  C   UNL A   1      39.193  33.751  38.816  1.00  0.00     0.041 A 
ATOM     99  F   UNL A   1      39.724  33.859  36.540  1.00  0.00    -0.206 F 
ATOM    100  C   UNL A   1      38.422  33.246  39.857  1.00  0.00     0.022 A 
BRANCH  97 101
ATOM    101  S   UNL A   1      36.392  31.692  40.945  1.00  0.00     0.124 S 
ATOM    102  O   UNL A   1      35.233  31.116  40.273  1.00  0.00    -0.237 OA
ATOM    103  O   UNL A   1      37.295  30.745  41.594  1.00  0.00    -0.237 OA
ATOM    104  O   UNL A   1      36.104  32.892  41.734  1.00  0.00    -0.744 OA
ENDBRANCH  97 101
ENDBRANCH  71  94
ENDBRANCH  45  46
ENDBRANCH  38  40
ENDBRANCH  37  38
ENDBRANCH  36  37
ENDBRANCH  35  36
ENDBRANCH  34  35
ENDBRANCH  33  34
ENDBRANCH   1  33
TORSDOF 24
ENDMDL
