MODEL 1
REMARK VINA RESULT:     -10.8      0.000      0.000
REMARK SMILES Cc1ccn2c([C@H]3C[C@@H]3C(=O)OCCOCCOCCOC(=O)c3ccc(-c4c5nc(c(-c6cc(S(=O)(=O)[O-])ccc6F)c6ccc([nH]6)c(-c6cc(S(=O)(=O)[O-])ccc6F)c6nc(c(-c7cc(S(=O)(=O)[O-])ccc7F)c7ccc4[nH]7)C=C6)C=C5)cc3)nnc2c1
REMARK SMILES IDX 17 1 16 2 15 3 14 4 13 5 12 6 10 7 11 8 9 9 7 10 8 11 6 12
REMARK SMILES IDX 1 13 2 14 3 15 90 16 4 17 89 18 5 19 88 20 87 21 18 22 19 23
REMARK SMILES IDX 20 24 21 25 22 26 23 27 24 28 25 29 86 30 26 31 85 32 27 33
REMARK SMILES IDX 28 34 29 35 79 36 30 37 84 38 78 39 80 40 31 41 83 42 77 43
REMARK SMILES IDX 76 44 32 46 64 47 44 48 63 49 45 50 48 51 62 52 81 53 46 54
REMARK SMILES IDX 47 55 61 57 82 58 49 59 33 60 34 61 42 62 35 63 41 64 43 65
REMARK SMILES IDX 40 66 36 67 37 68 38 69 39 70 65 71 66 72 74 73 67 74 73 75
REMARK SMILES IDX 75 76 72 77 68 78 69 79 70 80 71 81 50 82 51 83 59 84 52 85
REMARK SMILES IDX 58 86 60 87 57 88 53 89 54 90 55 91 56 92
REMARK H PARENT 80 45 48 56
REMARK Flexibility Score: inf
ROOT
ATOM      1  C   UNL A   1      37.469  22.586  25.771  1.00  0.00     0.188 C 
ENDROOT
BRANCH   1   2
ATOM      2  C   UNL A   1      35.947  22.652  25.964  1.00  0.00     0.188 C 
BRANCH   2   3
ATOM      3  O   UNL A   1      35.240  21.437  26.107  1.00  0.00    -0.376 OA
BRANCH   3   4
ATOM      4  C   UNL A   1      34.025  21.449  26.844  1.00  0.00     0.202 C 
BRANCH   4   5
ATOM      5  C   UNL A   1      32.841  22.286  26.345  1.00  0.00     0.261 C 
BRANCH   5   6
ATOM      6  O   UNL A   1      32.461  23.307  27.287  1.00  0.00    -0.463 OA
BRANCH   6   7
ATOM      7  C   UNL A   1      31.709  24.315  26.757  1.00  0.00     0.309 C 
ATOM      8  O   UNL A   1      30.496  24.342  26.741  1.00  0.00    -0.252 OA
BRANCH   7   9
ATOM      9  C   UNL A   1      32.508  25.478  26.301  1.00  0.00     0.110 C 
ATOM     10  C   UNL A   1      32.627  25.718  24.818  1.00  0.00     0.073 C 
ATOM     11  C   UNL A   1      33.855  25.527  25.653  1.00  0.00     0.028 C 
BRANCH  10  12
ATOM     12  C   UNL A   1      32.304  27.099  24.313  1.00  0.00     0.141 A 
ATOM     13  C   UNL A   1      27.664  29.662  22.671  1.00  0.00     0.044 C 
ATOM     14  C   UNL A   1      28.887  28.963  23.172  1.00  0.00    -0.046 A 
ATOM     15  C   UNL A   1      28.816  27.505  23.287  1.00  0.00     0.022 A 
ATOM     16  C   UNL A   1      30.031  29.632  23.442  1.00  0.00     0.053 A 
ATOM     17  C   UNL A   1      29.899  26.833  23.702  1.00  0.00     0.095 A 
ATOM     18  C   UNL A   1      31.199  28.902  23.780  1.00  0.00     0.161 A 
ATOM     19  N   UNL A   1      31.064  27.541  23.955  1.00  0.00    -0.286 N 
ATOM     20  N   UNL A   1      32.469  29.217  23.879  1.00  0.00    -0.130 NA
ATOM     21  N   UNL A   1      33.175  28.062  24.134  1.00  0.00    -0.134 NA
ENDBRANCH  10  12
ENDBRANCH   7   9
ENDBRANCH   6   7
ENDBRANCH   5   6
ENDBRANCH   4   5
ENDBRANCH   3   4
ENDBRANCH   2   3
ENDBRANCH   1   2
BRANCH   1  22
ATOM     22  O   UNL A   1      38.143  21.352  25.682  1.00  0.00    -0.376 OA
BRANCH  22  23
ATOM     23  C   UNL A   1      39.560  21.438  25.701  1.00  0.00     0.202 C 
BRANCH  23  24
ATOM     24  C   UNL A   1      40.377  20.713  26.807  1.00  0.00     0.261 C 
BRANCH  24  25
ATOM     25  O   UNL A   1      40.721  21.523  27.958  1.00  0.00    -0.460 OA
BRANCH  25  26
ATOM     26  C   UNL A   1      41.828  22.325  27.835  1.00  0.00     0.338 C 
ATOM     27  O   UNL A   1      42.831  22.056  27.197  1.00  0.00    -0.246 OA
BRANCH  26  28
ATOM     28  C   UNL A   1      41.459  23.714  28.272  1.00  0.00     0.060 A 
ATOM     29  C   UNL A   1      40.233  24.307  27.956  1.00  0.00     0.016 A 
ATOM     30  C   UNL A   1      42.510  24.525  28.738  1.00  0.00     0.016 A 
ATOM     31  C   UNL A   1      40.095  25.710  28.016  1.00  0.00     0.010 A 
ATOM     32  C   UNL A   1      42.379  25.923  28.759  1.00  0.00     0.010 A 
ATOM     33  C   UNL A   1      41.177  26.538  28.376  1.00  0.00    -0.014 A 
BRANCH  33  34
ATOM     34  C   UNL A   1      40.954  27.941  28.811  1.00  0.00     0.031 A 
ATOM     35  C   UNL A   1      41.899  28.840  28.144  1.00  0.00     0.074 A 
ATOM     36  C   UNL A   1      40.114  28.535  29.693  1.00  0.00     0.049 A 
ATOM     37  N   UNL A   1      42.951  29.290  28.748  1.00  0.00    -0.248 NA
ATOM     38  C   UNL A   1      41.860  29.078  26.705  1.00  0.00     0.031 C 
ATOM     39  C   UNL A   1      39.371  27.910  30.768  1.00  0.00     0.029 A 
ATOM     40  N   UNL A   1      39.734  29.863  29.818  1.00  0.00    -0.354 N 
ATOM     41  C   UNL A   1      43.553  30.125  27.836  1.00  0.00     0.074 A 
ATOM     42  C   UNL A   1      42.995  29.768  26.552  1.00  0.00     0.031 C 
ATOM     43  C   UNL A   1      38.462  28.772  31.272  1.00  0.00     0.029 A 
ATOM     44  C   UNL A   1      38.570  30.053  30.573  1.00  0.00     0.049 A 
ATOM     45  H   UNL A   1      40.237  30.605  29.411  1.00  0.00     0.167 HD
ATOM     46  C   UNL A   1      44.198  31.235  28.282  1.00  0.00     0.034 A 
ATOM     47  C   UNL A   1      38.051  31.168  31.156  1.00  0.00     0.034 A 
ATOM     48  C   UNL A   1      44.395  31.206  29.714  1.00  0.00     0.049 A 
ATOM     49  C   UNL A   1      39.192  31.963  31.653  1.00  0.00     0.074 A 
ATOM     50  C   UNL A   1      45.294  30.651  30.601  1.00  0.00     0.029 A 
ATOM     51  N   UNL A   1      43.301  31.591  30.446  1.00  0.00    -0.354 N 
ATOM     52  N   UNL A   1      39.911  31.637  32.690  1.00  0.00    -0.248 NA
ATOM     53  C   UNL A   1      39.747  33.014  30.801  1.00  0.00     0.031 C 
ATOM     54  C   UNL A   1      44.682  30.684  31.889  1.00  0.00     0.029 A 
ATOM     55  C   UNL A   1      43.429  31.274  31.773  1.00  0.00     0.049 A 
ATOM     56  H   UNL A   1      42.517  32.045  30.062  1.00  0.00     0.167 HD
ATOM     57  C   UNL A   1      41.173  32.068  32.340  1.00  0.00     0.074 A 
ATOM     58  C   UNL A   1      40.986  33.057  31.290  1.00  0.00     0.031 C 
ATOM     59  C   UNL A   1      42.280  31.345  32.654  1.00  0.00     0.034 A 
BRANCH  46  60
ATOM     60  C   UNL A   1      44.234  32.530  27.513  1.00  0.00     0.023 A 
ATOM     61  C   UNL A   1      43.568  33.692  27.944  1.00  0.00     0.031 A 
ATOM     62  C   UNL A   1      45.126  32.698  26.438  1.00  0.00     0.131 A 
ATOM     63  C   UNL A   1      43.751  34.926  27.316  1.00  0.00     0.055 A 
ATOM     64  C   UNL A   1      45.367  33.947  25.854  1.00  0.00     0.041 A 
ATOM     65  F   UNL A   1      45.826  31.661  25.951  1.00  0.00    -0.206 F 
ATOM     66  C   UNL A   1      44.675  35.071  26.290  1.00  0.00     0.022 A 
BRANCH  63  67
ATOM     67  S   UNL A   1      42.778  36.361  27.847  1.00  0.00     0.124 S 
ATOM     68  O   UNL A   1      41.543  35.736  28.305  1.00  0.00    -0.237 OA
ATOM     69  O   UNL A   1      43.632  36.923  28.891  1.00  0.00    -0.237 OA
ATOM     70  O   UNL A   1      42.673  37.171  26.637  1.00  0.00    -0.744 OA
ENDBRANCH  63  67
ENDBRANCH  46  60
BRANCH  47  71
ATOM     71  C   UNL A   1      36.812  31.870  30.708  1.00  0.00     0.023 A 
ATOM     72  C   UNL A   1      36.122  32.807  31.500  1.00  0.00     0.031 A 
ATOM     73  C   UNL A   1      36.233  31.526  29.468  1.00  0.00     0.131 A 
ATOM     74  C   UNL A   1      34.901  33.348  31.057  1.00  0.00     0.055 A 
ATOM     75  C   UNL A   1      35.013  32.059  29.035  1.00  0.00     0.041 A 
ATOM     76  F   UNL A   1      36.841  30.650  28.653  1.00  0.00    -0.206 F 
ATOM     77  C   UNL A   1      34.339  32.970  29.834  1.00  0.00     0.022 A 
BRANCH  74  78
ATOM     78  S   UNL A   1      34.010  34.604  32.021  1.00  0.00     0.124 S 
ATOM     79  O   UNL A   1      33.191  35.250  30.993  1.00  0.00    -0.237 OA
ATOM     80  O   UNL A   1      33.273  33.783  32.976  1.00  0.00    -0.237 OA
ATOM     81  O   UNL A   1      35.063  35.445  32.576  1.00  0.00    -0.744 OA
ENDBRANCH  74  78
ENDBRANCH  47  71
BRANCH  59  82
ATOM     82  C   UNL A   1      42.263  30.479  33.876  1.00  0.00     0.023 A 
ATOM     83  C   UNL A   1      42.531  31.119  35.095  1.00  0.00     0.031 A 
ATOM     84  C   UNL A   1      42.160  29.080  33.881  1.00  0.00     0.131 A 
ATOM     85  C   UNL A   1      42.769  30.368  36.249  1.00  0.00     0.055 A 
ATOM     86  C   UNL A   1      42.329  28.332  35.051  1.00  0.00     0.041 A 
ATOM     87  F   UNL A   1      41.964  28.395  32.751  1.00  0.00    -0.206 F 
ATOM     88  C   UNL A   1      42.658  28.976  36.240  1.00  0.00     0.022 A 
BRANCH  85  89
ATOM     89  S   UNL A   1      43.388  31.181  37.741  1.00  0.00     0.124 S 
ATOM     90  O   UNL A   1      42.155  31.548  38.431  1.00  0.00    -0.237 OA
ATOM     91  O   UNL A   1      44.165  30.115  38.370  1.00  0.00    -0.237 OA
ATOM     92  O   UNL A   1      44.176  32.301  37.234  1.00  0.00    -0.744 OA
ENDBRANCH  85  89
ENDBRANCH  59  82
ENDBRANCH  33  34
ENDBRANCH  26  28
ENDBRANCH  25  26
ENDBRANCH  24  25
ENDBRANCH  23  24
ENDBRANCH  22  23
ENDBRANCH   1  22
TORSDOF 21
ENDMDL
MODEL 2
REMARK VINA RESULT:     -10.8      4.900     11.520
REMARK SMILES Cc1ccn2c([C@H]3C[C@@H]3C(=O)OCCOCCOCCOC(=O)c3ccc(-c4c5nc(c(-c6cc(S(=O)(=O)[O-])ccc6F)c6ccc([nH]6)c(-c6cc(S(=O)(=O)[O-])ccc6F)c6nc(c(-c7cc(S(=O)(=O)[O-])ccc7F)c7ccc4[nH]7)C=C6)C=C5)cc3)nnc2c1
REMARK SMILES IDX 17 1 16 2 15 3 14 4 13 5 12 6 10 7 11 8 9 9 7 10 8 11 6 12
REMARK SMILES IDX 1 13 2 14 3 15 90 16 4 17 89 18 5 19 88 20 87 21 18 22 19 23
REMARK SMILES IDX 20 24 21 25 22 26 23 27 24 28 25 29 86 30 26 31 85 32 27 33
REMARK SMILES IDX 28 34 29 35 79 36 30 37 84 38 78 39 80 40 31 41 83 42 77 43
REMARK SMILES IDX 76 44 32 46 64 47 44 48 63 49 45 50 48 51 62 52 81 53 46 54
REMARK SMILES IDX 47 55 61 57 82 58 49 59 33 60 34 61 42 62 35 63 41 64 43 65
REMARK SMILES IDX 40 66 36 67 37 68 38 69 39 70 65 71 66 72 74 73 67 74 73 75
REMARK SMILES IDX 75 76 72 77 68 78 69 79 70 80 71 81 50 82 51 83 59 84 52 85
REMARK SMILES IDX 58 86 60 87 57 88 53 89 54 90 55 91 56 92
REMARK H PARENT 80 45 48 56
REMARK Flexibility Score: inf
ROOT
ATOM      1  C   UNL A   1      34.830  32.724  32.497  1.00  0.00     0.188 C 
ENDROOT
BRANCH   1   2
ATOM      2  C   UNL A   1      36.357  32.670  32.649  1.00  0.00     0.188 C 
BRANCH   2   3
ATOM      3  O   UNL A   1      36.914  31.627  33.422  1.00  0.00    -0.376 OA
BRANCH   3   4
ATOM      4  C   UNL A   1      38.322  31.608  33.609  1.00  0.00     0.202 C 
BRANCH   4   5
ATOM      5  C   UNL A   1      39.152  32.853  33.273  1.00  0.00     0.261 C 
BRANCH   5   6
ATOM      6  O   UNL A   1      39.744  32.776  31.963  1.00  0.00    -0.463 OA
BRANCH   6   7
ATOM      7  C   UNL A   1      39.635  33.917  31.223  1.00  0.00     0.309 C 
ATOM      8  O   UNL A   1      38.588  34.432  30.891  1.00  0.00    -0.252 OA
BRANCH   7   9
ATOM      9  C   UNL A   1      40.935  34.578  30.953  1.00  0.00     0.110 C 
ATOM     10  C   UNL A   1      41.784  34.040  29.830  1.00  0.00     0.073 C 
ATOM     11  C   UNL A   1      42.329  34.110  31.222  1.00  0.00     0.028 C 
BRANCH  10  12
ATOM     12  C   UNL A   1      42.284  35.025  28.808  1.00  0.00     0.141 A 
ATOM     13  C   UNL A   1      47.285  36.968  27.391  1.00  0.00     0.044 C 
ATOM     14  C   UNL A   1      45.959  36.385  27.757  1.00  0.00    -0.046 A 
ATOM     15  C   UNL A   1      45.879  35.668  29.031  1.00  0.00     0.022 A 
ATOM     16  C   UNL A   1      44.862  36.566  26.986  1.00  0.00     0.053 A 
ATOM     17  C   UNL A   1      44.701  35.155  29.416  1.00  0.00     0.095 A 
ATOM     18  C   UNL A   1      43.603  36.110  27.451  1.00  0.00     0.161 A 
ATOM     19  N   UNL A   1      43.590  35.371  28.615  1.00  0.00    -0.286 N 
ATOM     20  N   UNL A   1      42.365  36.316  27.068  1.00  0.00    -0.130 NA
ATOM     21  N   UNL A   1      41.530  35.699  27.973  1.00  0.00    -0.134 NA
ENDBRANCH  10  12
ENDBRANCH   7   9
ENDBRANCH   6   7
ENDBRANCH   5   6
ENDBRANCH   4   5
ENDBRANCH   3   4
ENDBRANCH   2   3
ENDBRANCH   1   2
BRANCH   1  22
ATOM     22  O   UNL A   1      34.227  33.004  31.255  1.00  0.00    -0.376 OA
BRANCH  22  23
ATOM     23  C   UNL A   1      34.626  34.226  30.654  1.00  0.00     0.202 C 
BRANCH  23  24
ATOM     24  C   UNL A   1      34.467  34.438  29.123  1.00  0.00     0.261 C 
BRANCH  24  25
ATOM     25  O   UNL A   1      35.313  33.609  28.289  1.00  0.00    -0.460 OA
BRANCH  25  26
ATOM     26  C   UNL A   1      34.888  32.324  28.068  1.00  0.00     0.338 C 
ATOM     27  O   UNL A   1      33.815  32.005  27.586  1.00  0.00    -0.246 OA
BRANCH  26  28
ATOM     28  C   UNL A   1      36.077  31.410  28.144  1.00  0.00     0.060 A 
ATOM     29  C   UNL A   1      36.009  30.049  27.833  1.00  0.00     0.016 A 
ATOM     30  C   UNL A   1      37.196  31.894  28.846  1.00  0.00     0.016 A 
ATOM     31  C   UNL A   1      37.005  29.169  28.305  1.00  0.00     0.010 A 
ATOM     32  C   UNL A   1      38.164  31.009  29.347  1.00  0.00     0.010 A 
ATOM     33  C   UNL A   1      38.072  29.630  29.103  1.00  0.00    -0.014 A 
BRANCH  33  34
ATOM     34  C   UNL A   1      39.302  28.816  29.278  1.00  0.00     0.031 A 
ATOM     35  C   UNL A   1      39.580  28.608  30.702  1.00  0.00     0.074 A 
ATOM     36  C   UNL A   1      40.209  28.279  28.427  1.00  0.00     0.049 A 
ATOM     37  N   UNL A   1      40.480  29.294  31.327  1.00  0.00    -0.248 NA
ATOM     38  C   UNL A   1      38.703  27.812  31.555  1.00  0.00     0.031 C 
ATOM     39  C   UNL A   1      40.442  28.633  27.041  1.00  0.00     0.029 A 
ATOM     40  N   UNL A   1      41.143  27.273  28.625  1.00  0.00    -0.354 N 
ATOM     41  C   UNL A   1      40.486  28.790  32.606  1.00  0.00     0.074 A 
ATOM     42  C   UNL A   1      39.236  28.079  32.751  1.00  0.00     0.031 C 
ATOM     43  C   UNL A   1      41.249  27.723  26.456  1.00  0.00     0.029 A 
ATOM     44  C   UNL A   1      41.635  26.712  27.441  1.00  0.00     0.049 A 
ATOM     45  H   UNL A   1      41.432  26.979  29.519  1.00  0.00     0.167 HD
ATOM     46  C   UNL A   1      41.660  28.737  33.290  1.00  0.00     0.034 A 
ATOM     47  C   UNL A   1      42.731  25.942  27.200  1.00  0.00     0.034 A 
ATOM     48  C   UNL A   1      42.697  29.507  32.642  1.00  0.00     0.049 A 
ATOM     49  C   UNL A   1      43.803  26.431  28.090  1.00  0.00     0.074 A 
ATOM     50  C   UNL A   1      43.095  30.826  32.589  1.00  0.00     0.029 A 
ATOM     51  N   UNL A   1      43.316  28.863  31.601  1.00  0.00    -0.354 N 
ATOM     52  N   UNL A   1      44.436  27.557  27.918  1.00  0.00    -0.248 NA
ATOM     53  C   UNL A   1      43.991  25.790  29.391  1.00  0.00     0.031 C 
ATOM     54  C   UNL A   1      43.948  30.958  31.454  1.00  0.00     0.029 A 
ATOM     55  C   UNL A   1      44.072  29.717  30.841  1.00  0.00     0.049 A 
ATOM     56  H   UNL A   1      43.229  27.899  31.423  1.00  0.00     0.167 HD
ATOM     57  C   UNL A   1      44.672  27.981  29.207  1.00  0.00     0.074 A 
ATOM     58  C   UNL A   1      44.561  26.799  30.049  1.00  0.00     0.031 C 
ATOM     59  C   UNL A   1      44.576  29.293  29.550  1.00  0.00     0.034 A 
BRANCH  46  60
ATOM     60  C   UNL A   1      41.993  27.639  34.266  1.00  0.00     0.023 A 
ATOM     61  C   UNL A   1      42.753  26.509  33.913  1.00  0.00     0.031 A 
ATOM     62  C   UNL A   1      41.745  27.805  35.641  1.00  0.00     0.131 A 
ATOM     63  C   UNL A   1      43.200  25.590  34.866  1.00  0.00     0.055 A 
ATOM     64  C   UNL A   1      42.253  26.926  36.605  1.00  0.00     0.041 A 
ATOM     65  F   UNL A   1      41.041  28.854  36.096  1.00  0.00    -0.206 F 
ATOM     66  C   UNL A   1      42.983  25.807  36.219  1.00  0.00     0.022 A 
BRANCH  63  67
ATOM     67  S   UNL A   1      44.078  24.095  34.334  1.00  0.00     0.124 S 
ATOM     68  O   UNL A   1      44.509  24.460  32.989  1.00  0.00    -0.237 OA
ATOM     69  O   UNL A   1      45.136  24.006  35.338  1.00  0.00    -0.237 OA
ATOM     70  O   UNL A   1      43.061  23.051  34.418  1.00  0.00    -0.744 OA
ENDBRANCH  63  67
ENDBRANCH  46  60
BRANCH  47  71
ATOM     71  C   UNL A   1      42.696  24.497  26.826  1.00  0.00     0.023 A 
ATOM     72  C   UNL A   1      43.666  23.883  26.011  1.00  0.00     0.031 A 
ATOM     73  C   UNL A   1      41.596  23.707  27.221  1.00  0.00     0.131 A 
ATOM     74  C   UNL A   1      43.510  22.544  25.609  1.00  0.00     0.055 A 
ATOM     75  C   UNL A   1      41.438  22.377  26.812  1.00  0.00     0.041 A 
ATOM     76  F   UNL A   1      40.638  24.220  28.010  1.00  0.00    -0.206 F 
ATOM     77  C   UNL A   1      42.397  21.793  25.997  1.00  0.00     0.022 A 
BRANCH  74  78
ATOM     78  S   UNL A   1      44.767  21.696  24.608  1.00  0.00     0.124 S 
ATOM     79  O   UNL A   1      44.335  20.300  24.696  1.00  0.00    -0.237 OA
ATOM     80  O   UNL A   1      44.584  22.321  23.302  1.00  0.00    -0.237 OA
ATOM     81  O   UNL A   1      46.023  21.988  25.288  1.00  0.00    -0.744 OA
ENDBRANCH  74  78
ENDBRANCH  47  71
BRANCH  59  82
ATOM     82  C   UNL A   1      44.862  30.339  28.517  1.00  0.00     0.023 A 
ATOM     83  C   UNL A   1      46.214  30.642  28.297  1.00  0.00     0.031 A 
ATOM     84  C   UNL A   1      43.901  31.138  27.879  1.00  0.00     0.131 A 
ATOM     85  C   UNL A   1      46.572  31.756  27.534  1.00  0.00     0.055 A 
ATOM     86  C   UNL A   1      44.262  32.211  27.058  1.00  0.00     0.041 A 
ATOM     87  F   UNL A   1      42.595  30.948  28.084  1.00  0.00    -0.206 F 
ATOM     88  C   UNL A   1      45.604  32.538  26.900  1.00  0.00     0.022 A 
BRANCH  85  89
ATOM     89  S   UNL A   1      48.296  32.300  27.489  1.00  0.00     0.124 S 
ATOM     90  O   UNL A   1      49.014  31.098  27.901  1.00  0.00    -0.237 OA
ATOM     91  O   UNL A   1      48.461  32.679  26.087  1.00  0.00    -0.237 OA
ATOM     92  O   UNL A   1      48.343  33.410  28.437  1.00  0.00    -0.744 OA
ENDBRANCH  85  89
ENDBRANCH  59  82
ENDBRANCH  33  34
ENDBRANCH  26  28
ENDBRANCH  25  26
ENDBRANCH  24  25
ENDBRANCH  23  24
ENDBRANCH  22  23
ENDBRANCH   1  22
TORSDOF 21
ENDMDL
MODEL 3
REMARK VINA RESULT:     -10.6      3.658      9.245
REMARK SMILES Cc1ccn2c([C@H]3C[C@@H]3C(=O)OCCOCCOCCOC(=O)c3ccc(-c4c5nc(c(-c6cc(S(=O)(=O)[O-])ccc6F)c6ccc([nH]6)c(-c6cc(S(=O)(=O)[O-])ccc6F)c6nc(c(-c7cc(S(=O)(=O)[O-])ccc7F)c7ccc4[nH]7)C=C6)C=C5)cc3)nnc2c1
REMARK SMILES IDX 17 1 16 2 15 3 14 4 13 5 12 6 10 7 11 8 9 9 7 10 8 11 6 12
REMARK SMILES IDX 1 13 2 14 3 15 90 16 4 17 89 18 5 19 88 20 87 21 18 22 19 23
REMARK SMILES IDX 20 24 21 25 22 26 23 27 24 28 25 29 86 30 26 31 85 32 27 33
REMARK SMILES IDX 28 34 29 35 79 36 30 37 84 38 78 39 80 40 31 41 83 42 77 43
REMARK SMILES IDX 76 44 32 46 64 47 44 48 63 49 45 50 48 51 62 52 81 53 46 54
REMARK SMILES IDX 47 55 61 57 82 58 49 59 33 60 34 61 42 62 35 63 41 64 43 65
REMARK SMILES IDX 40 66 36 67 37 68 38 69 39 70 65 71 66 72 74 73 67 74 73 75
REMARK SMILES IDX 75 76 72 77 68 78 69 79 70 80 71 81 50 82 51 83 59 84 52 85
REMARK SMILES IDX 58 86 60 87 57 88 53 89 54 90 55 91 56 92
REMARK H PARENT 80 45 48 56
REMARK Flexibility Score: inf
ROOT
ATOM      1  C   UNL A   1      35.927  31.241  27.714  1.00  0.00     0.188 C 
ENDROOT
BRANCH   1   2
ATOM      2  C   UNL A   1      35.007  30.025  27.898  1.00  0.00     0.188 C 
BRANCH   2   3
ATOM      3  O   UNL A   1      34.439  29.438  26.744  1.00  0.00    -0.376 OA
BRANCH   3   4
ATOM      4  C   UNL A   1      33.189  29.931  26.286  1.00  0.00     0.202 C 
BRANCH   4   5
ATOM      5  C   UNL A   1      31.901  29.168  26.620  1.00  0.00     0.261 C 
BRANCH   5   6
ATOM      6  O   UNL A   1      31.500  28.284  25.556  1.00  0.00    -0.463 OA
BRANCH   6   7
ATOM      7  C   UNL A   1      31.199  28.911  24.382  1.00  0.00     0.309 C 
ATOM      8  O   UNL A   1      30.480  29.883  24.277  1.00  0.00    -0.252 OA
BRANCH   7   9
ATOM      9  C   UNL A   1      31.943  28.378  23.214  1.00  0.00     0.110 C 
ATOM     10  C   UNL A   1      33.273  27.714  23.464  1.00  0.00     0.073 C 
ATOM     11  C   UNL A   1      33.177  28.890  22.543  1.00  0.00     0.028 C 
BRANCH  10  12
ATOM     12  C   UNL A   1      33.485  26.347  22.871  1.00  0.00     0.141 A 
ATOM     13  C   UNL A   1      34.597  21.326  24.955  1.00  0.00     0.044 C 
ATOM     14  C   UNL A   1      34.242  22.678  24.428  1.00  0.00    -0.046 A 
ATOM     15  C   UNL A   1      34.430  23.812  25.335  1.00  0.00     0.022 A 
ATOM     16  C   UNL A   1      33.833  22.863  23.152  1.00  0.00     0.053 A 
ATOM     17  C   UNL A   1      34.154  25.049  24.895  1.00  0.00     0.095 A 
ATOM     18  C   UNL A   1      33.643  24.182  22.667  1.00  0.00     0.161 A 
ATOM     19  N   UNL A   1      33.753  25.211  23.578  1.00  0.00    -0.286 N 
ATOM     20  N   UNL A   1      33.473  24.693  21.470  1.00  0.00    -0.130 NA
ATOM     21  N   UNL A   1      33.456  26.064  21.591  1.00  0.00    -0.134 NA
ENDBRANCH  10  12
ENDBRANCH   7   9
ENDBRANCH   6   7
ENDBRANCH   5   6
ENDBRANCH   4   5
ENDBRANCH   3   4
ENDBRANCH   2   3
ENDBRANCH   1   2
BRANCH   1  22
ATOM     22  O   UNL A   1      35.404  32.544  27.603  1.00  0.00    -0.376 OA
BRANCH  22  23
ATOM     23  C   UNL A   1      34.251  32.799  28.391  1.00  0.00     0.202 C 
BRANCH  23  24
ATOM     24  C   UNL A   1      34.320  33.790  29.587  1.00  0.00     0.261 C 
BRANCH  24  25
ATOM     25  O   UNL A   1      35.468  33.636  30.457  1.00  0.00    -0.460 OA
BRANCH  25  26
ATOM     26  C   UNL A   1      35.455  32.558  31.306  1.00  0.00     0.338 C 
ATOM     27  O   UNL A   1      34.469  32.102  31.858  1.00  0.00    -0.246 OA
BRANCH  26  28
ATOM     28  C   UNL A   1      36.745  31.807  31.139  1.00  0.00     0.060 A 
ATOM     29  C   UNL A   1      37.917  32.408  30.672  1.00  0.00     0.016 A 
ATOM     30  C   UNL A   1      36.661  30.403  31.163  1.00  0.00     0.016 A 
ATOM     31  C   UNL A   1      38.955  31.610  30.145  1.00  0.00     0.010 A 
ATOM     32  C   UNL A   1      37.680  29.616  30.602  1.00  0.00     0.010 A 
ATOM     33  C   UNL A   1      38.832  30.208  30.064  1.00  0.00    -0.014 A 
BRANCH  33  34
ATOM     34  C   UNL A   1      40.028  29.346  29.882  1.00  0.00     0.031 A 
ATOM     35  C   UNL A   1      40.601  28.984  31.182  1.00  0.00     0.074 A 
ATOM     36  C   UNL A   1      40.697  28.874  28.802  1.00  0.00     0.049 A 
ATOM     37  N   UNL A   1      41.650  29.577  31.650  1.00  0.00    -0.248 NA
ATOM     38  C   UNL A   1      39.894  28.130  32.130  1.00  0.00     0.031 C 
ATOM     39  C   UNL A   1      40.637  29.361  27.439  1.00  0.00     0.029 A 
ATOM     40  N   UNL A   1      41.599  27.826  28.691  1.00  0.00    -0.354 N 
ATOM     41  C   UNL A   1      41.912  28.943  32.843  1.00  0.00     0.074 A 
ATOM     42  C   UNL A   1      40.690  28.258  33.196  1.00  0.00     0.031 C 
ATOM     43  C   UNL A   1      41.249  28.494  26.605  1.00  0.00     0.029 A 
ATOM     44  C   UNL A   1      41.790  27.376  27.379  1.00  0.00     0.049 A 
ATOM     45  H   UNL A   1      42.063  27.434  29.466  1.00  0.00     0.167 HD
ATOM     46  C   UNL A   1      43.203  28.787  33.239  1.00  0.00     0.034 A 
ATOM     47  C   UNL A   1      42.766  26.604  26.828  1.00  0.00     0.034 A 
ATOM     48  C   UNL A   1      44.110  29.590  32.450  1.00  0.00     0.049 A 
ATOM     49  C   UNL A   1      44.030  26.968  27.497  1.00  0.00     0.074 A 
ATOM     50  C   UNL A   1      44.553  30.895  32.434  1.00  0.00     0.029 A 
ATOM     51  N   UNL A   1      44.452  29.039  31.241  1.00  0.00    -0.354 N 
ATOM     52  N   UNL A   1      44.666  28.088  27.294  1.00  0.00    -0.248 NA
ATOM     53  C   UNL A   1      44.467  26.191  28.657  1.00  0.00     0.031 C 
ATOM     54  C   UNL A   1      45.141  31.119  31.154  1.00  0.00     0.029 A 
ATOM     55  C   UNL A   1      45.065  29.945  30.415  1.00  0.00     0.049 A 
ATOM     56  H   UNL A   1      44.278  28.101  30.997  1.00  0.00     0.167 HD
ATOM     57  C   UNL A   1      45.201  28.369  28.533  1.00  0.00     0.074 A 
ATOM     58  C   UNL A   1      45.218  27.111  29.262  1.00  0.00     0.031 C 
ATOM     59  C   UNL A   1      45.250  29.642  29.010  1.00  0.00     0.034 A 
BRANCH  46  60
ATOM     60  C   UNL A   1      43.686  27.585  34.008  1.00  0.00     0.023 A 
ATOM     61  C   UNL A   1      43.762  26.299  33.444  1.00  0.00     0.031 A 
ATOM     62  C   UNL A   1      44.298  27.740  35.265  1.00  0.00     0.131 A 
ATOM     63  C   UNL A   1      44.373  25.233  34.110  1.00  0.00     0.055 A 
ATOM     64  C   UNL A   1      44.975  26.693  35.902  1.00  0.00     0.041 A 
ATOM     65  F   UNL A   1      44.299  28.927  35.893  1.00  0.00    -0.206 F 
ATOM     66  C   UNL A   1      45.012  25.428  35.326  1.00  0.00     0.022 A 
BRANCH  63  67
ATOM     67  S   UNL A   1      44.338  23.574  33.379  1.00  0.00     0.124 S 
ATOM     68  O   UNL A   1      44.341  23.872  31.952  1.00  0.00    -0.237 OA
ATOM     69  O   UNL A   1      45.570  22.995  33.911  1.00  0.00    -0.237 OA
ATOM     70  O   UNL A   1      43.108  22.992  33.907  1.00  0.00    -0.744 OA
ENDBRANCH  63  67
ENDBRANCH  46  60
BRANCH  47  71
ATOM     71  C   UNL A   1      42.576  25.207  26.337  1.00  0.00     0.023 A 
ATOM     72  C   UNL A   1      41.538  24.365  26.779  1.00  0.00     0.031 A 
ATOM     73  C   UNL A   1      43.525  24.649  25.456  1.00  0.00     0.131 A 
ATOM     74  C   UNL A   1      41.485  23.023  26.357  1.00  0.00     0.055 A 
ATOM     75  C   UNL A   1      43.475  23.311  25.045  1.00  0.00     0.041 A 
ATOM     76  F   UNL A   1      44.535  25.395  24.982  1.00  0.00    -0.206 F 
ATOM     77  C   UNL A   1      42.453  22.491  25.501  1.00  0.00     0.022 A 
BRANCH  74  78
ATOM     78  S   UNL A   1      40.129  21.920  26.854  1.00  0.00     0.124 S 
ATOM     79  O   UNL A   1      40.062  20.992  25.723  1.00  0.00    -0.237 OA
ATOM     80  O   UNL A   1      40.645  21.351  28.094  1.00  0.00    -0.237 OA
ATOM     81  O   UNL A   1      38.977  22.804  26.984  1.00  0.00    -0.744 OA
ENDBRANCH  74  78
ENDBRANCH  47  71
BRANCH  59  82
ATOM     82  C   UNL A   1      45.354  30.780  28.041  1.00  0.00     0.023 A 
ATOM     83  C   UNL A   1      46.650  31.146  27.652  1.00  0.00     0.031 A 
ATOM     84  C   UNL A   1      44.291  31.595  27.626  1.00  0.00     0.131 A 
ATOM     85  C   UNL A   1      46.866  32.332  26.945  1.00  0.00     0.055 A 
ATOM     86  C   UNL A   1      44.501  32.745  26.859  1.00  0.00     0.041 A 
ATOM     87  F   UNL A   1      43.035  31.344  28.005  1.00  0.00    -0.206 F 
ATOM     88  C   UNL A   1      45.797  33.131  26.533  1.00  0.00     0.022 A 
BRANCH  85  89
ATOM     89  S   UNL A   1      48.551  32.937  26.693  1.00  0.00     0.124 S 
ATOM     90  O   UNL A   1      48.431  33.686  25.446  1.00  0.00    -0.237 OA
ATOM     91  O   UNL A   1      48.768  33.745  27.891  1.00  0.00    -0.237 OA
ATOM     92  O   UNL A   1      49.357  31.722  26.615  1.00  0.00    -0.744 OA
ENDBRANCH  85  89
ENDBRANCH  59  82
ENDBRANCH  33  34
ENDBRANCH  26  28
ENDBRANCH  25  26
ENDBRANCH  24  25
ENDBRANCH  23  24
ENDBRANCH  22  23
ENDBRANCH   1  22
TORSDOF 21
ENDMDL
