MODEL 1
REMARK VINA RESULT:     -10.8      0.000      0.000
REMARK SMILES CC[C@@](C)(NC(=O)Nc1c(C)cccc1Cl)C(=O)OCCOCCOCCOC(=O)c1ccc(-c2c3nc(c(-c4cc(S(=O)(=O)[O-])ccc4F)c4ccc([nH]4)c(-c4cc(S(=O)(=O)[O-])ccc4F)c4nc(c(-c5cc(S(=O)(=O)[O-])ccc5F)c5ccc2[nH]5)C=C4)C=C3)cc1
REMARK SMILES IDX 24 1 23 2 22 3 21 4 20 5 19 6 17 7 18 8 3 9 4 10 2 11 1 12
REMARK SMILES IDX 5 13 6 14 7 16 8 17 9 19 10 20 15 21 11 22 12 23 14 24 16 25
REMARK SMILES IDX 13 26 25 27 26 28 27 29 28 30 29 31 30 32 31 33 32 34 93 35
REMARK SMILES IDX 33 36 92 37 34 38 35 39 36 40 86 41 37 42 91 43 85 44 87 45
REMARK SMILES IDX 38 46 90 47 84 48 83 49 39 51 71 52 51 53 70 54 52 55 55 56
REMARK SMILES IDX 69 57 88 58 53 59 54 60 68 62 89 63 56 64 40 65 41 66 49 67
REMARK SMILES IDX 42 68 48 69 50 70 47 71 43 72 44 73 45 74 46 75 72 76 73 77
REMARK SMILES IDX 81 78 74 79 80 80 82 81 79 82 75 83 76 84 77 85 78 86 57 87
REMARK SMILES IDX 58 88 66 89 59 90 65 91 67 92 64 93 60 94 61 95 62 96 63 97
REMARK H PARENT 5 15 8 18 87 50 55 61
REMARK Flexibility Score: inf
ROOT
ATOM      1  C   UNL A   1      33.308  29.761  25.666  1.00  0.00     0.188 C 
ENDROOT
BRANCH   1   2
ATOM      2  C   UNL A   1      32.872  28.291  25.321  1.00  0.00     0.188 C 
BRANCH   2   3
ATOM      3  O   UNL A   1      33.681  27.660  24.262  1.00  0.00    -0.376 OA
BRANCH   3   4
ATOM      4  C   UNL A   1      33.189  27.644  22.882  1.00  0.00     0.202 C 
BRANCH   4   5
ATOM      5  C   UNL A   1      32.168  26.359  22.417  1.00  0.00     0.261 C 
BRANCH   5   6
ATOM      6  O   UNL A   1      31.402  25.474  23.461  1.00  0.00    -0.462 OA
BRANCH   6   7
ATOM      7  C   UNL A   1      31.232  24.132  23.927  1.00  0.00     0.331 C 
ATOM      8  O   UNL A   1      30.643  23.281  23.255  1.00  0.00    -0.249 OA
BRANCH   7   9
ATOM      9  C   UNL A   1      31.866  23.726  25.539  1.00  0.00     0.136 C 
ATOM     10  C   UNL A   1      30.855  24.148  26.634  1.00  0.00     0.047 C 
BRANCH   9  11
ATOM     11  C   UNL A   1      32.732  22.572  26.332  1.00  0.00     0.037 C 
ATOM     12  C   UNL A   1      32.941  22.460  27.829  1.00  0.00     0.007 C 
ENDBRANCH   9  11
BRANCH   9  13
ATOM     13  N   UNL A   1      32.889  24.695  25.360  1.00  0.00    -0.322 N 
ATOM     14  C   UNL A   1      34.055  24.226  24.858  1.00  0.00     0.320 C 
ATOM     15  H   UNL A   1      32.760  25.645  25.585  1.00  0.00     0.166 HD
ATOM     16  O   UNL A   1      35.005  25.004  24.795  1.00  0.00    -0.248 OA
ATOM     17  N   UNL A   1      34.208  22.892  24.509  1.00  0.00    -0.306 N 
ATOM     18  H   UNL A   1      35.182  22.777  24.420  1.00  0.00     0.171 HD
BRANCH  17  19
ATOM     19  C   UNL A   1      33.641  21.517  24.195  1.00  0.00     0.064 A 
ATOM     20  C   UNL A   1      32.614  20.833  23.391  1.00  0.00    -0.026 A 
ATOM     21  C   UNL A   1      34.485  20.597  24.850  1.00  0.00     0.064 A 
ATOM     22  C   UNL A   1      31.848  21.085  22.081  1.00  0.00     0.046 C 
ATOM     23  C   UNL A   1      32.374  19.432  23.610  1.00  0.00     0.005 A 
ATOM     24  C   UNL A   1      34.450  19.216  24.689  1.00  0.00     0.023 A 
ATOM     25  Cl  UNL A   1      35.622  21.153  26.017  1.00  0.00    -0.082 Cl
ATOM     26  C   UNL A   1      33.334  18.622  24.163  1.00  0.00     0.002 A 
ENDBRANCH  17  19
ENDBRANCH   9  13
ENDBRANCH   7   9
ENDBRANCH   6   7
ENDBRANCH   5   6
ENDBRANCH   4   5
ENDBRANCH   3   4
ENDBRANCH   2   3
ENDBRANCH   1   2
BRANCH   1  27
ATOM     27  O   UNL A   1      32.631  30.309  26.783  1.00  0.00    -0.376 OA
BRANCH  27  28
ATOM     28  C   UNL A   1      31.498  31.128  26.538  1.00  0.00     0.202 C 
BRANCH  28  29
ATOM     29  C   UNL A   1      31.761  32.570  26.991  1.00  0.00     0.261 C 
BRANCH  29  30
ATOM     30  O   UNL A   1      33.115  32.746  27.451  1.00  0.00    -0.460 OA
BRANCH  30  31
ATOM     31  C   UNL A   1      33.320  33.785  28.292  1.00  0.00     0.338 C 
ATOM     32  O   UNL A   1      32.550  34.741  28.441  1.00  0.00    -0.246 OA
BRANCH  31  33
ATOM     33  C   UNL A   1      34.519  33.522  29.128  1.00  0.00     0.060 A 
ATOM     34  C   UNL A   1      35.735  34.144  28.807  1.00  0.00     0.016 A 
ATOM     35  C   UNL A   1      34.447  32.704  30.263  1.00  0.00     0.016 A 
ATOM     36  C   UNL A   1      36.880  33.917  29.588  1.00  0.00     0.010 A 
ATOM     37  C   UNL A   1      35.585  32.485  31.046  1.00  0.00     0.010 A 
ATOM     38  C   UNL A   1      36.819  33.060  30.694  1.00  0.00    -0.014 A 
BRANCH  38  39
ATOM     39  C   UNL A   1      38.051  32.550  31.357  1.00  0.00     0.031 A 
ATOM     40  C   UNL A   1      38.757  31.389  30.705  1.00  0.00     0.074 A 
ATOM     41  C   UNL A   1      38.504  33.046  32.525  1.00  0.00     0.049 A 
ATOM     42  N   UNL A   1      39.743  30.655  31.150  1.00  0.00    -0.248 NA
ATOM     43  C   UNL A   1      38.269  30.996  29.372  1.00  0.00     0.031 C 
ATOM     44  C   UNL A   1      37.943  34.191  33.238  1.00  0.00     0.029 A 
ATOM     45  N   UNL A   1      39.537  32.623  33.333  1.00  0.00    -0.354 N 
ATOM     46  C   UNL A   1      39.980  29.704  30.162  1.00  0.00     0.074 A 
ATOM     47  C   UNL A   1      39.020  29.939  29.107  1.00  0.00     0.031 C 
ATOM     48  C   UNL A   1      38.622  34.364  34.387  1.00  0.00     0.029 A 
ATOM     49  C   UNL A   1      39.633  33.314  34.520  1.00  0.00     0.049 A 
ATOM     50  H   UNL A   1      40.150  31.895  33.084  1.00  0.00     0.167 HD
ATOM     51  C   UNL A   1      40.914  28.723  30.137  1.00  0.00     0.034 A 
ATOM     52  C   UNL A   1      40.415  33.096  35.601  1.00  0.00     0.034 A 
ATOM     53  C   UNL A   1      41.867  28.494  31.191  1.00  0.00     0.049 A 
ATOM     54  C   UNL A   1      41.386  31.929  35.586  1.00  0.00     0.074 A 
ATOM     55  C   UNL A   1      42.884  27.558  31.240  1.00  0.00     0.029 A 
ATOM     56  N   UNL A   1      41.909  29.192  32.390  1.00  0.00    -0.354 N 
ATOM     57  N   UNL A   1      41.628  31.063  34.628  1.00  0.00    -0.248 NA
ATOM     58  C   UNL A   1      42.185  31.708  36.802  1.00  0.00     0.031 C 
ATOM     59  C   UNL A   1      43.481  27.628  32.501  1.00  0.00     0.029 A 
ATOM     60  C   UNL A   1      42.899  28.669  33.206  1.00  0.00     0.049 A 
ATOM     61  H   UNL A   1      41.323  29.947  32.626  1.00  0.00     0.167 HD
ATOM     62  C   UNL A   1      42.626  30.220  35.118  1.00  0.00     0.074 A 
ATOM     63  C   UNL A   1      42.957  30.693  36.443  1.00  0.00     0.031 C 
ATOM     64  C   UNL A   1      43.215  29.148  34.529  1.00  0.00     0.034 A 
BRANCH  51  65
ATOM     65  C   UNL A   1      40.917  27.786  28.957  1.00  0.00     0.023 A 
ATOM     66  C   UNL A   1      41.852  27.904  27.915  1.00  0.00     0.031 A 
ATOM     67  C   UNL A   1      39.975  26.744  28.889  1.00  0.00     0.131 A 
ATOM     68  C   UNL A   1      41.799  27.017  26.829  1.00  0.00     0.055 A 
ATOM     69  C   UNL A   1      39.973  25.824  27.840  1.00  0.00     0.041 A 
ATOM     70  F   UNL A   1      39.043  26.603  29.844  1.00  0.00    -0.206 F 
ATOM     71  C   UNL A   1      40.884  25.962  26.798  1.00  0.00     0.022 A 
BRANCH  68  72
ATOM     72  S   UNL A   1      42.881  27.319  25.406  1.00  0.00     0.124 S 
ATOM     73  O   UNL A   1      42.183  28.409  24.729  1.00  0.00    -0.237 OA
ATOM     74  O   UNL A   1      44.148  27.669  26.040  1.00  0.00    -0.237 OA
ATOM     75  O   UNL A   1      42.873  26.044  24.692  1.00  0.00    -0.744 OA
ENDBRANCH  68  72
ENDBRANCH  51  65
BRANCH  52  76
ATOM     76  C   UNL A   1      40.283  33.932  36.836  1.00  0.00     0.023 A 
ATOM     77  C   UNL A   1      41.299  34.822  37.225  1.00  0.00     0.031 A 
ATOM     78  C   UNL A   1      39.195  33.761  37.711  1.00  0.00     0.131 A 
ATOM     79  C   UNL A   1      41.243  35.446  38.483  1.00  0.00     0.055 A 
ATOM     80  C   UNL A   1      39.110  34.439  38.930  1.00  0.00     0.041 A 
ATOM     81  F   UNL A   1      38.199  32.915  37.404  1.00  0.00    -0.206 F 
ATOM     82  C   UNL A   1      40.147  35.271  39.331  1.00  0.00     0.022 A 
BRANCH  79  83
ATOM     83  S   UNL A   1      42.692  36.376  39.059  1.00  0.00     0.124 S 
ATOM     84  O   UNL A   1      42.694  37.515  38.146  1.00  0.00    -0.237 OA
ATOM     85  O   UNL A   1      42.334  36.663  40.445  1.00  0.00    -0.237 OA
ATOM     86  O   UNL A   1      43.793  35.433  38.885  1.00  0.00    -0.744 OA
ENDBRANCH  79  83
ENDBRANCH  52  76
BRANCH  64  87
ATOM     87  C   UNL A   1      44.303  28.437  35.300  1.00  0.00     0.023 A 
ATOM     88  C   UNL A   1      44.030  27.319  36.105  1.00  0.00     0.031 A 
ATOM     89  C   UNL A   1      45.638  28.876  35.211  1.00  0.00     0.131 A 
ATOM     90  C   UNL A   1      45.065  26.706  36.828  1.00  0.00     0.055 A 
ATOM     91  C   UNL A   1      46.673  28.223  35.882  1.00  0.00     0.041 A 
ATOM     92  F   UNL A   1      45.959  29.940  34.459  1.00  0.00    -0.206 F 
ATOM     93  C   UNL A   1      46.387  27.138  36.706  1.00  0.00     0.022 A 
BRANCH  90  94
ATOM     94  S   UNL A   1      44.648  25.384  37.998  1.00  0.00     0.124 S 
ATOM     95  O   UNL A   1      43.220  25.202  37.755  1.00  0.00    -0.237 OA
ATOM     96  O   UNL A   1      45.512  24.293  37.559  1.00  0.00    -0.237 OA
ATOM     97  O   UNL A   1      44.987  25.957  39.299  1.00  0.00    -0.744 OA
ENDBRANCH  90  94
ENDBRANCH  64  87
ENDBRANCH  38  39
ENDBRANCH  31  33
ENDBRANCH  30  31
ENDBRANCH  29  30
ENDBRANCH  28  29
ENDBRANCH  27  28
ENDBRANCH   1  27
TORSDOF 23
ENDMDL
MODEL 2
REMARK VINA RESULT:     -10.7      1.682      2.482
REMARK SMILES CC[C@@](C)(NC(=O)Nc1c(C)cccc1Cl)C(=O)OCCOCCOCCOC(=O)c1ccc(-c2c3nc(c(-c4cc(S(=O)(=O)[O-])ccc4F)c4ccc([nH]4)c(-c4cc(S(=O)(=O)[O-])ccc4F)c4nc(c(-c5cc(S(=O)(=O)[O-])ccc5F)c5ccc2[nH]5)C=C4)C=C3)cc1
REMARK SMILES IDX 24 1 23 2 22 3 21 4 20 5 19 6 17 7 18 8 3 9 4 10 2 11 1 12
REMARK SMILES IDX 5 13 6 14 7 16 8 17 9 19 10 20 15 21 11 22 12 23 14 24 16 25
REMARK SMILES IDX 13 26 25 27 26 28 27 29 28 30 29 31 30 32 31 33 32 34 93 35
REMARK SMILES IDX 33 36 92 37 34 38 35 39 36 40 86 41 37 42 91 43 85 44 87 45
REMARK SMILES IDX 38 46 90 47 84 48 83 49 39 51 71 52 51 53 70 54 52 55 55 56
REMARK SMILES IDX 69 57 88 58 53 59 54 60 68 62 89 63 56 64 40 65 41 66 49 67
REMARK SMILES IDX 42 68 48 69 50 70 47 71 43 72 44 73 45 74 46 75 72 76 73 77
REMARK SMILES IDX 81 78 74 79 80 80 82 81 79 82 75 83 76 84 77 85 78 86 57 87
REMARK SMILES IDX 58 88 66 89 59 90 65 91 67 92 64 93 60 94 61 95 62 96 63 97
REMARK H PARENT 5 15 8 18 87 50 55 61
REMARK Flexibility Score: inf
ROOT
ATOM      1  C   UNL A   1      33.975  29.374  26.261  1.00  0.00     0.188 C 
ENDROOT
BRANCH   1   2
ATOM      2  C   UNL A   1      33.694  27.955  25.647  1.00  0.00     0.188 C 
BRANCH   2   3
ATOM      3  O   UNL A   1      33.870  27.890  24.185  1.00  0.00    -0.376 OA
BRANCH   3   4
ATOM      4  C   UNL A   1      32.703  27.688  23.320  1.00  0.00     0.202 C 
BRANCH   4   5
ATOM      5  C   UNL A   1      32.947  26.901  21.827  1.00  0.00     0.261 C 
BRANCH   5   6
ATOM      6  O   UNL A   1      33.203  25.357  21.723  1.00  0.00    -0.462 OA
BRANCH   6   7
ATOM      7  C   UNL A   1      33.631  24.209  22.462  1.00  0.00     0.331 C 
ATOM      8  O   UNL A   1      34.805  24.062  22.811  1.00  0.00    -0.249 OA
BRANCH   7   9
ATOM      9  C   UNL A   1      32.417  22.963  22.837  1.00  0.00     0.136 C 
ATOM     10  C   UNL A   1      32.373  21.902  21.711  1.00  0.00     0.047 C 
BRANCH   9  11
ATOM     11  C   UNL A   1      31.787  22.115  24.100  1.00  0.00     0.037 C 
ATOM     12  C   UNL A   1      32.069  20.668  24.454  1.00  0.00     0.007 C 
ENDBRANCH   9  11
BRANCH   9  13
ATOM     13  N   UNL A   1      31.396  23.939  22.687  1.00  0.00    -0.322 N 
ATOM     14  C   UNL A   1      31.013  24.562  23.825  1.00  0.00     0.320 C 
ATOM     15  H   UNL A   1      30.993  24.150  21.813  1.00  0.00     0.166 HD
ATOM     16  O   UNL A   1      30.053  25.329  23.763  1.00  0.00    -0.248 OA
ATOM     17  N   UNL A   1      31.617  24.282  25.042  1.00  0.00    -0.306 N 
ATOM     18  H   UNL A   1      31.003  24.666  25.709  1.00  0.00     0.171 HD
BRANCH  17  19
ATOM     19  C   UNL A   1      32.742  23.685  25.872  1.00  0.00     0.064 A 
ATOM     20  C   UNL A   1      34.209  23.605  25.964  1.00  0.00    -0.026 A 
ATOM     21  C   UNL A   1      32.119  23.089  26.987  1.00  0.00     0.064 A 
ATOM     22  C   UNL A   1      35.419  24.455  25.536  1.00  0.00     0.046 C 
ATOM     23  C   UNL A   1      34.802  22.703  26.915  1.00  0.00     0.005 A 
ATOM     24  C   UNL A   1      32.778  22.582  28.102  1.00  0.00     0.023 A 
ATOM     25  Cl  UNL A   1      30.412  22.866  27.002  1.00  0.00    -0.082 Cl
ATOM     26  C   UNL A   1      34.112  22.284  28.025  1.00  0.00     0.002 A 
ENDBRANCH  17  19
ENDBRANCH   9  13
ENDBRANCH   7   9
ENDBRANCH   6   7
ENDBRANCH   5   6
ENDBRANCH   4   5
ENDBRANCH   3   4
ENDBRANCH   2   3
ENDBRANCH   1   2
BRANCH   1  27
ATOM     27  O   UNL A   1      32.972  29.817  27.157  1.00  0.00    -0.376 OA
BRANCH  27  28
ATOM     28  C   UNL A   1      31.866  30.527  26.619  1.00  0.00     0.202 C 
BRANCH  28  29
ATOM     29  C   UNL A   1      31.836  31.967  27.147  1.00  0.00     0.261 C 
BRANCH  29  30
ATOM     30  O   UNL A   1      33.149  32.559  27.155  1.00  0.00    -0.460 OA
BRANCH  30  31
ATOM     31  C   UNL A   1      33.322  33.592  28.011  1.00  0.00     0.338 C 
ATOM     32  O   UNL A   1      32.564  34.563  28.117  1.00  0.00    -0.246 OA
BRANCH  31  33
ATOM     33  C   UNL A   1      34.463  33.303  28.918  1.00  0.00     0.060 A 
ATOM     34  C   UNL A   1      35.520  34.221  29.013  1.00  0.00     0.016 A 
ATOM     35  C   UNL A   1      34.479  32.154  29.720  1.00  0.00     0.016 A 
ATOM     36  C   UNL A   1      36.605  33.972  29.870  1.00  0.00     0.010 A 
ATOM     37  C   UNL A   1      35.555  31.911  30.580  1.00  0.00     0.010 A 
ATOM     38  C   UNL A   1      36.643  32.800  30.634  1.00  0.00    -0.014 A 
BRANCH  38  39
ATOM     39  C   UNL A   1      37.891  32.347  31.310  1.00  0.00     0.031 A 
ATOM     40  C   UNL A   1      38.661  31.225  30.661  1.00  0.00     0.074 A 
ATOM     41  C   UNL A   1      38.307  32.858  32.485  1.00  0.00     0.049 A 
ATOM     42  N   UNL A   1      39.676  30.538  31.114  1.00  0.00    -0.248 NA
ATOM     43  C   UNL A   1      38.207  30.816  29.320  1.00  0.00     0.031 C 
ATOM     44  C   UNL A   1      37.682  33.971  33.197  1.00  0.00     0.029 A 
ATOM     45  N   UNL A   1      39.349  32.482  33.303  1.00  0.00    -0.354 N 
ATOM     46  C   UNL A   1      39.971  29.605  30.124  1.00  0.00     0.074 A 
ATOM     47  C   UNL A   1      39.013  29.798  29.059  1.00  0.00     0.031 C 
ATOM     48  C   UNL A   1      38.338  34.171  34.355  1.00  0.00     0.029 A 
ATOM     49  C   UNL A   1      39.398  33.171  34.495  1.00  0.00     0.049 A 
ATOM     50  H   UNL A   1      40.000  31.786  33.058  1.00  0.00     0.167 HD
ATOM     51  C   UNL A   1      40.952  28.672  30.105  1.00  0.00     0.034 A 
ATOM     52  C   UNL A   1      40.177  32.986  35.583  1.00  0.00     0.034 A 
ATOM     53  C   UNL A   1      41.903  28.484  31.170  1.00  0.00     0.049 A 
ATOM     54  C   UNL A   1      41.204  31.868  35.575  1.00  0.00     0.074 A 
ATOM     55  C   UNL A   1      42.964  27.598  31.225  1.00  0.00     0.029 A 
ATOM     56  N   UNL A   1      41.897  29.176  32.372  1.00  0.00    -0.354 N 
ATOM     57  N   UNL A   1      41.500  31.020  34.615  1.00  0.00    -0.248 NA
ATOM     58  C   UNL A   1      41.999  31.679  36.799  1.00  0.00     0.031 C 
ATOM     59  C   UNL A   1      43.543  27.690  32.494  1.00  0.00     0.029 A 
ATOM     60  C   UNL A   1      42.902  28.698  33.197  1.00  0.00     0.049 A 
ATOM     61  H   UNL A   1      41.272  29.900  32.605  1.00  0.00     0.167 HD
ATOM     62  C   UNL A   1      42.532  30.224  35.113  1.00  0.00     0.074 A 
ATOM     63  C   UNL A   1      42.824  30.706  36.444  1.00  0.00     0.031 C 
ATOM     64  C   UNL A   1      43.179  29.185  34.526  1.00  0.00     0.034 A 
BRANCH  51  65
ATOM     65  C   UNL A   1      41.014  27.742  28.921  1.00  0.00     0.023 A 
ATOM     66  C   UNL A   1      41.997  27.870  27.926  1.00  0.00     0.031 A 
ATOM     67  C   UNL A   1      40.081  26.697  28.802  1.00  0.00     0.131 A 
ATOM     68  C   UNL A   1      41.999  26.990  26.832  1.00  0.00     0.055 A 
ATOM     69  C   UNL A   1      40.131  25.783  27.749  1.00  0.00     0.041 A 
ATOM     70  F   UNL A   1      39.105  26.546  29.711  1.00  0.00    -0.206 F 
ATOM     71  C   UNL A   1      41.090  25.931  26.752  1.00  0.00     0.022 A 
BRANCH  68  72
ATOM     72  S   UNL A   1      43.146  27.304  25.464  1.00  0.00     0.124 S 
ATOM     73  O   UNL A   1      43.421  25.950  24.992  1.00  0.00    -0.237 OA
ATOM     74  O   UNL A   1      42.354  28.143  24.572  1.00  0.00    -0.237 OA
ATOM     75  O   UNL A   1      44.274  27.973  26.110  1.00  0.00    -0.744 OA
ENDBRANCH  68  72
ENDBRANCH  51  65
BRANCH  52  76
ATOM     76  C   UNL A   1      39.990  33.808  36.821  1.00  0.00     0.023 A 
ATOM     77  C   UNL A   1      39.345  33.281  37.953  1.00  0.00     0.031 A 
ATOM     78  C   UNL A   1      40.343  35.169  36.845  1.00  0.00     0.131 A 
ATOM     79  C   UNL A   1      39.006  34.125  39.025  1.00  0.00     0.055 A 
ATOM     80  C   UNL A   1      40.067  35.987  37.944  1.00  0.00     0.041 A 
ATOM     81  F   UNL A   1      40.949  35.735  35.790  1.00  0.00    -0.206 F 
ATOM     82  C   UNL A   1      39.377  35.471  39.034  1.00  0.00     0.022 A 
BRANCH  79  83
ATOM     83  S   UNL A   1      37.945  33.472  40.346  1.00  0.00     0.124 S 
ATOM     84  O   UNL A   1      37.669  34.674  41.125  1.00  0.00    -0.237 OA
ATOM     85  O   UNL A   1      36.825  32.923  39.590  1.00  0.00    -0.237 OA
ATOM     86  O   UNL A   1      38.793  32.482  41.005  1.00  0.00    -0.744 OA
ENDBRANCH  79  83
ENDBRANCH  52  76
BRANCH  64  87
ATOM     87  C   UNL A   1      44.292  28.524  35.306  1.00  0.00     0.023 A 
ATOM     88  C   UNL A   1      44.034  27.527  36.262  1.00  0.00     0.031 A 
ATOM     89  C   UNL A   1      45.632  28.886  35.074  1.00  0.00     0.131 A 
ATOM     90  C   UNL A   1      45.095  26.961  36.986  1.00  0.00     0.055 A 
ATOM     91  C   UNL A   1      46.688  28.273  35.751  1.00  0.00     0.041 A 
ATOM     92  F   UNL A   1      45.940  29.832  34.174  1.00  0.00    -0.206 F 
ATOM     93  C   UNL A   1      46.421  27.312  36.723  1.00  0.00     0.022 A 
BRANCH  90  94
ATOM     94  S   UNL A   1      44.713  25.813  38.338  1.00  0.00     0.124 S 
ATOM     95  O   UNL A   1      43.513  26.411  38.914  1.00  0.00    -0.237 OA
ATOM     96  O   UNL A   1      44.520  24.551  37.633  1.00  0.00    -0.237 OA
ATOM     97  O   UNL A   1      45.903  25.873  39.186  1.00  0.00    -0.744 OA
ENDBRANCH  90  94
ENDBRANCH  64  87
ENDBRANCH  38  39
ENDBRANCH  31  33
ENDBRANCH  30  31
ENDBRANCH  29  30
ENDBRANCH  28  29
ENDBRANCH  27  28
ENDBRANCH   1  27
TORSDOF 23
ENDMDL
MODEL 3
REMARK VINA RESULT:     -10.7      1.812      2.056
REMARK SMILES CC[C@@](C)(NC(=O)Nc1c(C)cccc1Cl)C(=O)OCCOCCOCCOC(=O)c1ccc(-c2c3nc(c(-c4cc(S(=O)(=O)[O-])ccc4F)c4ccc([nH]4)c(-c4cc(S(=O)(=O)[O-])ccc4F)c4nc(c(-c5cc(S(=O)(=O)[O-])ccc5F)c5ccc2[nH]5)C=C4)C=C3)cc1
REMARK SMILES IDX 24 1 23 2 22 3 21 4 20 5 19 6 17 7 18 8 3 9 4 10 2 11 1 12
REMARK SMILES IDX 5 13 6 14 7 16 8 17 9 19 10 20 15 21 11 22 12 23 14 24 16 25
REMARK SMILES IDX 13 26 25 27 26 28 27 29 28 30 29 31 30 32 31 33 32 34 93 35
REMARK SMILES IDX 33 36 92 37 34 38 35 39 36 40 86 41 37 42 91 43 85 44 87 45
REMARK SMILES IDX 38 46 90 47 84 48 83 49 39 51 71 52 51 53 70 54 52 55 55 56
REMARK SMILES IDX 69 57 88 58 53 59 54 60 68 62 89 63 56 64 40 65 41 66 49 67
REMARK SMILES IDX 42 68 48 69 50 70 47 71 43 72 44 73 45 74 46 75 72 76 73 77
REMARK SMILES IDX 81 78 74 79 80 80 82 81 79 82 75 83 76 84 77 85 78 86 57 87
REMARK SMILES IDX 58 88 66 89 59 90 65 91 67 92 64 93 60 94 61 95 62 96 63 97
REMARK H PARENT 5 15 8 18 87 50 55 61
REMARK Flexibility Score: inf
ROOT
ATOM      1  C   UNL A   1      33.465  29.684  26.460  1.00  0.00     0.188 C 
ENDROOT
BRANCH   1   2
ATOM      2  C   UNL A   1      32.879  28.286  26.044  1.00  0.00     0.188 C 
BRANCH   2   3
ATOM      3  O   UNL A   1      33.624  27.624  24.958  1.00  0.00    -0.376 OA
BRANCH   3   4
ATOM      4  C   UNL A   1      33.232  27.849  23.564  1.00  0.00     0.202 C 
BRANCH   4   5
ATOM      5  C   UNL A   1      32.438  26.581  22.747  1.00  0.00     0.261 C 
BRANCH   5   6
ATOM      6  O   UNL A   1      31.514  25.552  23.487  1.00  0.00    -0.462 OA
BRANCH   6   7
ATOM      7  C   UNL A   1      31.444  24.206  23.967  1.00  0.00     0.331 C 
ATOM      8  O   UNL A   1      30.857  23.322  23.338  1.00  0.00    -0.249 OA
BRANCH   7   9
ATOM      9  C   UNL A   1      32.202  23.843  25.536  1.00  0.00     0.136 C 
ATOM     10  C   UNL A   1      31.316  24.367  26.692  1.00  0.00     0.047 C 
BRANCH   9  11
ATOM     11  C   UNL A   1      33.081  22.683  26.306  1.00  0.00     0.037 C 
ATOM     12  C   UNL A   1      33.014  22.318  27.776  1.00  0.00     0.007 C 
ENDBRANCH   9  11
BRANCH   9  13
ATOM     13  N   UNL A   1      33.250  24.748  25.217  1.00  0.00    -0.322 N 
ATOM     14  C   UNL A   1      34.345  24.195  24.646  1.00  0.00     0.320 C 
ATOM     15  H   UNL A   1      33.184  25.714  25.399  1.00  0.00     0.166 HD
ATOM     16  O   UNL A   1      35.321  24.920  24.461  1.00  0.00    -0.248 OA
ATOM     17  N   UNL A   1      34.405  22.839  24.362  1.00  0.00    -0.306 N 
ATOM     18  H   UNL A   1      35.362  22.670  24.198  1.00  0.00     0.171 HD
BRANCH  17  19
ATOM     19  C   UNL A   1      33.751  21.479  24.174  1.00  0.00     0.064 A 
ATOM     20  C   UNL A   1      32.636  20.806  23.488  1.00  0.00    -0.026 A 
ATOM     21  C   UNL A   1      34.595  20.556  24.822  1.00  0.00     0.064 A 
ATOM     22  C   UNL A   1      31.788  21.022  22.222  1.00  0.00     0.046 C 
ATOM     23  C   UNL A   1      32.344  19.435  23.809  1.00  0.00     0.005 A 
ATOM     24  C   UNL A   1      34.481  19.172  24.750  1.00  0.00     0.023 A 
ATOM     25  Cl  UNL A   1      35.841  21.117  25.870  1.00  0.00    -0.082 Cl
ATOM     26  C   UNL A   1      33.302  18.608  24.342  1.00  0.00     0.002 A 
ENDBRANCH  17  19
ENDBRANCH   9  13
ENDBRANCH   7   9
ENDBRANCH   6   7
ENDBRANCH   5   6
ENDBRANCH   4   5
ENDBRANCH   3   4
ENDBRANCH   2   3
ENDBRANCH   1   2
BRANCH   1  27
ATOM     27  O   UNL A   1      32.595  30.446  27.277  1.00  0.00    -0.376 OA
BRANCH  27  28
ATOM     28  C   UNL A   1      31.631  31.270  26.637  1.00  0.00     0.202 C 
BRANCH  28  29
ATOM     29  C   UNL A   1      31.873  32.748  26.970  1.00  0.00     0.261 C 
BRANCH  29  30
ATOM     30  O   UNL A   1      33.214  32.975  27.444  1.00  0.00    -0.460 OA
BRANCH  30  31
ATOM     31  C   UNL A   1      33.346  33.924  28.400  1.00  0.00     0.338 C 
ATOM     32  O   UNL A   1      32.529  34.823  28.627  1.00  0.00    -0.246 OA
BRANCH  31  33
ATOM     33  C   UNL A   1      34.534  33.623  29.240  1.00  0.00     0.060 A 
ATOM     34  C   UNL A   1      35.765  34.223  28.936  1.00  0.00     0.016 A 
ATOM     35  C   UNL A   1      34.436  32.792  30.364  1.00  0.00     0.016 A 
ATOM     36  C   UNL A   1      36.899  33.960  29.722  1.00  0.00     0.010 A 
ATOM     37  C   UNL A   1      35.562  32.538  31.151  1.00  0.00     0.010 A 
ATOM     38  C   UNL A   1      36.811  33.090  30.815  1.00  0.00    -0.014 A 
BRANCH  38  39
ATOM     39  C   UNL A   1      38.027  32.545  31.481  1.00  0.00     0.031 A 
ATOM     40  C   UNL A   1      38.725  31.390  30.807  1.00  0.00     0.074 A 
ATOM     41  C   UNL A   1      38.472  33.002  32.667  1.00  0.00     0.049 A 
ATOM     42  N   UNL A   1      39.693  30.630  31.244  1.00  0.00    -0.248 NA
ATOM     43  C   UNL A   1      38.247  31.040  29.458  1.00  0.00     0.031 C 
ATOM     44  C   UNL A   1      37.919  34.137  33.403  1.00  0.00     0.029 A 
ATOM     45  N   UNL A   1      39.488  32.543  33.476  1.00  0.00    -0.354 N 
ATOM     46  C   UNL A   1      39.929  29.702  30.235  1.00  0.00     0.074 A 
ATOM     47  C   UNL A   1      38.987  29.979  29.174  1.00  0.00     0.031 C 
ATOM     48  C   UNL A   1      38.585  34.269  34.565  1.00  0.00     0.029 A 
ATOM     49  C   UNL A   1      39.579  33.201  34.683  1.00  0.00     0.049 A 
ATOM     50  H   UNL A   1      40.093  31.812  33.215  1.00  0.00     0.167 HD
ATOM     51  C   UNL A   1      40.849  28.709  30.194  1.00  0.00     0.034 A 
ATOM     52  C   UNL A   1      40.344  32.942  35.766  1.00  0.00     0.034 A 
ATOM     53  C   UNL A   1      41.785  28.438  31.255  1.00  0.00     0.049 A 
ATOM     54  C   UNL A   1      41.297  31.762  35.733  1.00  0.00     0.074 A 
ATOM     55  C   UNL A   1      42.787  27.485  31.291  1.00  0.00     0.029 A 
ATOM     56  N   UNL A   1      41.821  29.103  32.472  1.00  0.00    -0.354 N 
ATOM     57  N   UNL A   1      41.540  30.918  34.755  1.00  0.00    -0.248 NA
ATOM     58  C   UNL A   1      42.077  31.496  36.953  1.00  0.00     0.031 C 
ATOM     59  C   UNL A   1      43.369  27.513  32.561  1.00  0.00     0.029 A 
ATOM     60  C   UNL A   1      42.793  28.544  33.286  1.00  0.00     0.049 A 
ATOM     61  H   UNL A   1      41.244  29.860  32.721  1.00  0.00     0.167 HD
ATOM     62  C   UNL A   1      42.518  30.047  35.235  1.00  0.00     0.074 A 
ATOM     63  C   UNL A   1      42.839  30.480  36.577  1.00  0.00     0.031 C 
ATOM     64  C   UNL A   1      43.099  28.982  34.625  1.00  0.00     0.034 A 
BRANCH  51  65
ATOM     65  C   UNL A   1      40.854  27.804  28.990  1.00  0.00     0.023 A 
ATOM     66  C   UNL A   1      41.804  27.935  27.964  1.00  0.00     0.031 A 
ATOM     67  C   UNL A   1      39.898  26.777  28.883  1.00  0.00     0.131 A 
ATOM     68  C   UNL A   1      41.752  27.079  26.853  1.00  0.00     0.055 A 
ATOM     69  C   UNL A   1      39.896  25.885  27.810  1.00  0.00     0.041 A 
ATOM     70  F   UNL A   1      38.952  26.624  29.823  1.00  0.00    -0.206 F 
ATOM     71  C   UNL A   1      40.822  26.038  26.783  1.00  0.00     0.022 A 
BRANCH  68  72
ATOM     72  S   UNL A   1      42.856  27.402  25.453  1.00  0.00     0.124 S 
ATOM     73  O   UNL A   1      42.137  28.460  24.748  1.00  0.00    -0.237 OA
ATOM     74  O   UNL A   1      44.095  27.801  26.111  1.00  0.00    -0.237 OA
ATOM     75  O   UNL A   1      42.907  26.120  24.753  1.00  0.00    -0.744 OA
ENDBRANCH  68  72
ENDBRANCH  51  65
BRANCH  52  76
ATOM     76  C   UNL A   1      40.208  33.747  37.022  1.00  0.00     0.023 A 
ATOM     77  C   UNL A   1      39.474  33.264  38.120  1.00  0.00     0.031 A 
ATOM     78  C   UNL A   1      40.704  35.061  37.096  1.00  0.00     0.131 A 
ATOM     79  C   UNL A   1      39.195  34.111  39.206  1.00  0.00     0.055 A 
ATOM     80  C   UNL A   1      40.483  35.875  38.210  1.00  0.00     0.041 A 
ATOM     81  F   UNL A   1      41.400  35.585  36.075  1.00  0.00    -0.206 F 
ATOM     82  C   UNL A   1      39.708  35.409  39.264  1.00  0.00     0.022 A 
BRANCH  79  83
ATOM     83  S   UNL A   1      38.030  33.543  40.477  1.00  0.00     0.124 S 
ATOM     84  O   UNL A   1      38.818  32.527  41.167  1.00  0.00    -0.237 OA
ATOM     85  O   UNL A   1      37.772  34.771  41.221  1.00  0.00    -0.237 OA
ATOM     86  O   UNL A   1      36.900  33.037  39.702  1.00  0.00    -0.744 OA
ENDBRANCH  79  83
ENDBRANCH  52  76
BRANCH  64  87
ATOM     87  C   UNL A   1      44.167  28.235  35.390  1.00  0.00     0.023 A 
ATOM     88  C   UNL A   1      45.515  28.630  35.356  1.00  0.00     0.031 A 
ATOM     89  C   UNL A   1      43.826  27.120  36.179  1.00  0.00     0.131 A 
ATOM     90  C   UNL A   1      46.479  27.890  36.056  1.00  0.00     0.055 A 
ATOM     91  C   UNL A   1      44.780  26.427  36.925  1.00  0.00     0.041 A 
ATOM     92  F   UNL A   1      42.555  26.695  36.249  1.00  0.00    -0.206 F 
ATOM     93  C   UNL A   1      46.119  26.804  36.857  1.00  0.00     0.022 A 
BRANCH  90  94
ATOM     94  S   UNL A   1      48.230  28.317  35.844  1.00  0.00     0.124 S 
ATOM     95  O   UNL A   1      48.153  29.495  34.986  1.00  0.00    -0.237 OA
ATOM     96  O   UNL A   1      48.664  28.556  37.216  1.00  0.00    -0.237 OA
ATOM     97  O   UNL A   1      48.799  27.127  35.213  1.00  0.00    -0.744 OA
ENDBRANCH  90  94
ENDBRANCH  64  87
ENDBRANCH  38  39
ENDBRANCH  31  33
ENDBRANCH  30  31
ENDBRANCH  29  30
ENDBRANCH  28  29
ENDBRANCH  27  28
ENDBRANCH   1  27
TORSDOF 23
ENDMDL
