MODEL 1
REMARK VINA RESULT:     -10.4      0.000      0.000
REMARK SMILES Cc1cc(N2C[C@H](C(=O)OCCOCCOCCOC(=O)c3ccc(-c4c5nc(c(-c6cc(S(=O)(=O)[O-])ccc6F)c6ccc([nH]6)c(-c6cc(S(=O)(=O)[O-])ccc6F)c6nc(c(-c7cc(S(=O)(=O)[O-])ccc7F)c7ccc4[nH]7)C=C6)C=C5)cc3)CC2=O)cc(C)c1Br
REMARK SMILES IDX 15 1 14 2 13 3 12 4 11 5 10 6 8 7 9 8 7 9 5 10 6 11 86 12
REMARK SMILES IDX 85 13 87 14 4 15 1 16 2 17 3 18 91 19 89 20 92 21 88 22
REMARK SMILES IDX 90 23 16 24 17 25 18 26 19 27 20 28 21 29 22 30 23 31 84 32
REMARK SMILES IDX 24 33 83 34 25 35 26 36 27 37 77 38 28 39 82 40 76 41 78 42
REMARK SMILES IDX 29 43 81 44 75 45 74 46 30 48 62 49 42 50 61 51 43 52 46 53
REMARK SMILES IDX 60 54 79 55 44 56 45 57 59 59 80 60 47 61 31 62 32 63 40 64
REMARK SMILES IDX 33 65 39 66 41 67 38 68 34 69 35 70 36 71 37 72 63 73 64 74
REMARK SMILES IDX 72 75 65 76 71 77 73 78 70 79 66 80 67 81 68 82 69 83 48 84
REMARK SMILES IDX 49 85 57 86 50 87 56 88 58 89 55 90 51 91 52 92 53 93 54 94
REMARK H PARENT 78 47 46 58
REMARK Flexibility Score: inf
ROOT
ATOM      1  C   UNL A   1      34.397  30.004  27.567  1.00  0.00     0.188 C 
ENDROOT
BRANCH   1   2
ATOM      2  C   UNL A   1      34.200  28.698  26.797  1.00  0.00     0.188 C 
BRANCH   2   3
ATOM      3  O   UNL A   1      33.263  28.742  25.727  1.00  0.00    -0.376 OA
BRANCH   3   4
ATOM      4  C   UNL A   1      33.691  28.215  24.473  1.00  0.00     0.202 C 
BRANCH   4   5
ATOM      5  C   UNL A   1      33.221  28.960  23.214  1.00  0.00     0.261 C 
BRANCH   5   6
ATOM      6  O   UNL A   1      32.105  28.354  22.530  1.00  0.00    -0.463 OA
BRANCH   6   7
ATOM      7  C   UNL A   1      30.980  28.184  23.268  1.00  0.00     0.311 C 
ATOM      8  O   UNL A   1      30.374  29.089  23.833  1.00  0.00    -0.252 OA
BRANCH   7   9
ATOM      9  C   UNL A   1      30.484  26.755  23.330  1.00  0.00     0.128 C 
ATOM     10  N   UNL A   1      31.885  25.130  24.301  1.00  0.00    -0.312 N 
ATOM     11  C   UNL A   1      31.465  25.638  23.018  1.00  0.00     0.141 C 
ATOM     12  C   UNL A   1      31.088  25.616  25.337  1.00  0.00     0.227 C 
ATOM     13  C   UNL A   1      29.998  26.464  24.740  1.00  0.00     0.117 C 
ATOM     14  O   UNL A   1      31.194  25.411  26.538  1.00  0.00    -0.274 OA
BRANCH  10  15
ATOM     15  C   UNL A   1      32.868  24.117  24.445  1.00  0.00     0.044 A 
ATOM     16  C   UNL A   1      33.001  20.320  24.309  1.00  0.00     0.045 C 
ATOM     17  C   UNL A   1      33.461  21.740  24.489  1.00  0.00    -0.035 A 
ATOM     18  C   UNL A   1      32.510  22.769  24.370  1.00  0.00     0.031 A 
ATOM     19  C   UNL A   1      34.795  22.078  24.773  1.00  0.00     0.023 A 
ATOM     20  C   UNL A   1      35.183  23.428  24.859  1.00  0.00    -0.035 A 
ATOM     21  Br  UNL A   1      36.080  20.693  25.064  1.00  0.00    -0.050 Br
ATOM     22  C   UNL A   1      34.214  24.431  24.649  1.00  0.00     0.031 A 
ATOM     23  C   UNL A   1      36.593  23.828  25.208  1.00  0.00     0.045 C 
ENDBRANCH  10  15
ENDBRANCH   7   9
ENDBRANCH   6   7
ENDBRANCH   5   6
ENDBRANCH   4   5
ENDBRANCH   3   4
ENDBRANCH   2   3
ENDBRANCH   1   2
BRANCH   1  24
ATOM     24  O   UNL A   1      33.860  31.155  26.937  1.00  0.00    -0.376 OA
BRANCH  24  25
ATOM     25  C   UNL A   1      32.566  31.601  27.342  1.00  0.00     0.202 C 
BRANCH  25  26
ATOM     26  C   UNL A   1      32.214  33.101  27.338  1.00  0.00     0.261 C 
BRANCH  26  27
ATOM     27  O   UNL A   1      33.264  34.024  27.686  1.00  0.00    -0.460 OA
BRANCH  27  28
ATOM     28  C   UNL A   1      33.401  34.407  28.980  1.00  0.00     0.338 C 
ATOM     29  O   UNL A   1      32.558  34.962  29.655  1.00  0.00    -0.246 OA
BRANCH  28  30
ATOM     30  C   UNL A   1      34.640  33.757  29.517  1.00  0.00     0.060 A 
ATOM     31  C   UNL A   1      34.499  32.680  30.409  1.00  0.00     0.016 A 
ATOM     32  C   UNL A   1      35.916  34.115  29.072  1.00  0.00     0.016 A 
ATOM     33  C   UNL A   1      35.624  31.989  30.876  1.00  0.00     0.010 A 
ATOM     34  C   UNL A   1      37.042  33.434  29.553  1.00  0.00     0.010 A 
ATOM     35  C   UNL A   1      36.909  32.385  30.481  1.00  0.00    -0.014 A 
BRANCH  35  36
ATOM     36  C   UNL A   1      38.115  31.892  31.204  1.00  0.00     0.031 A 
ATOM     37  C   UNL A   1      38.906  30.782  30.558  1.00  0.00     0.074 A 
ATOM     38  C   UNL A   1      38.520  32.393  32.388  1.00  0.00     0.049 A 
ATOM     39  N   UNL A   1      39.891  30.070  31.037  1.00  0.00    -0.248 NA
ATOM     40  C   UNL A   1      38.523  30.431  29.180  1.00  0.00     0.031 C 
ATOM     41  C   UNL A   1      37.908  33.520  33.088  1.00  0.00     0.029 A 
ATOM     42  N   UNL A   1      39.545  32.001  33.220  1.00  0.00    -0.354 N 
ATOM     43  C   UNL A   1      40.243  29.184  30.024  1.00  0.00     0.074 A 
ATOM     44  C   UNL A   1      39.342  29.427  28.918  1.00  0.00     0.031 C 
ATOM     45  C   UNL A   1      38.557  33.716  34.252  1.00  0.00     0.029 A 
ATOM     46  C   UNL A   1      39.595  32.694  34.409  1.00  0.00     0.049 A 
ATOM     47  H   UNL A   1      40.184  31.290  32.985  1.00  0.00     0.167 HD
ATOM     48  C   UNL A   1      41.232  28.258  30.010  1.00  0.00     0.034 A 
ATOM     49  C   UNL A   1      40.356  32.500  35.510  1.00  0.00     0.034 A 
ATOM     50  C   UNL A   1      42.119  28.010  31.116  1.00  0.00     0.049 A 
ATOM     51  C   UNL A   1      41.364  31.364  35.524  1.00  0.00     0.074 A 
ATOM     52  C   UNL A   1      43.132  27.071  31.211  1.00  0.00     0.029 A 
ATOM     53  N   UNL A   1      42.101  28.700  32.319  1.00  0.00    -0.354 N 
ATOM     54  N   UNL A   1      41.659  30.506  34.574  1.00  0.00    -0.248 NA
ATOM     55  C   UNL A   1      42.142  31.169  36.759  1.00  0.00     0.031 C 
ATOM     56  C   UNL A   1      43.679  27.145  32.494  1.00  0.00     0.029 A 
ATOM     57  C   UNL A   1      43.072  28.193  33.167  1.00  0.00     0.049 A 
ATOM     58  H   UNL A   1      41.491  29.440  32.537  1.00  0.00     0.167 HD
ATOM     59  C   UNL A   1      42.695  29.718  35.078  1.00  0.00     0.074 A 
ATOM     60  C   UNL A   1      42.971  30.194  36.414  1.00  0.00     0.031 C 
ATOM     61  C   UNL A   1      43.366  28.699  34.485  1.00  0.00     0.034 A 
BRANCH  48  62
ATOM     62  C   UNL A   1      41.377  27.413  28.770  1.00  0.00     0.023 A 
ATOM     63  C   UNL A   1      42.383  27.664  27.822  1.00  0.00     0.031 A 
ATOM     64  C   UNL A   1      40.501  26.338  28.538  1.00  0.00     0.131 A 
ATOM     65  C   UNL A   1      42.459  26.880  26.662  1.00  0.00     0.055 A 
ATOM     66  C   UNL A   1      40.631  25.513  27.421  1.00  0.00     0.041 A 
ATOM     67  F   UNL A   1      39.505  26.071  29.397  1.00  0.00    -0.206 F 
ATOM     68  C   UNL A   1      41.609  25.788  26.469  1.00  0.00     0.022 A 
BRANCH  65  69
ATOM     69  S   UNL A   1      43.608  27.381  25.353  1.00  0.00     0.124 S 
ATOM     70  O   UNL A   1      44.311  26.129  25.082  1.00  0.00    -0.237 OA
ATOM     71  O   UNL A   1      42.708  27.849  24.304  1.00  0.00    -0.237 OA
ATOM     72  O   UNL A   1      44.418  28.418  25.989  1.00  0.00    -0.744 OA
ENDBRANCH  65  69
ENDBRANCH  48  62
BRANCH  49  73
ATOM     73  C   UNL A   1      40.176  33.339  36.737  1.00  0.00     0.023 A 
ATOM     74  C   UNL A   1      39.442  32.866  37.839  1.00  0.00     0.031 A 
ATOM     75  C   UNL A   1      40.620  34.673  36.777  1.00  0.00     0.131 A 
ATOM     76  C   UNL A   1      39.104  33.738  38.887  1.00  0.00     0.055 A 
ATOM     77  C   UNL A   1      40.350  35.514  37.859  1.00  0.00     0.041 A 
ATOM     78  F   UNL A   1      41.312  35.189  35.748  1.00  0.00    -0.206 F 
ATOM     79  C   UNL A   1      39.568  35.054  38.913  1.00  0.00     0.022 A 
BRANCH  76  80
ATOM     80  S   UNL A   1      37.913  33.174  40.136  1.00  0.00     0.124 S 
ATOM     81  O   UNL A   1      37.819  34.345  41.000  1.00  0.00    -0.237 OA
ATOM     82  O   UNL A   1      36.739  32.878  39.321  1.00  0.00    -0.237 OA
ATOM     83  O   UNL A   1      38.569  32.010  40.729  1.00  0.00    -0.744 OA
ENDBRANCH  76  80
ENDBRANCH  49  73
BRANCH  61  84
ATOM     84  C   UNL A   1      44.539  28.095  35.220  1.00  0.00     0.023 A 
ATOM     85  C   UNL A   1      44.428  26.930  35.997  1.00  0.00     0.031 A 
ATOM     86  C   UNL A   1      45.811  28.686  35.094  1.00  0.00     0.131 A 
ATOM     87  C   UNL A   1      45.561  26.411  36.644  1.00  0.00     0.055 A 
ATOM     88  C   UNL A   1      46.944  28.134  35.693  1.00  0.00     0.041 A 
ATOM     89  F   UNL A   1      45.976  29.801  34.365  1.00  0.00    -0.206 F 
ATOM     90  C   UNL A   1      46.821  26.994  36.480  1.00  0.00     0.022 A 
BRANCH  87  91
ATOM     91  S   UNL A   1      45.365  24.990  37.755  1.00  0.00     0.124 S 
ATOM     92  O   UNL A   1      44.796  23.983  36.865  1.00  0.00    -0.237 OA
ATOM     93  O   UNL A   1      46.735  24.748  38.198  1.00  0.00    -0.237 OA
ATOM     94  O   UNL A   1      44.461  25.485  38.791  1.00  0.00    -0.744 OA
ENDBRANCH  87  91
ENDBRANCH  61  84
ENDBRANCH  35  36
ENDBRANCH  28  30
ENDBRANCH  27  28
ENDBRANCH  26  27
ENDBRANCH  25  26
ENDBRANCH  24  25
ENDBRANCH   1  24
TORSDOF 21
ENDMDL
MODEL 2
REMARK VINA RESULT:     -10.2      1.470      7.573
REMARK SMILES Cc1cc(N2C[C@H](C(=O)OCCOCCOCCOC(=O)c3ccc(-c4c5nc(c(-c6cc(S(=O)(=O)[O-])ccc6F)c6ccc([nH]6)c(-c6cc(S(=O)(=O)[O-])ccc6F)c6nc(c(-c7cc(S(=O)(=O)[O-])ccc7F)c7ccc4[nH]7)C=C6)C=C5)cc3)CC2=O)cc(C)c1Br
REMARK SMILES IDX 15 1 14 2 13 3 12 4 11 5 10 6 8 7 9 8 7 9 5 10 6 11 86 12
REMARK SMILES IDX 85 13 87 14 4 15 1 16 2 17 3 18 91 19 89 20 92 21 88 22
REMARK SMILES IDX 90 23 16 24 17 25 18 26 19 27 20 28 21 29 22 30 23 31 84 32
REMARK SMILES IDX 24 33 83 34 25 35 26 36 27 37 77 38 28 39 82 40 76 41 78 42
REMARK SMILES IDX 29 43 81 44 75 45 74 46 30 48 62 49 42 50 61 51 43 52 46 53
REMARK SMILES IDX 60 54 79 55 44 56 45 57 59 59 80 60 47 61 31 62 32 63 40 64
REMARK SMILES IDX 33 65 39 66 41 67 38 68 34 69 35 70 36 71 37 72 63 73 64 74
REMARK SMILES IDX 72 75 65 76 71 77 73 78 70 79 66 80 67 81 68 82 69 83 48 84
REMARK SMILES IDX 49 85 57 86 50 87 56 88 58 89 55 90 51 91 52 92 53 93 54 94
REMARK H PARENT 78 47 46 58
REMARK Flexibility Score: inf
ROOT
ATOM      1  C   UNL A   1      34.230  29.917  27.380  1.00  0.00     0.188 C 
ENDROOT
BRANCH   1   2
ATOM      2  C   UNL A   1      34.090  28.537  26.738  1.00  0.00     0.188 C 
BRANCH   2   3
ATOM      3  O   UNL A   1      33.177  28.446  25.649  1.00  0.00    -0.376 OA
BRANCH   3   4
ATOM      4  C   UNL A   1      33.727  28.149  24.369  1.00  0.00     0.202 C 
BRANCH   4   5
ATOM      5  C   UNL A   1      33.153  28.924  23.172  1.00  0.00     0.261 C 
BRANCH   5   6
ATOM      6  O   UNL A   1      32.065  28.268  22.490  1.00  0.00    -0.463 OA
BRANCH   6   7
ATOM      7  C   UNL A   1      30.927  28.105  23.208  1.00  0.00     0.311 C 
ATOM      8  O   UNL A   1      30.309  29.016  23.752  1.00  0.00    -0.252 OA
BRANCH   7   9
ATOM      9  C   UNL A   1      30.431  26.676  23.279  1.00  0.00     0.128 C 
ATOM     10  N   UNL A   1      31.798  25.073  24.331  1.00  0.00    -0.312 N 
ATOM     11  C   UNL A   1      31.425  25.556  23.024  1.00  0.00     0.141 C 
ATOM     12  C   UNL A   1      30.961  25.576  25.328  1.00  0.00     0.227 C 
ATOM     13  C   UNL A   1      29.893  26.410  24.675  1.00  0.00     0.117 C 
ATOM     14  O   UNL A   1      31.023  25.393  26.535  1.00  0.00    -0.274 OA
BRANCH  10  15
ATOM     15  C   UNL A   1      32.776  24.065  24.530  1.00  0.00     0.044 A 
ATOM     16  C   UNL A   1      36.505  23.901  25.253  1.00  0.00     0.045 C 
ATOM     17  C   UNL A   1      35.107  23.438  24.954  1.00  0.00    -0.035 A 
ATOM     18  C   UNL A   1      34.115  24.410  24.736  1.00  0.00     0.031 A 
ATOM     19  C   UNL A   1      34.754  22.079  24.883  1.00  0.00     0.023 A 
ATOM     20  C   UNL A   1      33.414  21.703  24.673  1.00  0.00    -0.035 A 
ATOM     21  Br  UNL A   1      36.108  20.740  25.052  1.00  0.00    -0.050 Br
ATOM     22  C   UNL A   1      32.435  22.710  24.542  1.00  0.00     0.031 A 
ATOM     23  C   UNL A   1      33.006  20.259  24.542  1.00  0.00     0.045 C 
ENDBRANCH  10  15
ENDBRANCH   7   9
ENDBRANCH   6   7
ENDBRANCH   5   6
ENDBRANCH   4   5
ENDBRANCH   3   4
ENDBRANCH   2   3
ENDBRANCH   1   2
BRANCH   1  24
ATOM     24  O   UNL A   1      33.571  30.966  26.690  1.00  0.00    -0.376 OA
BRANCH  24  25
ATOM     25  C   UNL A   1      32.348  31.464  27.233  1.00  0.00     0.202 C 
BRANCH  25  26
ATOM     26  C   UNL A   1      32.041  32.973  27.226  1.00  0.00     0.261 C 
BRANCH  26  27
ATOM     27  O   UNL A   1      33.162  33.873  27.319  1.00  0.00    -0.460 OA
BRANCH  27  28
ATOM     28  C   UNL A   1      33.539  34.332  28.539  1.00  0.00     0.338 C 
ATOM     29  O   UNL A   1      32.926  35.125  29.226  1.00  0.00    -0.246 OA
BRANCH  28  30
ATOM     30  C   UNL A   1      34.663  33.467  29.023  1.00  0.00     0.060 A 
ATOM     31  C   UNL A   1      34.382  32.474  29.975  1.00  0.00     0.016 A 
ATOM     32  C   UNL A   1      35.947  33.547  28.474  1.00  0.00     0.016 A 
ATOM     33  C   UNL A   1      35.383  31.589  30.399  1.00  0.00     0.010 A 
ATOM     34  C   UNL A   1      36.951  32.673  28.911  1.00  0.00     0.010 A 
ATOM     35  C   UNL A   1      36.685  31.706  29.898  1.00  0.00    -0.014 A 
BRANCH  35  36
ATOM     36  C   UNL A   1      37.823  31.009  30.560  1.00  0.00     0.031 A 
ATOM     37  C   UNL A   1      38.187  31.446  31.957  1.00  0.00     0.074 A 
ATOM     38  C   UNL A   1      38.523  30.019  29.972  1.00  0.00     0.049 A 
ATOM     39  N   UNL A   1      39.218  31.122  32.692  1.00  0.00    -0.248 NA
ATOM     40  C   UNL A   1      37.255  32.383  32.606  1.00  0.00     0.031 C 
ATOM     41  C   UNL A   1      38.234  29.433  28.665  1.00  0.00     0.029 A 
ATOM     42  N   UNL A   1      39.641  29.337  30.401  1.00  0.00    -0.354 N 
ATOM     43  C   UNL A   1      39.061  31.817  33.887  1.00  0.00     0.074 A 
ATOM     44  C   UNL A   1      37.855  32.606  33.763  1.00  0.00     0.031 C 
ATOM     45  C   UNL A   1      39.160  28.495  28.391  1.00  0.00     0.029 A 
ATOM     46  C   UNL A   1      40.144  28.450  29.475  1.00  0.00     0.049 A 
ATOM     47  H   UNL A   1      40.042  29.472  31.289  1.00  0.00     0.167 HD
ATOM     48  C   UNL A   1      39.845  31.795  34.992  1.00  0.00     0.034 A 
ATOM     49  C   UNL A   1      41.284  27.722  29.483  1.00  0.00     0.034 A 
ATOM     50  C   UNL A   1      41.051  31.018  35.109  1.00  0.00     0.049 A 
ATOM     51  C   UNL A   1      42.219  27.820  30.675  1.00  0.00     0.074 A 
ATOM     52  C   UNL A   1      41.932  30.953  36.175  1.00  0.00     0.029 A 
ATOM     53  N   UNL A   1      41.551  30.173  34.129  1.00  0.00    -0.354 N 
ATOM     54  N   UNL A   1      42.080  28.514  31.782  1.00  0.00    -0.248 NA
ATOM     55  C   UNL A   1      43.466  27.039  30.620  1.00  0.00     0.031 C 
ATOM     56  C   UNL A   1      42.997  30.127  35.814  1.00  0.00     0.029 A 
ATOM     57  C   UNL A   1      42.736  29.600  34.560  1.00  0.00     0.049 A 
ATOM     58  H   UNL A   1      41.126  30.005  33.257  1.00  0.00     0.167 HD
ATOM     59  C   UNL A   1      43.188  28.199  32.572  1.00  0.00     0.074 A 
ATOM     60  C   UNL A   1      43.987  27.262  31.817  1.00  0.00     0.031 C 
ATOM     61  C   UNL A   1      43.509  28.638  33.815  1.00  0.00     0.034 A 
BRANCH  48  62
ATOM     62  C   UNL A   1      39.442  32.672  36.150  1.00  0.00     0.023 A 
ATOM     63  C   UNL A   1      38.659  32.180  37.208  1.00  0.00     0.031 A 
ATOM     64  C   UNL A   1      39.852  34.016  36.197  1.00  0.00     0.131 A 
ATOM     65  C   UNL A   1      38.271  33.040  38.246  1.00  0.00     0.055 A 
ATOM     66  C   UNL A   1      39.529  34.845  37.272  1.00  0.00     0.041 A 
ATOM     67  F   UNL A   1      40.577  34.545  35.199  1.00  0.00    -0.206 F 
ATOM     68  C   UNL A   1      38.724  34.360  38.300  1.00  0.00     0.022 A 
BRANCH  65  69
ATOM     69  S   UNL A   1      37.068  32.440  39.461  1.00  0.00     0.124 S 
ATOM     70  O   UNL A   1      37.326  33.328  40.593  1.00  0.00    -0.237 OA
ATOM     71  O   UNL A   1      35.797  32.637  38.772  1.00  0.00    -0.237 OA
ATOM     72  O   UNL A   1      37.457  31.047  39.668  1.00  0.00    -0.744 OA
ENDBRANCH  65  69
ENDBRANCH  48  62
BRANCH  49  73
ATOM     73  C   UNL A   1      41.673  26.876  28.310  1.00  0.00     0.023 A 
ATOM     74  C   UNL A   1      41.329  25.514  28.251  1.00  0.00     0.031 A 
ATOM     75  C   UNL A   1      42.505  27.381  27.295  1.00  0.00     0.131 A 
ATOM     76  C   UNL A   1      41.880  24.691  27.255  1.00  0.00     0.055 A 
ATOM     77  C   UNL A   1      42.986  26.575  26.259  1.00  0.00     0.041 A 
ATOM     78  F   UNL A   1      42.883  28.669  27.304  1.00  0.00    -0.206 F 
ATOM     79  C   UNL A   1      42.692  25.216  26.248  1.00  0.00     0.022 A 
BRANCH  76  80
ATOM     80  S   UNL A   1      41.652  22.895  27.388  1.00  0.00     0.124 S 
ATOM     81  O   UNL A   1      42.066  22.448  26.063  1.00  0.00    -0.237 OA
ATOM     82  O   UNL A   1      42.546  22.558  28.491  1.00  0.00    -0.237 OA
ATOM     83  O   UNL A   1      40.226  22.755  27.677  1.00  0.00    -0.744 OA
ENDBRANCH  76  80
ENDBRANCH  49  73
BRANCH  61  84
ATOM     84  C   UNL A   1      44.715  28.033  34.494  1.00  0.00     0.023 A 
ATOM     85  C   UNL A   1      44.646  26.851  35.249  1.00  0.00     0.031 A 
ATOM     86  C   UNL A   1      45.975  28.643  34.335  1.00  0.00     0.131 A 
ATOM     87  C   UNL A   1      45.808  26.333  35.844  1.00  0.00     0.055 A 
ATOM     88  C   UNL A   1      47.135  28.093  34.881  1.00  0.00     0.041 A 
ATOM     89  F   UNL A   1      46.100  29.775  33.624  1.00  0.00    -0.206 F 
ATOM     90  C   UNL A   1      47.054  26.936  35.647  1.00  0.00     0.022 A 
BRANCH  87  91
ATOM     91  S   UNL A   1      45.670  24.887  36.931  1.00  0.00     0.124 S 
ATOM     92  O   UNL A   1      44.308  25.016  37.438  1.00  0.00    -0.237 OA
ATOM     93  O   UNL A   1      45.904  23.779  36.009  1.00  0.00    -0.237 OA
ATOM     94  O   UNL A   1      46.724  25.098  37.921  1.00  0.00    -0.744 OA
ENDBRANCH  87  91
ENDBRANCH  61  84
ENDBRANCH  35  36
ENDBRANCH  28  30
ENDBRANCH  27  28
ENDBRANCH  26  27
ENDBRANCH  25  26
ENDBRANCH  24  25
ENDBRANCH   1  24
TORSDOF 21
ENDMDL
MODEL 3
REMARK VINA RESULT:     -10.0      5.091      8.594
REMARK SMILES Cc1cc(N2C[C@H](C(=O)OCCOCCOCCOC(=O)c3ccc(-c4c5nc(c(-c6cc(S(=O)(=O)[O-])ccc6F)c6ccc([nH]6)c(-c6cc(S(=O)(=O)[O-])ccc6F)c6nc(c(-c7cc(S(=O)(=O)[O-])ccc7F)c7ccc4[nH]7)C=C6)C=C5)cc3)CC2=O)cc(C)c1Br
REMARK SMILES IDX 15 1 14 2 13 3 12 4 11 5 10 6 8 7 9 8 7 9 5 10 6 11 86 12
REMARK SMILES IDX 85 13 87 14 4 15 1 16 2 17 3 18 91 19 89 20 92 21 88 22
REMARK SMILES IDX 90 23 16 24 17 25 18 26 19 27 20 28 21 29 22 30 23 31 84 32
REMARK SMILES IDX 24 33 83 34 25 35 26 36 27 37 77 38 28 39 82 40 76 41 78 42
REMARK SMILES IDX 29 43 81 44 75 45 74 46 30 48 62 49 42 50 61 51 43 52 46 53
REMARK SMILES IDX 60 54 79 55 44 56 45 57 59 59 80 60 47 61 31 62 32 63 40 64
REMARK SMILES IDX 33 65 39 66 41 67 38 68 34 69 35 70 36 71 37 72 63 73 64 74
REMARK SMILES IDX 72 75 65 76 71 77 73 78 70 79 66 80 67 81 68 82 69 83 48 84
REMARK SMILES IDX 49 85 57 86 50 87 56 88 58 89 55 90 51 91 52 92 53 93 54 94
REMARK H PARENT 78 47 46 58
REMARK Flexibility Score: inf
ROOT
ATOM      1  C   UNL A   1      33.763  32.244  28.038  1.00  0.00     0.188 C 
ENDROOT
BRANCH   1   2
ATOM      2  C   UNL A   1      34.571  31.012  27.630  1.00  0.00     0.188 C 
BRANCH   2   3
ATOM      3  O   UNL A   1      33.824  29.821  27.412  1.00  0.00    -0.376 OA
BRANCH   3   4
ATOM      4  C   UNL A   1      33.617  29.428  26.058  1.00  0.00     0.202 C 
BRANCH   4   5
ATOM      5  C   UNL A   1      32.202  29.621  25.490  1.00  0.00     0.261 C 
BRANCH   5   6
ATOM      6  O   UNL A   1      32.022  29.156  24.137  1.00  0.00    -0.463 OA
BRANCH   6   7
ATOM      7  C   UNL A   1      30.740  28.948  23.747  1.00  0.00     0.311 C 
ATOM      8  O   UNL A   1      29.874  29.816  23.709  1.00  0.00    -0.252 OA
BRANCH   7   9
ATOM      9  C   UNL A   1      30.439  27.527  23.320  1.00  0.00     0.128 C 
ATOM     10  N   UNL A   1      31.533  25.770  24.444  1.00  0.00    -0.312 N 
ATOM     11  C   UNL A   1      31.593  26.543  23.227  1.00  0.00     0.141 C 
ATOM     12  C   UNL A   1      30.338  25.981  25.134  1.00  0.00     0.227 C 
ATOM     13  C   UNL A   1      29.477  26.906  24.319  1.00  0.00     0.117 C 
ATOM     14  O   UNL A   1      29.988  25.510  26.207  1.00  0.00    -0.274 OA
BRANCH  10  15
ATOM     15  C   UNL A   1      32.496  24.784  24.778  1.00  0.00     0.044 A 
ATOM     16  C   UNL A   1      33.262  22.521  27.736  1.00  0.00     0.045 C 
ATOM     17  C   UNL A   1      33.407  23.182  26.394  1.00  0.00    -0.035 A 
ATOM     18  C   UNL A   1      32.479  24.176  26.037  1.00  0.00     0.031 A 
ATOM     19  C   UNL A   1      34.429  22.850  25.489  1.00  0.00     0.023 A 
ATOM     20  C   UNL A   1      34.473  23.449  24.216  1.00  0.00    -0.035 A 
ATOM     21  Br  UNL A   1      35.775  21.593  26.002  1.00  0.00    -0.050 Br
ATOM     22  C   UNL A   1      33.474  24.380  23.865  1.00  0.00     0.031 A 
ATOM     23  C   UNL A   1      35.580  23.154  23.238  1.00  0.00     0.045 C 
ENDBRANCH  10  15
ENDBRANCH   7   9
ENDBRANCH   6   7
ENDBRANCH   5   6
ENDBRANCH   4   5
ENDBRANCH   3   4
ENDBRANCH   2   3
ENDBRANCH   1   2
BRANCH   1  24
ATOM     24  O   UNL A   1      34.431  33.482  27.862  1.00  0.00    -0.376 OA
BRANCH  24  25
ATOM     25  C   UNL A   1      34.034  34.583  28.678  1.00  0.00     0.202 C 
BRANCH  25  26
ATOM     26  C   UNL A   1      33.893  34.422  30.203  1.00  0.00     0.261 C 
BRANCH  26  27
ATOM     27  O   UNL A   1      35.092  34.130  30.947  1.00  0.00    -0.460 OA
BRANCH  27  28
ATOM     28  C   UNL A   1      35.219  32.917  31.541  1.00  0.00     0.338 C 
ATOM     29  O   UNL A   1      34.332  32.292  32.087  1.00  0.00    -0.246 OA
BRANCH  28  30
ATOM     30  C   UNL A   1      36.547  32.351  31.140  1.00  0.00     0.060 A 
ATOM     31  C   UNL A   1      37.100  32.746  29.910  1.00  0.00     0.016 A 
ATOM     32  C   UNL A   1      37.295  31.538  31.997  1.00  0.00     0.016 A 
ATOM     33  C   UNL A   1      38.374  32.307  29.526  1.00  0.00     0.010 A 
ATOM     34  C   UNL A   1      38.562  31.086  31.605  1.00  0.00     0.010 A 
ATOM     35  C   UNL A   1      39.100  31.442  30.355  1.00  0.00    -0.014 A 
BRANCH  35  36
ATOM     36  C   UNL A   1      40.290  30.710  29.837  1.00  0.00     0.031 A 
ATOM     37  C   UNL A   1      41.580  31.480  29.715  1.00  0.00     0.074 A 
ATOM     38  C   UNL A   1      40.258  29.409  29.485  1.00  0.00     0.049 A 
ATOM     39  N   UNL A   1      42.709  31.137  29.154  1.00  0.00    -0.248 NA
ATOM     40  C   UNL A   1      41.588  32.828  30.308  1.00  0.00     0.031 C 
ATOM     41  C   UNL A   1      39.110  28.517  29.628  1.00  0.00     0.029 A 
ATOM     42  N   UNL A   1      41.228  28.614  28.916  1.00  0.00    -0.354 N 
ATOM     43  C   UNL A   1      43.559  32.225  29.321  1.00  0.00     0.074 A 
ATOM     44  C   UNL A   1      42.804  33.251  30.005  1.00  0.00     0.031 C 
ATOM     45  C   UNL A   1      39.435  27.304  29.143  1.00  0.00     0.029 A 
ATOM     46  C   UNL A   1      40.795  27.345  28.600  1.00  0.00     0.049 A 
ATOM     47  H   UNL A   1      42.147  28.925  28.750  1.00  0.00     0.167 HD
ATOM     48  C   UNL A   1      44.856  32.356  28.948  1.00  0.00     0.034 A 
ATOM     49  C   UNL A   1      41.407  26.350  27.917  1.00  0.00     0.034 A 
ATOM     50  C   UNL A   1      45.602  31.337  28.258  1.00  0.00     0.049 A 
ATOM     51  C   UNL A   1      42.812  26.571  27.386  1.00  0.00     0.074 A 
ATOM     52  C   UNL A   1      46.910  31.386  27.807  1.00  0.00     0.029 A 
ATOM     53  N   UNL A   1      45.110  30.086  27.913  1.00  0.00    -0.354 N 
ATOM     54  N   UNL A   1      43.592  27.621  27.515  1.00  0.00    -0.248 NA
ATOM     55  C   UNL A   1      43.421  25.474  26.615  1.00  0.00     0.031 C 
ATOM     56  C   UNL A   1      47.186  30.196  27.131  1.00  0.00     0.029 A 
ATOM     57  C   UNL A   1      46.083  29.366  27.240  1.00  0.00     0.049 A 
ATOM     58  H   UNL A   1      44.204  29.760  28.117  1.00  0.00     0.167 HD
ATOM     59  C   UNL A   1      44.797  27.280  26.898  1.00  0.00     0.074 A 
ATOM     60  C   UNL A   1      44.643  25.936  26.392  1.00  0.00     0.031 C 
ATOM     61  C   UNL A   1      45.933  28.011  26.771  1.00  0.00     0.034 A 
BRANCH  48  62
ATOM     62  C   UNL A   1      45.536  33.668  29.244  1.00  0.00     0.023 A 
ATOM     63  C   UNL A   1      45.489  34.741  28.339  1.00  0.00     0.031 A 
ATOM     64  C   UNL A   1      46.236  33.847  30.449  1.00  0.00     0.131 A 
ATOM     65  C   UNL A   1      46.170  35.931  28.633  1.00  0.00     0.055 A 
ATOM     66  C   UNL A   1      46.846  35.060  30.771  1.00  0.00     0.041 A 
ATOM     67  F   UNL A   1      46.337  32.845  31.336  1.00  0.00    -0.206 F 
ATOM     68  C   UNL A   1      46.823  36.108  29.855  1.00  0.00     0.022 A 
BRANCH  65  69
ATOM     69  S   UNL A   1      46.290  37.200  27.345  1.00  0.00     0.124 S 
ATOM     70  O   UNL A   1      44.882  37.522  27.117  1.00  0.00    -0.237 OA
ATOM     71  O   UNL A   1      47.085  38.236  27.993  1.00  0.00    -0.237 OA
ATOM     72  O   UNL A   1      46.949  36.504  26.241  1.00  0.00    -0.744 OA
ENDBRANCH  65  69
ENDBRANCH  48  62
BRANCH  49  73
ATOM     73  C   UNL A   1      40.700  25.065  27.617  1.00  0.00     0.023 A 
ATOM     74  C   UNL A   1      41.334  23.825  27.810  1.00  0.00     0.031 A 
ATOM     75  C   UNL A   1      39.432  25.059  27.010  1.00  0.00     0.131 A 
ATOM     76  C   UNL A   1      40.740  22.648  27.326  1.00  0.00     0.055 A 
ATOM     77  C   UNL A   1      38.808  23.876  26.603  1.00  0.00     0.041 A 
ATOM     78  F   UNL A   1      38.781  26.211  26.783  1.00  0.00    -0.206 F 
ATOM     79  C   UNL A   1      39.474  22.662  26.740  1.00  0.00     0.022 A 
BRANCH  76  80
ATOM     80  S   UNL A   1      41.719  21.118  27.328  1.00  0.00     0.124 S 
ATOM     81  O   UNL A   1      41.970  20.930  25.904  1.00  0.00    -0.237 OA
ATOM     82  O   UNL A   1      42.870  21.497  28.141  1.00  0.00    -0.237 OA
ATOM     83  O   UNL A   1      40.820  20.141  27.938  1.00  0.00    -0.744 OA
ENDBRANCH  76  80
ENDBRANCH  49  73
BRANCH  61  84
ATOM     84  C   UNL A   1      47.143  27.345  26.160  1.00  0.00     0.023 A 
ATOM     85  C   UNL A   1      48.135  26.720  26.933  1.00  0.00     0.031 A 
ATOM     86  C   UNL A   1      47.273  27.301  24.758  1.00  0.00     0.131 A 
ATOM     87  C   UNL A   1      49.230  26.106  26.301  1.00  0.00     0.055 A 
ATOM     88  C   UNL A   1      48.332  26.640  24.135  1.00  0.00     0.041 A 
ATOM     89  F   UNL A   1      46.354  27.882  23.969  1.00  0.00    -0.206 F 
ATOM     90  C   UNL A   1      49.323  26.046  24.908  1.00  0.00     0.022 A 
BRANCH  87  91
ATOM     91  S   UNL A   1      50.569  25.432  27.323  1.00  0.00     0.124 S 
ATOM     92  O   UNL A   1      50.000  24.167  27.775  1.00  0.00    -0.237 OA
ATOM     93  O   UNL A   1      51.670  25.331  26.370  1.00  0.00    -0.237 OA
ATOM     94  O   UNL A   1      50.748  26.441  28.366  1.00  0.00    -0.744 OA
ENDBRANCH  87  91
ENDBRANCH  61  84
ENDBRANCH  35  36
ENDBRANCH  28  30
ENDBRANCH  27  28
ENDBRANCH  26  27
ENDBRANCH  25  26
ENDBRANCH  24  25
ENDBRANCH   1  24
TORSDOF 21
ENDMDL
