MODEL 1
REMARK VINA RESULT:      -9.2      0.000      0.000
REMARK SMILES CCCc1cc(OC(F)(F)F)cc2c1O[C@@H](C(F)(F)F)C(C(=O)OCCOCCOCCOC(=O)c1ccc(-c3c4nc(c(-c5cc(S(=O)(=O)[O-])ccc5F)c5ccc([nH]5)c(-c5cc(S(=O)(=O)[O-])ccc5F)c5nc(c(-c6cc(S(=O)(=O)[O-])ccc6F)c6ccc3[nH]6)C=C5)C=C4)cc1)=C2
REMARK SMILES IDX 29 1 28 2 27 3 26 4 25 5 24 6 22 7 23 8 21 9 4 10 5 11 14 12
REMARK SMILES IDX 6 13 13 14 15 15 12 16 99 17 16 18 3 19 2 20 1 21 7 22 8 23
REMARK SMILES IDX 9 24 10 25 11 26 17 27 18 28 19 29 20 30 30 31 31 32 32 33
REMARK SMILES IDX 33 34 34 35 35 36 36 37 37 38 98 39 38 40 97 41 39 42 40 43
REMARK SMILES IDX 41 44 91 45 42 46 96 47 90 48 92 49 43 50 95 51 89 52 88 53
REMARK SMILES IDX 44 55 76 56 56 57 75 58 57 59 60 60 74 61 93 62 58 63 59 64
REMARK SMILES IDX 73 66 94 67 61 68 45 69 46 70 54 71 47 72 53 73 55 74 52 75
REMARK SMILES IDX 48 76 49 77 50 78 51 79 77 80 78 81 86 82 79 83 85 84 87 85
REMARK SMILES IDX 84 86 80 87 81 88 82 89 83 90 62 91 63 92 71 93 64 94 70 95
REMARK SMILES IDX 72 96 69 97 65 98 66 99 67 100 68 101
REMARK H PARENT 92 54 60 65
REMARK Flexibility Score: inf
ROOT
ATOM      1  C   UNL A   1      33.170  27.976  24.176  1.00  0.00     0.188 C 
ENDROOT
BRANCH   1   2
ATOM      2  C   UNL A   1      33.118  27.559  22.692  1.00  0.00     0.188 C 
BRANCH   2   3
ATOM      3  O   UNL A   1      32.578  26.262  22.480  1.00  0.00    -0.376 OA
BRANCH   3   4
ATOM      4  C   UNL A   1      33.523  25.207  22.387  1.00  0.00     0.202 C 
BRANCH   4   5
ATOM      5  C   UNL A   1      33.467  24.246  23.576  1.00  0.00     0.261 C 
BRANCH   5   6
ATOM      6  O   UNL A   1      34.261  24.665  24.698  1.00  0.00    -0.460 OA
BRANCH   6   7
ATOM      7  C   UNL A   1      34.472  23.756  25.675  1.00  0.00     0.338 C 
ATOM      8  O   UNL A   1      33.615  23.263  26.387  1.00  0.00    -0.246 OA
BRANCH   7   9
ATOM      9  C   UNL A   1      35.901  23.382  25.702  1.00  0.00     0.087 C 
ATOM     10  C   UNL A   1      39.783  21.953  26.354  1.00  0.00    -0.002 A 
ATOM     11  C   UNL A   1      40.814  22.885  26.566  1.00  0.00     0.054 A 
ATOM     12  C   UNL A   1      38.482  22.443  26.154  1.00  0.00     0.131 A 
ATOM     13  C   UNL A   1      40.542  24.253  26.670  1.00  0.00     0.130 A 
ATOM     14  C   UNL A   1      38.197  23.814  26.247  1.00  0.00     0.021 A 
ATOM     15  O   UNL A   1      37.479  21.530  25.924  1.00  0.00    -0.475 OA
ATOM     16  C   UNL A   1      39.234  24.715  26.496  1.00  0.00     0.058 A 
ATOM     17  C   UNL A   1      36.803  24.255  26.181  1.00  0.00     0.027 C 
ATOM     18  C   UNL A   1      36.361  22.051  25.153  1.00  0.00     0.316 C 
BRANCH  10  19
ATOM     19  C   UNL A   1      40.043  20.459  26.287  1.00  0.00     0.039 C 
BRANCH  19  20
ATOM     20  C   UNL A   1      41.369  19.934  26.855  1.00  0.00     0.001 C 
ATOM     21  C   UNL A   1      42.215  19.186  25.833  1.00  0.00     0.004 C 
ENDBRANCH  19  20
ENDBRANCH  10  19
BRANCH  13  22
ATOM     22  O   UNL A   1      41.465  25.226  26.936  1.00  0.00    -0.406 OA
BRANCH  22  23
ATOM     23  C   UNL A   1      41.940  25.980  25.829  1.00  0.00     0.573 C 
ATOM     24  F   UNL A   1      42.953  25.349  25.196  1.00  0.00    -0.132 F 
ATOM     25  F   UNL A   1      40.946  26.234  24.952  1.00  0.00    -0.132 F 
ATOM     26  F   UNL A   1      42.411  27.163  26.283  1.00  0.00    -0.132 F 
ENDBRANCH  22  23
ENDBRANCH  13  22
BRANCH  18  27
ATOM     27  C   UNL A   1      35.320  20.935  24.979  1.00  0.00     0.430 C 
ATOM     28  F   UNL A   1      35.917  19.771  24.621  1.00  0.00    -0.167 F 
ATOM     29  F   UNL A   1      34.697  20.689  26.159  1.00  0.00    -0.167 F 
ATOM     30  F   UNL A   1      34.371  21.237  24.071  1.00  0.00    -0.167 F 
ENDBRANCH  18  27
ENDBRANCH   7   9
ENDBRANCH   6   7
ENDBRANCH   5   6
ENDBRANCH   4   5
ENDBRANCH   3   4
ENDBRANCH   2   3
ENDBRANCH   1   2
BRANCH   1  31
ATOM     31  O   UNL A   1      33.104  29.349  24.539  1.00  0.00    -0.376 OA
BRANCH  31  32
ATOM     32  C   UNL A   1      32.086  29.787  25.427  1.00  0.00     0.202 C 
BRANCH  32  33
ATOM     33  C   UNL A   1      32.415  29.863  26.920  1.00  0.00     0.261 C 
BRANCH  33  34
ATOM     34  O   UNL A   1      33.820  29.887  27.220  1.00  0.00    -0.460 OA
BRANCH  34  35
ATOM     35  C   UNL A   1      34.303  31.092  27.612  1.00  0.00     0.338 C 
ATOM     36  O   UNL A   1      33.707  32.155  27.615  1.00  0.00    -0.246 OA
BRANCH  35  37
ATOM     37  C   UNL A   1      35.641  30.925  28.215  1.00  0.00     0.060 A 
ATOM     38  C   UNL A   1      35.936  29.711  28.852  1.00  0.00     0.016 A 
ATOM     39  C   UNL A   1      36.567  31.971  28.224  1.00  0.00     0.016 A 
ATOM     40  C   UNL A   1      37.146  29.547  29.527  1.00  0.00     0.010 A 
ATOM     41  C   UNL A   1      37.768  31.814  28.923  1.00  0.00     0.010 A 
ATOM     42  C   UNL A   1      38.050  30.613  29.601  1.00  0.00    -0.014 A 
BRANCH  42  43
ATOM     43  C   UNL A   1      39.199  30.556  30.541  1.00  0.00     0.031 A 
ATOM     44  C   UNL A   1      40.453  29.858  30.092  1.00  0.00     0.074 A 
ATOM     45  C   UNL A   1      39.124  31.096  31.769  1.00  0.00     0.049 A 
ATOM     46  N   UNL A   1      41.528  29.559  30.773  1.00  0.00    -0.248 NA
ATOM     47  C   UNL A   1      40.494  29.439  28.682  1.00  0.00     0.031 C 
ATOM     48  C   UNL A   1      37.990  31.855  32.292  1.00  0.00     0.029 A 
ATOM     49  N   UNL A   1      40.020  31.067  32.810  1.00  0.00    -0.354 N 
ATOM     50  C   UNL A   1      42.372  28.907  29.879  1.00  0.00     0.074 A 
ATOM     51  C   UNL A   1      41.671  28.836  28.614  1.00  0.00     0.031 C 
ATOM     52  C   UNL A   1      38.246  32.195  33.567  1.00  0.00     0.029 A 
ATOM     53  C   UNL A   1      39.540  31.639  33.964  1.00  0.00     0.049 A 
ATOM     54  H   UNL A   1      40.921  30.676  32.735  1.00  0.00     0.167 HD
ATOM     55  C   UNL A   1      43.616  28.412  30.095  1.00  0.00     0.034 A 
ATOM     56  C   UNL A   1      40.066  31.668  35.207  1.00  0.00     0.034 A 
ATOM     57  C   UNL A   1      44.289  28.468  31.367  1.00  0.00     0.049 A 
ATOM     58  C   UNL A   1      41.404  31.012  35.456  1.00  0.00     0.074 A 
ATOM     59  C   UNL A   1      45.546  27.993  31.701  1.00  0.00     0.029 A 
ATOM     60  N   UNL A   1      43.755  29.021  32.525  1.00  0.00    -0.354 N 
ATOM     61  N   UNL A   1      42.187  30.384  34.609  1.00  0.00    -0.248 NA
ATOM     62  C   UNL A   1      41.928  31.066  36.827  1.00  0.00     0.031 C 
ATOM     63  C   UNL A   1      45.744  28.198  33.071  1.00  0.00     0.029 A 
ATOM     64  C   UNL A   1      44.643  28.869  33.578  1.00  0.00     0.049 A 
ATOM     65  H   UNL A   1      42.874  29.455  32.586  1.00  0.00     0.167 HD
ATOM     66  C   UNL A   1      43.312  30.005  35.339  1.00  0.00     0.074 A 
ATOM     67  C   UNL A   1      43.105  30.471  36.693  1.00  0.00     0.031 C 
ATOM     68  C   UNL A   1      44.421  29.342  34.923  1.00  0.00     0.034 A 
BRANCH  55  69
ATOM     69  C   UNL A   1      44.287  27.711  28.940  1.00  0.00     0.023 A 
ATOM     70  C   UNL A   1      44.313  26.310  28.838  1.00  0.00     0.031 A 
ATOM     71  C   UNL A   1      44.946  28.458  27.947  1.00  0.00     0.131 A 
ATOM     72  C   UNL A   1      45.043  25.697  27.809  1.00  0.00     0.055 A 
ATOM     73  C   UNL A   1      45.606  27.843  26.882  1.00  0.00     0.041 A 
ATOM     74  F   UNL A   1      44.976  29.798  28.006  1.00  0.00    -0.206 F 
ATOM     75  C   UNL A   1      45.670  26.454  26.816  1.00  0.00     0.022 A 
BRANCH  72  76
ATOM     76  S   UNL A   1      45.280  23.899  27.864  1.00  0.00     0.124 S 
ATOM     77  O   UNL A   1      45.286  23.647  29.302  1.00  0.00    -0.237 OA
ATOM     78  O   UNL A   1      44.118  23.406  27.134  1.00  0.00    -0.237 OA
ATOM     79  O   UNL A   1      46.566  23.702  27.198  1.00  0.00    -0.744 OA
ENDBRANCH  72  76
ENDBRANCH  55  69
BRANCH  56  80
ATOM     80  C   UNL A   1      39.306  32.283  36.334  1.00  0.00     0.023 A 
ATOM     81  C   UNL A   1      38.562  31.494  37.226  1.00  0.00     0.031 A 
ATOM     82  C   UNL A   1      39.266  33.680  36.497  1.00  0.00     0.131 A 
ATOM     83  C   UNL A   1      37.774  32.109  38.212  1.00  0.00     0.055 A 
ATOM     84  C   UNL A   1      38.521  34.283  37.513  1.00  0.00     0.041 A 
ATOM     85  F   UNL A   1      39.954  34.481  35.669  1.00  0.00    -0.206 F 
ATOM     86  C   UNL A   1      37.759  33.496  38.370  1.00  0.00     0.022 A 
BRANCH  83  87
ATOM     87  S   UNL A   1      36.694  31.069  39.233  1.00  0.00     0.124 S 
ATOM     88  O   UNL A   1      37.435  31.013  40.489  1.00  0.00    -0.237 OA
ATOM     89  O   UNL A   1      35.456  31.842  39.252  1.00  0.00    -0.237 OA
ATOM     90  O   UNL A   1      36.629  29.811  38.490  1.00  0.00    -0.744 OA
ENDBRANCH  83  87
ENDBRANCH  56  80
BRANCH  68  91
ATOM     91  C   UNL A   1      45.529  29.145  35.929  1.00  0.00     0.023 A 
ATOM     92  C   UNL A   1      45.502  28.105  36.873  1.00  0.00     0.031 A 
ATOM     93  C   UNL A   1      46.641  30.004  35.919  1.00  0.00     0.131 A 
ATOM     94  C   UNL A   1      46.554  27.973  37.795  1.00  0.00     0.055 A 
ATOM     95  C   UNL A   1      47.707  29.839  36.805  1.00  0.00     0.041 A 
ATOM     96  F   UNL A   1      46.717  31.014  35.036  1.00  0.00    -0.206 F 
ATOM     97  C   UNL A   1      47.663  28.823  37.754  1.00  0.00     0.022 A 
BRANCH  94  98
ATOM     98  S   UNL A   1      46.435  26.704  39.086  1.00  0.00     0.124 S 
ATOM     99  O   UNL A   1      47.798  26.187  39.130  1.00  0.00    -0.237 OA
ATOM    100  O   UNL A   1      46.009  27.478  40.248  1.00  0.00    -0.237 OA
ATOM    101  O   UNL A   1      45.436  25.774  38.563  1.00  0.00    -0.744 OA
ENDBRANCH  94  98
ENDBRANCH  68  91
ENDBRANCH  42  43
ENDBRANCH  35  37
ENDBRANCH  34  35
ENDBRANCH  33  34
ENDBRANCH  32  33
ENDBRANCH  31  32
ENDBRANCH   1  31
TORSDOF 25
ENDMDL
MODEL 2
REMARK VINA RESULT:      -8.8      2.651      8.284
REMARK SMILES CCCc1cc(OC(F)(F)F)cc2c1O[C@@H](C(F)(F)F)C(C(=O)OCCOCCOCCOC(=O)c1ccc(-c3c4nc(c(-c5cc(S(=O)(=O)[O-])ccc5F)c5ccc([nH]5)c(-c5cc(S(=O)(=O)[O-])ccc5F)c5nc(c(-c6cc(S(=O)(=O)[O-])ccc6F)c6ccc3[nH]6)C=C5)C=C4)cc1)=C2
REMARK SMILES IDX 29 1 28 2 27 3 26 4 25 5 24 6 22 7 23 8 21 9 4 10 5 11 14 12
REMARK SMILES IDX 6 13 13 14 15 15 12 16 99 17 16 18 3 19 2 20 1 21 7 22 8 23
REMARK SMILES IDX 9 24 10 25 11 26 17 27 18 28 19 29 20 30 30 31 31 32 32 33
REMARK SMILES IDX 33 34 34 35 35 36 36 37 37 38 98 39 38 40 97 41 39 42 40 43
REMARK SMILES IDX 41 44 91 45 42 46 96 47 90 48 92 49 43 50 95 51 89 52 88 53
REMARK SMILES IDX 44 55 76 56 56 57 75 58 57 59 60 60 74 61 93 62 58 63 59 64
REMARK SMILES IDX 73 66 94 67 61 68 45 69 46 70 54 71 47 72 53 73 55 74 52 75
REMARK SMILES IDX 48 76 49 77 50 78 51 79 77 80 78 81 86 82 79 83 85 84 87 85
REMARK SMILES IDX 84 86 80 87 81 88 82 89 83 90 62 91 63 92 71 93 64 94 70 95
REMARK SMILES IDX 72 96 69 97 65 98 66 99 67 100 68 101
REMARK H PARENT 92 54 60 65
REMARK Flexibility Score: inf
ROOT
ATOM      1  C   UNL A   1      33.465  31.484  27.772  1.00  0.00     0.188 C 
ENDROOT
BRANCH   1   2
ATOM      2  C   UNL A   1      33.392  30.148  27.004  1.00  0.00     0.188 C 
BRANCH   2   3
ATOM      3  O   UNL A   1      32.743  29.109  27.724  1.00  0.00    -0.376 OA
BRANCH   3   4
ATOM      4  C   UNL A   1      32.590  27.880  27.030  1.00  0.00     0.202 C 
BRANCH   4   5
ATOM      5  C   UNL A   1      31.150  27.621  26.581  1.00  0.00     0.261 C 
BRANCH   5   6
ATOM      6  O   UNL A   1      30.925  27.870  25.183  1.00  0.00    -0.460 OA
BRANCH   6   7
ATOM      7  C   UNL A   1      30.512  26.825  24.433  1.00  0.00     0.338 C 
ATOM      8  O   UNL A   1      29.477  26.775  23.791  1.00  0.00    -0.246 OA
BRANCH   7   9
ATOM      9  C   UNL A   1      31.546  25.771  24.441  1.00  0.00     0.087 C 
ATOM     10  C   UNL A   1      34.329  22.713  23.781  1.00  0.00    -0.002 A 
ATOM     11  C   UNL A   1      34.197  21.517  24.508  1.00  0.00     0.054 A 
ATOM     12  C   UNL A   1      33.379  23.725  23.997  1.00  0.00     0.131 A 
ATOM     13  C   UNL A   1      33.103  21.301  25.353  1.00  0.00     0.130 A 
ATOM     14  C   UNL A   1      32.282  23.524  24.848  1.00  0.00     0.021 A 
ATOM     15  O   UNL A   1      33.524  24.902  23.301  1.00  0.00    -0.475 OA
ATOM     16  C   UNL A   1      32.154  22.313  25.530  1.00  0.00     0.058 A 
ATOM     17  C   UNL A   1      31.243  24.552  24.921  1.00  0.00     0.027 C 
ATOM     18  C   UNL A   1      32.950  26.063  23.962  1.00  0.00     0.316 C 
BRANCH  10  19
ATOM     19  C   UNL A   1      35.479  22.953  22.820  1.00  0.00     0.039 C 
BRANCH  19  20
ATOM     20  C   UNL A   1      36.906  22.707  23.330  1.00  0.00     0.001 C 
ATOM     21  C   UNL A   1      37.237  23.469  24.606  1.00  0.00     0.004 C 
ENDBRANCH  19  20
ENDBRANCH  10  19
BRANCH  13  22
ATOM     22  O   UNL A   1      32.856  20.152  26.052  1.00  0.00    -0.406 OA
BRANCH  22  23
ATOM     23  C   UNL A   1      32.835  18.941  25.309  1.00  0.00     0.573 C 
ATOM     24  F   UNL A   1      31.999  19.022  24.251  1.00  0.00    -0.132 F 
ATOM     25  F   UNL A   1      34.072  18.610  24.884  1.00  0.00    -0.132 F 
ATOM     26  F   UNL A   1      32.388  17.949  26.112  1.00  0.00    -0.132 F 
ENDBRANCH  22  23
ENDBRANCH  13  22
BRANCH  18  27
ATOM     27  C   UNL A   1      33.176  27.297  23.077  1.00  0.00     0.430 C 
ATOM     28  F   UNL A   1      32.065  27.582  22.353  1.00  0.00    -0.167 F 
ATOM     29  F   UNL A   1      33.411  28.389  23.848  1.00  0.00    -0.167 F 
ATOM     30  F   UNL A   1      34.221  27.159  22.238  1.00  0.00    -0.167 F 
ENDBRANCH  18  27
ENDBRANCH   7   9
ENDBRANCH   6   7
ENDBRANCH   5   6
ENDBRANCH   4   5
ENDBRANCH   3   4
ENDBRANCH   2   3
ENDBRANCH   1   2
BRANCH   1  31
ATOM     31  O   UNL A   1      34.561  32.368  27.571  1.00  0.00    -0.376 OA
BRANCH  31  32
ATOM     32  C   UNL A   1      34.337  33.770  27.599  1.00  0.00     0.202 C 
BRANCH  32  33
ATOM     33  C   UNL A   1      33.248  34.309  28.531  1.00  0.00     0.261 C 
BRANCH  33  34
ATOM     34  O   UNL A   1      33.713  35.256  29.506  1.00  0.00    -0.460 OA
BRANCH  34  35
ATOM     35  C   UNL A   1      33.877  34.759  30.757  1.00  0.00     0.338 C 
ATOM     36  O   UNL A   1      33.139  34.923  31.713  1.00  0.00    -0.246 OA
BRANCH  35  37
ATOM     37  C   UNL A   1      35.019  33.823  30.781  1.00  0.00     0.060 A 
ATOM     38  C   UNL A   1      34.834  32.565  31.373  1.00  0.00     0.016 A 
ATOM     39  C   UNL A   1      36.275  34.200  30.300  1.00  0.00     0.016 A 
ATOM     40  C   UNL A   1      35.911  31.689  31.514  1.00  0.00     0.010 A 
ATOM     41  C   UNL A   1      37.359  33.331  30.466  1.00  0.00     0.010 A 
ATOM     42  C   UNL A   1      37.188  32.085  31.099  1.00  0.00    -0.014 A 
BRANCH  42  43
ATOM     43  C   UNL A   1      38.382  31.295  31.493  1.00  0.00     0.031 A 
ATOM     44  C   UNL A   1      39.098  31.670  32.760  1.00  0.00     0.074 A 
ATOM     45  C   UNL A   1      38.829  30.279  30.734  1.00  0.00     0.049 A 
ATOM     46  N   UNL A   1      40.232  31.227  33.238  1.00  0.00    -0.248 NA
ATOM     47  C   UNL A   1      38.445  32.688  33.598  1.00  0.00     0.031 C 
ATOM     48  C   UNL A   1      38.182  29.779  29.523  1.00  0.00     0.029 A 
ATOM     49  N   UNL A   1      39.952  29.499  30.864  1.00  0.00    -0.354 N 
ATOM     50  C   UNL A   1      40.435  31.918  34.429  1.00  0.00     0.074 A 
ATOM     51  C   UNL A   1      39.317  32.825  34.586  1.00  0.00     0.031 C 
ATOM     52  C   UNL A   1      38.935  28.795  29.004  1.00  0.00     0.029 A 
ATOM     53  C   UNL A   1      40.139  28.627  29.818  1.00  0.00     0.049 A 
ATOM     54  H   UNL A   1      40.564  29.559  31.633  1.00  0.00     0.167 HD
ATOM     55  C   UNL A   1      41.461  31.807  35.308  1.00  0.00     0.034 A 
ATOM     56  C   UNL A   1      41.183  27.822  29.530  1.00  0.00     0.034 A 
ATOM     57  C   UNL A   1      42.579  30.917  35.125  1.00  0.00     0.049 A 
ATOM     58  C   UNL A   1      42.371  27.793  30.465  1.00  0.00     0.074 A 
ATOM     59  C   UNL A   1      43.676  30.727  35.948  1.00  0.00     0.029 A 
ATOM     60  N   UNL A   1      42.753  30.076  34.033  1.00  0.00    -0.354 N 
ATOM     61  N   UNL A   1      42.562  28.462  31.579  1.00  0.00    -0.248 NA
ATOM     62  C   UNL A   1      43.483  26.905  30.102  1.00  0.00     0.031 C 
ATOM     63  C   UNL A   1      44.543  29.824  35.323  1.00  0.00     0.029 A 
ATOM     64  C   UNL A   1      43.953  29.391  34.146  1.00  0.00     0.049 A 
ATOM     65  H   UNL A   1      42.118  29.982  33.287  1.00  0.00     0.167 HD
ATOM     66  C   UNL A   1      43.798  28.043  32.068  1.00  0.00     0.074 A 
ATOM     67  C   UNL A   1      44.307  27.068  31.127  1.00  0.00     0.031 C 
ATOM     68  C   UNL A   1      44.446  28.420  33.199  1.00  0.00     0.034 A 
BRANCH  55  69
ATOM     69  C   UNL A   1      41.441  32.721  36.508  1.00  0.00     0.023 A 
ATOM     70  C   UNL A   1      40.586  32.491  37.600  1.00  0.00     0.031 A 
ATOM     71  C   UNL A   1      42.261  33.863  36.541  1.00  0.00     0.131 A 
ATOM     72  C   UNL A   1      40.519  33.425  38.644  1.00  0.00     0.055 A 
ATOM     73  C   UNL A   1      42.245  34.749  37.618  1.00  0.00     0.041 A 
ATOM     74  F   UNL A   1      43.078  34.147  35.514  1.00  0.00    -0.206 F 
ATOM     75  C   UNL A   1      41.360  34.541  38.672  1.00  0.00     0.022 A 
BRANCH  72  76
ATOM     76  S   UNL A   1      39.218  33.237  39.894  1.00  0.00     0.124 S 
ATOM     77  O   UNL A   1      39.443  34.412  40.733  1.00  0.00    -0.237 OA
ATOM     78  O   UNL A   1      38.002  33.252  39.089  1.00  0.00    -0.237 OA
ATOM     79  O   UNL A   1      39.533  31.958  40.528  1.00  0.00    -0.744 OA
ENDBRANCH  72  76
ENDBRANCH  55  69
BRANCH  56  80
ATOM     80  C   UNL A   1      41.193  27.019  28.273  1.00  0.00     0.023 A 
ATOM     81  C   UNL A   1      41.018  25.626  28.298  1.00  0.00     0.031 A 
ATOM     82  C   UNL A   1      41.442  27.631  27.031  1.00  0.00     0.131 A 
ATOM     83  C   UNL A   1      41.137  24.886  27.111  1.00  0.00     0.055 A 
ATOM     84  C   UNL A   1      41.508  26.895  25.846  1.00  0.00     0.041 A 
ATOM     85  F   UNL A   1      41.623  28.958  26.952  1.00  0.00    -0.206 F 
ATOM     86  C   UNL A   1      41.368  25.512  25.884  1.00  0.00     0.022 A 
BRANCH  83  87
ATOM     87  S   UNL A   1      41.076  23.075  27.206  1.00  0.00     0.124 S 
ATOM     88  O   UNL A   1      41.699  22.690  25.945  1.00  0.00    -0.237 OA
ATOM     89  O   UNL A   1      41.851  22.808  28.413  1.00  0.00    -0.237 OA
ATOM     90  O   UNL A   1      39.646  22.787  27.311  1.00  0.00    -0.744 OA
ENDBRANCH  83  87
ENDBRANCH  56  80
BRANCH  68  91
ATOM     91  C   UNL A   1      45.746  27.725  33.518  1.00  0.00     0.023 A 
ATOM     92  C   UNL A   1      45.788  26.499  34.202  1.00  0.00     0.031 A 
ATOM     93  C   UNL A   1      46.963  28.296  33.104  1.00  0.00     0.131 A 
ATOM     94  C   UNL A   1      47.027  25.900  34.484  1.00  0.00     0.055 A 
ATOM     95  C   UNL A   1      48.188  27.672  33.343  1.00  0.00     0.041 A 
ATOM     96  F   UNL A   1      46.979  29.466  32.445  1.00  0.00    -0.206 F 
ATOM     97  C   UNL A   1      48.225  26.471  34.044  1.00  0.00     0.022 A 
BRANCH  94  98
ATOM     98  S   UNL A   1      47.062  24.384  35.481  1.00  0.00     0.124 S 
ATOM     99  O   UNL A   1      45.664  24.246  35.873  1.00  0.00    -0.237 OA
ATOM    100  O   UNL A   1      47.558  23.394  34.529  1.00  0.00    -0.237 OA
ATOM    101  O   UNL A   1      47.981  24.709  36.569  1.00  0.00    -0.744 OA
ENDBRANCH  94  98
ENDBRANCH  68  91
ENDBRANCH  42  43
ENDBRANCH  35  37
ENDBRANCH  34  35
ENDBRANCH  33  34
ENDBRANCH  32  33
ENDBRANCH  31  32
ENDBRANCH   1  31
TORSDOF 25
ENDMDL
MODEL 3
REMARK VINA RESULT:      -8.8      3.272      8.671
REMARK SMILES CCCc1cc(OC(F)(F)F)cc2c1O[C@@H](C(F)(F)F)C(C(=O)OCCOCCOCCOC(=O)c1ccc(-c3c4nc(c(-c5cc(S(=O)(=O)[O-])ccc5F)c5ccc([nH]5)c(-c5cc(S(=O)(=O)[O-])ccc5F)c5nc(c(-c6cc(S(=O)(=O)[O-])ccc6F)c6ccc3[nH]6)C=C5)C=C4)cc1)=C2
REMARK SMILES IDX 29 1 28 2 27 3 26 4 25 5 24 6 22 7 23 8 21 9 4 10 5 11 14 12
REMARK SMILES IDX 6 13 13 14 15 15 12 16 99 17 16 18 3 19 2 20 1 21 7 22 8 23
REMARK SMILES IDX 9 24 10 25 11 26 17 27 18 28 19 29 20 30 30 31 31 32 32 33
REMARK SMILES IDX 33 34 34 35 35 36 36 37 37 38 98 39 38 40 97 41 39 42 40 43
REMARK SMILES IDX 41 44 91 45 42 46 96 47 90 48 92 49 43 50 95 51 89 52 88 53
REMARK SMILES IDX 44 55 76 56 56 57 75 58 57 59 60 60 74 61 93 62 58 63 59 64
REMARK SMILES IDX 73 66 94 67 61 68 45 69 46 70 54 71 47 72 53 73 55 74 52 75
REMARK SMILES IDX 48 76 49 77 50 78 51 79 77 80 78 81 86 82 79 83 85 84 87 85
REMARK SMILES IDX 84 86 80 87 81 88 82 89 83 90 62 91 63 92 71 93 64 94 70 95
REMARK SMILES IDX 72 96 69 97 65 98 66 99 67 100 68 101
REMARK H PARENT 92 54 60 65
REMARK Flexibility Score: inf
ROOT
ATOM      1  C   UNL A   1      35.925  30.893  29.689  1.00  0.00     0.188 C 
ENDROOT
BRANCH   1   2
ATOM      2  C   UNL A   1      35.260  31.230  28.339  1.00  0.00     0.188 C 
BRANCH   2   3
ATOM      3  O   UNL A   1      34.155  30.394  28.021  1.00  0.00    -0.376 OA
BRANCH   3   4
ATOM      4  C   UNL A   1      33.335  30.836  26.950  1.00  0.00     0.202 C 
BRANCH   4   5
ATOM      5  C   UNL A   1      32.130  29.925  26.704  1.00  0.00     0.261 C 
BRANCH   5   6
ATOM      6  O   UNL A   1      32.455  28.713  26.001  1.00  0.00    -0.460 OA
BRANCH   6   7
ATOM      7  C   UNL A   1      32.124  27.549  26.601  1.00  0.00     0.338 C 
ATOM      8  O   UNL A   1      31.504  27.436  27.644  1.00  0.00    -0.246 OA
BRANCH   7   9
ATOM      9  C   UNL A   1      32.559  26.417  25.758  1.00  0.00     0.087 C 
ATOM     10  C   UNL A   1      33.406  22.812  23.802  1.00  0.00    -0.002 A 
ATOM     11  C   UNL A   1      34.747  22.400  23.708  1.00  0.00     0.054 A 
ATOM     12  C   UNL A   1      33.133  24.014  24.476  1.00  0.00     0.131 A 
ATOM     13  C   UNL A   1      35.770  23.111  24.345  1.00  0.00     0.130 A 
ATOM     14  C   UNL A   1      34.150  24.742  25.112  1.00  0.00     0.021 A 
ATOM     15  O   UNL A   1      31.823  24.428  24.547  1.00  0.00    -0.475 OA
ATOM     16  C   UNL A   1      35.468  24.289  25.035  1.00  0.00     0.058 A 
ATOM     17  C   UNL A   1      33.789  25.902  25.926  1.00  0.00     0.027 C 
ATOM     18  C   UNL A   1      31.655  25.866  24.679  1.00  0.00     0.316 C 
BRANCH  10  19
ATOM     19  C   UNL A   1      32.273  22.032  23.164  1.00  0.00     0.039 C 
BRANCH  19  20
ATOM     20  C   UNL A   1      32.305  20.501  23.268  1.00  0.00     0.001 C 
ATOM     21  C   UNL A   1      32.397  19.989  24.699  1.00  0.00     0.004 C 
ENDBRANCH  19  20
ENDBRANCH  10  19
BRANCH  13  22
ATOM     22  O   UNL A   1      37.090  22.755  24.362  1.00  0.00    -0.406 OA
BRANCH  22  23
ATOM     23  C   UNL A   1      37.503  21.870  25.394  1.00  0.00     0.573 C 
ATOM     24  F   UNL A   1      38.170  20.806  24.898  1.00  0.00    -0.132 F 
ATOM     25  F   UNL A   1      38.274  22.507  26.300  1.00  0.00    -0.132 F 
ATOM     26  F   UNL A   1      36.403  21.408  26.031  1.00  0.00    -0.132 F 
ENDBRANCH  22  23
ENDBRANCH  13  22
BRANCH  18  27
ATOM     27  C   UNL A   1      30.154  26.183  24.753  1.00  0.00     0.430 C 
ATOM     28  F   UNL A   1      29.931  27.507  24.564  1.00  0.00    -0.167 F 
ATOM     29  F   UNL A   1      29.492  25.544  23.755  1.00  0.00    -0.167 F 
ATOM     30  F   UNL A   1      29.594  25.807  25.919  1.00  0.00    -0.167 F 
ENDBRANCH  18  27
ENDBRANCH   7   9
ENDBRANCH   6   7
ENDBRANCH   5   6
ENDBRANCH   4   5
ENDBRANCH   3   4
ENDBRANCH   2   3
ENDBRANCH   1   2
BRANCH   1  31
ATOM     31  O   UNL A   1      36.067  31.893  30.690  1.00  0.00    -0.376 OA
BRANCH  31  32
ATOM     32  C   UNL A   1      34.932  32.281  31.451  1.00  0.00     0.202 C 
BRANCH  32  33
ATOM     33  C   UNL A   1      35.166  33.031  32.765  1.00  0.00     0.261 C 
BRANCH  33  34
ATOM     34  O   UNL A   1      36.542  33.346  33.033  1.00  0.00    -0.460 OA
BRANCH  34  35
ATOM     35  C   UNL A   1      37.091  32.681  34.081  1.00  0.00     0.338 C 
ATOM     36  O   UNL A   1      36.679  32.654  35.228  1.00  0.00    -0.246 OA
BRANCH  35  37
ATOM     37  C   UNL A   1      38.199  31.826  33.609  1.00  0.00     0.060 A 
ATOM     38  C   UNL A   1      38.157  30.458  33.911  1.00  0.00     0.016 A 
ATOM     39  C   UNL A   1      39.301  32.370  32.947  1.00  0.00     0.016 A 
ATOM     40  C   UNL A   1      39.231  29.631  33.579  1.00  0.00     0.010 A 
ATOM     41  C   UNL A   1      40.388  31.546  32.638  1.00  0.00     0.010 A 
ATOM     42  C   UNL A   1      40.370  30.180  32.979  1.00  0.00    -0.014 A 
BRANCH  42  43
ATOM     43  C   UNL A   1      41.619  29.384  32.878  1.00  0.00     0.031 A 
ATOM     44  C   UNL A   1      42.584  29.424  34.030  1.00  0.00     0.074 A 
ATOM     45  C   UNL A   1      41.898  28.657  31.782  1.00  0.00     0.049 A 
ATOM     46  N   UNL A   1      43.793  28.932  34.121  1.00  0.00    -0.248 NA
ATOM     47  C   UNL A   1      42.121  30.118  35.242  1.00  0.00     0.031 C 
ATOM     48  C   UNL A   1      41.012  28.485  30.633  1.00  0.00     0.029 A 
ATOM     49  N   UNL A   1      43.023  27.942  31.452  1.00  0.00    -0.354 N 
ATOM     50  C   UNL A   1      44.240  29.264  35.396  1.00  0.00     0.074 A 
ATOM     51  C   UNL A   1      43.180  30.019  36.031  1.00  0.00     0.031 C 
ATOM     52  C   UNL A   1      41.640  27.738  29.709  1.00  0.00     0.029 A 
ATOM     53  C   UNL A   1      42.987  27.418  30.181  1.00  0.00     0.049 A 
ATOM     54  H   UNL A   1      43.782  27.816  32.066  1.00  0.00     0.167 HD
ATOM     55  C   UNL A   1      45.427  28.969  35.981  1.00  0.00     0.034 A 
ATOM     56  C   UNL A   1      43.948  26.793  29.468  1.00  0.00     0.034 A 
ATOM     57  C   UNL A   1      46.482  28.238  35.326  1.00  0.00     0.049 A 
ATOM     58  C   UNL A   1      45.305  26.571  30.096  1.00  0.00     0.074 A 
ATOM     59  C   UNL A   1      47.726  27.887  35.821  1.00  0.00     0.029 A 
ATOM     60  N   UNL A   1      46.424  27.757  34.024  1.00  0.00    -0.354 N 
ATOM     61  N   UNL A   1      45.724  26.903  31.296  1.00  0.00    -0.248 NA
ATOM     62  C   UNL A   1      46.317  25.893  29.275  1.00  0.00     0.031 C 
ATOM     63  C   UNL A   1      48.443  27.255  34.799  1.00  0.00     0.029 A 
ATOM     64  C   UNL A   1      47.621  27.142  33.690  1.00  0.00     0.049 A 
ATOM     65  H   UNL A   1      45.647  27.841  33.426  1.00  0.00     0.167 HD
ATOM     66  C   UNL A   1      47.035  26.438  31.384  1.00  0.00     0.074 A 
ATOM     67  C   UNL A   1      47.337  25.806  30.117  1.00  0.00     0.031 C 
ATOM     68  C   UNL A   1      47.905  26.515  32.422  1.00  0.00     0.034 A 
BRANCH  55  69
ATOM     69  C   UNL A   1      45.658  29.499  37.374  1.00  0.00     0.023 A 
ATOM     70  C   UNL A   1      45.494  28.689  38.511  1.00  0.00     0.031 A 
ATOM     71  C   UNL A   1      46.008  30.847  37.569  1.00  0.00     0.131 A 
ATOM     72  C   UNL A   1      45.610  29.250  39.792  1.00  0.00     0.055 A 
ATOM     73  C   UNL A   1      46.197  31.381  38.844  1.00  0.00     0.041 A 
ATOM     74  F   UNL A   1      46.153  31.674  36.521  1.00  0.00    -0.206 F 
ATOM     75  C   UNL A   1      45.985  30.585  39.966  1.00  0.00     0.022 A 
BRANCH  72  76
ATOM     76  S   UNL A   1      45.128  28.248  41.225  1.00  0.00     0.124 S 
ATOM     77  O   UNL A   1      46.382  28.176  41.970  1.00  0.00    -0.237 OA
ATOM     78  O   UNL A   1      44.071  29.051  41.830  1.00  0.00    -0.237 OA
ATOM     79  O   UNL A   1      44.692  26.986  40.631  1.00  0.00    -0.744 OA
ENDBRANCH  72  76
ENDBRANCH  55  69
BRANCH  56  80
ATOM     80  C   UNL A   1      43.696  26.386  28.055  1.00  0.00     0.023 A 
ATOM     81  C   UNL A   1      43.297  25.078  27.736  1.00  0.00     0.031 A 
ATOM     82  C   UNL A   1      43.911  27.287  26.997  1.00  0.00     0.131 A 
ATOM     83  C   UNL A   1      43.169  24.696  26.391  1.00  0.00     0.055 A 
ATOM     84  C   UNL A   1      43.731  26.916  25.664  1.00  0.00     0.041 A 
ATOM     85  F   UNL A   1      44.298  28.547  27.247  1.00  0.00    -0.206 F 
ATOM     86  C   UNL A   1      43.370  25.609  25.353  1.00  0.00     0.022 A 
BRANCH  83  87
ATOM     87  S   UNL A   1      42.821  22.956  26.012  1.00  0.00     0.124 S 
ATOM     88  O   UNL A   1      43.609  22.267  27.028  1.00  0.00    -0.237 OA
ATOM     89  O   UNL A   1      41.372  22.894  26.172  1.00  0.00    -0.237 OA
ATOM     90  O   UNL A   1      43.301  22.804  24.639  1.00  0.00    -0.744 OA
ENDBRANCH  83  87
ENDBRANCH  56  80
BRANCH  68  91
ATOM     91  C   UNL A   1      49.243  25.837  32.258  1.00  0.00     0.023 A 
ATOM     92  C   UNL A   1      49.503  24.561  32.785  1.00  0.00     0.031 A 
ATOM     93  C   UNL A   1      50.266  26.479  31.537  1.00  0.00     0.131 A 
ATOM     94  C   UNL A   1      50.770  23.981  32.613  1.00  0.00     0.055 A 
ATOM     95  C   UNL A   1      51.507  25.877  31.327  1.00  0.00     0.041 A 
ATOM     96  F   UNL A   1      50.069  27.699  31.011  1.00  0.00    -0.206 F 
ATOM     97  C   UNL A   1      51.768  24.624  31.873  1.00  0.00     0.022 A 
BRANCH  94  98
ATOM     98  S   UNL A   1      51.123  22.391  33.412  1.00  0.00     0.124 S 
ATOM     99  O   UNL A   1      52.103  22.769  34.423  1.00  0.00    -0.237 OA
ATOM    100  O   UNL A   1      49.810  21.993  33.913  1.00  0.00    -0.237 OA
ATOM    101  O   UNL A   1      51.643  21.566  32.323  1.00  0.00    -0.744 OA
ENDBRANCH  94  98
ENDBRANCH  68  91
ENDBRANCH  42  43
ENDBRANCH  35  37
ENDBRANCH  34  35
ENDBRANCH  33  34
ENDBRANCH  32  33
ENDBRANCH  31  32
ENDBRANCH   1  31
TORSDOF 25
ENDMDL
