MODEL 1
REMARK VINA RESULT:     -10.5      0.000      0.000
REMARK SMILES O=C(OCCOCCOCCOC(=O)c1cc(Br)cc2c1OCC2)c1ccc(-c2c3nc(c(-c4cc(S(=O)(=O)[O-])ccc4F)c4ccc([nH]4)c(-c4cc(S(=O)(=O)[O-])ccc4F)c4nc(c(-c5cc(S(=O)(=O)[O-])ccc5F)c5ccc2[nH]5)C=C4)C=C3)cc1
REMARK SMILES IDX 6 1 5 2 4 3 3 4 2 5 1 6 25 7 26 8 87 9 27 10 86 11 28 12
REMARK SMILES IDX 29 13 30 14 80 15 31 16 85 17 79 18 81 19 32 20 84 21 78 22
REMARK SMILES IDX 77 23 33 25 65 26 45 27 64 28 46 29 49 30 63 31 82 32 47 33
REMARK SMILES IDX 48 34 62 36 83 37 50 38 34 39 35 40 43 41 36 42 42 43 44 44
REMARK SMILES IDX 41 45 37 46 38 47 39 48 40 49 66 50 67 51 75 52 68 53 74 54
REMARK SMILES IDX 76 55 73 56 69 57 70 58 71 59 72 60 51 61 52 62 60 63 53 64
REMARK SMILES IDX 59 65 61 66 58 67 54 68 55 69 56 70 57 71 7 72 8 73 9 74
REMARK SMILES IDX 10 75 11 76 12 77 13 78 14 79 15 80 16 81 21 82 17 83 20 84
REMARK SMILES IDX 22 85 18 86 19 87 24 88 23 89
REMARK H PARENT 81 24 49 35
REMARK Flexibility Score: inf
ROOT
ATOM      1  O   UNL A   1      31.650  28.038  24.824  1.00  0.00    -0.376 OA
ENDROOT
BRANCH   1   2
ATOM      2  C   UNL A   1      32.351  29.282  24.777  1.00  0.00     0.202 C 
BRANCH   2   3
ATOM      3  C   UNL A   1      31.621  30.435  25.475  1.00  0.00     0.261 C 
BRANCH   3   4
ATOM      4  O   UNL A   1      32.097  30.623  26.818  1.00  0.00    -0.460 OA
BRANCH   4   5
ATOM      5  C   UNL A   1      33.014  31.532  27.237  1.00  0.00     0.338 C 
ATOM      6  O   UNL A   1      32.749  32.732  27.153  1.00  0.00    -0.246 OA
BRANCH   5   7
ATOM      7  C   UNL A   1      34.311  31.148  27.866  1.00  0.00     0.060 A 
ATOM      8  C   UNL A   1      34.717  29.834  28.110  1.00  0.00     0.016 A 
ATOM      9  C   UNL A   1      35.218  32.184  28.143  1.00  0.00     0.016 A 
ATOM     10  C   UNL A   1      35.932  29.560  28.734  1.00  0.00     0.010 A 
ATOM     11  C   UNL A   1      36.475  31.908  28.691  1.00  0.00     0.010 A 
ATOM     12  C   UNL A   1      36.821  30.592  29.031  1.00  0.00    -0.014 A 
BRANCH  12  13
ATOM     13  C   UNL A   1      38.064  30.301  29.787  1.00  0.00     0.031 A 
ATOM     14  C   UNL A   1      39.085  29.385  29.173  1.00  0.00     0.074 A 
ATOM     15  C   UNL A   1      38.294  30.884  30.979  1.00  0.00     0.049 A 
ATOM     16  N   UNL A   1      40.179  28.896  29.688  1.00  0.00    -0.248 NA
ATOM     17  C   UNL A   1      38.829  28.962  27.786  1.00  0.00     0.031 C 
ATOM     18  C   UNL A   1      37.409  31.847  31.637  1.00  0.00     0.029 A 
ATOM     19  N   UNL A   1      39.343  30.752  31.850  1.00  0.00    -0.354 N 
ATOM     20  C   UNL A   1      40.733  28.087  28.701  1.00  0.00     0.074 A 
ATOM     21  C   UNL A   1      39.834  28.129  27.568  1.00  0.00     0.031 C 
ATOM     22  C   UNL A   1      37.948  32.209  32.813  1.00  0.00     0.029 A 
ATOM     23  C   UNL A   1      39.183  31.465  33.016  1.00  0.00     0.049 A 
ATOM     24  H   UNL A   1      40.135  30.199  31.661  1.00  0.00     0.167 HD
ATOM     25  C   UNL A   1      41.887  27.378  28.737  1.00  0.00     0.034 A 
ATOM     26  C   UNL A   1      39.927  31.478  34.138  1.00  0.00     0.034 A 
ATOM     27  C   UNL A   1      42.769  27.357  29.877  1.00  0.00     0.049 A 
ATOM     28  C   UNL A   1      41.159  30.615  34.191  1.00  0.00     0.074 A 
ATOM     29  C   UNL A   1      43.961  26.672  30.040  1.00  0.00     0.029 A 
ATOM     30  N   UNL A   1      42.547  28.054  31.058  1.00  0.00    -0.354 N 
ATOM     31  N   UNL A   1      41.648  29.820  33.267  1.00  0.00    -0.248 NA
ATOM     32  C   UNL A   1      41.932  30.647  35.437  1.00  0.00     0.031 C 
ATOM     33  C   UNL A   1      44.429  26.913  31.338  1.00  0.00     0.029 A 
ATOM     34  C   UNL A   1      43.560  27.792  31.966  1.00  0.00     0.049 A 
ATOM     35  H   UNL A   1      41.779  28.648  31.225  1.00  0.00     0.167 HD
ATOM     36  C   UNL A   1      42.790  29.256  33.824  1.00  0.00     0.074 A 
ATOM     37  C   UNL A   1      42.928  29.821  35.152  1.00  0.00     0.031 C 
ATOM     38  C   UNL A   1      43.650  28.351  33.292  1.00  0.00     0.034 A 
BRANCH  25  39
ATOM     39  C   UNL A   1      42.201  26.525  27.535  1.00  0.00     0.023 A 
ATOM     40  C   UNL A   1      41.791  25.183  27.450  1.00  0.00     0.031 A 
ATOM     41  C   UNL A   1      42.999  27.038  26.497  1.00  0.00     0.131 A 
ATOM     42  C   UNL A   1      42.250  24.377  26.396  1.00  0.00     0.055 A 
ATOM     43  C   UNL A   1      43.389  26.252  25.411  1.00  0.00     0.041 A 
ATOM     44  F   UNL A   1      43.442  28.305  26.539  1.00  0.00    -0.206 F 
ATOM     45  C   UNL A   1      43.029  24.909  25.365  1.00  0.00     0.022 A 
BRANCH  42  46
ATOM     46  S   UNL A   1      41.947  22.590  26.474  1.00  0.00     0.124 S 
ATOM     47  O   UNL A   1      42.524  22.137  25.211  1.00  0.00    -0.237 OA
ATOM     48  O   UNL A   1      42.667  22.200  27.681  1.00  0.00    -0.237 OA
ATOM     49  O   UNL A   1      40.491  22.491  26.557  1.00  0.00    -0.744 OA
ENDBRANCH  42  46
ENDBRANCH  25  39
BRANCH  26  50
ATOM     50  C   UNL A   1      39.484  32.232  35.342  1.00  0.00     0.023 A 
ATOM     51  C   UNL A   1      38.749  31.615  36.366  1.00  0.00     0.031 A 
ATOM     52  C   UNL A   1      39.723  33.614  35.436  1.00  0.00     0.131 A 
ATOM     53  C   UNL A   1      38.240  32.391  37.421  1.00  0.00     0.055 A 
ATOM     54  C   UNL A   1      39.238  34.375  36.501  1.00  0.00     0.041 A 
ATOM     55  F   UNL A   1      40.435  34.245  34.489  1.00  0.00    -0.206 F 
ATOM     56  C   UNL A   1      38.487  33.764  37.500  1.00  0.00     0.022 A 
BRANCH  53  57
ATOM     57  S   UNL A   1      37.186  31.589  38.662  1.00  0.00     0.124 S 
ATOM     58  O   UNL A   1      37.010  30.260  38.087  1.00  0.00    -0.237 OA
ATOM     59  O   UNL A   1      38.016  31.664  39.861  1.00  0.00    -0.237 OA
ATOM     60  O   UNL A   1      35.988  32.426  38.684  1.00  0.00    -0.744 OA
ENDBRANCH  53  57
ENDBRANCH  26  50
BRANCH  38  61
ATOM     61  C   UNL A   1      44.810  27.946  34.157  1.00  0.00     0.023 A 
ATOM     62  C   UNL A   1      44.715  26.856  35.038  1.00  0.00     0.031 A 
ATOM     63  C   UNL A   1      46.010  28.675  34.118  1.00  0.00     0.131 A 
ATOM     64  C   UNL A   1      45.789  26.554  35.885  1.00  0.00     0.055 A 
ATOM     65  C   UNL A   1      47.094  28.338  34.928  1.00  0.00     0.041 A 
ATOM     66  F   UNL A   1      46.144  29.727  33.295  1.00  0.00    -0.206 F 
ATOM     67  C   UNL A   1      46.983  27.277  35.825  1.00  0.00     0.022 A 
BRANCH  64  68
ATOM     68  S   UNL A   1      45.583  25.237  37.115  1.00  0.00     0.124 S 
ATOM     69  O   UNL A   1      45.802  25.957  38.366  1.00  0.00    -0.237 OA
ATOM     70  O   UNL A   1      44.216  24.788  36.869  1.00  0.00    -0.237 OA
ATOM     71  O   UNL A   1      46.624  24.273  36.762  1.00  0.00    -0.744 OA
ENDBRANCH  64  68
ENDBRANCH  38  61
ENDBRANCH  12  13
ENDBRANCH   5   7
ENDBRANCH   4   5
ENDBRANCH   3   4
ENDBRANCH   2   3
ENDBRANCH   1   2
BRANCH   1  72
ATOM     72  C   UNL A   1      30.393  28.047  24.135  1.00  0.00     0.188 C 
BRANCH  72  73
ATOM     73  C   UNL A   1      30.536  27.423  22.743  1.00  0.00     0.188 C 
BRANCH  73  74
ATOM     74  O   UNL A   1      31.239  26.176  22.715  1.00  0.00    -0.376 OA
BRANCH  74  75
ATOM     75  C   UNL A   1      30.693  25.123  23.503  1.00  0.00     0.202 C 
BRANCH  75  76
ATOM     76  C   UNL A   1      31.613  24.476  24.546  1.00  0.00     0.261 C 
BRANCH  76  77
ATOM     77  O   UNL A   1      31.016  23.453  25.359  1.00  0.00    -0.460 OA
BRANCH  77  78
ATOM     78  C   UNL A   1      31.832  22.981  26.334  1.00  0.00     0.342 C 
ATOM     79  O   UNL A   1      31.734  23.180  27.539  1.00  0.00    -0.246 OA
BRANCH  78  80
ATOM     80  C   UNL A   1      33.019  22.333  25.769  1.00  0.00     0.103 A 
ATOM     81  C   UNL A   1      34.225  23.039  25.860  1.00  0.00     0.035 A 
ATOM     82  C   UNL A   1      33.043  21.019  25.332  1.00  0.00     0.137 A 
ATOM     83  C   UNL A   1      35.428  22.415  25.520  1.00  0.00     0.019 A 
ATOM     84  C   UNL A   1      34.245  20.413  24.988  1.00  0.00    -0.000 A 
ATOM     85  O   UNL A   1      31.970  20.177  25.242  1.00  0.00    -0.492 OA
ATOM     86  Br  UNL A   1      37.044  23.359  25.763  1.00  0.00    -0.051 Br
ATOM     87  C   UNL A   1      35.450  21.096  25.068  1.00  0.00     0.023 A 
ATOM     88  C   UNL A   1      34.021  19.001  24.609  1.00  0.00     0.081 C 
ATOM     89  C   UNL A   1      32.511  18.902  24.822  1.00  0.00     0.234 C 
ENDBRANCH  78  80
ENDBRANCH  77  78
ENDBRANCH  76  77
ENDBRANCH  75  76
ENDBRANCH  74  75
ENDBRANCH  73  74
ENDBRANCH  72  73
ENDBRANCH   1  72
TORSDOF 20
ENDMDL
MODEL 2
REMARK VINA RESULT:     -10.3      5.103     10.265
REMARK SMILES O=C(OCCOCCOCCOC(=O)c1cc(Br)cc2c1OCC2)c1ccc(-c2c3nc(c(-c4cc(S(=O)(=O)[O-])ccc4F)c4ccc([nH]4)c(-c4cc(S(=O)(=O)[O-])ccc4F)c4nc(c(-c5cc(S(=O)(=O)[O-])ccc5F)c5ccc2[nH]5)C=C4)C=C3)cc1
REMARK SMILES IDX 6 1 5 2 4 3 3 4 2 5 1 6 25 7 26 8 87 9 27 10 86 11 28 12
REMARK SMILES IDX 29 13 30 14 80 15 31 16 85 17 79 18 81 19 32 20 84 21 78 22
REMARK SMILES IDX 77 23 33 25 65 26 45 27 64 28 46 29 49 30 63 31 82 32 47 33
REMARK SMILES IDX 48 34 62 36 83 37 50 38 34 39 35 40 43 41 36 42 42 43 44 44
REMARK SMILES IDX 41 45 37 46 38 47 39 48 40 49 66 50 67 51 75 52 68 53 74 54
REMARK SMILES IDX 76 55 73 56 69 57 70 58 71 59 72 60 51 61 52 62 60 63 53 64
REMARK SMILES IDX 59 65 61 66 58 67 54 68 55 69 56 70 57 71 7 72 8 73 9 74
REMARK SMILES IDX 10 75 11 76 12 77 13 78 14 79 15 80 16 81 21 82 17 83 20 84
REMARK SMILES IDX 22 85 18 86 19 87 24 88 23 89
REMARK H PARENT 81 24 49 35
REMARK Flexibility Score: inf
ROOT
ATOM      1  O   UNL A   1      34.615  21.355  25.742  1.00  0.00    -0.376 OA
ENDROOT
BRANCH   1   2
ATOM      2  C   UNL A   1      35.279  20.329  25.003  1.00  0.00     0.202 C 
BRANCH   2   3
ATOM      3  C   UNL A   1      36.756  20.621  24.717  1.00  0.00     0.261 C 
BRANCH   3   4
ATOM      4  O   UNL A   1      37.366  21.349  25.796  1.00  0.00    -0.460 OA
BRANCH   4   5
ATOM      5  C   UNL A   1      38.695  21.474  26.045  1.00  0.00     0.338 C 
ATOM      6  O   UNL A   1      39.435  20.513  25.835  1.00  0.00    -0.246 OA
BRANCH   5   7
ATOM      7  C   UNL A   1      39.321  22.750  26.499  1.00  0.00     0.060 A 
ATOM      8  C   UNL A   1      38.876  24.024  26.140  1.00  0.00     0.016 A 
ATOM      9  C   UNL A   1      40.372  22.651  27.426  1.00  0.00     0.016 A 
ATOM     10  C   UNL A   1      39.538  25.168  26.581  1.00  0.00     0.010 A 
ATOM     11  C   UNL A   1      40.985  23.799  27.937  1.00  0.00     0.010 A 
ATOM     12  C   UNL A   1      40.598  25.067  27.481  1.00  0.00    -0.014 A 
BRANCH  12  13
ATOM     13  C   UNL A   1      41.361  26.281  27.862  1.00  0.00     0.031 A 
ATOM     14  C   UNL A   1      40.657  27.363  28.634  1.00  0.00     0.074 A 
ATOM     15  C   UNL A   1      42.669  26.391  27.564  1.00  0.00     0.049 A 
ATOM     16  N   UNL A   1      41.079  28.551  28.971  1.00  0.00    -0.248 NA
ATOM     17  C   UNL A   1      39.289  27.059  29.081  1.00  0.00     0.031 C 
ATOM     18  C   UNL A   1      43.473  25.372  26.886  1.00  0.00     0.029 A 
ATOM     19  N   UNL A   1      43.556  27.410  27.795  1.00  0.00    -0.354 N 
ATOM     20  C   UNL A   1      40.021  29.148  29.648  1.00  0.00     0.074 A 
ATOM     21  C   UNL A   1      38.929  28.200  29.645  1.00  0.00     0.031 C 
ATOM     22  C   UNL A   1      44.730  25.824  26.745  1.00  0.00     0.029 A 
ATOM     23  C   UNL A   1      44.807  27.179  27.271  1.00  0.00     0.049 A 
ATOM     24  H   UNL A   1      43.320  28.229  28.287  1.00  0.00     0.167 HD
ATOM     25  C   UNL A   1      39.970  30.375  30.223  1.00  0.00     0.034 A 
ATOM     26  C   UNL A   1      45.878  27.990  27.187  1.00  0.00     0.034 A 
ATOM     27  C   UNL A   1      41.075  31.300  30.218  1.00  0.00     0.049 A 
ATOM     28  C   UNL A   1      45.771  29.381  27.753  1.00  0.00     0.074 A 
ATOM     29  C   UNL A   1      41.144  32.573  30.756  1.00  0.00     0.029 A 
ATOM     30  N   UNL A   1      42.310  31.048  29.633  1.00  0.00    -0.354 N 
ATOM     31  N   UNL A   1      44.751  29.950  28.352  1.00  0.00    -0.248 NA
ATOM     32  C   UNL A   1      46.956  30.236  27.625  1.00  0.00     0.031 C 
ATOM     33  C   UNL A   1      42.401  33.109  30.449  1.00  0.00     0.029 A 
ATOM     34  C   UNL A   1      43.137  32.151  29.769  1.00  0.00     0.049 A 
ATOM     35  H   UNL A   1      42.560  30.207  29.187  1.00  0.00     0.167 HD
ATOM     36  C   UNL A   1      45.173  31.234  28.673  1.00  0.00     0.074 A 
ATOM     37  C   UNL A   1      46.547  31.346  28.223  1.00  0.00     0.031 C 
ATOM     38  C   UNL A   1      44.491  32.237  29.283  1.00  0.00     0.034 A 
BRANCH  25  39
ATOM     39  C   UNL A   1      38.653  30.788  30.830  1.00  0.00     0.023 A 
ATOM     40  C   UNL A   1      37.702  31.527  30.105  1.00  0.00     0.031 A 
ATOM     41  C   UNL A   1      38.386  30.514  32.183  1.00  0.00     0.131 A 
ATOM     42  C   UNL A   1      36.569  32.038  30.759  1.00  0.00     0.055 A 
ATOM     43  C   UNL A   1      37.219  30.960  32.808  1.00  0.00     0.041 A 
ATOM     44  F   UNL A   1      39.272  29.836  32.930  1.00  0.00    -0.206 F 
ATOM     45  C   UNL A   1      36.311  31.741  32.099  1.00  0.00     0.022 A 
BRANCH  42  46
ATOM     46  S   UNL A   1      35.519  33.226  29.875  1.00  0.00     0.124 S 
ATOM     47  O   UNL A   1      34.407  32.378  29.451  1.00  0.00    -0.237 OA
ATOM     48  O   UNL A   1      35.216  34.208  30.908  1.00  0.00    -0.237 OA
ATOM     49  O   UNL A   1      36.377  33.703  28.792  1.00  0.00    -0.744 OA
ENDBRANCH  42  46
ENDBRANCH  25  39
BRANCH  26  50
ATOM     50  C   UNL A   1      47.100  27.571  26.447  1.00  0.00     0.023 A 
ATOM     51  C   UNL A   1      47.255  27.831  25.077  1.00  0.00     0.031 A 
ATOM     52  C   UNL A   1      48.095  26.820  27.097  1.00  0.00     0.131 A 
ATOM     53  C   UNL A   1      48.363  27.306  24.390  1.00  0.00     0.055 A 
ATOM     54  C   UNL A   1      49.207  26.324  26.416  1.00  0.00     0.041 A 
ATOM     55  F   UNL A   1      47.998  26.560  28.411  1.00  0.00    -0.206 F 
ATOM     56  C   UNL A   1      49.343  26.562  25.051  1.00  0.00     0.022 A 
BRANCH  53  57
ATOM     57  S   UNL A   1      48.471  27.550  22.595  1.00  0.00     0.124 S 
ATOM     58  O   UNL A   1      48.491  26.175  22.110  1.00  0.00    -0.237 OA
ATOM     59  O   UNL A   1      47.256  28.310  22.317  1.00  0.00    -0.237 OA
ATOM     60  O   UNL A   1      49.719  28.292  22.426  1.00  0.00    -0.744 OA
ENDBRANCH  53  57
ENDBRANCH  26  50
BRANCH  38  61
ATOM     61  C   UNL A   1      45.245  33.519  29.499  1.00  0.00     0.023 A 
ATOM     62  C   UNL A   1      45.214  34.551  28.548  1.00  0.00     0.031 A 
ATOM     63  C   UNL A   1      46.023  33.695  30.656  1.00  0.00     0.131 A 
ATOM     64  C   UNL A   1      45.989  35.701  28.747  1.00  0.00     0.055 A 
ATOM     65  C   UNL A   1      46.753  34.864  30.872  1.00  0.00     0.041 A 
ATOM     66  F   UNL A   1      46.087  32.734  31.590  1.00  0.00    -0.206 F 
ATOM     67  C   UNL A   1      46.746  35.871  29.909  1.00  0.00     0.022 A 
BRANCH  64  68
ATOM     68  S   UNL A   1      46.045  36.950  27.433  1.00  0.00     0.124 S 
ATOM     69  O   UNL A   1      46.377  36.142  26.263  1.00  0.00    -0.237 OA
ATOM     70  O   UNL A   1      44.694  37.502  27.464  1.00  0.00    -0.237 OA
ATOM     71  O   UNL A   1      47.097  37.864  27.875  1.00  0.00    -0.744 OA
ENDBRANCH  64  68
ENDBRANCH  38  61
ENDBRANCH  12  13
ENDBRANCH   5   7
ENDBRANCH   4   5
ENDBRANCH   3   4
ENDBRANCH   2   3
ENDBRANCH   1   2
BRANCH   1  72
ATOM     72  C   UNL A   1      33.467  21.904  25.082  1.00  0.00     0.188 C 
BRANCH  72  73
ATOM     73  C   UNL A   1      33.583  23.429  24.979  1.00  0.00     0.188 C 
BRANCH  73  74
ATOM     74  O   UNL A   1      34.466  23.895  23.953  1.00  0.00    -0.376 OA
BRANCH  74  75
ATOM     75  C   UNL A   1      33.963  24.920  23.101  1.00  0.00     0.202 C 
BRANCH  75  76
ATOM     76  C   UNL A   1      32.645  24.640  22.368  1.00  0.00     0.261 C 
BRANCH  76  77
ATOM     77  O   UNL A   1      31.644  25.667  22.465  1.00  0.00    -0.460 OA
BRANCH  77  78
ATOM     78  C   UNL A   1      31.019  25.713  23.668  1.00  0.00     0.342 C 
ATOM     79  O   UNL A   1      30.361  24.822  24.192  1.00  0.00    -0.246 OA
BRANCH  78  80
ATOM     80  C   UNL A   1      31.043  27.066  24.230  1.00  0.00     0.103 A 
ATOM     81  C   UNL A   1      32.039  27.335  25.178  1.00  0.00     0.035 A 
ATOM     82  C   UNL A   1      30.274  28.113  23.750  1.00  0.00     0.137 A 
ATOM     83  C   UNL A   1      32.249  28.644  25.618  1.00  0.00     0.019 A 
ATOM     84  C   UNL A   1      30.487  29.408  24.203  1.00  0.00    -0.000 A 
ATOM     85  O   UNL A   1      29.308  28.030  22.787  1.00  0.00    -0.492 OA
ATOM     86  Br  UNL A   1      33.673  28.988  26.809  1.00  0.00    -0.051 Br
ATOM     87  C   UNL A   1      31.466  29.696  25.143  1.00  0.00     0.023 A 
ATOM     88  C   UNL A   1      29.587  30.353  23.506  1.00  0.00     0.081 C 
ATOM     89  C   UNL A   1      28.858  29.389  22.572  1.00  0.00     0.234 C 
ENDBRANCH  78  80
ENDBRANCH  77  78
ENDBRANCH  76  77
ENDBRANCH  75  76
ENDBRANCH  74  75
ENDBRANCH  73  74
ENDBRANCH  72  73
ENDBRANCH   1  72
TORSDOF 20
ENDMDL
MODEL 3
REMARK VINA RESULT:     -10.3      5.085      8.292
REMARK SMILES O=C(OCCOCCOCCOC(=O)c1cc(Br)cc2c1OCC2)c1ccc(-c2c3nc(c(-c4cc(S(=O)(=O)[O-])ccc4F)c4ccc([nH]4)c(-c4cc(S(=O)(=O)[O-])ccc4F)c4nc(c(-c5cc(S(=O)(=O)[O-])ccc5F)c5ccc2[nH]5)C=C4)C=C3)cc1
REMARK SMILES IDX 6 1 5 2 4 3 3 4 2 5 1 6 25 7 26 8 87 9 27 10 86 11 28 12
REMARK SMILES IDX 29 13 30 14 80 15 31 16 85 17 79 18 81 19 32 20 84 21 78 22
REMARK SMILES IDX 77 23 33 25 65 26 45 27 64 28 46 29 49 30 63 31 82 32 47 33
REMARK SMILES IDX 48 34 62 36 83 37 50 38 34 39 35 40 43 41 36 42 42 43 44 44
REMARK SMILES IDX 41 45 37 46 38 47 39 48 40 49 66 50 67 51 75 52 68 53 74 54
REMARK SMILES IDX 76 55 73 56 69 57 70 58 71 59 72 60 51 61 52 62 60 63 53 64
REMARK SMILES IDX 59 65 61 66 58 67 54 68 55 69 56 70 57 71 7 72 8 73 9 74
REMARK SMILES IDX 10 75 11 76 12 77 13 78 14 79 15 80 16 81 21 82 17 83 20 84
REMARK SMILES IDX 22 85 18 86 19 87 24 88 23 89
REMARK H PARENT 81 24 49 35
REMARK Flexibility Score: inf
ROOT
ATOM      1  O   UNL A   1      37.201  21.230  25.553  1.00  0.00    -0.376 OA
ENDROOT
BRANCH   1   2
ATOM      2  C   UNL A   1      37.916  20.264  24.781  1.00  0.00     0.202 C 
BRANCH   2   3
ATOM      3  C   UNL A   1      38.693  19.244  25.621  1.00  0.00     0.261 C 
BRANCH   3   4
ATOM      4  O   UNL A   1      40.071  19.624  25.768  1.00  0.00    -0.460 OA
BRANCH   4   5
ATOM      5  C   UNL A   1      40.658  20.151  26.873  1.00  0.00     0.338 C 
ATOM      6  O   UNL A   1      41.078  19.391  27.746  1.00  0.00    -0.246 OA
BRANCH   5   7
ATOM      7  C   UNL A   1      40.884  21.614  27.054  1.00  0.00     0.060 A 
ATOM      8  C   UNL A   1      40.255  22.613  26.309  1.00  0.00     0.016 A 
ATOM      9  C   UNL A   1      41.720  22.004  28.113  1.00  0.00     0.016 A 
ATOM     10  C   UNL A   1      40.547  23.959  26.517  1.00  0.00     0.010 A 
ATOM     11  C   UNL A   1      41.951  23.357  28.382  1.00  0.00     0.010 A 
ATOM     12  C   UNL A   1      41.398  24.344  27.554  1.00  0.00    -0.014 A 
BRANCH  12  13
ATOM     13  C   UNL A   1      41.783  25.769  27.701  1.00  0.00     0.031 A 
ATOM     14  C   UNL A   1      43.080  26.232  27.098  1.00  0.00     0.074 A 
ATOM     15  C   UNL A   1      40.965  26.640  28.321  1.00  0.00     0.049 A 
ATOM     16  N   UNL A   1      43.676  27.389  27.198  1.00  0.00    -0.248 NA
ATOM     17  C   UNL A   1      43.801  25.250  26.272  1.00  0.00     0.031 C 
ATOM     18  C   UNL A   1      39.650  26.319  28.878  1.00  0.00     0.029 A 
ATOM     19  N   UNL A   1      41.119  27.975  28.587  1.00  0.00    -0.354 N 
ATOM     20  C   UNL A   1      44.856  27.268  26.469  1.00  0.00     0.074 A 
ATOM     21  C   UNL A   1      44.901  25.915  25.960  1.00  0.00     0.031 C 
ATOM     22  C   UNL A   1      39.123  27.425  29.430  1.00  0.00     0.029 A 
ATOM     23  C   UNL A   1      40.082  28.514  29.315  1.00  0.00     0.049 A 
ATOM     24  H   UNL A   1      41.896  28.499  28.287  1.00  0.00     0.167 HD
ATOM     25  C   UNL A   1      45.809  28.205  26.244  1.00  0.00     0.034 A 
ATOM     26  C   UNL A   1      39.947  29.735  29.865  1.00  0.00     0.034 A 
ATOM     27  C   UNL A   1      45.738  29.550  26.759  1.00  0.00     0.049 A 
ATOM     28  C   UNL A   1      41.058  30.733  29.677  1.00  0.00     0.074 A 
ATOM     29  C   UNL A   1      46.642  30.586  26.609  1.00  0.00     0.029 A 
ATOM     30  N   UNL A   1      44.695  30.041  27.534  1.00  0.00    -0.354 N 
ATOM     31  N   UNL A   1      42.189  30.593  29.024  1.00  0.00    -0.248 NA
ATOM     32  C   UNL A   1      40.877  32.045  30.307  1.00  0.00     0.031 C 
ATOM     33  C   UNL A   1      46.172  31.685  27.338  1.00  0.00     0.029 A 
ATOM     34  C   UNL A   1      44.947  31.355  27.896  1.00  0.00     0.049 A 
ATOM     35  H   UNL A   1      43.893  29.530  27.788  1.00  0.00     0.167 HD
ATOM     36  C   UNL A   1      42.855  31.804  29.165  1.00  0.00     0.074 A 
ATOM     37  C   UNL A   1      41.989  32.669  29.943  1.00  0.00     0.031 C 
ATOM     38  C   UNL A   1      44.073  32.176  28.697  1.00  0.00     0.034 A 
BRANCH  25  39
ATOM     39  C   UNL A   1      47.027  27.766  25.471  1.00  0.00     0.023 A 
ATOM     40  C   UNL A   1      47.210  28.108  24.120  1.00  0.00     0.031 A 
ATOM     41  C   UNL A   1      47.974  26.918  26.073  1.00  0.00     0.131 A 
ATOM     42  C   UNL A   1      48.267  27.537  23.392  1.00  0.00     0.055 A 
ATOM     43  C   UNL A   1      49.067  26.415  25.364  1.00  0.00     0.041 A 
ATOM     44  F   UNL A   1      47.834  26.538  27.353  1.00  0.00    -0.206 F 
ATOM     45  C   UNL A   1      49.208  26.710  24.011  1.00  0.00     0.022 A 
BRANCH  42  46
ATOM     46  S   UNL A   1      48.303  27.764  21.592  1.00  0.00     0.124 S 
ATOM     47  O   UNL A   1      48.654  26.422  21.133  1.00  0.00    -0.237 OA
ATOM     48  O   UNL A   1      46.943  28.202  21.302  1.00  0.00    -0.237 OA
ATOM     49  O   UNL A   1      49.340  28.775  21.394  1.00  0.00    -0.744 OA
ENDBRANCH  42  46
ENDBRANCH  25  39
BRANCH  26  50
ATOM     50  C   UNL A   1      38.785  30.057  30.737  1.00  0.00     0.023 A 
ATOM     51  C   UNL A   1      37.708  30.828  30.273  1.00  0.00     0.031 A 
ATOM     52  C   UNL A   1      38.786  29.664  32.087  1.00  0.00     0.131 A 
ATOM     53  C   UNL A   1      36.694  31.217  31.164  1.00  0.00     0.055 A 
ATOM     54  C   UNL A   1      37.763  30.030  32.962  1.00  0.00     0.041 A 
ATOM     55  F   UNL A   1      39.787  28.912  32.573  1.00  0.00    -0.206 F 
ATOM     56  C   UNL A   1      36.711  30.816  32.503  1.00  0.00     0.022 A 
BRANCH  53  57
ATOM     57  S   UNL A   1      35.382  32.318  30.566  1.00  0.00     0.124 S 
ATOM     58  O   UNL A   1      36.111  33.565  30.365  1.00  0.00    -0.237 OA
ATOM     59  O   UNL A   1      34.938  31.633  29.356  1.00  0.00    -0.237 OA
ATOM     60  O   UNL A   1      34.417  32.327  31.663  1.00  0.00    -0.744 OA
ENDBRANCH  53  57
ENDBRANCH  26  50
BRANCH  38  61
ATOM     61  C   UNL A   1      44.509  33.579  29.014  1.00  0.00     0.023 A 
ATOM     62  C   UNL A   1      44.130  34.660  28.202  1.00  0.00     0.031 A 
ATOM     63  C   UNL A   1      45.333  33.830  30.124  1.00  0.00     0.131 A 
ATOM     64  C   UNL A   1      44.617  35.943  28.483  1.00  0.00     0.055 A 
ATOM     65  C   UNL A   1      45.773  35.117  30.428  1.00  0.00     0.041 A 
ATOM     66  F   UNL A   1      45.724  32.827  30.926  1.00  0.00    -0.206 F 
ATOM     67  C   UNL A   1      45.423  36.182  29.599  1.00  0.00     0.022 A 
BRANCH  64  68
ATOM     68  S   UNL A   1      44.233  37.291  27.332  1.00  0.00     0.124 S 
ATOM     69  O   UNL A   1      43.918  38.386  28.245  1.00  0.00    -0.237 OA
ATOM     70  O   UNL A   1      45.478  37.427  26.581  1.00  0.00    -0.237 OA
ATOM     71  O   UNL A   1      43.101  36.775  26.565  1.00  0.00    -0.744 OA
ENDBRANCH  64  68
ENDBRANCH  38  61
ENDBRANCH  12  13
ENDBRANCH   5   7
ENDBRANCH   4   5
ENDBRANCH   3   4
ENDBRANCH   2   3
ENDBRANCH   1   2
BRANCH   1  72
ATOM     72  C   UNL A   1      36.129  21.867  24.847  1.00  0.00     0.188 C 
BRANCH  72  73
ATOM     73  C   UNL A   1      35.128  22.483  25.830  1.00  0.00     0.188 C 
BRANCH  73  74
ATOM     74  O   UNL A   1      33.986  23.093  25.219  1.00  0.00    -0.376 OA
BRANCH  74  75
ATOM     75  C   UNL A   1      32.711  22.611  25.634  1.00  0.00     0.202 C 
BRANCH  75  76
ATOM     76  C   UNL A   1      31.747  23.626  26.262  1.00  0.00     0.261 C 
BRANCH  76  77
ATOM     77  O   UNL A   1      31.936  24.995  25.870  1.00  0.00    -0.460 OA
BRANCH  77  78
ATOM     78  C   UNL A   1      30.790  25.717  25.827  1.00  0.00     0.342 C 
ATOM     79  O   UNL A   1      29.782  25.544  26.502  1.00  0.00    -0.246 OA
BRANCH  78  80
ATOM     80  C   UNL A   1      30.795  26.658  24.704  1.00  0.00     0.103 A 
ATOM     81  C   UNL A   1      29.545  27.076  24.229  1.00  0.00     0.035 A 
ATOM     82  C   UNL A   1      31.935  27.280  24.225  1.00  0.00     0.137 A 
ATOM     83  C   UNL A   1      29.463  28.110  23.293  1.00  0.00     0.019 A 
ATOM     84  C   UNL A   1      31.841  28.301  23.288  1.00  0.00    -0.000 A 
ATOM     85  O   UNL A   1      33.219  27.034  24.626  1.00  0.00    -0.492 OA
ATOM     86  Br  UNL A   1      27.759  28.724  22.760  1.00  0.00    -0.051 Br
ATOM     87  C   UNL A   1      30.613  28.728  22.802  1.00  0.00     0.023 A 
ATOM     88  C   UNL A   1      33.182  28.842  22.977  1.00  0.00     0.081 C 
ATOM     89  C   UNL A   1      34.039  27.985  23.907  1.00  0.00     0.234 C 
ENDBRANCH  78  80
ENDBRANCH  77  78
ENDBRANCH  76  77
ENDBRANCH  75  76
ENDBRANCH  74  75
ENDBRANCH  73  74
ENDBRANCH  72  73
ENDBRANCH   1  72
TORSDOF 20
ENDMDL
