MODEL 1
REMARK VINA RESULT:     -10.2      0.000      0.000
REMARK SMILES O=C(CCC(=O)N1CCC[C@@]2(CCC(=O)N(Cc3ccncc3)C2)C1)OCCOCCOCCOC(=O)c1ccc(-c2c3nc(c(-c4cc(S(=O)(=O)[O-])ccc4F)c4ccc([nH]4)c(-c4cc(S(=O)(=O)[O-])ccc4F)c4nc(c(-c5cc(S(=O)(=O)[O-])ccc5F)c5ccc2[nH]5)C=C4)C=C3)cc1
REMARK SMILES IDX 30 1 29 2 28 3 27 4 26 5 2 6 1 7 3 8 4 9 5 10 6 11 7 12 8 13
REMARK SMILES IDX 25 14 9 15 11 16 10 17 12 18 24 19 13 20 16 21 14 22 15 23
REMARK SMILES IDX 17 24 18 25 19 26 23 27 20 28 22 29 21 30 31 31 32 32 33 33
REMARK SMILES IDX 34 34 35 35 36 36 37 37 38 38 39 39 100 40 40 41 99 42 41 43
REMARK SMILES IDX 42 44 43 45 93 46 44 47 98 48 92 49 94 50 45 51 97 52 91 53
REMARK SMILES IDX 90 54 46 56 78 57 58 58 77 59 59 60 62 61 76 62 95 63 60 64
REMARK SMILES IDX 61 65 75 67 96 68 63 69 47 70 48 71 56 72 49 73 55 74 57 75
REMARK SMILES IDX 54 76 50 77 51 78 52 79 53 80 79 81 80 82 88 83 81 84 87 85
REMARK SMILES IDX 89 86 86 87 82 88 83 89 84 90 85 91 64 92 65 93 73 94 66 95
REMARK SMILES IDX 72 96 74 97 71 98 67 99 68 100 69 101 70 102
REMARK H PARENT 94 55 62 66
REMARK Flexibility Score: inf
ROOT
ATOM      1  C   UNL A   1      35.573  21.496  26.223  1.00  0.00     0.188 C 
ENDROOT
BRANCH   1   2
ATOM      2  O   UNL A   1      34.348  21.205  26.877  1.00  0.00    -0.376 OA
BRANCH   2   3
ATOM      3  C   UNL A   1      33.604  22.254  27.469  1.00  0.00     0.202 C 
BRANCH   3   4
ATOM      4  C   UNL A   1      32.401  22.856  26.747  1.00  0.00     0.261 C 
BRANCH   4   5
ATOM      5  O   UNL A   1      32.115  22.185  25.512  1.00  0.00    -0.463 OA
BRANCH   5   6
ATOM      6  C   UNL A   1      32.765  22.323  24.338  1.00  0.00     0.306 C 
ATOM      7  O   UNL A   1      32.737  21.425  23.498  1.00  0.00    -0.252 OA
BRANCH   6   8
ATOM      8  C   UNL A   1      33.392  23.644  24.038  1.00  0.00     0.132 C 
BRANCH   8   9
ATOM      9  C   UNL A   1      33.834  23.772  22.582  1.00  0.00     0.112 C 
BRANCH   9  10
ATOM     10  C   UNL A   1      32.949  24.694  21.739  1.00  0.00     0.223 C 
ATOM     11  O   UNL A   1      33.176  24.828  20.536  1.00  0.00    -0.275 OA
BRANCH  10  12
ATOM     12  N   UNL A   1      32.013  25.467  22.412  1.00  0.00    -0.342 N 
ATOM     13  C   UNL A   1      30.891  24.800  23.110  1.00  0.00     0.119 C 
ATOM     14  C   UNL A   1      31.969  26.915  22.261  1.00  0.00     0.128 C 
ATOM     15  C   UNL A   1      30.213  25.574  24.234  1.00  0.00     0.022 C 
ATOM     16  C   UNL A   1      31.605  27.570  23.597  1.00  0.00     0.006 C 
ATOM     17  C   UNL A   1      30.190  27.068  23.964  1.00  0.00     0.012 C 
ATOM     18  C   UNL A   1      32.677  27.238  24.661  1.00  0.00     0.020 C 
ATOM     19  C   UNL A   1      31.622  29.090  23.474  1.00  0.00     0.128 C 
ATOM     20  C   UNL A   1      32.345  27.856  26.005  1.00  0.00     0.101 C 
ATOM     21  N   UNL A   1      31.257  29.702  24.745  1.00  0.00    -0.338 N 
ATOM     22  C   UNL A   1      31.741  29.248  25.966  1.00  0.00     0.222 C 
ATOM     23  O   UNL A   1      31.571  29.853  27.025  1.00  0.00    -0.275 OA
BRANCH  21  24
ATOM     24  C   UNL A   1      30.249  30.750  24.739  1.00  0.00     0.155 C 
BRANCH  24  25
ATOM     25  C   UNL A   1      29.409  30.766  23.496  1.00  0.00    -0.026 A 
ATOM     26  C   UNL A   1      29.427  31.847  22.613  1.00  0.00     0.025 A 
ATOM     27  C   UNL A   1      28.570  29.685  23.215  1.00  0.00     0.025 A 
ATOM     28  C   UNL A   1      28.602  31.800  21.502  1.00  0.00     0.111 A 
ATOM     29  C   UNL A   1      27.783  29.734  22.080  1.00  0.00     0.111 A 
ATOM     30  N   UNL A   1      27.783  30.766  21.209  1.00  0.00    -0.265 NA
ENDBRANCH  24  25
ENDBRANCH  21  24
ENDBRANCH  10  12
ENDBRANCH   9  10
ENDBRANCH   8   9
ENDBRANCH   6   8
ENDBRANCH   5   6
ENDBRANCH   4   5
ENDBRANCH   3   4
ENDBRANCH   2   3
ENDBRANCH   1   2
BRANCH   1  31
ATOM     31  C   UNL A   1      36.094  20.617  25.061  1.00  0.00     0.188 C 
BRANCH  31  32
ATOM     32  O   UNL A   1      37.410  20.824  24.578  1.00  0.00    -0.376 OA
BRANCH  32  33
ATOM     33  C   UNL A   1      38.514  20.784  25.480  1.00  0.00     0.202 C 
BRANCH  33  34
ATOM     34  C   UNL A   1      39.345  19.515  25.739  1.00  0.00     0.261 C 
BRANCH  34  35
ATOM     35  O   UNL A   1      40.730  19.640  25.385  1.00  0.00    -0.460 OA
BRANCH  35  36
ATOM     36  C   UNL A   1      41.593  19.685  26.444  1.00  0.00     0.338 C 
ATOM     37  O   UNL A   1      42.223  18.758  26.893  1.00  0.00    -0.246 OA
BRANCH  36  38
ATOM     38  C   UNL A   1      41.867  21.104  26.798  1.00  0.00     0.060 A 
ATOM     39  C   UNL A   1      41.736  22.056  25.773  1.00  0.00     0.016 A 
ATOM     40  C   UNL A   1      42.127  21.516  28.108  1.00  0.00     0.016 A 
ATOM     41  C   UNL A   1      41.870  23.418  26.056  1.00  0.00     0.010 A 
ATOM     42  C   UNL A   1      42.301  22.881  28.383  1.00  0.00     0.010 A 
ATOM     43  C   UNL A   1      42.199  23.837  27.354  1.00  0.00    -0.014 A 
BRANCH  43  44
ATOM     44  C   UNL A   1      42.761  25.202  27.540  1.00  0.00     0.031 A 
ATOM     45  C   UNL A   1      41.841  26.224  28.157  1.00  0.00     0.074 A 
ATOM     46  C   UNL A   1      44.028  25.535  27.229  1.00  0.00     0.049 A 
ATOM     47  N   UNL A   1      42.063  27.475  28.461  1.00  0.00    -0.248 NA
ATOM     48  C   UNL A   1      40.481  25.758  28.477  1.00  0.00     0.031 C 
ATOM     49  C   UNL A   1      45.034  24.636  26.668  1.00  0.00     0.029 A 
ATOM     50  N   UNL A   1      44.685  26.738  27.348  1.00  0.00    -0.354 N 
ATOM     51  C   UNL A   1      40.882  27.934  29.035  1.00  0.00     0.074 A 
ATOM     52  C   UNL A   1      39.932  26.846  28.984  1.00  0.00     0.031 C 
ATOM     53  C   UNL A   1      46.177  25.324  26.479  1.00  0.00     0.029 A 
ATOM     54  C   UNL A   1      45.981  26.718  26.884  1.00  0.00     0.049 A 
ATOM     55  H   UNL A   1      44.265  27.543  27.730  1.00  0.00     0.167 HD
ATOM     56  C   UNL A   1      40.610  29.147  29.573  1.00  0.00     0.034 A 
ATOM     57  C   UNL A   1      46.891  27.713  26.788  1.00  0.00     0.034 A 
ATOM     58  C   UNL A   1      41.533  30.250  29.566  1.00  0.00     0.049 A 
ATOM     59  C   UNL A   1      46.522  29.100  27.277  1.00  0.00     0.074 A 
ATOM     60  C   UNL A   1      41.345  31.534  30.043  1.00  0.00     0.029 A 
ATOM     61  N   UNL A   1      42.814  30.204  29.035  1.00  0.00    -0.354 N 
ATOM     62  N   UNL A   1      45.407  29.515  27.834  1.00  0.00    -0.248 NA
ATOM     63  C   UNL A   1      47.541  30.150  27.132  1.00  0.00     0.031 C 
ATOM     64  C   UNL A   1      42.488  32.283  29.739  1.00  0.00     0.029 A 
ATOM     65  C   UNL A   1      43.420  31.445  29.147  1.00  0.00     0.049 A 
ATOM     66  H   UNL A   1      43.233  29.406  28.636  1.00  0.00     0.167 HD
ATOM     67  C   UNL A   1      45.609  30.862  28.140  1.00  0.00     0.074 A 
ATOM     68  C   UNL A   1      46.956  31.183  27.718  1.00  0.00     0.031 C 
ATOM     69  C   UNL A   1      44.765  31.752  28.721  1.00  0.00     0.034 A 
BRANCH  56  70
ATOM     70  C   UNL A   1      39.232  29.335  30.154  1.00  0.00     0.023 A 
ATOM     71  C   UNL A   1      38.222  30.003  29.437  1.00  0.00     0.031 A 
ATOM     72  C   UNL A   1      38.944  28.907  31.459  1.00  0.00     0.131 A 
ATOM     73  C   UNL A   1      36.999  30.291  30.060  1.00  0.00     0.055 A 
ATOM     74  C   UNL A   1      37.696  29.124  32.044  1.00  0.00     0.041 A 
ATOM     75  F   UNL A   1      39.881  28.294  32.200  1.00  0.00    -0.206 F 
ATOM     76  C   UNL A   1      36.720  29.833  31.350  1.00  0.00     0.022 A 
BRANCH  73  77
ATOM     77  S   UNL A   1      35.838  31.401  29.217  1.00  0.00     0.124 S 
ATOM     78  O   UNL A   1      36.750  32.304  28.518  1.00  0.00    -0.237 OA
ATOM     79  O   UNL A   1      35.078  30.485  28.377  1.00  0.00    -0.237 OA
ATOM     80  O   UNL A   1      35.090  32.010  30.315  1.00  0.00    -0.744 OA
ENDBRANCH  73  77
ENDBRANCH  56  70
BRANCH  57  81
ATOM     81  C   UNL A   1      48.231  27.478  26.164  1.00  0.00     0.023 A 
ATOM     82  C   UNL A   1      48.434  27.636  24.781  1.00  0.00     0.031 A 
ATOM     83  C   UNL A   1      49.301  26.980  26.929  1.00  0.00     0.131 A 
ATOM     84  C   UNL A   1      49.652  27.243  24.200  1.00  0.00     0.055 A 
ATOM     85  C   UNL A   1      50.530  26.644  26.353  1.00  0.00     0.041 A 
ATOM     86  F   UNL A   1      49.165  26.799  28.251  1.00  0.00    -0.206 F 
ATOM     87  C   UNL A   1      50.704  26.759  24.978  1.00  0.00     0.022 A 
BRANCH  84  88
ATOM     88  S   UNL A   1      49.805  27.268  22.390  1.00  0.00     0.124 S 
ATOM     89  O   UNL A   1      48.809  26.279  21.995  1.00  0.00    -0.237 OA
ATOM     90  O   UNL A   1      49.490  28.659  22.080  1.00  0.00    -0.237 OA
ATOM     91  O   UNL A   1      51.197  26.882  22.162  1.00  0.00    -0.744 OA
ENDBRANCH  84  88
ENDBRANCH  57  81
BRANCH  69  92
ATOM     92  C   UNL A   1      45.293  33.141  28.990  1.00  0.00     0.023 A 
ATOM     93  C   UNL A   1      45.958  33.467  30.186  1.00  0.00     0.031 A 
ATOM     94  C   UNL A   1      45.127  34.155  28.030  1.00  0.00     0.131 A 
ATOM     95  C   UNL A   1      46.382  34.786  30.412  1.00  0.00     0.055 A 
ATOM     96  C   UNL A   1      45.606  35.450  28.234  1.00  0.00     0.041 A 
ATOM     97  F   UNL A   1      44.500  33.902  26.869  1.00  0.00    -0.206 F 
ATOM     98  C   UNL A   1      46.225  35.775  29.437  1.00  0.00     0.022 A 
BRANCH  95  99
ATOM     99  S   UNL A   1      47.061  35.217  32.038  1.00  0.00     0.124 S 
ATOM    100  O   UNL A   1      48.145  36.128  31.683  1.00  0.00    -0.237 OA
ATOM    101  O   UNL A   1      45.912  35.822  32.705  1.00  0.00    -0.237 OA
ATOM    102  O   UNL A   1      47.487  33.930  32.585  1.00  0.00    -0.744 OA
ENDBRANCH  95  99
ENDBRANCH  69  92
ENDBRANCH  43  44
ENDBRANCH  36  38
ENDBRANCH  35  36
ENDBRANCH  34  35
ENDBRANCH  33  34
ENDBRANCH  32  33
ENDBRANCH  31  32
ENDBRANCH   1  31
TORSDOF 25
ENDMDL
MODEL 2
REMARK VINA RESULT:     -10.0      5.796      9.324
REMARK SMILES O=C(CCC(=O)N1CCC[C@@]2(CCC(=O)N(Cc3ccncc3)C2)C1)OCCOCCOCCOC(=O)c1ccc(-c2c3nc(c(-c4cc(S(=O)(=O)[O-])ccc4F)c4ccc([nH]4)c(-c4cc(S(=O)(=O)[O-])ccc4F)c4nc(c(-c5cc(S(=O)(=O)[O-])ccc5F)c5ccc2[nH]5)C=C4)C=C3)cc1
REMARK SMILES IDX 30 1 29 2 28 3 27 4 26 5 2 6 1 7 3 8 4 9 5 10 6 11 7 12 8 13
REMARK SMILES IDX 25 14 9 15 11 16 10 17 12 18 24 19 13 20 16 21 14 22 15 23
REMARK SMILES IDX 17 24 18 25 19 26 23 27 20 28 22 29 21 30 31 31 32 32 33 33
REMARK SMILES IDX 34 34 35 35 36 36 37 37 38 38 39 39 100 40 40 41 99 42 41 43
REMARK SMILES IDX 42 44 43 45 93 46 44 47 98 48 92 49 94 50 45 51 97 52 91 53
REMARK SMILES IDX 90 54 46 56 78 57 58 58 77 59 59 60 62 61 76 62 95 63 60 64
REMARK SMILES IDX 61 65 75 67 96 68 63 69 47 70 48 71 56 72 49 73 55 74 57 75
REMARK SMILES IDX 54 76 50 77 51 78 52 79 53 80 79 81 80 82 88 83 81 84 87 85
REMARK SMILES IDX 89 86 86 87 82 88 83 89 84 90 85 91 64 92 65 93 73 94 66 95
REMARK SMILES IDX 72 96 74 97 71 98 67 99 68 100 69 101 70 102
REMARK H PARENT 94 55 62 66
REMARK Flexibility Score: inf
ROOT
ATOM      1  C   UNL A   1      37.543  29.298  28.311  1.00  0.00     0.188 C 
ENDROOT
BRANCH   1   2
ATOM      2  O   UNL A   1      38.948  29.469  28.196  1.00  0.00    -0.376 OA
BRANCH   2   3
ATOM      3  C   UNL A   1      39.799  28.340  28.283  1.00  0.00     0.202 C 
BRANCH   3   4
ATOM      4  C   UNL A   1      39.392  27.123  29.111  1.00  0.00     0.261 C 
BRANCH   4   5
ATOM      5  O   UNL A   1      40.171  25.962  28.793  1.00  0.00    -0.463 OA
BRANCH   5   6
ATOM      6  C   UNL A   1      40.735  25.656  27.607  1.00  0.00     0.306 C 
ATOM      7  O   UNL A   1      41.955  25.541  27.505  1.00  0.00    -0.252 OA
BRANCH   6   8
ATOM      8  C   UNL A   1      39.828  25.324  26.468  1.00  0.00     0.132 C 
BRANCH   8   9
ATOM      9  C   UNL A   1      38.645  24.455  26.888  1.00  0.00     0.112 C 
BRANCH   9  10
ATOM     10  C   UNL A   1      38.676  23.037  26.311  1.00  0.00     0.223 C 
ATOM     11  O   UNL A   1      39.719  22.383  26.351  1.00  0.00    -0.275 OA
BRANCH  10  12
ATOM     12  N   UNL A   1      37.552  22.606  25.621  1.00  0.00    -0.342 N 
ATOM     13  C   UNL A   1      37.412  21.171  25.289  1.00  0.00     0.119 C 
ATOM     14  C   UNL A   1      36.621  23.549  25.014  1.00  0.00     0.128 C 
ATOM     15  C   UNL A   1      36.004  20.652  25.025  1.00  0.00     0.022 C 
ATOM     16  C   UNL A   1      35.187  23.028  25.147  1.00  0.00     0.006 C 
ATOM     17  C   UNL A   1      35.126  21.698  24.361  1.00  0.00     0.012 C 
ATOM     18  C   UNL A   1      34.809  22.886  26.639  1.00  0.00     0.020 C 
ATOM     19  C   UNL A   1      34.193  24.035  24.578  1.00  0.00     0.128 C 
ATOM     20  C   UNL A   1      33.399  22.357  26.814  1.00  0.00     0.101 C 
ATOM     21  N   UNL A   1      32.834  23.522  24.692  1.00  0.00    -0.338 N 
ATOM     22  C   UNL A   1      32.366  22.878  25.831  1.00  0.00     0.222 C 
ATOM     23  O   UNL A   1      31.182  22.587  26.001  1.00  0.00    -0.275 OA
BRANCH  21  24
ATOM     24  C   UNL A   1      31.977  23.579  23.519  1.00  0.00     0.155 C 
BRANCH  24  25
ATOM     25  C   UNL A   1      31.343  24.921  23.304  1.00  0.00    -0.026 A 
ATOM     26  C   UNL A   1      31.787  25.791  22.307  1.00  0.00     0.025 A 
ATOM     27  C   UNL A   1      30.291  25.328  24.129  1.00  0.00     0.025 A 
ATOM     28  C   UNL A   1      31.169  27.024  22.189  1.00  0.00     0.111 A 
ATOM     29  C   UNL A   1      29.740  26.580  23.932  1.00  0.00     0.111 A 
ATOM     30  N   UNL A   1      30.150  27.439  22.974  1.00  0.00    -0.265 NA
ENDBRANCH  24  25
ENDBRANCH  21  24
ENDBRANCH  10  12
ENDBRANCH   9  10
ENDBRANCH   8   9
ENDBRANCH   6   8
ENDBRANCH   5   6
ENDBRANCH   4   5
ENDBRANCH   3   4
ENDBRANCH   2   3
ENDBRANCH   1   2
BRANCH   1  31
ATOM     31  C   UNL A   1      36.558  30.383  27.813  1.00  0.00     0.188 C 
BRANCH  31  32
ATOM     32  O   UNL A   1      36.660  31.697  28.334  1.00  0.00    -0.376 OA
BRANCH  32  33
ATOM     33  C   UNL A   1      35.865  32.082  29.454  1.00  0.00     0.202 C 
BRANCH  33  34
ATOM     34  C   UNL A   1      36.437  32.272  30.869  1.00  0.00     0.261 C 
BRANCH  34  35
ATOM     35  O   UNL A   1      37.632  31.519  31.123  1.00  0.00    -0.460 OA
BRANCH  35  36
ATOM     36  C   UNL A   1      37.454  30.397  31.883  1.00  0.00     0.338 C 
ATOM     37  O   UNL A   1      36.404  29.847  32.113  1.00  0.00    -0.246 OA
BRANCH  36  38
ATOM     38  C   UNL A   1      38.777  29.777  32.163  1.00  0.00     0.060 A 
ATOM     39  C   UNL A   1      39.891  30.632  32.197  1.00  0.00     0.016 A 
ATOM     40  C   UNL A   1      38.920  28.427  32.500  1.00  0.00     0.016 A 
ATOM     41  C   UNL A   1      41.147  30.139  32.562  1.00  0.00     0.010 A 
ATOM     42  C   UNL A   1      40.188  27.925  32.829  1.00  0.00     0.010 A 
ATOM     43  C   UNL A   1      41.313  28.773  32.836  1.00  0.00    -0.014 A 
BRANCH  43  44
ATOM     44  C   UNL A   1      42.685  28.199  32.786  1.00  0.00     0.031 A 
ATOM     45  C   UNL A   1      43.349  27.942  34.113  1.00  0.00     0.074 A 
ATOM     46  C   UNL A   1      43.314  27.874  31.641  1.00  0.00     0.049 A 
ATOM     47  N   UNL A   1      44.521  27.428  34.378  1.00  0.00    -0.248 NA
ATOM     48  C   UNL A   1      42.572  28.316  35.306  1.00  0.00     0.031 C 
ATOM     49  C   UNL A   1      42.772  28.029  30.293  1.00  0.00     0.029 A 
ATOM     50  N   UNL A   1      44.565  27.336  31.437  1.00  0.00    -0.354 N 
ATOM     51  C   UNL A   1      44.607  27.389  35.766  1.00  0.00     0.074 A 
ATOM     52  C   UNL A   1      43.395  27.984  36.284  1.00  0.00     0.031 C 
ATOM     53  C   UNL A   1      43.691  27.608  29.402  1.00  0.00     0.029 A 
ATOM     54  C   UNL A   1      44.896  27.173  30.110  1.00  0.00     0.049 A 
ATOM     55  H   UNL A   1      45.170  27.090  32.175  1.00  0.00     0.167 HD
ATOM     56  C   UNL A   1      45.596  26.892  36.546  1.00  0.00     0.034 A 
ATOM     57  C   UNL A   1      46.044  26.738  29.543  1.00  0.00     0.034 A 
ATOM     58  C   UNL A   1      46.828  26.359  36.032  1.00  0.00     0.049 A 
ATOM     59  C   UNL A   1      47.191  26.307  30.435  1.00  0.00     0.074 A 
ATOM     60  C   UNL A   1      47.915  25.870  36.733  1.00  0.00     0.029 A 
ATOM     61  N   UNL A   1      47.147  26.266  34.684  1.00  0.00    -0.354 N 
ATOM     62  N   UNL A   1      47.251  26.261  31.747  1.00  0.00    -0.248 NA
ATOM     63  C   UNL A   1      48.423  25.861  29.768  1.00  0.00     0.031 C 
ATOM     64  C   UNL A   1      48.917  25.544  35.812  1.00  0.00     0.029 A 
ATOM     65  C   UNL A   1      48.426  25.754  34.533  1.00  0.00     0.049 A 
ATOM     66  H   UNL A   1      46.553  26.527  33.943  1.00  0.00     0.167 HD
ATOM     67  C   UNL A   1      48.510  25.742  32.055  1.00  0.00     0.074 A 
ATOM     68  C   UNL A   1      49.169  25.480  30.794  1.00  0.00     0.031 C 
ATOM     69  C   UNL A   1      49.071  25.498  33.267  1.00  0.00     0.034 A 
BRANCH  56  70
ATOM     70  C   UNL A   1      45.382  26.967  38.036  1.00  0.00     0.023 A 
ATOM     71  C   UNL A   1      45.789  28.092  38.777  1.00  0.00     0.031 A 
ATOM     72  C   UNL A   1      44.835  25.879  38.734  1.00  0.00     0.131 A 
ATOM     73  C   UNL A   1      45.711  28.071  40.177  1.00  0.00     0.055 A 
ATOM     74  C   UNL A   1      44.684  25.897  40.121  1.00  0.00     0.041 A 
ATOM     75  F   UNL A   1      44.461  24.767  38.081  1.00  0.00    -0.206 F 
ATOM     76  C   UNL A   1      45.138  26.992  40.852  1.00  0.00     0.022 A 
BRANCH  73  77
ATOM     77  S   UNL A   1      46.509  29.408  41.108  1.00  0.00     0.124 S 
ATOM     78  O   UNL A   1      47.208  28.663  42.152  1.00  0.00    -0.237 OA
ATOM     79  O   UNL A   1      47.352  30.038  40.099  1.00  0.00    -0.237 OA
ATOM     80  O   UNL A   1      45.384  30.216  41.576  1.00  0.00    -0.744 OA
ENDBRANCH  73  77
ENDBRANCH  56  70
BRANCH  57  81
ATOM     81  C   UNL A   1      46.214  26.725  28.056  1.00  0.00     0.023 A 
ATOM     82  C   UNL A   1      45.904  25.584  27.293  1.00  0.00     0.031 A 
ATOM     83  C   UNL A   1      46.799  27.817  27.391  1.00  0.00     0.131 A 
ATOM     84  C   UNL A   1      46.236  25.541  25.928  1.00  0.00     0.055 A 
ATOM     85  C   UNL A   1      47.074  27.789  26.022  1.00  0.00     0.041 A 
ATOM     86  F   UNL A   1      47.124  28.929  28.068  1.00  0.00    -0.206 F 
ATOM     87  C   UNL A   1      46.808  26.640  25.285  1.00  0.00     0.022 A 
BRANCH  84  88
ATOM     88  S   UNL A   1      46.011  23.983  25.022  1.00  0.00     0.124 S 
ATOM     89  O   UNL A   1      44.590  24.030  24.700  1.00  0.00    -0.237 OA
ATOM     90  O   UNL A   1      46.931  24.149  23.902  1.00  0.00    -0.237 OA
ATOM     91  O   UNL A   1      46.398  22.964  25.997  1.00  0.00    -0.744 OA
ENDBRANCH  84  88
ENDBRANCH  57  81
BRANCH  69  92
ATOM     92  C   UNL A   1      50.441  24.862  33.287  1.00  0.00     0.023 A 
ATOM     93  C   UNL A   1      50.618  23.471  33.201  1.00  0.00     0.031 A 
ATOM     94  C   UNL A   1      51.589  25.669  33.392  1.00  0.00     0.131 A 
ATOM     95  C   UNL A   1      51.909  22.924  33.278  1.00  0.00     0.055 A 
ATOM     96  C   UNL A   1      52.874  25.124  33.406  1.00  0.00     0.041 A 
ATOM     97  F   UNL A   1      51.481  27.005  33.476  1.00  0.00    -0.206 F 
ATOM     98  C   UNL A   1      53.039  23.743  33.363  1.00  0.00     0.022 A 
BRANCH  95  99
ATOM     99  S   UNL A   1      52.090  21.121  33.359  1.00  0.00     0.124 S 
ATOM    100  O   UNL A   1      50.777  20.663  32.917  1.00  0.00    -0.237 OA
ATOM    101  O   UNL A   1      53.195  20.877  32.438  1.00  0.00    -0.237 OA
ATOM    102  O   UNL A   1      52.393  20.870  34.767  1.00  0.00    -0.744 OA
ENDBRANCH  95  99
ENDBRANCH  69  92
ENDBRANCH  43  44
ENDBRANCH  36  38
ENDBRANCH  35  36
ENDBRANCH  34  35
ENDBRANCH  33  34
ENDBRANCH  32  33
ENDBRANCH  31  32
ENDBRANCH   1  31
TORSDOF 25
ENDMDL
MODEL 3
REMARK VINA RESULT:      -9.8      5.766     10.200
REMARK SMILES O=C(CCC(=O)N1CCC[C@@]2(CCC(=O)N(Cc3ccncc3)C2)C1)OCCOCCOCCOC(=O)c1ccc(-c2c3nc(c(-c4cc(S(=O)(=O)[O-])ccc4F)c4ccc([nH]4)c(-c4cc(S(=O)(=O)[O-])ccc4F)c4nc(c(-c5cc(S(=O)(=O)[O-])ccc5F)c5ccc2[nH]5)C=C4)C=C3)cc1
REMARK SMILES IDX 30 1 29 2 28 3 27 4 26 5 2 6 1 7 3 8 4 9 5 10 6 11 7 12 8 13
REMARK SMILES IDX 25 14 9 15 11 16 10 17 12 18 24 19 13 20 16 21 14 22 15 23
REMARK SMILES IDX 17 24 18 25 19 26 23 27 20 28 22 29 21 30 31 31 32 32 33 33
REMARK SMILES IDX 34 34 35 35 36 36 37 37 38 38 39 39 100 40 40 41 99 42 41 43
REMARK SMILES IDX 42 44 43 45 93 46 44 47 98 48 92 49 94 50 45 51 97 52 91 53
REMARK SMILES IDX 90 54 46 56 78 57 58 58 77 59 59 60 62 61 76 62 95 63 60 64
REMARK SMILES IDX 61 65 75 67 96 68 63 69 47 70 48 71 56 72 49 73 55 74 57 75
REMARK SMILES IDX 54 76 50 77 51 78 52 79 53 80 79 81 80 82 88 83 81 84 87 85
REMARK SMILES IDX 89 86 86 87 82 88 83 89 84 90 85 91 64 92 65 93 73 94 66 95
REMARK SMILES IDX 72 96 74 97 71 98 67 99 68 100 69 101 70 102
REMARK H PARENT 94 55 62 66
REMARK Flexibility Score: inf
ROOT
ATOM      1  C   UNL A   1      37.412  29.193  28.259  1.00  0.00     0.188 C 
ENDROOT
BRANCH   1   2
ATOM      2  O   UNL A   1      38.790  29.258  27.924  1.00  0.00    -0.376 OA
BRANCH   2   3
ATOM      3  C   UNL A   1      39.583  28.087  27.999  1.00  0.00     0.202 C 
BRANCH   3   4
ATOM      4  C   UNL A   1      39.159  26.918  28.884  1.00  0.00     0.261 C 
BRANCH   4   5
ATOM      5  O   UNL A   1      39.917  25.729  28.618  1.00  0.00    -0.463 OA
BRANCH   5   6
ATOM      6  C   UNL A   1      40.462  25.354  27.443  1.00  0.00     0.306 C 
ATOM      7  O   UNL A   1      41.682  25.350  27.292  1.00  0.00    -0.252 OA
BRANCH   6   8
ATOM      8  C   UNL A   1      39.550  24.812  26.391  1.00  0.00     0.132 C 
BRANCH   8   9
ATOM      9  C   UNL A   1      38.478  23.885  26.959  1.00  0.00     0.112 C 
BRANCH   9  10
ATOM     10  C   UNL A   1      38.179  22.666  26.082  1.00  0.00     0.223 C 
ATOM     11  O   UNL A   1      39.098  21.925  25.731  1.00  0.00    -0.275 OA
BRANCH  10  12
ATOM     12  N   UNL A   1      36.888  22.538  25.589  1.00  0.00    -0.342 N 
ATOM     13  C   UNL A   1      36.442  21.232  25.057  1.00  0.00     0.119 C 
ATOM     14  C   UNL A   1      36.038  23.701  25.366  1.00  0.00     0.128 C 
ATOM     15  C   UNL A   1      34.942  20.971  25.020  1.00  0.00     0.022 C 
ATOM     16  C   UNL A   1      34.586  23.362  25.715  1.00  0.00     0.006 C 
ATOM     17  C   UNL A   1      34.150  22.238  24.748  1.00  0.00     0.012 C 
ATOM     18  C   UNL A   1      34.475  22.976  27.208  1.00  0.00     0.020 C 
ATOM     19  C   UNL A   1      33.693  24.588  25.553  1.00  0.00     0.128 C 
ATOM     20  C   UNL A   1      33.052  22.618  27.591  1.00  0.00     0.101 C 
ATOM     21  N   UNL A   1      32.311  24.250  25.870  1.00  0.00    -0.338 N 
ATOM     22  C   UNL A   1      31.960  23.460  26.958  1.00  0.00     0.222 C 
ATOM     23  O   UNL A   1      30.796  23.303  27.327  1.00  0.00    -0.275 OA
BRANCH  21  24
ATOM     24  C   UNL A   1      31.273  24.657  24.936  1.00  0.00     0.155 C 
BRANCH  24  25
ATOM     25  C   UNL A   1      31.359  26.099  24.535  1.00  0.00    -0.026 A 
ATOM     26  C   UNL A   1      31.148  27.129  25.452  1.00  0.00     0.025 A 
ATOM     27  C   UNL A   1      31.639  26.432  23.207  1.00  0.00     0.025 A 
ATOM     28  C   UNL A   1      31.217  28.437  24.999  1.00  0.00     0.111 A 
ATOM     29  C   UNL A   1      31.684  27.767  22.853  1.00  0.00     0.111 A 
ATOM     30  N   UNL A   1      31.486  28.782  23.721  1.00  0.00    -0.265 NA
ENDBRANCH  24  25
ENDBRANCH  21  24
ENDBRANCH  10  12
ENDBRANCH   9  10
ENDBRANCH   8   9
ENDBRANCH   6   8
ENDBRANCH   5   6
ENDBRANCH   4   5
ENDBRANCH   3   4
ENDBRANCH   2   3
ENDBRANCH   1   2
BRANCH   1  31
ATOM     31  C   UNL A   1      36.379  30.140  27.601  1.00  0.00     0.188 C 
BRANCH  31  32
ATOM     32  O   UNL A   1      36.413  31.521  27.916  1.00  0.00    -0.376 OA
BRANCH  32  33
ATOM     33  C   UNL A   1      35.709  32.009  29.055  1.00  0.00     0.202 C 
BRANCH  33  34
ATOM     34  C   UNL A   1      36.395  32.347  30.390  1.00  0.00     0.261 C 
BRANCH  34  35
ATOM     35  O   UNL A   1      37.520  31.511  30.698  1.00  0.00    -0.460 OA
BRANCH  35  36
ATOM     36  C   UNL A   1      37.241  30.450  31.514  1.00  0.00     0.338 C 
ATOM     37  O   UNL A   1      36.159  29.938  31.678  1.00  0.00    -0.246 OA
BRANCH  36  38
ATOM     38  C   UNL A   1      38.514  29.827  31.966  1.00  0.00     0.060 A 
ATOM     39  C   UNL A   1      39.580  30.693  32.264  1.00  0.00     0.016 A 
ATOM     40  C   UNL A   1      38.638  28.455  32.206  1.00  0.00     0.016 A 
ATOM     41  C   UNL A   1      40.768  30.188  32.798  1.00  0.00     0.010 A 
ATOM     42  C   UNL A   1      39.846  27.945  32.705  1.00  0.00     0.010 A 
ATOM     43  C   UNL A   1      40.926  28.805  32.979  1.00  0.00    -0.014 A 
BRANCH  43  44
ATOM     44  C   UNL A   1      42.303  28.259  33.119  1.00  0.00     0.031 A 
ATOM     45  C   UNL A   1      42.997  27.863  31.842  1.00  0.00     0.074 A 
ATOM     46  C   UNL A   1      42.945  28.151  34.298  1.00  0.00     0.049 A 
ATOM     47  N   UNL A   1      44.199  27.387  31.654  1.00  0.00    -0.248 NA
ATOM     48  C   UNL A   1      42.217  28.035  30.605  1.00  0.00     0.031 C 
ATOM     49  C   UNL A   1      42.410  28.535  35.601  1.00  0.00     0.029 A 
ATOM     50  N   UNL A   1      44.207  27.677  34.581  1.00  0.00    -0.354 N 
ATOM     51  C   UNL A   1      44.329  27.234  30.277  1.00  0.00     0.074 A 
ATOM     52  C   UNL A   1      43.065  27.612  29.686  1.00  0.00     0.031 C 
ATOM     53  C   UNL A   1      43.332  28.271  36.547  1.00  0.00     0.029 A 
ATOM     54  C   UNL A   1      44.516  27.677  35.923  1.00  0.00     0.049 A 
ATOM     55  H   UNL A   1      44.832  27.366  33.887  1.00  0.00     0.167 HD
ATOM     56  C   UNL A   1      45.405  26.829  29.561  1.00  0.00     0.034 A 
ATOM     57  C   UNL A   1      45.621  27.235  36.565  1.00  0.00     0.034 A 
ATOM     58  C   UNL A   1      46.640  26.392  30.153  1.00  0.00     0.049 A 
ATOM     59  C   UNL A   1      46.766  26.663  35.754  1.00  0.00     0.074 A 
ATOM     60  C   UNL A   1      47.778  25.920  29.525  1.00  0.00     0.029 A 
ATOM     61  N   UNL A   1      46.892  26.353  31.517  1.00  0.00    -0.354 N 
ATOM     62  N   UNL A   1      46.881  26.539  34.450  1.00  0.00    -0.248 NA
ATOM     63  C   UNL A   1      47.936  26.178  36.502  1.00  0.00     0.031 C 
ATOM     64  C   UNL A   1      48.692  25.532  30.511  1.00  0.00     0.029 A 
ATOM     65  C   UNL A   1      48.157  25.838  31.752  1.00  0.00     0.049 A 
ATOM     66  H   UNL A   1      46.264  26.647  32.217  1.00  0.00     0.167 HD
ATOM     67  C   UNL A   1      48.150  26.002  34.227  1.00  0.00     0.074 A 
ATOM     68  C   UNL A   1      48.765  25.838  35.526  1.00  0.00     0.031 C 
ATOM     69  C   UNL A   1      48.757  25.680  33.056  1.00  0.00     0.034 A 
BRANCH  56  70
ATOM     70  C   UNL A   1      45.245  26.796  28.064  1.00  0.00     0.023 A 
ATOM     71  C   UNL A   1      44.978  25.592  27.384  1.00  0.00     0.031 A 
ATOM     72  C   UNL A   1      45.432  27.958  27.299  1.00  0.00     0.131 A 
ATOM     73  C   UNL A   1      44.981  25.567  25.981  1.00  0.00     0.055 A 
ATOM     74  C   UNL A   1      45.352  27.942  25.906  1.00  0.00     0.041 A 
ATOM     75  F   UNL A   1      45.723  29.127  27.893  1.00  0.00    -0.206 F 
ATOM     76  C   UNL A   1      45.141  26.739  25.239  1.00  0.00     0.022 A 
BRANCH  73  77
ATOM     77  S   UNL A   1      44.925  23.959  25.145  1.00  0.00     0.124 S 
ATOM     78  O   UNL A   1      45.288  23.050  26.230  1.00  0.00    -0.237 OA
ATOM     79  O   UNL A   1      43.542  23.888  24.688  1.00  0.00    -0.237 OA
ATOM     80  O   UNL A   1      45.927  24.089  24.088  1.00  0.00    -0.744 OA
ENDBRANCH  73  77
ENDBRANCH  56  70
BRANCH  57  81
ATOM     81  C   UNL A   1      45.707  27.255  38.060  1.00  0.00     0.023 A 
ATOM     82  C   UNL A   1      46.336  28.311  38.743  1.00  0.00     0.031 A 
ATOM     83  C   UNL A   1      45.260  26.158  38.818  1.00  0.00     0.131 A 
ATOM     84  C   UNL A   1      46.554  28.219  40.129  1.00  0.00     0.055 A 
ATOM     85  C   UNL A   1      45.430  26.099  40.204  1.00  0.00     0.041 A 
ATOM     86  F   UNL A   1      44.661  25.117  38.221  1.00  0.00    -0.206 F 
ATOM     87  C   UNL A   1      46.095  27.126  40.865  1.00  0.00     0.022 A 
BRANCH  84  88
ATOM     88  S   UNL A   1      47.548  29.502  40.944  1.00  0.00     0.124 S 
ATOM     89  O   UNL A   1      48.115  28.768  42.069  1.00  0.00    -0.237 OA
ATOM     90  O   UNL A   1      48.479  29.880  39.886  1.00  0.00    -0.237 OA
ATOM     91  O   UNL A   1      46.563  30.523  41.296  1.00  0.00    -0.744 OA
ENDBRANCH  84  88
ENDBRANCH  57  81
BRANCH  69  92
ATOM     92  C   UNL A   1      50.179  25.173  33.123  1.00  0.00     0.023 A 
ATOM     93  C   UNL A   1      50.481  23.800  33.126  1.00  0.00     0.031 A 
ATOM     94  C   UNL A   1      51.248  26.084  33.186  1.00  0.00     0.131 A 
ATOM     95  C   UNL A   1      51.814  23.378  33.244  1.00  0.00     0.055 A 
ATOM     96  C   UNL A   1      52.576  25.659  33.242  1.00  0.00     0.041 A 
ATOM     97  F   UNL A   1      51.020  27.408  33.187  1.00  0.00    -0.206 F 
ATOM     98  C   UNL A   1      52.865  24.299  33.285  1.00  0.00     0.022 A 
BRANCH  95  99
ATOM     99  S   UNL A   1      52.155  21.607  33.438  1.00  0.00     0.124 S 
ATOM    100  O   UNL A   1      52.238  21.159  32.051  1.00  0.00    -0.237 OA
ATOM    101  O   UNL A   1      53.410  21.611  34.183  1.00  0.00    -0.237 OA
ATOM    102  O   UNL A   1      50.997  21.113  34.182  1.00  0.00    -0.744 OA
ENDBRANCH  95  99
ENDBRANCH  69  92
ENDBRANCH  43  44
ENDBRANCH  36  38
ENDBRANCH  35  36
ENDBRANCH  34  35
ENDBRANCH  33  34
ENDBRANCH  32  33
ENDBRANCH  31  32
ENDBRANCH   1  31
TORSDOF 25
ENDMDL
