MODEL 1
REMARK VINA RESULT:     -10.6      0.000      0.000
REMARK SMILES O=C(/C=C/c1ccc(O)c(O)c1)OCCOCCOCCOC(=O)c1ccc(-c2c3nc(c(-c4cc(S(=O)(=O)[O-])ccc4F)c4ccc([nH]4)c(-c4cc(S(=O)(=O)[O-])ccc4F)c4nc(c(-c5cc(S(=O)(=O)[O-])ccc5F)c5ccc2[nH]5)C=C4)C=C3)cc1
REMARK SMILES IDX 18 1 17 2 16 3 15 4 14 5 13 6 2 7 1 8 3 9 4 10 5 11 6 12
REMARK SMILES IDX 12 13 7 14 10 15 8 16 11 17 9 19 19 21 20 22 21 23 22 24
REMARK SMILES IDX 23 25 24 26 25 27 26 28 87 29 27 30 86 31 28 32 29 33 30 34
REMARK SMILES IDX 80 35 31 36 85 37 79 38 81 39 32 40 84 41 78 42 77 43 33 45
REMARK SMILES IDX 65 46 45 47 64 48 46 49 49 50 63 51 82 52 47 53 48 54 62 56
REMARK SMILES IDX 83 57 50 58 34 59 35 60 43 61 36 62 42 63 44 64 41 65 37 66
REMARK SMILES IDX 38 67 39 68 40 69 66 70 67 71 75 72 68 73 74 74 76 75 73 76
REMARK SMILES IDX 69 77 70 78 71 79 72 80 51 81 52 82 60 83 53 84 59 85 61 86
REMARK SMILES IDX 58 87 54 88 55 89 56 90 57 91
REMARK H PARENT 11 18 9 20 81 44 49 55
REMARK Flexibility Score: inf
ROOT
ATOM      1  C   UNL A   1      35.274  22.744  26.432  1.00  0.00     0.188 C 
ENDROOT
BRANCH   1   2
ATOM      2  C   UNL A   1      33.953  23.525  26.495  1.00  0.00     0.188 C 
BRANCH   2   3
ATOM      3  O   UNL A   1      33.841  24.625  25.616  1.00  0.00    -0.376 OA
BRANCH   3   4
ATOM      4  C   UNL A   1      34.252  24.508  24.260  1.00  0.00     0.202 C 
BRANCH   4   5
ATOM      5  C   UNL A   1      33.343  23.942  23.172  1.00  0.00     0.261 C 
BRANCH   5   6
ATOM      6  O   UNL A   1      32.360  24.742  22.461  1.00  0.00    -0.460 OA
BRANCH   6   7
ATOM      7  C   UNL A   1      32.382  25.852  21.706  1.00  0.00     0.330 C 
ATOM      8  O   UNL A   1      33.278  26.025  20.884  1.00  0.00    -0.247 OA
BRANCH   7   9
ATOM      9  C   UNL A   1      31.378  26.897  21.882  1.00  0.00     0.094 C 
ATOM     10  C   UNL A   1      30.967  27.318  23.085  1.00  0.00     0.016 C 
BRANCH  10  11
ATOM     11  C   UNL A   1      29.923  28.338  23.207  1.00  0.00    -0.021 A 
ATOM     12  C   UNL A   1      30.259  29.686  23.407  1.00  0.00     0.012 A 
ATOM     13  C   UNL A   1      28.576  27.969  23.120  1.00  0.00     0.058 A 
ATOM     14  C   UNL A   1      29.261  30.663  23.505  1.00  0.00     0.051 A 
ATOM     15  C   UNL A   1      27.594  28.943  23.216  1.00  0.00     0.157 A 
ATOM     16  C   UNL A   1      27.930  30.281  23.401  1.00  0.00     0.157 A 
BRANCH  15  17
ATOM     17  O   UNL A   1      26.279  28.576  23.126  1.00  0.00    -0.504 OA
ATOM     18  H   UNL A   1      25.950  27.877  23.654  1.00  0.00     0.293 HD
ENDBRANCH  15  17
BRANCH  16  19
ATOM     19  O   UNL A   1      26.909  31.188  23.471  1.00  0.00    -0.504 OA
ATOM     20  H   UNL A   1      27.053  32.075  23.209  1.00  0.00     0.293 HD
ENDBRANCH  16  19
ENDBRANCH  10  11
ENDBRANCH   7   9
ENDBRANCH   6   7
ENDBRANCH   5   6
ENDBRANCH   4   5
ENDBRANCH   3   4
ENDBRANCH   2   3
ENDBRANCH   1   2
BRANCH   1  21
ATOM     21  O   UNL A   1      35.215  21.337  26.241  1.00  0.00    -0.376 OA
BRANCH  21  22
ATOM     22  C   UNL A   1      35.753  20.812  25.027  1.00  0.00     0.202 C 
BRANCH  22  23
ATOM     23  C   UNL A   1      37.238  20.422  24.984  1.00  0.00     0.261 C 
BRANCH  23  24
ATOM     24  O   UNL A   1      38.137  21.535  25.156  1.00  0.00    -0.460 OA
BRANCH  24  25
ATOM     25  C   UNL A   1      39.190  21.296  25.979  1.00  0.00     0.338 C 
ATOM     26  O   UNL A   1      39.781  20.242  26.129  1.00  0.00    -0.246 OA
BRANCH  25  27
ATOM     27  C   UNL A   1      39.629  22.542  26.632  1.00  0.00     0.060 A 
ATOM     28  C   UNL A   1      39.163  23.763  26.129  1.00  0.00     0.016 A 
ATOM     29  C   UNL A   1      40.611  22.511  27.623  1.00  0.00     0.016 A 
ATOM     30  C   UNL A   1      39.697  24.963  26.608  1.00  0.00     0.010 A 
ATOM     31  C   UNL A   1      41.152  23.714  28.092  1.00  0.00     0.010 A 
ATOM     32  C   UNL A   1      40.715  24.945  27.571  1.00  0.00    -0.014 A 
BRANCH  32  33
ATOM     33  C   UNL A   1      41.395  26.204  27.969  1.00  0.00     0.031 A 
ATOM     34  C   UNL A   1      40.615  27.278  28.679  1.00  0.00     0.074 A 
ATOM     35  C   UNL A   1      42.698  26.390  27.690  1.00  0.00     0.049 A 
ATOM     36  N   UNL A   1      40.994  28.476  29.044  1.00  0.00    -0.248 NA
ATOM     37  C   UNL A   1      39.219  26.958  29.019  1.00  0.00     0.031 C 
ATOM     38  C   UNL A   1      43.570  25.408  27.044  1.00  0.00     0.029 A 
ATOM     39  N   UNL A   1      43.513  27.475  27.900  1.00  0.00    -0.354 N 
ATOM     40  C   UNL A   1      39.888  29.056  29.655  1.00  0.00     0.074 A 
ATOM     41  C   UNL A   1      38.816  28.084  29.592  1.00  0.00     0.031 C 
ATOM     42  C   UNL A   1      44.794  25.944  26.895  1.00  0.00     0.029 A 
ATOM     43  C   UNL A   1      44.781  27.320  27.392  1.00  0.00     0.049 A 
ATOM     44  H   UNL A   1      43.217  28.288  28.371  1.00  0.00     0.167 HD
ATOM     45  C   UNL A   1      39.777  30.286  30.216  1.00  0.00     0.034 A 
ATOM     46  C   UNL A   1      45.802  28.197  27.304  1.00  0.00     0.034 A 
ATOM     47  C   UNL A   1      40.848  31.251  30.267  1.00  0.00     0.049 A 
ATOM     48  C   UNL A   1      45.623  29.594  27.855  1.00  0.00     0.074 A 
ATOM     49  C   UNL A   1      40.849  32.508  30.849  1.00  0.00     0.029 A 
ATOM     50  N   UNL A   1      42.101  31.079  29.698  1.00  0.00    -0.354 N 
ATOM     51  N   UNL A   1      44.578  30.119  28.453  1.00  0.00    -0.248 NA
ATOM     52  C   UNL A   1      46.760  30.515  27.719  1.00  0.00     0.031 C 
ATOM     53  C   UNL A   1      42.075  33.121  30.570  1.00  0.00     0.029 A 
ATOM     54  C   UNL A   1      42.867  32.221  29.874  1.00  0.00     0.049 A 
ATOM     55  H   UNL A   1      42.404  30.264  29.236  1.00  0.00     0.167 HD
ATOM     56  C   UNL A   1      44.944  31.422  28.782  1.00  0.00     0.074 A 
ATOM     57  C   UNL A   1      46.309  31.597  28.334  1.00  0.00     0.031 C 
ATOM     58  C   UNL A   1      44.220  32.390  29.403  1.00  0.00     0.034 A 
BRANCH  45  59
ATOM     59  C   UNL A   1      38.433  30.680  30.776  1.00  0.00     0.023 A 
ATOM     60  C   UNL A   1      37.469  31.340  29.994  1.00  0.00     0.031 A 
ATOM     61  C   UNL A   1      38.113  30.380  32.111  1.00  0.00     0.131 A 
ATOM     62  C   UNL A   1      36.245  31.715  30.570  1.00  0.00     0.055 A 
ATOM     63  C   UNL A   1      36.871  30.704  32.660  1.00  0.00     0.041 A 
ATOM     64  F   UNL A   1      39.004  29.767  32.906  1.00  0.00    -0.206 F 
ATOM     65  C   UNL A   1      35.932  31.384  31.890  1.00  0.00     0.022 A 
BRANCH  62  66
ATOM     66  S   UNL A   1      35.099  32.729  29.594  1.00  0.00     0.124 S 
ATOM     67  O   UNL A   1      34.221  33.265  30.631  1.00  0.00    -0.237 OA
ATOM     68  O   UNL A   1      35.993  33.688  28.955  1.00  0.00    -0.237 OA
ATOM     69  O   UNL A   1      34.471  31.765  28.692  1.00  0.00    -0.744 OA
ENDBRANCH  62  66
ENDBRANCH  45  59
BRANCH  46  70
ATOM     70  C   UNL A   1      47.069  27.821  26.612  1.00  0.00     0.023 A 
ATOM     71  C   UNL A   1      47.203  27.956  25.222  1.00  0.00     0.031 A 
ATOM     72  C   UNL A   1      48.137  27.243  27.324  1.00  0.00     0.131 A 
ATOM     73  C   UNL A   1      48.350  27.465  24.578  1.00  0.00     0.055 A 
ATOM     74  C   UNL A   1      49.298  26.804  26.686  1.00  0.00     0.041 A 
ATOM     75  F   UNL A   1      48.069  27.095  28.657  1.00  0.00    -0.206 F 
ATOM     76  C   UNL A   1      49.402  26.901  25.302  1.00  0.00     0.022 A 
BRANCH  73  77
ATOM     77  S   UNL A   1      48.401  27.477  22.765  1.00  0.00     0.124 S 
ATOM     78  O   UNL A   1      48.403  26.051  22.461  1.00  0.00    -0.237 OA
ATOM     79  O   UNL A   1      47.179  28.203  22.435  1.00  0.00    -0.237 OA
ATOM     80  O   UNL A   1      49.644  28.182  22.466  1.00  0.00    -0.744 OA
ENDBRANCH  73  77
ENDBRANCH  46  70
BRANCH  58  81
ATOM     81  C   UNL A   1      44.907  33.710  29.649  1.00  0.00     0.023 A 
ATOM     82  C   UNL A   1      44.773  34.787  28.756  1.00  0.00     0.031 A 
ATOM     83  C   UNL A   1      45.715  33.890  30.786  1.00  0.00     0.131 A 
ATOM     84  C   UNL A   1      45.478  35.979  28.986  1.00  0.00     0.055 A 
ATOM     85  C   UNL A   1      46.370  35.096  31.040  1.00  0.00     0.041 A 
ATOM     86  F   UNL A   1      45.878  32.894  31.672  1.00  0.00    -0.206 F 
ATOM     87  C   UNL A   1      46.263  36.145  30.131  1.00  0.00     0.022 A 
BRANCH  84  88
ATOM     88  S   UNL A   1      45.416  37.286  27.730  1.00  0.00     0.124 S 
ATOM     89  O   UNL A   1      44.980  38.438  28.512  1.00  0.00    -0.237 OA
ATOM     90  O   UNL A   1      46.795  37.327  27.253  1.00  0.00    -0.237 OA
ATOM     91  O   UNL A   1      44.441  36.788  26.762  1.00  0.00    -0.744 OA
ENDBRANCH  84  88
ENDBRANCH  58  81
ENDBRANCH  32  33
ENDBRANCH  25  27
ENDBRANCH  24  25
ENDBRANCH  23  24
ENDBRANCH  22  23
ENDBRANCH  21  22
ENDBRANCH   1  21
TORSDOF 23
ENDMDL
MODEL 2
REMARK VINA RESULT:     -10.4      2.446      4.672
REMARK SMILES O=C(/C=C/c1ccc(O)c(O)c1)OCCOCCOCCOC(=O)c1ccc(-c2c3nc(c(-c4cc(S(=O)(=O)[O-])ccc4F)c4ccc([nH]4)c(-c4cc(S(=O)(=O)[O-])ccc4F)c4nc(c(-c5cc(S(=O)(=O)[O-])ccc5F)c5ccc2[nH]5)C=C4)C=C3)cc1
REMARK SMILES IDX 18 1 17 2 16 3 15 4 14 5 13 6 2 7 1 8 3 9 4 10 5 11 6 12
REMARK SMILES IDX 12 13 7 14 10 15 8 16 11 17 9 19 19 21 20 22 21 23 22 24
REMARK SMILES IDX 23 25 24 26 25 27 26 28 87 29 27 30 86 31 28 32 29 33 30 34
REMARK SMILES IDX 80 35 31 36 85 37 79 38 81 39 32 40 84 41 78 42 77 43 33 45
REMARK SMILES IDX 65 46 45 47 64 48 46 49 49 50 63 51 82 52 47 53 48 54 62 56
REMARK SMILES IDX 83 57 50 58 34 59 35 60 43 61 36 62 42 63 44 64 41 65 37 66
REMARK SMILES IDX 38 67 39 68 40 69 66 70 67 71 75 72 68 73 74 74 76 75 73 76
REMARK SMILES IDX 69 77 70 78 71 79 72 80 51 81 52 82 60 83 53 84 59 85 61 86
REMARK SMILES IDX 58 87 54 88 55 89 56 90 57 91
REMARK H PARENT 11 18 9 20 81 44 49 55
REMARK Flexibility Score: inf
ROOT
ATOM      1  C   UNL A   1      35.861  23.703  24.034  1.00  0.00     0.188 C 
ENDROOT
BRANCH   1   2
ATOM      2  C   UNL A   1      34.577  24.363  23.510  1.00  0.00     0.188 C 
BRANCH   2   3
ATOM      3  O   UNL A   1      34.150  23.954  22.227  1.00  0.00    -0.376 OA
BRANCH   3   4
ATOM      4  C   UNL A   1      32.911  23.277  22.061  1.00  0.00     0.202 C 
BRANCH   4   5
ATOM      5  C   UNL A   1      31.775  23.383  23.076  1.00  0.00     0.261 C 
BRANCH   5   6
ATOM      6  O   UNL A   1      31.419  22.308  23.986  1.00  0.00    -0.460 OA
BRANCH   6   7
ATOM      7  C   UNL A   1      31.845  21.875  25.184  1.00  0.00     0.330 C 
ATOM      8  O   UNL A   1      31.934  22.655  26.128  1.00  0.00    -0.247 OA
BRANCH   7   9
ATOM      9  C   UNL A   1      32.262  20.489  25.374  1.00  0.00     0.094 C 
ATOM     10  C   UNL A   1      32.764  19.737  24.388  1.00  0.00     0.016 C 
BRANCH  10  11
ATOM     11  C   UNL A   1      33.125  18.337  24.621  1.00  0.00    -0.021 A 
ATOM     12  C   UNL A   1      34.435  17.886  24.392  1.00  0.00     0.012 A 
ATOM     13  C   UNL A   1      32.156  17.436  25.079  1.00  0.00     0.058 A 
ATOM     14  C   UNL A   1      34.782  16.552  24.633  1.00  0.00     0.051 A 
ATOM     15  C   UNL A   1      32.510  16.116  25.317  1.00  0.00     0.157 A 
ATOM     16  C   UNL A   1      33.813  15.676  25.103  1.00  0.00     0.157 A 
BRANCH  15  17
ATOM     17  O   UNL A   1      31.560  15.242  25.769  1.00  0.00    -0.504 OA
ATOM     18  H   UNL A   1      31.280  15.275  26.662  1.00  0.00     0.293 HD
ENDBRANCH  15  17
BRANCH  16  19
ATOM     19  O   UNL A   1      34.092  14.365  25.374  1.00  0.00    -0.504 OA
ATOM     20  H   UNL A   1      33.954  13.712  24.717  1.00  0.00     0.293 HD
ENDBRANCH  16  19
ENDBRANCH  10  11
ENDBRANCH   7   9
ENDBRANCH   6   7
ENDBRANCH   5   6
ENDBRANCH   4   5
ENDBRANCH   3   4
ENDBRANCH   2   3
ENDBRANCH   1   2
BRANCH   1  21
ATOM     21  O   UNL A   1      35.777  22.903  25.205  1.00  0.00    -0.376 OA
BRANCH  21  22
ATOM     22  C   UNL A   1      35.666  21.490  25.033  1.00  0.00     0.202 C 
BRANCH  22  23
ATOM     23  C   UNL A   1      36.901  20.614  25.289  1.00  0.00     0.261 C 
BRANCH  23  24
ATOM     24  O   UNL A   1      38.151  21.272  25.002  1.00  0.00    -0.460 OA
BRANCH  24  25
ATOM     25  C   UNL A   1      39.145  21.024  25.892  1.00  0.00     0.338 C 
ATOM     26  O   UNL A   1      39.676  19.953  26.122  1.00  0.00    -0.246 OA
BRANCH  25  27
ATOM     27  C   UNL A   1      39.605  22.278  26.514  1.00  0.00     0.060 A 
ATOM     28  C   UNL A   1      39.171  23.494  25.973  1.00  0.00     0.016 A 
ATOM     29  C   UNL A   1      40.578  22.253  27.515  1.00  0.00     0.016 A 
ATOM     30  C   UNL A   1      39.728  24.695  26.424  1.00  0.00     0.010 A 
ATOM     31  C   UNL A   1      41.141  23.456  27.955  1.00  0.00     0.010 A 
ATOM     32  C   UNL A   1      40.737  24.682  27.396  1.00  0.00    -0.014 A 
BRANCH  32  33
ATOM     33  C   UNL A   1      41.441  25.936  27.764  1.00  0.00     0.031 A 
ATOM     34  C   UNL A   1      40.694  27.022  28.493  1.00  0.00     0.074 A 
ATOM     35  C   UNL A   1      42.737  26.108  27.443  1.00  0.00     0.049 A 
ATOM     36  N   UNL A   1      41.097  28.218  28.839  1.00  0.00    -0.248 NA
ATOM     37  C   UNL A   1      39.307  26.717  28.879  1.00  0.00     0.031 C 
ATOM     38  C   UNL A   1      43.578  25.114  26.776  1.00  0.00     0.029 A 
ATOM     39  N   UNL A   1      43.567  27.186  27.622  1.00  0.00    -0.354 N 
ATOM     40  C   UNL A   1      40.016  28.812  29.482  1.00  0.00     0.074 A 
ATOM     41  C   UNL A   1      38.933  27.850  29.458  1.00  0.00     0.031 C 
ATOM     42  C   UNL A   1      44.801  25.637  26.585  1.00  0.00     0.029 A 
ATOM     43  C   UNL A   1      44.818  27.015  27.074  1.00  0.00     0.049 A 
ATOM     44  H   UNL A   1      43.294  28.004  28.097  1.00  0.00     0.167 HD
ATOM     45  C   UNL A   1      39.934  30.046  30.039  1.00  0.00     0.034 A 
ATOM     46  C   UNL A   1      45.843  27.882  26.949  1.00  0.00     0.034 A 
ATOM     47  C   UNL A   1      41.015  31.001  30.050  1.00  0.00     0.049 A 
ATOM     48  C   UNL A   1      45.695  29.284  27.498  1.00  0.00     0.074 A 
ATOM     49  C   UNL A   1      41.047  32.261  30.624  1.00  0.00     0.029 A 
ATOM     50  N   UNL A   1      42.249  30.814  29.442  1.00  0.00    -0.354 N 
ATOM     51  N   UNL A   1      44.675  29.822  28.125  1.00  0.00    -0.248 NA
ATOM     52  C   UNL A   1      46.837  30.193  27.320  1.00  0.00     0.031 C 
ATOM     53  C   UNL A   1      42.270  32.860  30.303  1.00  0.00     0.029 A 
ATOM     54  C   UNL A   1      43.030  31.949  29.587  1.00  0.00     0.049 A 
ATOM     55  H   UNL A   1      42.528  29.993  28.976  1.00  0.00     0.167 HD
ATOM     56  C   UNL A   1      45.064  31.124  28.435  1.00  0.00     0.074 A 
ATOM     57  C   UNL A   1      46.416  31.283  27.943  1.00  0.00     0.031 C 
ATOM     58  C   UNL A   1      44.369  32.101  29.072  1.00  0.00     0.034 A 
BRANCH  45  59
ATOM     59  C   UNL A   1      38.613  30.457  30.638  1.00  0.00     0.023 A 
ATOM     60  C   UNL A   1      37.657  31.177  29.903  1.00  0.00     0.031 A 
ATOM     61  C   UNL A   1      38.306  30.109  31.966  1.00  0.00     0.131 A 
ATOM     62  C   UNL A   1      36.455  31.565  30.515  1.00  0.00     0.055 A 
ATOM     63  C   UNL A   1      37.083  30.446  32.550  1.00  0.00     0.041 A 
ATOM     64  F   UNL A   1      39.190  29.436  32.717  1.00  0.00    -0.206 F 
ATOM     65  C   UNL A   1      36.153  31.187  31.826  1.00  0.00     0.022 A 
BRANCH  62  66
ATOM     66  S   UNL A   1      35.325  32.654  29.605  1.00  0.00     0.124 S 
ATOM     67  O   UNL A   1      34.191  32.739  30.521  1.00  0.00    -0.237 OA
ATOM     68  O   UNL A   1      36.115  33.870  29.451  1.00  0.00    -0.237 OA
ATOM     69  O   UNL A   1      35.065  31.920  28.367  1.00  0.00    -0.744 OA
ENDBRANCH  62  66
ENDBRANCH  45  59
BRANCH  46  70
ATOM     70  C   UNL A   1      47.084  27.490  26.219  1.00  0.00     0.023 A 
ATOM     71  C   UNL A   1      47.262  27.816  24.866  1.00  0.00     0.031 A 
ATOM     72  C   UNL A   1      48.074  26.710  26.846  1.00  0.00     0.131 A 
ATOM     73  C   UNL A   1      48.371  27.316  24.166  1.00  0.00     0.055 A 
ATOM     74  C   UNL A   1      49.203  26.259  26.159  1.00  0.00     0.041 A 
ATOM     75  F   UNL A   1      47.962  26.374  28.141  1.00  0.00    -0.206 F 
ATOM     76  C   UNL A   1      49.348  26.549  24.806  1.00  0.00     0.022 A 
BRANCH  73  77
ATOM     77  S   UNL A   1      48.465  27.591  22.375  1.00  0.00     0.124 S 
ATOM     78  O   UNL A   1      47.170  28.202  22.102  1.00  0.00    -0.237 OA
ATOM     79  O   UNL A   1      49.627  28.468  22.268  1.00  0.00    -0.237 OA
ATOM     80  O   UNL A   1      48.649  26.246  21.836  1.00  0.00    -0.744 OA
ENDBRANCH  73  77
ENDBRANCH  46  70
BRANCH  58  81
ATOM     81  C   UNL A   1      45.076  33.416  29.290  1.00  0.00     0.023 A 
ATOM     82  C   UNL A   1      45.033  34.443  28.330  1.00  0.00     0.031 A 
ATOM     83  C   UNL A   1      45.813  33.642  30.467  1.00  0.00     0.131 A 
ATOM     84  C   UNL A   1      45.755  35.628  28.539  1.00  0.00     0.055 A 
ATOM     85  C   UNL A   1      46.484  34.844  30.695  1.00  0.00     0.041 A 
ATOM     86  F   UNL A   1      45.888  32.696  31.417  1.00  0.00    -0.206 F 
ATOM     87  C   UNL A   1      46.467  35.841  29.722  1.00  0.00     0.022 A 
BRANCH  84  88
ATOM     88  S   UNL A   1      45.814  36.860  27.210  1.00  0.00     0.124 S 
ATOM     89  O   UNL A   1      44.454  37.388  27.224  1.00  0.00    -0.237 OA
ATOM     90  O   UNL A   1      46.855  37.772  27.675  1.00  0.00    -0.237 OA
ATOM     91  O   UNL A   1      46.163  36.076  26.027  1.00  0.00    -0.744 OA
ENDBRANCH  84  88
ENDBRANCH  58  81
ENDBRANCH  32  33
ENDBRANCH  25  27
ENDBRANCH  24  25
ENDBRANCH  23  24
ENDBRANCH  22  23
ENDBRANCH  21  22
ENDBRANCH   1  21
TORSDOF 23
ENDMDL
MODEL 3
REMARK VINA RESULT:     -10.3      2.561      8.954
REMARK SMILES O=C(/C=C/c1ccc(O)c(O)c1)OCCOCCOCCOC(=O)c1ccc(-c2c3nc(c(-c4cc(S(=O)(=O)[O-])ccc4F)c4ccc([nH]4)c(-c4cc(S(=O)(=O)[O-])ccc4F)c4nc(c(-c5cc(S(=O)(=O)[O-])ccc5F)c5ccc2[nH]5)C=C4)C=C3)cc1
REMARK SMILES IDX 18 1 17 2 16 3 15 4 14 5 13 6 2 7 1 8 3 9 4 10 5 11 6 12
REMARK SMILES IDX 12 13 7 14 10 15 8 16 11 17 9 19 19 21 20 22 21 23 22 24
REMARK SMILES IDX 23 25 24 26 25 27 26 28 87 29 27 30 86 31 28 32 29 33 30 34
REMARK SMILES IDX 80 35 31 36 85 37 79 38 81 39 32 40 84 41 78 42 77 43 33 45
REMARK SMILES IDX 65 46 45 47 64 48 46 49 49 50 63 51 82 52 47 53 48 54 62 56
REMARK SMILES IDX 83 57 50 58 34 59 35 60 43 61 36 62 42 63 44 64 41 65 37 66
REMARK SMILES IDX 38 67 39 68 40 69 66 70 67 71 75 72 68 73 74 74 76 75 73 76
REMARK SMILES IDX 69 77 70 78 71 79 72 80 51 81 52 82 60 83 53 84 59 85 61 86
REMARK SMILES IDX 58 87 54 88 55 89 56 90 57 91
REMARK H PARENT 11 18 9 20 81 44 49 55
REMARK Flexibility Score: inf
ROOT
ATOM      1  C   UNL A   1      35.480  23.041  26.378  1.00  0.00     0.188 C 
ENDROOT
BRANCH   1   2
ATOM      2  C   UNL A   1      34.687  23.981  25.458  1.00  0.00     0.188 C 
BRANCH   2   3
ATOM      3  O   UNL A   1      33.648  24.715  26.070  1.00  0.00    -0.376 OA
BRANCH   3   4
ATOM      4  C   UNL A   1      32.352  24.148  26.213  1.00  0.00     0.202 C 
BRANCH   4   5
ATOM      5  C   UNL A   1      31.535  23.655  25.021  1.00  0.00     0.261 C 
BRANCH   5   6
ATOM      6  O   UNL A   1      31.511  22.266  24.594  1.00  0.00    -0.460 OA
BRANCH   6   7
ATOM      7  C   UNL A   1      32.387  21.409  24.043  1.00  0.00     0.330 C 
ATOM      8  O   UNL A   1      33.184  21.799  23.196  1.00  0.00    -0.247 OA
BRANCH   7   9
ATOM      9  C   UNL A   1      32.372  19.993  24.398  1.00  0.00     0.094 C 
ATOM     10  C   UNL A   1      33.487  19.267  24.544  1.00  0.00     0.016 C 
BRANCH  10  11
ATOM     11  C   UNL A   1      33.417  17.838  24.856  1.00  0.00    -0.021 A 
ATOM     12  C   UNL A   1      32.193  17.236  25.191  1.00  0.00     0.012 A 
ATOM     13  C   UNL A   1      34.580  17.059  24.819  1.00  0.00     0.058 A 
ATOM     14  C   UNL A   1      32.125  15.867  25.471  1.00  0.00     0.051 A 
ATOM     15  C   UNL A   1      34.503  15.703  25.095  1.00  0.00     0.157 A 
ATOM     16  C   UNL A   1      33.285  15.107  25.413  1.00  0.00     0.157 A 
BRANCH  15  17
ATOM     17  O   UNL A   1      35.641  14.947  25.053  1.00  0.00    -0.504 OA
ATOM     18  H   UNL A   1      35.739  14.214  25.628  1.00  0.00     0.293 HD
ENDBRANCH  15  17
BRANCH  16  19
ATOM     19  O   UNL A   1      33.282  13.762  25.659  1.00  0.00    -0.504 OA
ATOM     20  H   UNL A   1      33.172  13.446  26.535  1.00  0.00     0.293 HD
ENDBRANCH  16  19
ENDBRANCH  10  11
ENDBRANCH   7   9
ENDBRANCH   6   7
ENDBRANCH   5   6
ENDBRANCH   4   5
ENDBRANCH   3   4
ENDBRANCH   2   3
ENDBRANCH   1   2
BRANCH   1  21
ATOM     21  O   UNL A   1      35.519  21.658  26.054  1.00  0.00    -0.376 OA
BRANCH  21  22
ATOM     22  C   UNL A   1      36.234  21.274  24.880  1.00  0.00     0.202 C 
BRANCH  22  23
ATOM     23  C   UNL A   1      37.764  21.152  24.951  1.00  0.00     0.261 C 
BRANCH  23  24
ATOM     24  O   UNL A   1      38.265  20.900  26.279  1.00  0.00    -0.460 OA
BRANCH  24  25
ATOM     25  C   UNL A   1      39.613  21.005  26.410  1.00  0.00     0.338 C 
ATOM     26  O   UNL A   1      40.448  20.174  26.103  1.00  0.00    -0.246 OA
BRANCH  25  27
ATOM     27  C   UNL A   1      39.981  22.346  26.896  1.00  0.00     0.060 A 
ATOM     28  C   UNL A   1      39.281  23.454  26.404  1.00  0.00     0.016 A 
ATOM     29  C   UNL A   1      41.106  22.519  27.704  1.00  0.00     0.016 A 
ATOM     30  C   UNL A   1      39.721  24.746  26.706  1.00  0.00     0.010 A 
ATOM     31  C   UNL A   1      41.550  23.814  27.995  1.00  0.00     0.010 A 
ATOM     32  C   UNL A   1      40.875  24.935  27.478  1.00  0.00    -0.014 A 
BRANCH  32  33
ATOM     33  C   UNL A   1      41.436  26.296  27.672  1.00  0.00     0.031 A 
ATOM     34  C   UNL A   1      42.790  26.629  27.104  1.00  0.00     0.074 A 
ATOM     35  C   UNL A   1      40.744  27.225  28.356  1.00  0.00     0.049 A 
ATOM     36  N   UNL A   1      43.492  27.727  27.223  1.00  0.00    -0.248 NA
ATOM     37  C   UNL A   1      43.439  25.582  26.298  1.00  0.00     0.031 C 
ATOM     38  C   UNL A   1      39.406  27.036  28.917  1.00  0.00     0.029 A 
ATOM     39  N   UNL A   1      41.078  28.509  28.709  1.00  0.00    -0.354 N 
ATOM     40  C   UNL A   1      44.667  27.507  26.510  1.00  0.00     0.074 A 
ATOM     41  C   UNL A   1      44.589  26.160  25.981  1.00  0.00     0.031 C 
ATOM     42  C   UNL A   1      39.041  28.159  29.560  1.00  0.00     0.029 A 
ATOM     43  C   UNL A   1      40.134  29.128  29.496  1.00  0.00     0.049 A 
ATOM     44  H   UNL A   1      41.913  28.946  28.425  1.00  0.00     0.167 HD
ATOM     45  C   UNL A   1      45.711  28.349  26.317  1.00  0.00     0.034 A 
ATOM     46  C   UNL A   1      40.164  30.322  30.122  1.00  0.00     0.034 A 
ATOM     47  C   UNL A   1      45.783  29.685  26.856  1.00  0.00     0.049 A 
ATOM     48  C   UNL A   1      41.381  31.206  29.965  1.00  0.00     0.074 A 
ATOM     49  C   UNL A   1      46.780  30.631  26.684  1.00  0.00     0.029 A 
ATOM     50  N   UNL A   1      44.834  30.259  27.689  1.00  0.00    -0.354 N 
ATOM     51  N   UNL A   1      42.473  30.993  29.267  1.00  0.00    -0.248 NA
ATOM     52  C   UNL A   1      41.369  32.490  30.681  1.00  0.00     0.031 C 
ATOM     53  C   UNL A   1      46.467  31.747  27.468  1.00  0.00     0.029 A 
ATOM     54  C   UNL A   1      45.241  31.526  28.076  1.00  0.00     0.049 A 
ATOM     55  H   UNL A   1      43.993  29.829  27.965  1.00  0.00     0.167 HD
ATOM     56  C   UNL A   1      43.264  32.127  29.445  1.00  0.00     0.074 A 
ATOM     57  C   UNL A   1      42.518  33.026  30.298  1.00  0.00     0.031 C 
ATOM     58  C   UNL A   1      44.496  32.404  28.945  1.00  0.00     0.034 A 
BRANCH  45  59
ATOM     59  C   UNL A   1      46.890  27.832  25.530  1.00  0.00     0.023 A 
ATOM     60  C   UNL A   1      47.048  28.109  24.162  1.00  0.00     0.031 A 
ATOM     61  C   UNL A   1      47.875  27.057  26.169  1.00  0.00     0.131 A 
ATOM     62  C   UNL A   1      48.146  27.577  23.466  1.00  0.00     0.055 A 
ATOM     63  C   UNL A   1      48.994  26.582  25.484  1.00  0.00     0.041 A 
ATOM     64  F   UNL A   1      47.763  26.749  27.470  1.00  0.00    -0.206 F 
ATOM     65  C   UNL A   1      49.130  26.834  24.122  1.00  0.00     0.022 A 
BRANCH  62  66
ATOM     66  S   UNL A   1      48.223  27.793  21.667  1.00  0.00     0.124 S 
ATOM     67  O   UNL A   1      46.902  28.344  21.377  1.00  0.00    -0.237 OA
ATOM     68  O   UNL A   1      49.347  28.708  21.506  1.00  0.00    -0.237 OA
ATOM     69  O   UNL A   1      48.448  26.437  21.168  1.00  0.00    -0.744 OA
ENDBRANCH  62  66
ENDBRANCH  45  59
BRANCH  46  70
ATOM     70  C   UNL A   1      39.043  30.741  31.012  1.00  0.00     0.023 A 
ATOM     71  C   UNL A   1      37.915  31.397  30.498  1.00  0.00     0.031 A 
ATOM     72  C   UNL A   1      39.124  30.562  32.407  1.00  0.00     0.131 A 
ATOM     73  C   UNL A   1      36.941  31.904  31.372  1.00  0.00     0.055 A 
ATOM     74  C   UNL A   1      38.126  31.022  33.269  1.00  0.00     0.041 A 
ATOM     75  F   UNL A   1      40.176  29.934  32.956  1.00  0.00    -0.206 F 
ATOM     76  C   UNL A   1      37.034  31.712  32.752  1.00  0.00     0.022 A 
BRANCH  73  77
ATOM     77  S   UNL A   1      35.602  32.918  30.687  1.00  0.00     0.124 S 
ATOM     78  O   UNL A   1      36.045  34.264  31.029  1.00  0.00    -0.237 OA
ATOM     79  O   UNL A   1      35.652  32.564  29.272  1.00  0.00    -0.237 OA
ATOM     80  O   UNL A   1      34.420  32.447  31.405  1.00  0.00    -0.744 OA
ENDBRANCH  73  77
ENDBRANCH  46  70
BRANCH  58  81
ATOM     81  C   UNL A   1      45.094  33.744  29.296  1.00  0.00     0.023 A 
ATOM     82  C   UNL A   1      44.756  34.909  28.584  1.00  0.00     0.031 A 
ATOM     83  C   UNL A   1      46.022  33.856  30.346  1.00  0.00     0.131 A 
ATOM     84  C   UNL A   1      45.380  36.126  28.898  1.00  0.00     0.055 A 
ATOM     85  C   UNL A   1      46.598  35.080  30.690  1.00  0.00     0.041 A 
ATOM     86  F   UNL A   1      46.381  32.776  31.059  1.00  0.00    -0.206 F 
ATOM     87  C   UNL A   1      46.287  36.221  29.957  1.00  0.00     0.022 A 
BRANCH  84  88
ATOM     88  S   UNL A   1      45.048  37.572  27.854  1.00  0.00     0.124 S 
ATOM     89  O   UNL A   1      46.151  37.519  26.901  1.00  0.00    -0.237 OA
ATOM     90  O   UNL A   1      43.725  37.270  27.314  1.00  0.00    -0.237 OA
ATOM     91  O   UNL A   1      45.091  38.692  28.793  1.00  0.00    -0.744 OA
ENDBRANCH  84  88
ENDBRANCH  58  81
ENDBRANCH  32  33
ENDBRANCH  25  27
ENDBRANCH  24  25
ENDBRANCH  23  24
ENDBRANCH  22  23
ENDBRANCH  21  22
ENDBRANCH   1  21
TORSDOF 23
ENDMDL
