MODEL 1
REMARK VINA RESULT:     -10.0      0.000      0.000
REMARK SMILES O=C(N[C@@H](Cc1ccc(O)cc1)C(=O)N[C@@H](Cc1c[nH]c2ccccc12)C(=O)N[C@@H](CO)C(=O)OCCOCCOCCOC(=O)c1ccc(-c2c3nc(c(-c4cc(S(=O)(=O)[O-])ccc4F)c4ccc([nH]4)c(-c4cc(S(=O)(=O)[O-])ccc4F)c4nc(c(-c5cc(S(=O)(=O)[O-])ccc5F)c5ccc2[nH]5)C=C4)C=C3)cc1)c1ccc(F)cc1
REMARK SMILES IDX 37 1 36 2 35 3 33 4 34 5 30 6 29 7 27 8 28 9 16 11 15 12
REMARK SMILES IDX 13 13 14 14 4 16 3 17 1 18 2 19 110 21 111 22 116 23 112 24
REMARK SMILES IDX 115 25 113 26 114 27 5 28 6 29 7 30 12 31 8 32 11 33 9 34
REMARK SMILES IDX 10 35 17 37 18 38 19 39 26 40 20 41 21 42 25 43 22 45 24 46
REMARK SMILES IDX 23 47 31 48 32 49 38 51 39 52 40 53 41 54 42 55 43 56 44 57
REMARK SMILES IDX 45 58 46 59 47 60 48 61 109 62 49 63 108 64 50 65 51 66
REMARK SMILES IDX 52 67 102 68 53 69 107 70 101 71 103 72 54 73 106 74 100 75
REMARK SMILES IDX 99 76 55 78 87 79 67 80 86 81 68 82 71 83 85 84 104 85 69 86
REMARK SMILES IDX 70 87 84 89 105 90 72 91 56 92 57 93 65 94 58 95 64 96 66 97
REMARK SMILES IDX 63 98 59 99 60 100 61 101 62 102 88 103 89 104 97 105 90 106
REMARK SMILES IDX 96 107 98 108 95 109 91 110 92 111 93 112 94 113 73 114
REMARK SMILES IDX 74 115 82 116 75 117 81 118 83 119 80 120 76 121 77 122
REMARK SMILES IDX 78 123 79 124
REMARK H PARENT 29 10 15 15 3 20 10 36 20 44 32 50 103 77 71 88
REMARK Flexibility Score: inf
ROOT
ATOM      1  C   UNL A   1      35.813  23.473  23.809  1.00  0.00     0.202 C 
ENDROOT
BRANCH   1   2
ATOM      2  C   UNL A   1      35.114  22.978  22.527  1.00  0.00     0.261 C 
BRANCH   2   3
ATOM      3  O   UNL A   1      34.105  23.908  22.075  1.00  0.00    -0.462 OA
BRANCH   3   4
ATOM      4  C   UNL A   1      32.945  23.361  21.608  1.00  0.00     0.331 C 
ATOM      5  O   UNL A   1      32.864  22.234  21.127  1.00  0.00    -0.250 OA
BRANCH   4   6
ATOM      6  C   UNL A   1      31.774  24.382  21.608  1.00  0.00     0.218 C 
BRANCH   6   7
ATOM      7  N   UNL A   1      30.987  24.395  22.855  1.00  0.00    -0.339 N 
ATOM      8  C   UNL A   1      31.312  24.863  24.095  1.00  0.00     0.243 C 
ATOM      9  O   UNL A   1      30.409  25.428  24.720  1.00  0.00    -0.273 OA
ATOM     10  H   UNL A   1      30.087  24.005  22.781  1.00  0.00     0.164 HD
BRANCH   8  11
ATOM     11  C   UNL A   1      32.705  24.815  24.745  1.00  0.00     0.175 C 
BRANCH  11  12
ATOM     12  N   UNL A   1      33.599  25.918  24.414  1.00  0.00    -0.342 N 
ATOM     13  C   UNL A   1      33.379  27.266  24.470  1.00  0.00     0.243 C 
ATOM     14  O   UNL A   1      34.394  27.975  24.446  1.00  0.00    -0.273 OA
ATOM     15  H   UNL A   1      34.495  25.653  24.101  1.00  0.00     0.164 HD
BRANCH  13  16
ATOM     16  C   UNL A   1      31.984  27.937  24.679  1.00  0.00     0.176 C 
BRANCH  16  17
ATOM     17  N   UNL A   1      31.353  27.756  25.990  1.00  0.00    -0.340 N 
ATOM     18  O   UNL A   1      31.034  27.906  28.191  1.00  0.00    -0.269 OA
ATOM     19  C   UNL A   1      31.627  28.334  27.206  1.00  0.00     0.251 C 
ATOM     20  H   UNL A   1      30.608  27.112  26.000  1.00  0.00     0.164 HD
BRANCH  19  21
ATOM     21  C   UNL A   1      32.671  29.377  27.357  1.00  0.00     0.040 A 
ATOM     22  C   UNL A   1      32.382  30.744  27.259  1.00  0.00     0.017 A 
ATOM     23  C   UNL A   1      33.984  28.961  27.622  1.00  0.00     0.017 A 
ATOM     24  C   UNL A   1      33.419  31.680  27.319  1.00  0.00     0.040 A 
ATOM     25  C   UNL A   1      35.015  29.901  27.702  1.00  0.00     0.040 A 
ATOM     26  C   UNL A   1      34.726  31.250  27.528  1.00  0.00     0.123 A 
ATOM     27  F   UNL A   1      35.717  32.150  27.562  1.00  0.00    -0.207 F 
ENDBRANCH  19  21
ENDBRANCH  16  17
BRANCH  16  28
ATOM     28  C   UNL A   1      31.881  29.383  24.154  1.00  0.00     0.070 C 
BRANCH  28  29
ATOM     29  C   UNL A   1      30.564  29.840  23.581  1.00  0.00    -0.045 A 
ATOM     30  C   UNL A   1      29.924  30.989  24.070  1.00  0.00     0.007 A 
ATOM     31  C   UNL A   1      29.931  29.080  22.585  1.00  0.00     0.007 A 
ATOM     32  C   UNL A   1      28.684  31.381  23.555  1.00  0.00     0.046 A 
ATOM     33  C   UNL A   1      28.690  29.467  22.080  1.00  0.00     0.046 A 
ATOM     34  C   UNL A   1      28.085  30.624  22.555  1.00  0.00     0.115 A 
BRANCH  34  35
ATOM     35  O   UNL A   1      26.903  31.009  21.994  1.00  0.00    -0.508 OA
ATOM     36  H   UNL A   1      26.595  31.887  22.106  1.00  0.00     0.293 HD
ENDBRANCH  34  35
ENDBRANCH  28  29
ENDBRANCH  16  28
ENDBRANCH  13  16
ENDBRANCH  11  12
BRANCH  11  37
ATOM     37  C   UNL A   1      32.694  24.418  26.230  1.00  0.00     0.072 C 
BRANCH  37  38
ATOM     38  C   UNL A   1      33.263  23.077  26.559  1.00  0.00    -0.020 A 
ATOM     39  C   UNL A   1      34.145  22.780  27.577  1.00  0.00     0.087 A 
ATOM     40  C   UNL A   1      33.041  21.855  25.838  1.00  0.00     0.003 A 
ATOM     41  N   UNL A   1      34.378  21.430  27.565  1.00  0.00    -0.361 N 
ATOM     42  C   UNL A   1      33.709  20.839  26.520  1.00  0.00     0.046 A 
ATOM     43  C   UNL A   1      32.333  21.512  24.667  1.00  0.00     0.010 A 
ATOM     44  H   UNL A   1      34.945  20.952  28.213  1.00  0.00     0.166 HD
ATOM     45  C   UNL A   1      33.656  19.498  26.121  1.00  0.00     0.026 A 
ATOM     46  C   UNL A   1      32.300  20.184  24.231  1.00  0.00     0.001 A 
ATOM     47  C   UNL A   1      32.938  19.190  24.961  1.00  0.00     0.002 A 
ENDBRANCH  37  38
ENDBRANCH  11  37
ENDBRANCH   8  11
ENDBRANCH   6   7
BRANCH   6  48
ATOM     48  C   UNL A   1      32.385  25.758  21.332  1.00  0.00     0.193 C 
BRANCH  48  49
ATOM     49  O   UNL A   1      32.885  25.857  19.996  1.00  0.00    -0.394 OA
ATOM     50  H   UNL A   1      32.409  25.234  19.426  1.00  0.00     0.210 HD
ENDBRANCH  48  49
ENDBRANCH   6  48
ENDBRANCH   4   6
ENDBRANCH   3   4
ENDBRANCH   2   3
ENDBRANCH   1   2
BRANCH   1  51
ATOM     51  O   UNL A   1      37.114  22.927  24.048  1.00  0.00    -0.376 OA
BRANCH  51  52
ATOM     52  C   UNL A   1      37.035  21.615  24.611  1.00  0.00     0.188 C 
BRANCH  52  53
ATOM     53  C   UNL A   1      37.929  21.417  25.814  1.00  0.00     0.188 C 
BRANCH  53  54
ATOM     54  O   UNL A   1      39.224  20.962  25.437  1.00  0.00    -0.376 OA
BRANCH  54  55
ATOM     55  C   UNL A   1      40.099  20.874  26.556  1.00  0.00     0.202 C 
BRANCH  55  56
ATOM     56  C   UNL A   1      40.874  19.548  26.575  1.00  0.00     0.261 C 
BRANCH  56  57
ATOM     57  O   UNL A   1      41.658  19.329  25.379  1.00  0.00    -0.460 OA
BRANCH  57  58
ATOM     58  C   UNL A   1      43.008  19.458  25.497  1.00  0.00     0.338 C 
ATOM     59  O   UNL A   1      43.836  18.575  25.347  1.00  0.00    -0.246 OA
BRANCH  58  60
ATOM     60  C   UNL A   1      43.367  20.889  25.715  1.00  0.00     0.060 A 
ATOM     61  C   UNL A   1      43.756  21.290  27.000  1.00  0.00     0.016 A 
ATOM     62  C   UNL A   1      43.316  21.841  24.689  1.00  0.00     0.016 A 
ATOM     63  C   UNL A   1      44.093  22.625  27.258  1.00  0.00     0.010 A 
ATOM     64  C   UNL A   1      43.660  23.178  24.949  1.00  0.00     0.010 A 
ATOM     65  C   UNL A   1      44.058  23.581  26.234  1.00  0.00    -0.014 A 
BRANCH  65  66
ATOM     66  C   UNL A   1      44.306  25.017  26.543  1.00  0.00     0.031 A 
ATOM     67  C   UNL A   1      45.672  25.583  26.289  1.00  0.00     0.074 A 
ATOM     68  C   UNL A   1      43.335  25.824  27.011  1.00  0.00     0.049 A 
ATOM     69  N   UNL A   1      46.154  26.765  26.575  1.00  0.00    -0.248 NA
ATOM     70  C   UNL A   1      46.625  24.680  25.628  1.00  0.00     0.031 C 
ATOM     71  C   UNL A   1      41.940  25.442  27.201  1.00  0.00     0.029 A 
ATOM     72  N   UNL A   1      43.373  27.142  27.406  1.00  0.00    -0.354 N 
ATOM     73  C   UNL A   1      47.467  26.756  26.118  1.00  0.00     0.074 A 
ATOM     74  C   UNL A   1      47.709  25.436  25.570  1.00  0.00     0.031 C 
ATOM     75  C   UNL A   1      41.251  26.501  27.661  1.00  0.00     0.029 A 
ATOM     76  C   UNL A   1      42.168  27.620  27.870  1.00  0.00     0.049 A 
ATOM     77  H   UNL A   1      44.188  27.692  27.360  1.00  0.00     0.167 HD
ATOM     78  C   UNL A   1      48.389  27.751  26.156  1.00  0.00     0.034 A 
ATOM     79  C   UNL A   1      41.854  28.806  28.435  1.00  0.00     0.034 A 
ATOM     80  C   UNL A   1      48.152  29.045  26.747  1.00  0.00     0.049 A 
ATOM     81  C   UNL A   1      42.947  29.829  28.652  1.00  0.00     0.074 A 
ATOM     82  C   UNL A   1      49.028  30.109  26.878  1.00  0.00     0.029 A 
ATOM     83  N   UNL A   1      46.956  29.445  27.331  1.00  0.00    -0.354 N 
ATOM     84  N   UNL A   1      44.202  29.796  28.266  1.00  0.00    -0.248 NA
ATOM     85  C   UNL A   1      42.584  31.040  29.404  1.00  0.00     0.031 C 
ATOM     86  C   UNL A   1      48.393  31.112  27.618  1.00  0.00     0.029 A 
ATOM     87  C   UNL A   1      47.090  30.714  27.876  1.00  0.00     0.049 A 
ATOM     88  H   UNL A   1      46.133  28.906  27.356  1.00  0.00     0.167 HD
ATOM     89  C   UNL A   1      44.771  30.988  28.712  1.00  0.00     0.074 A 
ATOM     90  C   UNL A   1      43.721  31.724  29.385  1.00  0.00     0.031 C 
ATOM     91  C   UNL A   1      46.046  31.434  28.571  1.00  0.00     0.034 A 
BRANCH  78  92
ATOM     92  C   UNL A   1      49.765  27.411  25.635  1.00  0.00     0.023 A 
ATOM     93  C   UNL A   1      50.132  27.658  24.300  1.00  0.00     0.031 A 
ATOM     94  C   UNL A   1      50.679  26.727  26.455  1.00  0.00     0.131 A 
ATOM     95  C   UNL A   1      51.327  27.122  23.797  1.00  0.00     0.055 A 
ATOM     96  C   UNL A   1      51.911  26.282  25.973  1.00  0.00     0.041 A 
ATOM     97  F   UNL A   1      50.373  26.440  27.731  1.00  0.00    -0.206 F 
ATOM     98  C   UNL A   1      52.230  26.457  24.629  1.00  0.00     0.022 A 
BRANCH  95  99
ATOM     99  S   UNL A   1      51.582  27.119  21.999  1.00  0.00     0.124 S 
ATOM    100  O   UNL A   1      50.376  26.439  21.528  1.00  0.00    -0.237 OA
ATOM    101  O   UNL A   1      51.675  28.541  21.689  1.00  0.00    -0.237 OA
ATOM    102  O   UNL A   1      52.818  26.359  21.830  1.00  0.00    -0.744 OA
ENDBRANCH  95  99
ENDBRANCH  78  92
BRANCH  79 103
ATOM    103  C   UNL A   1      40.467  29.078  28.924  1.00  0.00     0.023 A 
ATOM    104  C   UNL A   1      40.143  28.980  30.288  1.00  0.00     0.031 A 
ATOM    105  C   UNL A   1      39.428  29.371  28.023  1.00  0.00     0.131 A 
ATOM    106  C   UNL A   1      38.812  29.143  30.706  1.00  0.00     0.055 A 
ATOM    107  C   UNL A   1      38.115  29.582  28.450  1.00  0.00     0.041 A 
ATOM    108  F   UNL A   1      39.672  29.455  26.705  1.00  0.00    -0.206 F 
ATOM    109  C   UNL A   1      37.799  29.459  29.798  1.00  0.00     0.022 A 
BRANCH 106 110
ATOM    110  S   UNL A   1      38.402  28.874  32.454  1.00  0.00     0.124 S 
ATOM    111  O   UNL A   1      38.599  27.434  32.588  1.00  0.00    -0.237 OA
ATOM    112  O   UNL A   1      39.377  29.722  33.131  1.00  0.00    -0.237 OA
ATOM    113  O   UNL A   1      37.015  29.326  32.553  1.00  0.00    -0.744 OA
ENDBRANCH 106 110
ENDBRANCH  79 103
BRANCH  91 114
ATOM    114  C   UNL A   1      46.373  32.798  29.134  1.00  0.00     0.023 A 
ATOM    115  C   UNL A   1      46.129  33.980  28.410  1.00  0.00     0.031 A 
ATOM    116  C   UNL A   1      46.919  32.919  30.426  1.00  0.00     0.131 A 
ATOM    117  C   UNL A   1      46.462  35.224  28.967  1.00  0.00     0.055 A 
ATOM    118  C   UNL A   1      47.196  34.162  30.996  1.00  0.00     0.041 A 
ATOM    119  F   UNL A   1      47.179  31.826  31.162  1.00  0.00    -0.206 F 
ATOM    120  C   UNL A   1      46.975  35.324  30.263  1.00  0.00     0.022 A 
BRANCH 117 121
ATOM    121  S   UNL A   1      46.279  36.717  27.951  1.00  0.00     0.124 S 
ATOM    122  O   UNL A   1      47.419  37.520  28.383  1.00  0.00    -0.237 OA
ATOM    123  O   UNL A   1      46.350  36.185  26.595  1.00  0.00    -0.237 OA
ATOM    124  O   UNL A   1      44.970  37.240  28.343  1.00  0.00    -0.744 OA
ENDBRANCH 117 121
ENDBRANCH  91 114
ENDBRANCH  65  66
ENDBRANCH  58  60
ENDBRANCH  57  58
ENDBRANCH  56  57
ENDBRANCH  55  56
ENDBRANCH  54  55
ENDBRANCH  53  54
ENDBRANCH  52  53
ENDBRANCH  51  52
ENDBRANCH   1  51
TORSDOF 33
ENDMDL
MODEL 2
REMARK VINA RESULT:      -9.2      1.724      2.340
REMARK SMILES O=C(N[C@@H](Cc1ccc(O)cc1)C(=O)N[C@@H](Cc1c[nH]c2ccccc12)C(=O)N[C@@H](CO)C(=O)OCCOCCOCCOC(=O)c1ccc(-c2c3nc(c(-c4cc(S(=O)(=O)[O-])ccc4F)c4ccc([nH]4)c(-c4cc(S(=O)(=O)[O-])ccc4F)c4nc(c(-c5cc(S(=O)(=O)[O-])ccc5F)c5ccc2[nH]5)C=C4)C=C3)cc1)c1ccc(F)cc1
REMARK SMILES IDX 37 1 36 2 35 3 33 4 34 5 30 6 29 7 27 8 28 9 16 11 15 12
REMARK SMILES IDX 13 13 14 14 4 16 3 17 1 18 2 19 110 21 111 22 116 23 112 24
REMARK SMILES IDX 115 25 113 26 114 27 5 28 6 29 7 30 12 31 8 32 11 33 9 34
REMARK SMILES IDX 10 35 17 37 18 38 19 39 26 40 20 41 21 42 25 43 22 45 24 46
REMARK SMILES IDX 23 47 31 48 32 49 38 51 39 52 40 53 41 54 42 55 43 56 44 57
REMARK SMILES IDX 45 58 46 59 47 60 48 61 109 62 49 63 108 64 50 65 51 66
REMARK SMILES IDX 52 67 102 68 53 69 107 70 101 71 103 72 54 73 106 74 100 75
REMARK SMILES IDX 99 76 55 78 87 79 67 80 86 81 68 82 71 83 85 84 104 85 69 86
REMARK SMILES IDX 70 87 84 89 105 90 72 91 56 92 57 93 65 94 58 95 64 96 66 97
REMARK SMILES IDX 63 98 59 99 60 100 61 101 62 102 88 103 89 104 97 105 90 106
REMARK SMILES IDX 96 107 98 108 95 109 91 110 92 111 93 112 94 113 73 114
REMARK SMILES IDX 74 115 82 116 75 117 81 118 83 119 80 120 76 121 77 122
REMARK SMILES IDX 78 123 79 124
REMARK H PARENT 29 10 15 15 3 20 10 36 20 44 32 50 103 77 71 88
REMARK Flexibility Score: inf
ROOT
ATOM      1  C   UNL A   1      35.844  23.329  23.726  1.00  0.00     0.202 C 
ENDROOT
BRANCH   1   2
ATOM      2  C   UNL A   1      34.889  23.114  22.535  1.00  0.00     0.261 C 
BRANCH   2   3
ATOM      3  O   UNL A   1      33.877  24.143  22.469  1.00  0.00    -0.462 OA
BRANCH   3   4
ATOM      4  C   UNL A   1      33.051  24.110  21.383  1.00  0.00     0.331 C 
ATOM      5  O   UNL A   1      33.308  23.506  20.346  1.00  0.00    -0.250 OA
BRANCH   4   6
ATOM      6  C   UNL A   1      31.825  25.050  21.551  1.00  0.00     0.218 C 
BRANCH   6   7
ATOM      7  N   UNL A   1      30.967  24.720  22.703  1.00  0.00    -0.339 N 
ATOM      8  C   UNL A   1      31.205  24.846  24.041  1.00  0.00     0.243 C 
ATOM      9  O   UNL A   1      30.250  25.212  24.734  1.00  0.00    -0.273 OA
ATOM     10  H   UNL A   1      30.085  24.351  22.471  1.00  0.00     0.164 HD
BRANCH   8  11
ATOM     11  C   UNL A   1      32.558  24.647  24.744  1.00  0.00     0.175 C 
BRANCH  11  12
ATOM     12  N   UNL A   1      33.528  25.721  24.571  1.00  0.00    -0.342 N 
ATOM     13  C   UNL A   1      33.364  27.073  24.699  1.00  0.00     0.243 C 
ATOM     14  O   UNL A   1      34.407  27.729  24.816  1.00  0.00    -0.273 OA
ATOM     15  H   UNL A   1      34.436  25.432  24.325  1.00  0.00     0.164 HD
BRANCH  13  16
ATOM     16  C   UNL A   1      31.987  27.799  24.825  1.00  0.00     0.176 C 
BRANCH  16  17
ATOM     17  N   UNL A   1      31.347  27.780  26.144  1.00  0.00    -0.340 N 
ATOM     18  O   UNL A   1      31.055  28.123  28.327  1.00  0.00    -0.269 OA
ATOM     19  C   UNL A   1      31.683  28.416  27.314  1.00  0.00     0.251 C 
ATOM     20  H   UNL A   1      30.542  27.216  26.200  1.00  0.00     0.164 HD
BRANCH  19  21
ATOM     21  C   UNL A   1      32.827  29.357  27.391  1.00  0.00     0.040 A 
ATOM     22  C   UNL A   1      34.143  28.920  27.590  1.00  0.00     0.017 A 
ATOM     23  C   UNL A   1      32.563  30.727  27.244  1.00  0.00     0.017 A 
ATOM     24  C   UNL A   1      35.170  29.856  27.746  1.00  0.00     0.040 A 
ATOM     25  C   UNL A   1      33.597  31.658  27.381  1.00  0.00     0.040 A 
ATOM     26  C   UNL A   1      34.886  31.214  27.652  1.00  0.00     0.123 A 
ATOM     27  F   UNL A   1      35.871  32.105  27.825  1.00  0.00    -0.207 F 
ENDBRANCH  19  21
ENDBRANCH  16  17
BRANCH  16  28
ATOM     28  C   UNL A   1      31.924  29.181  24.144  1.00  0.00     0.070 C 
BRANCH  28  29
ATOM     29  C   UNL A   1      30.570  29.801  23.915  1.00  0.00    -0.045 A 
ATOM     30  C   UNL A   1      29.622  29.181  23.087  1.00  0.00     0.007 A 
ATOM     31  C   UNL A   1      30.265  31.047  24.484  1.00  0.00     0.007 A 
ATOM     32  C   UNL A   1      28.383  29.786  22.853  1.00  0.00     0.046 A 
ATOM     33  C   UNL A   1      29.032  31.654  24.242  1.00  0.00     0.046 A 
ATOM     34  C   UNL A   1      28.094  31.011  23.444  1.00  0.00     0.115 A 
BRANCH  34  35
ATOM     35  O   UNL A   1      26.875  31.600  23.279  1.00  0.00    -0.508 OA
ATOM     36  H   UNL A   1      26.240  31.212  22.711  1.00  0.00     0.293 HD
ENDBRANCH  34  35
ENDBRANCH  28  29
ENDBRANCH  16  28
ENDBRANCH  13  16
ENDBRANCH  11  12
BRANCH  11  37
ATOM     37  C   UNL A   1      32.450  24.100  26.176  1.00  0.00     0.072 C 
BRANCH  37  38
ATOM     38  C   UNL A   1      32.888  22.686  26.377  1.00  0.00    -0.020 A 
ATOM     39  C   UNL A   1      33.549  22.173  27.474  1.00  0.00     0.087 A 
ATOM     40  C   UNL A   1      32.753  21.608  25.439  1.00  0.00     0.003 A 
ATOM     41  N   UNL A   1      33.721  20.828  27.284  1.00  0.00    -0.361 N 
ATOM     42  C   UNL A   1      33.236  20.454  26.053  1.00  0.00     0.046 A 
ATOM     43  C   UNL A   1      32.263  21.501  24.120  1.00  0.00     0.010 A 
ATOM     44  H   UNL A   1      34.134  20.216  27.935  1.00  0.00     0.166 HD
ATOM     45  C   UNL A   1      33.200  19.197  25.438  1.00  0.00     0.026 A 
ATOM     46  C   UNL A   1      32.255  20.260  23.474  1.00  0.00     0.001 A 
ATOM     47  C   UNL A   1      32.700  19.122  24.134  1.00  0.00     0.002 A 
ENDBRANCH  37  38
ENDBRANCH  11  37
ENDBRANCH   8  11
ENDBRANCH   6   7
BRANCH   6  48
ATOM     48  C   UNL A   1      32.371  26.475  21.665  1.00  0.00     0.193 C 
BRANCH  48  49
ATOM     49  O   UNL A   1      33.737  26.553  21.250  1.00  0.00    -0.394 OA
ATOM     50  H   UNL A   1      34.314  26.481  22.026  1.00  0.00     0.210 HD
ENDBRANCH  48  49
ENDBRANCH   6  48
ENDBRANCH   4   6
ENDBRANCH   3   4
ENDBRANCH   2   3
ENDBRANCH   1   2
BRANCH   1  51
ATOM     51  O   UNL A   1      36.939  22.410  23.807  1.00  0.00    -0.376 OA
BRANCH  51  52
ATOM     52  C   UNL A   1      36.781  21.503  24.900  1.00  0.00     0.188 C 
BRANCH  52  53
ATOM     53  C   UNL A   1      37.790  21.706  26.007  1.00  0.00     0.188 C 
BRANCH  53  54
ATOM     54  O   UNL A   1      39.126  21.653  25.517  1.00  0.00    -0.376 OA
BRANCH  54  55
ATOM     55  C   UNL A   1      40.064  22.102  26.488  1.00  0.00     0.202 C 
BRANCH  55  56
ATOM     56  C   UNL A   1      41.269  21.155  26.602  1.00  0.00     0.261 C 
BRANCH  56  57
ATOM     57  O   UNL A   1      41.876  20.851  25.325  1.00  0.00    -0.460 OA
BRANCH  57  58
ATOM     58  C   UNL A   1      43.232  20.725  25.304  1.00  0.00     0.338 C 
ATOM     59  O   UNL A   1      43.861  19.726  24.996  1.00  0.00    -0.246 OA
BRANCH  58  60
ATOM     60  C   UNL A   1      43.872  22.040  25.594  1.00  0.00     0.060 A 
ATOM     61  C   UNL A   1      44.806  22.112  26.635  1.00  0.00     0.016 A 
ATOM     62  C   UNL A   1      43.562  23.201  24.873  1.00  0.00     0.016 A 
ATOM     63  C   UNL A   1      45.427  23.327  26.953  1.00  0.00     0.010 A 
ATOM     64  C   UNL A   1      44.191  24.417  25.189  1.00  0.00     0.010 A 
ATOM     65  C   UNL A   1      45.133  24.490  26.227  1.00  0.00    -0.014 A 
BRANCH  65  66
ATOM     66  C   UNL A   1      45.710  25.798  26.645  1.00  0.00     0.031 A 
ATOM     67  C   UNL A   1      47.066  26.185  26.130  1.00  0.00     0.074 A 
ATOM     68  C   UNL A   1      45.040  26.651  27.443  1.00  0.00     0.049 A 
ATOM     69  N   UNL A   1      47.814  27.215  26.434  1.00  0.00    -0.248 NA
ATOM     70  C   UNL A   1      47.656  25.274  25.140  1.00  0.00     0.031 C 
ATOM     71  C   UNL A   1      43.678  26.458  27.928  1.00  0.00     0.029 A 
ATOM     72  N   UNL A   1      45.414  27.861  27.981  1.00  0.00    -0.354 N 
ATOM     73  C   UNL A   1      48.963  27.085  25.663  1.00  0.00     0.074 A 
ATOM     74  C   UNL A   1      48.821  25.856  24.908  1.00  0.00     0.031 C 
ATOM     75  C   UNL A   1      43.323  27.515  28.678  1.00  0.00     0.029 A 
ATOM     76  C   UNL A   1      44.458  28.431  28.792  1.00  0.00     0.049 A 
ATOM     77  H   UNL A   1      46.286  28.281  27.802  1.00  0.00     0.167 HD
ATOM     78  C   UNL A   1      50.040  27.907  25.596  1.00  0.00     0.034 A 
ATOM     79  C   UNL A   1      44.508  29.536  29.565  1.00  0.00     0.034 A 
ATOM     80  C   UNL A   1      50.191  29.103  26.388  1.00  0.00     0.049 A 
ATOM     81  C   UNL A   1      45.795  30.330  29.629  1.00  0.00     0.074 A 
ATOM     82  C   UNL A   1      51.258  29.983  26.430  1.00  0.00     0.029 A 
ATOM     83  N   UNL A   1      49.256  29.574  27.301  1.00  0.00    -0.354 N 
ATOM     84  N   UNL A   1      46.901  30.174  28.938  1.00  0.00    -0.248 NA
ATOM     85  C   UNL A   1      45.847  31.436  30.598  1.00  0.00     0.031 C 
ATOM     86  C   UNL A   1      51.008  30.930  27.429  1.00  0.00     0.029 A 
ATOM     87  C   UNL A   1      49.746  30.696  27.953  1.00  0.00     0.049 A 
ATOM     88  H   UNL A   1      48.373  29.169  27.463  1.00  0.00     0.167 HD
ATOM     89  C   UNL A   1      47.770  31.172  29.375  1.00  0.00     0.074 A 
ATOM     90  C   UNL A   1      47.057  31.933  30.380  1.00  0.00     0.031 C 
ATOM     91  C   UNL A   1      49.041  31.437  28.976  1.00  0.00     0.034 A 
BRANCH  78  92
ATOM     92  C   UNL A   1      51.173  27.456  24.705  1.00  0.00     0.023 A 
ATOM     93  C   UNL A   1      51.190  27.742  23.328  1.00  0.00     0.031 A 
ATOM     94  C   UNL A   1      52.188  26.633  25.220  1.00  0.00     0.131 A 
ATOM     95  C   UNL A   1      52.132  27.115  22.499  1.00  0.00     0.055 A 
ATOM     96  C   UNL A   1      53.182  26.091  24.404  1.00  0.00     0.041 A 
ATOM     97  F   UNL A   1      52.209  26.304  26.523  1.00  0.00    -0.206 F 
ATOM     98  C   UNL A   1      53.143  26.311  23.030  1.00  0.00     0.022 A 
BRANCH  95  99
ATOM     99  S   UNL A   1      51.888  27.192  20.702  1.00  0.00     0.124 S 
ATOM    100  O   UNL A   1      50.490  26.785  20.573  1.00  0.00    -0.237 OA
ATOM    101  O   UNL A   1      52.175  28.590  20.402  1.00  0.00    -0.237 OA
ATOM    102  O   UNL A   1      52.856  26.230  20.182  1.00  0.00    -0.744 OA
ENDBRANCH  95  99
ENDBRANCH  78  92
BRANCH  79 103
ATOM    103  C   UNL A   1      43.345  29.928  30.419  1.00  0.00     0.023 A 
ATOM    104  C   UNL A   1      43.100  29.298  31.651  1.00  0.00     0.031 A 
ATOM    105  C   UNL A   1      42.419  30.891  29.980  1.00  0.00     0.131 A 
ATOM    106  C   UNL A   1      41.945  29.616  32.384  1.00  0.00     0.055 A 
ATOM    107  C   UNL A   1      41.298  31.241  30.737  1.00  0.00     0.041 A 
ATOM    108  F   UNL A   1      42.588  31.511  28.801  1.00  0.00    -0.206 F 
ATOM    109  C   UNL A   1      41.051  30.594  31.943  1.00  0.00     0.022 A 
BRANCH 106 110
ATOM    110  S   UNL A   1      41.585  28.686  33.902  1.00  0.00     0.124 S 
ATOM    111  O   UNL A   1      41.811  29.697  34.930  1.00  0.00    -0.237 OA
ATOM    112  O   UNL A   1      40.200  28.281  33.692  1.00  0.00    -0.237 OA
ATOM    113  O   UNL A   1      42.559  27.597  33.873  1.00  0.00    -0.744 OA
ENDBRANCH 106 110
ENDBRANCH  79 103
BRANCH  91 114
ATOM    114  C   UNL A   1      49.738  32.619  29.608  1.00  0.00     0.023 A 
ATOM    115  C   UNL A   1      49.819  33.867  28.963  1.00  0.00     0.031 A 
ATOM    116  C   UNL A   1      50.311  32.502  30.888  1.00  0.00     0.131 A 
ATOM    117  C   UNL A   1      50.489  34.934  29.583  1.00  0.00     0.055 A 
ATOM    118  C   UNL A   1      50.926  33.582  31.523  1.00  0.00     0.041 A 
ATOM    119  F   UNL A   1      50.268  31.335  31.551  1.00  0.00    -0.206 F 
ATOM    120  C   UNL A   1      51.025  34.805  30.866  1.00  0.00     0.022 A 
BRANCH 117 121
ATOM    121  S   UNL A   1      50.712  36.483  28.662  1.00  0.00     0.124 S 
ATOM    122  O   UNL A   1      49.774  36.315  27.556  1.00  0.00    -0.237 OA
ATOM    123  O   UNL A   1      50.356  37.491  29.654  1.00  0.00    -0.237 OA
ATOM    124  O   UNL A   1      52.124  36.457  28.285  1.00  0.00    -0.744 OA
ENDBRANCH 117 121
ENDBRANCH  91 114
ENDBRANCH  65  66
ENDBRANCH  58  60
ENDBRANCH  57  58
ENDBRANCH  56  57
ENDBRANCH  55  56
ENDBRANCH  54  55
ENDBRANCH  53  54
ENDBRANCH  52  53
ENDBRANCH  51  52
ENDBRANCH   1  51
TORSDOF 33
ENDMDL
MODEL 3
REMARK VINA RESULT:      -9.0      5.137     11.855
REMARK SMILES O=C(N[C@@H](Cc1ccc(O)cc1)C(=O)N[C@@H](Cc1c[nH]c2ccccc12)C(=O)N[C@@H](CO)C(=O)OCCOCCOCCOC(=O)c1ccc(-c2c3nc(c(-c4cc(S(=O)(=O)[O-])ccc4F)c4ccc([nH]4)c(-c4cc(S(=O)(=O)[O-])ccc4F)c4nc(c(-c5cc(S(=O)(=O)[O-])ccc5F)c5ccc2[nH]5)C=C4)C=C3)cc1)c1ccc(F)cc1
REMARK SMILES IDX 37 1 36 2 35 3 33 4 34 5 30 6 29 7 27 8 28 9 16 11 15 12
REMARK SMILES IDX 13 13 14 14 4 16 3 17 1 18 2 19 110 21 111 22 116 23 112 24
REMARK SMILES IDX 115 25 113 26 114 27 5 28 6 29 7 30 12 31 8 32 11 33 9 34
REMARK SMILES IDX 10 35 17 37 18 38 19 39 26 40 20 41 21 42 25 43 22 45 24 46
REMARK SMILES IDX 23 47 31 48 32 49 38 51 39 52 40 53 41 54 42 55 43 56 44 57
REMARK SMILES IDX 45 58 46 59 47 60 48 61 109 62 49 63 108 64 50 65 51 66
REMARK SMILES IDX 52 67 102 68 53 69 107 70 101 71 103 72 54 73 106 74 100 75
REMARK SMILES IDX 99 76 55 78 87 79 67 80 86 81 68 82 71 83 85 84 104 85 69 86
REMARK SMILES IDX 70 87 84 89 105 90 72 91 56 92 57 93 65 94 58 95 64 96 66 97
REMARK SMILES IDX 63 98 59 99 60 100 61 101 62 102 88 103 89 104 97 105 90 106
REMARK SMILES IDX 96 107 98 108 95 109 91 110 92 111 93 112 94 113 73 114
REMARK SMILES IDX 74 115 82 116 75 117 81 118 83 119 80 120 76 121 77 122
REMARK SMILES IDX 78 123 79 124
REMARK H PARENT 29 10 15 15 3 20 10 36 20 44 32 50 103 77 71 88
REMARK Flexibility Score: inf
ROOT
ATOM      1  C   UNL A   1      33.537  24.902  25.160  1.00  0.00     0.202 C 
ENDROOT
BRANCH   1   2
ATOM      2  C   UNL A   1      34.761  24.778  24.231  1.00  0.00     0.261 C 
BRANCH   2   3
ATOM      3  O   UNL A   1      35.856  24.092  24.878  1.00  0.00    -0.462 OA
BRANCH   3   4
ATOM      4  C   UNL A   1      36.462  23.105  24.155  1.00  0.00     0.331 C 
ATOM      5  O   UNL A   1      36.982  23.281  23.058  1.00  0.00    -0.250 OA
BRANCH   4   6
ATOM      6  C   UNL A   1      36.278  21.706  24.807  1.00  0.00     0.218 C 
BRANCH   6   7
ATOM      7  N   UNL A   1      37.452  20.824  24.677  1.00  0.00    -0.339 N 
ATOM      8  C   UNL A   1      38.609  20.786  25.401  1.00  0.00     0.243 C 
ATOM      9  O   UNL A   1      39.067  19.664  25.640  1.00  0.00    -0.273 OA
ATOM     10  H   UNL A   1      37.393  20.158  23.954  1.00  0.00     0.164 HD
BRANCH   8  11
ATOM     11  C   UNL A   1      39.342  21.997  26.002  1.00  0.00     0.175 C 
BRANCH  11  12
ATOM     12  N   UNL A   1      38.492  23.035  26.573  1.00  0.00    -0.342 N 
ATOM     13  C   UNL A   1      38.793  24.329  26.895  1.00  0.00     0.243 C 
ATOM     14  O   UNL A   1      37.822  25.079  27.057  1.00  0.00    -0.273 OA
ATOM     15  H   UNL A   1      37.563  22.764  26.754  1.00  0.00     0.164 HD
BRANCH  13  16
ATOM     16  C   UNL A   1      40.235  24.925  26.948  1.00  0.00     0.176 C 
BRANCH  16  17
ATOM     17  N   UNL A   1      40.417  26.269  26.391  1.00  0.00    -0.340 N 
ATOM     18  O   UNL A   1      40.406  28.494  26.262  1.00  0.00    -0.269 OA
ATOM     19  C   UNL A   1      40.350  27.505  26.986  1.00  0.00     0.251 C 
ATOM     20  H   UNL A   1      40.620  26.288  25.427  1.00  0.00     0.164 HD
BRANCH  19  21
ATOM     21  C   UNL A   1      40.121  27.658  28.443  1.00  0.00     0.040 A 
ATOM     22  C   UNL A   1      41.173  27.672  29.368  1.00  0.00     0.017 A 
ATOM     23  C   UNL A   1      38.800  27.807  28.891  1.00  0.00     0.017 A 
ATOM     24  C   UNL A   1      40.895  27.728  30.737  1.00  0.00     0.040 A 
ATOM     25  C   UNL A   1      38.527  27.883  30.259  1.00  0.00     0.040 A 
ATOM     26  C   UNL A   1      39.576  27.820  31.170  1.00  0.00     0.123 A 
ATOM     27  F   UNL A   1      39.316  27.850  32.484  1.00  0.00    -0.207 F 
ENDBRANCH  19  21
ENDBRANCH  16  17
BRANCH  16  28
ATOM     28  C   UNL A   1      40.963  24.727  28.293  1.00  0.00     0.070 C 
BRANCH  28  29
ATOM     29  C   UNL A   1      42.463  24.578  28.276  1.00  0.00    -0.045 A 
ATOM     30  C   UNL A   1      43.263  25.419  27.486  1.00  0.00     0.007 A 
ATOM     31  C   UNL A   1      43.074  23.550  29.008  1.00  0.00     0.007 A 
ATOM     32  C   UNL A   1      44.650  25.246  27.449  1.00  0.00     0.046 A 
ATOM     33  C   UNL A   1      44.458  23.372  28.963  1.00  0.00     0.046 A 
ATOM     34  C   UNL A   1      45.236  24.233  28.199  1.00  0.00     0.115 A 
BRANCH  34  35
ATOM     35  O   UNL A   1      46.590  24.073  28.228  1.00  0.00    -0.508 OA
ATOM     36  H   UNL A   1      47.013  23.537  27.587  1.00  0.00     0.293 HD
ENDBRANCH  34  35
ENDBRANCH  28  29
ENDBRANCH  16  28
ENDBRANCH  13  16
ENDBRANCH  11  12
BRANCH  11  37
ATOM     37  C   UNL A   1      40.571  21.632  26.849  1.00  0.00     0.072 C 
BRANCH  37  38
ATOM     38  C   UNL A   1      41.867  21.517  26.117  1.00  0.00    -0.020 A 
ATOM     39  C   UNL A   1      42.491  22.502  25.380  1.00  0.00     0.087 A 
ATOM     40  C   UNL A   1      42.679  20.339  25.995  1.00  0.00     0.003 A 
ATOM     41  N   UNL A   1      43.679  22.006  24.914  1.00  0.00    -0.361 N 
ATOM     42  C   UNL A   1      43.824  20.690  25.283  1.00  0.00     0.046 A 
ATOM     43  C   UNL A   1      42.550  19.001  26.426  1.00  0.00     0.010 A 
ATOM     44  H   UNL A   1      44.336  22.518  24.389  1.00  0.00     0.166 HD
ATOM     45  C   UNL A   1      44.865  19.788  25.031  1.00  0.00     0.026 A 
ATOM     46  C   UNL A   1      43.562  18.076  26.150  1.00  0.00     0.001 A 
ATOM     47  C   UNL A   1      44.712  18.472  25.478  1.00  0.00     0.002 A 
ENDBRANCH  37  38
ENDBRANCH  11  37
ENDBRANCH   8  11
ENDBRANCH   6   7
BRANCH   6  48
ATOM     48  C   UNL A   1      35.932  21.944  26.278  1.00  0.00     0.193 C 
BRANCH  48  49
ATOM     49  O   UNL A   1      34.764  21.220  26.671  1.00  0.00    -0.394 OA
ATOM     50  H   UNL A   1      34.562  21.411  27.599  1.00  0.00     0.210 HD
ENDBRANCH  48  49
ENDBRANCH   6  48
ENDBRANCH   4   6
ENDBRANCH   3   4
ENDBRANCH   2   3
ENDBRANCH   1   2
BRANCH   1  51
ATOM     51  O   UNL A   1      32.745  26.081  24.977  1.00  0.00    -0.376 OA
BRANCH  51  52
ATOM     52  C   UNL A   1      33.282  27.188  25.704  1.00  0.00     0.188 C 
BRANCH  52  53
ATOM     53  C   UNL A   1      32.342  27.736  26.754  1.00  0.00     0.188 C 
BRANCH  53  54
ATOM     54  O   UNL A   1      32.241  29.154  26.681  1.00  0.00    -0.376 OA
BRANCH  54  55
ATOM     55  C   UNL A   1      33.415  29.794  27.169  1.00  0.00     0.202 C 
BRANCH  55  56
ATOM     56  C   UNL A   1      33.316  31.324  27.073  1.00  0.00     0.261 C 
BRANCH  56  57
ATOM     57  O   UNL A   1      33.362  31.979  28.362  1.00  0.00    -0.460 OA
BRANCH  57  58
ATOM     58  C   UNL A   1      34.157  33.080  28.463  1.00  0.00     0.338 C 
ATOM     59  O   UNL A   1      33.940  34.177  27.977  1.00  0.00    -0.246 OA
BRANCH  58  60
ATOM     60  C   UNL A   1      35.302  32.800  29.377  1.00  0.00     0.060 A 
ATOM     61  C   UNL A   1      36.322  33.754  29.478  1.00  0.00     0.016 A 
ATOM     62  C   UNL A   1      35.396  31.618  30.122  1.00  0.00     0.016 A 
ATOM     63  C   UNL A   1      37.424  33.533  30.316  1.00  0.00     0.010 A 
ATOM     64  C   UNL A   1      36.499  31.401  30.966  1.00  0.00     0.010 A 
ATOM     65  C   UNL A   1      37.519  32.360  31.075  1.00  0.00    -0.014 A 
BRANCH  65  66
ATOM     66  C   UNL A   1      38.746  32.082  31.872  1.00  0.00     0.031 A 
ATOM     67  C   UNL A   1      38.683  32.224  33.365  1.00  0.00     0.074 A 
ATOM     68  C   UNL A   1      39.896  31.680  31.297  1.00  0.00     0.049 A 
ATOM     69  N   UNL A   1      39.639  32.140  34.255  1.00  0.00    -0.248 NA
ATOM     70  C   UNL A   1      37.355  32.508  33.924  1.00  0.00     0.031 C 
ATOM     71  C   UNL A   1      40.072  31.395  29.877  1.00  0.00     0.029 A 
ATOM     72  N   UNL A   1      41.135  31.431  31.841  1.00  0.00    -0.354 N 
ATOM     73  C   UNL A   1      39.027  32.350  35.485  1.00  0.00     0.074 A 
ATOM     74  C   UNL A   1      37.625  32.599  35.215  1.00  0.00     0.031 C 
ATOM     75  C   UNL A   1      41.338  30.997  29.661  1.00  0.00     0.029 A 
ATOM     76  C   UNL A   1      42.087  31.068  30.915  1.00  0.00     0.049 A 
ATOM     77  H   UNL A   1      41.323  31.506  32.804  1.00  0.00     0.167 HD
ATOM     78  C   UNL A   1      39.580  32.343  36.723  1.00  0.00     0.034 A 
ATOM     79  C   UNL A   1      43.414  30.860  31.056  1.00  0.00     0.034 A 
ATOM     80  C   UNL A   1      40.986  32.141  36.976  1.00  0.00     0.049 A 
ATOM     81  C   UNL A   1      44.047  31.055  32.416  1.00  0.00     0.074 A 
ATOM     82  C   UNL A   1      41.658  32.157  38.185  1.00  0.00     0.029 A 
ATOM     83  N   UNL A   1      41.944  31.911  35.996  1.00  0.00    -0.354 N 
ATOM     84  N   UNL A   1      43.473  31.307  33.570  1.00  0.00    -0.248 NA
ATOM     85  C   UNL A   1      45.514  30.963  32.486  1.00  0.00     0.031 C 
ATOM     86  C   UNL A   1      43.028  32.029  37.929  1.00  0.00     0.029 A 
ATOM     87  C   UNL A   1      43.207  31.844  36.567  1.00  0.00     0.049 A 
ATOM     88  H   UNL A   1      41.754  31.811  35.035  1.00  0.00     0.167 HD
ATOM     89  C   UNL A   1      44.505  31.383  34.504  1.00  0.00     0.074 A 
ATOM     90  C   UNL A   1      45.736  31.139  33.782  1.00  0.00     0.031 C 
ATOM     91  C   UNL A   1      44.437  31.627  35.838  1.00  0.00     0.034 A 
BRANCH  78  92
ATOM     92  C   UNL A   1      38.658  32.674  37.872  1.00  0.00     0.023 A 
ATOM     93  C   UNL A   1      38.832  33.834  38.649  1.00  0.00     0.031 A 
ATOM     94  C   UNL A   1      37.666  31.760  38.264  1.00  0.00     0.131 A 
ATOM     95  C   UNL A   1      38.106  33.988  39.840  1.00  0.00     0.055 A 
ATOM     96  C   UNL A   1      36.879  31.969  39.398  1.00  0.00     0.041 A 
ATOM     97  F   UNL A   1      37.472  30.622  37.577  1.00  0.00    -0.206 F 
ATOM     98  C   UNL A   1      37.114  33.077  40.207  1.00  0.00     0.022 A 
BRANCH  95  99
ATOM     99  S   UNL A   1      38.625  35.279  41.006  1.00  0.00     0.124 S 
ATOM    100  O   UNL A   1      38.876  36.407  40.110  1.00  0.00    -0.237 OA
ATOM    101  O   UNL A   1      37.464  35.404  41.879  1.00  0.00    -0.237 OA
ATOM    102  O   UNL A   1      39.820  34.716  41.631  1.00  0.00    -0.744 OA
ENDBRANCH  95  99
ENDBRANCH  78  92
BRANCH  79 103
ATOM    103  C   UNL A   1      44.268  30.529  29.875  1.00  0.00     0.023 A 
ATOM    104  C   UNL A   1      44.674  31.522  28.967  1.00  0.00     0.031 A 
ATOM    105  C   UNL A   1      44.631  29.199  29.595  1.00  0.00     0.131 A 
ATOM    106  C   UNL A   1      45.392  31.167  27.813  1.00  0.00     0.055 A 
ATOM    107  C   UNL A   1      45.388  28.857  28.473  1.00  0.00     0.041 A 
ATOM    108  F   UNL A   1      44.253  28.204  30.414  1.00  0.00    -0.206 F 
ATOM    109  C   UNL A   1      45.765  29.844  27.568  1.00  0.00     0.022 A 
BRANCH 106 110
ATOM    110  S   UNL A   1      45.782  32.453  26.592  1.00  0.00     0.124 S 
ATOM    111  O   UNL A   1      45.743  33.661  27.409  1.00  0.00    -0.237 OA
ATOM    112  O   UNL A   1      47.098  32.038  26.119  1.00  0.00    -0.237 OA
ATOM    113  O   UNL A   1      44.705  32.329  25.611  1.00  0.00    -0.744 OA
ENDBRANCH 106 110
ENDBRANCH  79 103
BRANCH  91 114
ATOM    114  C   UNL A   1      45.734  31.616  36.615  1.00  0.00     0.023 A 
ATOM    115  C   UNL A   1      46.550  32.758  36.716  1.00  0.00     0.031 A 
ATOM    116  C   UNL A   1      46.149  30.449  37.284  1.00  0.00     0.131 A 
ATOM    117  C   UNL A   1      47.753  32.697  37.436  1.00  0.00     0.055 A 
ATOM    118  C   UNL A   1      47.318  30.412  38.045  1.00  0.00     0.041 A 
ATOM    119  F   UNL A   1      45.413  29.327  37.220  1.00  0.00    -0.206 F 
ATOM    120  C   UNL A   1      48.132  31.538  38.118  1.00  0.00     0.022 A 
BRANCH 117 121
ATOM    121  S   UNL A   1      48.858  34.137  37.420  1.00  0.00     0.124 S 
ATOM    122  O   UNL A   1      50.167  33.513  37.253  1.00  0.00    -0.237 OA
ATOM    123  O   UNL A   1      48.364  34.900  36.279  1.00  0.00    -0.237 OA
ATOM    124  O   UNL A   1      48.631  34.759  38.724  1.00  0.00    -0.744 OA
ENDBRANCH 117 121
ENDBRANCH  91 114
ENDBRANCH  65  66
ENDBRANCH  58  60
ENDBRANCH  57  58
ENDBRANCH  56  57
ENDBRANCH  55  56
ENDBRANCH  54  55
ENDBRANCH  53  54
ENDBRANCH  52  53
ENDBRANCH  51  52
ENDBRANCH   1  51
TORSDOF 33
ENDMDL
