MODEL 1
REMARK VINA RESULT:     -10.1      0.000      0.000
REMARK SMILES O=C(C[C@H](C(=O)OCCOCCOCCOC(=O)c1ccc(-c2c3nc(c(-c4cc(S(=O)(=O)[O-])ccc4F)c4ccc([nH]4)c(-c4cc(S(=O)(=O)[O-])ccc4F)c4nc(c(-c5cc(S(=O)(=O)[O-])ccc5F)c5ccc2[nH]5)C=C4)C=C3)cc1)c1ccccc1)Nc1ccc(Cl)cc1Cl
REMARK SMILES IDX 11 1 10 2 9 3 8 4 7 5 5 6 6 7 4 8 3 9 2 10 1 11 88 12 89 14
REMARK SMILES IDX 90 15 95 16 91 17 94 18 96 19 92 20 93 21 82 22 83 23 87 24
REMARK SMILES IDX 84 25 86 26 85 27 12 28 13 29 14 30 15 31 16 32 17 33 18 34
REMARK SMILES IDX 19 35 20 36 81 37 21 38 80 39 22 40 23 41 24 42 74 43 25 44
REMARK SMILES IDX 79 45 73 46 75 47 26 48 78 49 72 50 71 51 27 53 59 54 39 55
REMARK SMILES IDX 58 56 40 57 43 58 57 59 76 60 41 61 42 62 56 64 77 65 44 66
REMARK SMILES IDX 28 67 29 68 37 69 30 70 36 71 38 72 35 73 31 74 32 75 33 76
REMARK SMILES IDX 34 77 60 78 61 79 69 80 62 81 68 82 70 83 67 84 63 85 64 86
REMARK SMILES IDX 65 87 66 88 45 89 46 90 54 91 47 92 53 93 55 94 52 95 48 96
REMARK SMILES IDX 49 97 50 98 51 99
REMARK H PARENT 88 13 75 52 43 63
REMARK Flexibility Score: inf
ROOT
ATOM      1  C   UNL A   1      39.068  22.273  26.167  1.00  0.00     0.188 C 
ENDROOT
BRANCH   1   2
ATOM      2  O   UNL A   1      38.294  21.134  25.798  1.00  0.00    -0.376 OA
BRANCH   2   3
ATOM      3  C   UNL A   1      37.439  21.223  24.664  1.00  0.00     0.202 C 
BRANCH   3   4
ATOM      4  C   UNL A   1      36.873  22.606  24.298  1.00  0.00     0.261 C 
BRANCH   4   5
ATOM      5  O   UNL A   1      35.527  22.580  23.771  1.00  0.00    -0.463 OA
BRANCH   5   6
ATOM      6  C   UNL A   1      34.512  22.407  24.655  1.00  0.00     0.314 C 
ATOM      7  O   UNL A   1      34.565  22.773  25.825  1.00  0.00    -0.252 OA
BRANCH   6   8
ATOM      8  C   UNL A   1      33.250  21.729  24.094  1.00  0.00     0.138 C 
BRANCH   8   9
ATOM      9  C   UNL A   1      32.792  22.449  22.811  1.00  0.00     0.120 C 
BRANCH   9  10
ATOM     10  C   UNL A   1      32.795  23.959  22.884  1.00  0.00     0.225 C 
ATOM     11  O   UNL A   1      33.512  24.620  22.143  1.00  0.00    -0.275 OA
ATOM     12  N   UNL A   1      31.913  24.457  23.824  1.00  0.00    -0.325 N 
ATOM     13  H   UNL A   1      31.517  23.818  24.460  1.00  0.00     0.169 HD
BRANCH  12  14
ATOM     14  C   UNL A   1      31.541  25.810  23.941  1.00  0.00     0.060 A 
ATOM     15  C   UNL A   1      30.412  26.188  23.202  1.00  0.00     0.029 A 
ATOM     16  C   UNL A   1      32.251  26.784  24.669  1.00  0.00     0.066 A 
ATOM     17  C   UNL A   1      29.956  27.504  23.238  1.00  0.00     0.023 A 
ATOM     18  C   UNL A   1      31.798  28.108  24.691  1.00  0.00     0.043 A 
ATOM     19  Cl  UNL A   1      33.799  26.470  25.375  1.00  0.00    -0.082 Cl
ATOM     20  C   UNL A   1      30.649  28.457  23.982  1.00  0.00     0.042 A 
ATOM     21  Cl  UNL A   1      30.089  30.083  23.975  1.00  0.00    -0.084 Cl
ENDBRANCH  12  14
ENDBRANCH   9  10
ENDBRANCH   8   9
BRANCH   8  22
ATOM     22  C   UNL A   1      33.261  20.201  23.944  1.00  0.00    -0.033 A 
ATOM     23  C   UNL A   1      32.314  19.577  23.119  1.00  0.00     0.004 A 
ATOM     24  C   UNL A   1      34.242  19.381  24.541  1.00  0.00     0.004 A 
ATOM     25  C   UNL A   1      32.341  18.192  22.913  1.00  0.00     0.000 A 
ATOM     26  C   UNL A   1      34.257  17.997  24.354  1.00  0.00     0.000 A 
ATOM     27  C   UNL A   1      33.305  17.403  23.536  1.00  0.00     0.000 A 
ENDBRANCH   8  22
ENDBRANCH   6   8
ENDBRANCH   5   6
ENDBRANCH   4   5
ENDBRANCH   3   4
ENDBRANCH   2   3
ENDBRANCH   1   2
BRANCH   1  28
ATOM     28  C   UNL A   1      40.518  22.051  26.613  1.00  0.00     0.188 C 
BRANCH  28  29
ATOM     29  O   UNL A   1      40.637  21.193  27.729  1.00  0.00    -0.376 OA
BRANCH  29  30
ATOM     30  C   UNL A   1      41.191  19.917  27.483  1.00  0.00     0.202 C 
BRANCH  30  31
ATOM     31  C   UNL A   1      41.716  19.749  26.052  1.00  0.00     0.261 C 
BRANCH  31  32
ATOM     32  O   UNL A   1      43.110  19.400  25.934  1.00  0.00    -0.460 OA
BRANCH  32  33
ATOM     33  C   UNL A   1      43.843  20.088  25.025  1.00  0.00     0.338 C 
ATOM     34  O   UNL A   1      44.140  19.708  23.902  1.00  0.00    -0.246 OA
BRANCH  33  35
ATOM     35  C   UNL A   1      44.010  21.477  25.516  1.00  0.00     0.060 A 
ATOM     36  C   UNL A   1      43.817  22.538  24.621  1.00  0.00     0.016 A 
ATOM     37  C   UNL A   1      44.338  21.737  26.848  1.00  0.00     0.016 A 
ATOM     38  C   UNL A   1      43.974  23.860  25.049  1.00  0.00     0.010 A 
ATOM     39  C   UNL A   1      44.517  23.061  27.269  1.00  0.00     0.010 A 
ATOM     40  C   UNL A   1      44.362  24.130  26.367  1.00  0.00    -0.014 A 
BRANCH  40  41
ATOM     41  C   UNL A   1      44.755  25.511  26.759  1.00  0.00     0.031 A 
ATOM     42  C   UNL A   1      43.709  26.427  27.339  1.00  0.00     0.074 A 
ATOM     43  C   UNL A   1      46.023  25.942  26.634  1.00  0.00     0.049 A 
ATOM     44  N   UNL A   1      43.807  27.678  27.713  1.00  0.00    -0.248 NA
ATOM     45  C   UNL A   1      42.370  25.848  27.517  1.00  0.00     0.031 C 
ATOM     46  C   UNL A   1      47.145  25.140  26.150  1.00  0.00     0.029 A 
ATOM     47  N   UNL A   1      46.579  27.169  26.907  1.00  0.00    -0.354 N 
ATOM     48  C   UNL A   1      42.542  28.039  28.169  1.00  0.00     0.074 A 
ATOM     49  C   UNL A   1      41.687  26.885  27.979  1.00  0.00     0.031 C 
ATOM     50  C   UNL A   1      48.256  25.897  26.159  1.00  0.00     0.029 A 
ATOM     51  C   UNL A   1      47.919  27.247  26.604  1.00  0.00     0.049 A 
ATOM     52  H   UNL A   1      46.068  27.920  27.285  1.00  0.00     0.167 HD
ATOM     53  C   UNL A   1      42.135  29.218  28.703  1.00  0.00     0.034 A 
ATOM     54  C   UNL A   1      48.769  28.295  26.655  1.00  0.00     0.034 A 
ATOM     55  C   UNL A   1      42.993  30.367  28.870  1.00  0.00     0.049 A 
ATOM     56  C   UNL A   1      48.266  29.632  27.144  1.00  0.00     0.074 A 
ATOM     57  C   UNL A   1      42.683  31.602  29.413  1.00  0.00     0.029 A 
ATOM     58  N   UNL A   1      44.324  30.434  28.476  1.00  0.00    -0.354 N 
ATOM     59  N   UNL A   1      47.069  29.963  27.577  1.00  0.00    -0.248 NA
ATOM     60  C   UNL A   1      49.233  30.737  27.156  1.00  0.00     0.031 C 
ATOM     61  C   UNL A   1      43.794  32.441  29.265  1.00  0.00     0.029 A 
ATOM     62  C   UNL A   1      44.832  31.703  28.720  1.00  0.00     0.049 A 
ATOM     63  H   UNL A   1      44.833  29.690  28.081  1.00  0.00     0.167 HD
ATOM     64  C   UNL A   1      47.154  31.305  27.944  1.00  0.00     0.074 A 
ATOM     65  C   UNL A   1      48.521  31.716  27.696  1.00  0.00     0.031 C 
ATOM     66  C   UNL A   1      46.191  32.120  28.448  1.00  0.00     0.034 A 
BRANCH  53  67
ATOM     67  C   UNL A   1      40.675  29.336  29.083  1.00  0.00     0.023 A 
ATOM     68  C   UNL A   1      40.251  29.322  30.425  1.00  0.00     0.031 A 
ATOM     69  C   UNL A   1      39.687  29.416  28.086  1.00  0.00     0.131 A 
ATOM     70  C   UNL A   1      38.881  29.298  30.727  1.00  0.00     0.055 A 
ATOM     71  C   UNL A   1      38.327  29.485  28.397  1.00  0.00     0.041 A 
ATOM     72  F   UNL A   1      40.024  29.408  26.787  1.00  0.00    -0.206 F 
ATOM     73  C   UNL A   1      37.916  29.407  29.723  1.00  0.00     0.022 A 
BRANCH  70  74
ATOM     74  S   UNL A   1      38.376  28.941  32.433  1.00  0.00     0.124 S 
ATOM     75  O   UNL A   1      38.896  30.107  33.146  1.00  0.00    -0.237 OA
ATOM     76  O   UNL A   1      36.925  28.855  32.322  1.00  0.00    -0.237 OA
ATOM     77  O   UNL A   1      39.057  27.684  32.736  1.00  0.00    -0.744 OA
ENDBRANCH  70  74
ENDBRANCH  53  67
BRANCH  54  78
ATOM     78  C   UNL A   1      50.180  28.139  26.198  1.00  0.00     0.023 A 
ATOM     79  C   UNL A   1      50.504  28.121  24.831  1.00  0.00     0.031 A 
ATOM     80  C   UNL A   1      51.222  27.953  27.124  1.00  0.00     0.131 A 
ATOM     81  C   UNL A   1      51.827  27.884  24.429  1.00  0.00     0.055 A 
ATOM     82  C   UNL A   1      52.546  27.773  26.720  1.00  0.00     0.041 A 
ATOM     83  F   UNL A   1      50.966  27.946  28.441  1.00  0.00    -0.206 F 
ATOM     84  C   UNL A   1      52.854  27.726  25.363  1.00  0.00     0.022 A 
BRANCH  81  85
ATOM     85  S   UNL A   1      52.178  27.711  22.658  1.00  0.00     0.124 S 
ATOM     86  O   UNL A   1      52.745  29.017  22.338  1.00  0.00    -0.237 OA
ATOM     87  O   UNL A   1      53.107  26.586  22.641  1.00  0.00    -0.237 OA
ATOM     88  O   UNL A   1      50.864  27.443  22.075  1.00  0.00    -0.744 OA
ENDBRANCH  81  85
ENDBRANCH  54  78
BRANCH  66  89
ATOM     89  C   UNL A   1      46.596  33.535  28.802  1.00  0.00     0.023 A 
ATOM     90  C   UNL A   1      46.601  34.568  27.847  1.00  0.00     0.031 A 
ATOM     91  C   UNL A   1      47.008  33.849  30.110  1.00  0.00     0.131 A 
ATOM     92  C   UNL A   1      47.074  35.844  28.196  1.00  0.00     0.055 A 
ATOM     93  C   UNL A   1      47.407  35.139  30.470  1.00  0.00     0.041 A 
ATOM     94  F   UNL A   1      47.032  32.906  31.066  1.00  0.00    -0.206 F 
ATOM     95  C   UNL A   1      47.458  36.140  29.507  1.00  0.00     0.022 A 
BRANCH  92  96
ATOM     96  S   UNL A   1      47.297  37.080  26.886  1.00  0.00     0.124 S 
ATOM     97  O   UNL A   1      45.942  37.217  26.364  1.00  0.00    -0.237 OA
ATOM     98  O   UNL A   1      47.816  38.227  27.625  1.00  0.00    -0.237 OA
ATOM     99  O   UNL A   1      48.251  36.448  25.976  1.00  0.00    -0.744 OA
ENDBRANCH  92  96
ENDBRANCH  66  89
ENDBRANCH  40  41
ENDBRANCH  33  35
ENDBRANCH  32  33
ENDBRANCH  31  32
ENDBRANCH  30  31
ENDBRANCH  29  30
ENDBRANCH  28  29
ENDBRANCH   1  28
TORSDOF 24
ENDMDL
MODEL 2
REMARK VINA RESULT:      -8.8      3.523      5.333
REMARK SMILES O=C(C[C@H](C(=O)OCCOCCOCCOC(=O)c1ccc(-c2c3nc(c(-c4cc(S(=O)(=O)[O-])ccc4F)c4ccc([nH]4)c(-c4cc(S(=O)(=O)[O-])ccc4F)c4nc(c(-c5cc(S(=O)(=O)[O-])ccc5F)c5ccc2[nH]5)C=C4)C=C3)cc1)c1ccccc1)Nc1ccc(Cl)cc1Cl
REMARK SMILES IDX 11 1 10 2 9 3 8 4 7 5 5 6 6 7 4 8 3 9 2 10 1 11 88 12 89 14
REMARK SMILES IDX 90 15 95 16 91 17 94 18 96 19 92 20 93 21 82 22 83 23 87 24
REMARK SMILES IDX 84 25 86 26 85 27 12 28 13 29 14 30 15 31 16 32 17 33 18 34
REMARK SMILES IDX 19 35 20 36 81 37 21 38 80 39 22 40 23 41 24 42 74 43 25 44
REMARK SMILES IDX 79 45 73 46 75 47 26 48 78 49 72 50 71 51 27 53 59 54 39 55
REMARK SMILES IDX 58 56 40 57 43 58 57 59 76 60 41 61 42 62 56 64 77 65 44 66
REMARK SMILES IDX 28 67 29 68 37 69 30 70 36 71 38 72 35 73 31 74 32 75 33 76
REMARK SMILES IDX 34 77 60 78 61 79 69 80 62 81 68 82 70 83 67 84 63 85 64 86
REMARK SMILES IDX 65 87 66 88 45 89 46 90 54 91 47 92 53 93 55 94 52 95 48 96
REMARK SMILES IDX 49 97 50 98 51 99
REMARK H PARENT 88 13 75 52 43 63
REMARK Flexibility Score: inf
ROOT
ATOM      1  C   UNL A   1      37.719  23.168  26.139  1.00  0.00     0.188 C 
ENDROOT
BRANCH   1   2
ATOM      2  O   UNL A   1      37.762  22.045  25.262  1.00  0.00    -0.376 OA
BRANCH   2   3
ATOM      3  C   UNL A   1      36.746  21.906  24.275  1.00  0.00     0.202 C 
BRANCH   3   4
ATOM      4  C   UNL A   1      36.114  23.189  23.709  1.00  0.00     0.261 C 
BRANCH   4   5
ATOM      5  O   UNL A   1      35.114  22.964  22.689  1.00  0.00    -0.463 OA
BRANCH   5   6
ATOM      6  C   UNL A   1      33.969  23.689  22.765  1.00  0.00     0.314 C 
ATOM      7  O   UNL A   1      33.793  24.741  22.158  1.00  0.00    -0.252 OA
BRANCH   6   8
ATOM      8  C   UNL A   1      32.865  23.097  23.659  1.00  0.00     0.138 C 
BRANCH   8   9
ATOM      9  C   UNL A   1      31.507  23.736  23.313  1.00  0.00     0.120 C 
BRANCH   9  10
ATOM     10  C   UNL A   1      31.128  24.937  24.150  1.00  0.00     0.225 C 
ATOM     11  O   UNL A   1      30.521  24.798  25.205  1.00  0.00    -0.275 OA
ATOM     12  N   UNL A   1      31.558  26.132  23.606  1.00  0.00    -0.325 N 
ATOM     13  H   UNL A   1      31.893  26.118  22.681  1.00  0.00     0.169 HD
BRANCH  12  14
ATOM     14  C   UNL A   1      31.552  27.370  24.279  1.00  0.00     0.060 A 
ATOM     15  C   UNL A   1      30.765  28.369  23.690  1.00  0.00     0.029 A 
ATOM     16  C   UNL A   1      32.317  27.673  25.421  1.00  0.00     0.066 A 
ATOM     17  C   UNL A   1      30.690  29.635  24.267  1.00  0.00     0.023 A 
ATOM     18  C   UNL A   1      32.249  28.950  25.990  1.00  0.00     0.043 A 
ATOM     19  Cl  UNL A   1      33.520  26.596  26.046  1.00  0.00    -0.082 Cl
ATOM     20  C   UNL A   1      31.429  29.919  25.413  1.00  0.00     0.042 A 
ATOM     21  Cl  UNL A   1      31.351  31.503  26.080  1.00  0.00    -0.084 Cl
ENDBRANCH  12  14
ENDBRANCH   9  10
ENDBRANCH   8   9
BRANCH   8  22
ATOM     22  C   UNL A   1      32.786  21.568  23.785  1.00  0.00    -0.033 A 
ATOM     23  C   UNL A   1      33.178  20.948  24.980  1.00  0.00     0.004 A 
ATOM     24  C   UNL A   1      32.255  20.744  22.770  1.00  0.00     0.004 A 
ATOM     25  C   UNL A   1      33.056  19.563  25.145  1.00  0.00     0.000 A 
ATOM     26  C   UNL A   1      32.152  19.360  22.925  1.00  0.00     0.000 A 
ATOM     27  C   UNL A   1      32.551  18.770  24.117  1.00  0.00     0.000 A 
ENDBRANCH   8  22
ENDBRANCH   6   8
ENDBRANCH   5   6
ENDBRANCH   4   5
ENDBRANCH   3   4
ENDBRANCH   2   3
ENDBRANCH   1   2
BRANCH   1  28
ATOM     28  C   UNL A   1      39.004  23.980  26.339  1.00  0.00     0.188 C 
BRANCH  28  29
ATOM     29  O   UNL A   1      39.492  23.944  27.664  1.00  0.00    -0.376 OA
BRANCH  29  30
ATOM     30  C   UNL A   1      40.895  23.862  27.814  1.00  0.00     0.202 C 
BRANCH  30  31
ATOM     31  C   UNL A   1      41.647  23.835  26.477  1.00  0.00     0.261 C 
BRANCH  31  32
ATOM     32  O   UNL A   1      43.057  24.128  26.547  1.00  0.00    -0.460 OA
BRANCH  32  33
ATOM     33  C   UNL A   1      43.502  25.183  25.822  1.00  0.00     0.338 C 
ATOM     34  O   UNL A   1      43.729  25.188  24.620  1.00  0.00    -0.246 OA
BRANCH  33  35
ATOM     35  C   UNL A   1      43.430  26.396  26.670  1.00  0.00     0.060 A 
ATOM     36  C   UNL A   1      43.061  27.613  26.080  1.00  0.00     0.016 A 
ATOM     37  C   UNL A   1      43.706  26.339  28.037  1.00  0.00     0.016 A 
ATOM     38  C   UNL A   1      42.990  28.778  26.849  1.00  0.00     0.010 A 
ATOM     39  C   UNL A   1      43.656  27.511  28.802  1.00  0.00     0.010 A 
ATOM     40  C   UNL A   1      43.323  28.743  28.209  1.00  0.00    -0.014 A 
BRANCH  40  41
ATOM     41  C   UNL A   1      43.474  30.013  28.971  1.00  0.00     0.031 A 
ATOM     42  C   UNL A   1      42.321  30.499  29.809  1.00  0.00     0.074 A 
ATOM     43  C   UNL A   1      44.624  30.711  28.949  1.00  0.00     0.049 A 
ATOM     44  N   UNL A   1      42.207  31.591  30.522  1.00  0.00    -0.248 NA
ATOM     45  C   UNL A   1      41.135  29.632  29.841  1.00  0.00     0.031 C 
ATOM     46  C   UNL A   1      45.837  30.321  28.234  1.00  0.00     0.029 A 
ATOM     47  N   UNL A   1      44.955  31.902  29.550  1.00  0.00    -0.354 N 
ATOM     48  C   UNL A   1      40.936  31.545  31.087  1.00  0.00     0.074 A 
ATOM     49  C   UNL A   1      40.304  30.338  30.593  1.00  0.00     0.031 C 
ATOM     50  C   UNL A   1      46.781  31.257  28.437  1.00  0.00     0.029 A 
ATOM     51  C   UNL A   1      46.228  32.334  29.255  1.00  0.00     0.049 A 
ATOM     52  H   UNL A   1      44.340  32.399  30.137  1.00  0.00     0.167 HD
ATOM     53  C   UNL A   1      40.353  32.422  31.944  1.00  0.00     0.034 A 
ATOM     54  C   UNL A   1      46.863  33.477  29.587  1.00  0.00     0.034 A 
ATOM     55  C   UNL A   1      40.987  33.631  32.414  1.00  0.00     0.049 A 
ATOM     56  C   UNL A   1      46.154  34.496  30.447  1.00  0.00     0.074 A 
ATOM     57  C   UNL A   1      40.490  34.578  33.294  1.00  0.00     0.029 A 
ATOM     58  N   UNL A   1      42.246  34.075  32.029  1.00  0.00    -0.354 N 
ATOM     59  N   UNL A   1      44.953  34.442  30.980  1.00  0.00    -0.248 NA
ATOM     60  C   UNL A   1      46.891  35.729  30.755  1.00  0.00     0.031 C 
ATOM     61  C   UNL A   1      41.405  35.633  33.369  1.00  0.00     0.029 A 
ATOM     62  C   UNL A   1      42.520  35.304  32.616  1.00  0.00     0.049 A 
ATOM     63  H   UNL A   1      42.856  33.589  31.429  1.00  0.00     0.167 HD
ATOM     64  C   UNL A   1      44.808  35.619  31.713  1.00  0.00     0.074 A 
ATOM     65  C   UNL A   1      46.049  36.353  31.565  1.00  0.00     0.031 C 
ATOM     66  C   UNL A   1      43.750  36.048  32.447  1.00  0.00     0.034 A 
BRANCH  53  67
ATOM     67  C   UNL A   1      38.931  32.128  32.370  1.00  0.00     0.023 A 
ATOM     68  C   UNL A   1      37.824  32.681  31.702  1.00  0.00     0.031 A 
ATOM     69  C   UNL A   1      38.681  31.320  33.494  1.00  0.00     0.131 A 
ATOM     70  C   UNL A   1      36.530  32.491  32.212  1.00  0.00     0.055 A 
ATOM     71  C   UNL A   1      37.384  31.060  33.942  1.00  0.00     0.041 A 
ATOM     72  F   UNL A   1      39.695  30.784  34.191  1.00  0.00    -0.206 F 
ATOM     73  C   UNL A   1      36.301  31.662  33.312  1.00  0.00     0.022 A 
BRANCH  70  74
ATOM     74  S   UNL A   1      35.175  33.486  31.528  1.00  0.00     0.124 S 
ATOM     75  O   UNL A   1      34.012  32.662  31.849  1.00  0.00    -0.237 OA
ATOM     76  O   UNL A   1      35.297  34.736  32.269  1.00  0.00    -0.237 OA
ATOM     77  O   UNL A   1      35.495  33.568  30.104  1.00  0.00    -0.744 OA
ENDBRANCH  70  74
ENDBRANCH  53  67
BRANCH  54  78
ATOM     78  C   UNL A   1      48.239  33.746  29.076  1.00  0.00     0.023 A 
ATOM     79  C   UNL A   1      48.449  34.248  27.781  1.00  0.00     0.031 A 
ATOM     80  C   UNL A   1      49.369  33.454  29.860  1.00  0.00     0.131 A 
ATOM     81  C   UNL A   1      49.756  34.408  27.296  1.00  0.00     0.055 A 
ATOM     82  C   UNL A   1      50.667  33.667  29.393  1.00  0.00     0.041 A 
ATOM     83  F   UNL A   1      49.226  32.958  31.099  1.00  0.00    -0.206 F 
ATOM     84  C   UNL A   1      50.867  34.136  28.098  1.00  0.00     0.022 A 
BRANCH  81  85
ATOM     85  S   UNL A   1      49.985  34.907  25.567  1.00  0.00     0.124 S 
ATOM     86  O   UNL A   1      48.699  34.544  24.981  1.00  0.00    -0.237 OA
ATOM     87  O   UNL A   1      50.251  36.337  25.697  1.00  0.00    -0.237 OA
ATOM     88  O   UNL A   1      51.121  34.099  25.126  1.00  0.00    -0.744 OA
ENDBRANCH  81  85
ENDBRANCH  54  78
BRANCH  66  89
ATOM     89  C   UNL A   1      43.903  37.363  33.182  1.00  0.00     0.023 A 
ATOM     90  C   UNL A   1      43.493  38.584  32.617  1.00  0.00     0.031 A 
ATOM     91  C   UNL A   1      44.493  37.397  34.459  1.00  0.00     0.131 A 
ATOM     92  C   UNL A   1      43.741  39.789  33.294  1.00  0.00     0.055 A 
ATOM     93  C   UNL A   1      44.669  38.593  35.161  1.00  0.00     0.041 A 
ATOM     94  F   UNL A   1      44.911  36.267  35.051  1.00  0.00    -0.206 F 
ATOM     95  C   UNL A   1      44.308  39.799  34.571  1.00  0.00     0.022 A 
BRANCH  92  96
ATOM     96  S   UNL A   1      43.424  41.355  32.433  1.00  0.00     0.124 S 
ATOM     97  O   UNL A   1      44.614  42.131  32.766  1.00  0.00    -0.237 OA
ATOM     98  O   UNL A   1      43.308  40.928  31.042  1.00  0.00    -0.237 OA
ATOM     99  O   UNL A   1      42.182  41.835  33.037  1.00  0.00    -0.744 OA
ENDBRANCH  92  96
ENDBRANCH  66  89
ENDBRANCH  40  41
ENDBRANCH  33  35
ENDBRANCH  32  33
ENDBRANCH  31  32
ENDBRANCH  30  31
ENDBRANCH  29  30
ENDBRANCH  28  29
ENDBRANCH   1  28
TORSDOF 24
ENDMDL
MODEL 3
REMARK VINA RESULT:      -8.7      2.649      9.542
REMARK SMILES O=C(C[C@H](C(=O)OCCOCCOCCOC(=O)c1ccc(-c2c3nc(c(-c4cc(S(=O)(=O)[O-])ccc4F)c4ccc([nH]4)c(-c4cc(S(=O)(=O)[O-])ccc4F)c4nc(c(-c5cc(S(=O)(=O)[O-])ccc5F)c5ccc2[nH]5)C=C4)C=C3)cc1)c1ccccc1)Nc1ccc(Cl)cc1Cl
REMARK SMILES IDX 11 1 10 2 9 3 8 4 7 5 5 6 6 7 4 8 3 9 2 10 1 11 88 12 89 14
REMARK SMILES IDX 90 15 95 16 91 17 94 18 96 19 92 20 93 21 82 22 83 23 87 24
REMARK SMILES IDX 84 25 86 26 85 27 12 28 13 29 14 30 15 31 16 32 17 33 18 34
REMARK SMILES IDX 19 35 20 36 81 37 21 38 80 39 22 40 23 41 24 42 74 43 25 44
REMARK SMILES IDX 79 45 73 46 75 47 26 48 78 49 72 50 71 51 27 53 59 54 39 55
REMARK SMILES IDX 58 56 40 57 43 58 57 59 76 60 41 61 42 62 56 64 77 65 44 66
REMARK SMILES IDX 28 67 29 68 37 69 30 70 36 71 38 72 35 73 31 74 32 75 33 76
REMARK SMILES IDX 34 77 60 78 61 79 69 80 62 81 68 82 70 83 67 84 63 85 64 86
REMARK SMILES IDX 65 87 66 88 45 89 46 90 54 91 47 92 53 93 55 94 52 95 48 96
REMARK SMILES IDX 49 97 50 98 51 99
REMARK H PARENT 88 13 75 52 43 63
REMARK Flexibility Score: inf
ROOT
ATOM      1  C   UNL A   1      37.033  30.622  28.337  1.00  0.00     0.188 C 
ENDROOT
BRANCH   1   2
ATOM      2  O   UNL A   1      36.196  30.015  27.356  1.00  0.00    -0.376 OA
BRANCH   2   3
ATOM      3  C   UNL A   1      35.121  29.188  27.788  1.00  0.00     0.202 C 
BRANCH   3   4
ATOM      4  C   UNL A   1      33.736  29.423  27.161  1.00  0.00     0.261 C 
BRANCH   4   5
ATOM      5  O   UNL A   1      33.281  28.355  26.299  1.00  0.00    -0.463 OA
BRANCH   5   6
ATOM      6  C   UNL A   1      32.103  27.757  26.613  1.00  0.00     0.314 C 
ATOM      7  O   UNL A   1      31.562  27.864  27.709  1.00  0.00    -0.252 OA
BRANCH   6   8
ATOM      8  C   UNL A   1      31.455  26.934  25.486  1.00  0.00     0.138 C 
BRANCH   8   9
ATOM      9  C   UNL A   1      30.701  25.729  26.080  1.00  0.00     0.120 C 
BRANCH   9  10
ATOM     10  C   UNL A   1      31.535  24.486  26.288  1.00  0.00     0.225 C 
ATOM     11  O   UNL A   1      31.621  23.968  27.395  1.00  0.00    -0.275 OA
ATOM     12  N   UNL A   1      32.127  24.031  25.126  1.00  0.00    -0.325 N 
ATOM     13  H   UNL A   1      32.108  24.626  24.342  1.00  0.00     0.169 HD
BRANCH  12  14
ATOM     14  C   UNL A   1      32.757  22.779  24.980  1.00  0.00     0.060 A 
ATOM     15  C   UNL A   1      31.897  21.699  24.739  1.00  0.00     0.029 A 
ATOM     16  C   UNL A   1      34.137  22.547  25.129  1.00  0.00     0.066 A 
ATOM     17  C   UNL A   1      32.411  20.413  24.585  1.00  0.00     0.023 A 
ATOM     18  C   UNL A   1      34.648  21.251  24.987  1.00  0.00     0.043 A 
ATOM     19  Cl  UNL A   1      35.228  23.764  25.700  1.00  0.00    -0.082 Cl
ATOM     20  C   UNL A   1      33.781  20.196  24.707  1.00  0.00     0.042 A 
ATOM     21  Cl  UNL A   1      34.384  18.591  24.553  1.00  0.00    -0.084 Cl
ENDBRANCH  12  14
ENDBRANCH   9  10
ENDBRANCH   8   9
BRANCH   8  22
ATOM     22  C   UNL A   1      30.633  27.686  24.429  1.00  0.00    -0.033 A 
ATOM     23  C   UNL A   1      31.188  28.798  23.779  1.00  0.00     0.004 A 
ATOM     24  C   UNL A   1      29.353  27.262  24.012  1.00  0.00     0.004 A 
ATOM     25  C   UNL A   1      30.486  29.463  22.766  1.00  0.00     0.000 A 
ATOM     26  C   UNL A   1      28.643  27.938  23.017  1.00  0.00     0.000 A 
ATOM     27  C   UNL A   1      29.213  29.038  22.392  1.00  0.00     0.000 A 
ENDBRANCH   8  22
ENDBRANCH   6   8
ENDBRANCH   5   6
ENDBRANCH   4   5
ENDBRANCH   3   4
ENDBRANCH   2   3
ENDBRANCH   1   2
BRANCH   1  28
ATOM     28  C   UNL A   1      36.465  30.830  29.745  1.00  0.00     0.188 C 
BRANCH  28  29
ATOM     29  O   UNL A   1      36.505  29.666  30.546  1.00  0.00    -0.376 OA
BRANCH  29  30
ATOM     30  C   UNL A   1      37.025  29.820  31.850  1.00  0.00     0.202 C 
BRANCH  30  31
ATOM     31  C   UNL A   1      36.651  31.158  32.499  1.00  0.00     0.261 C 
BRANCH  31  32
ATOM     32  O   UNL A   1      37.668  31.758  33.326  1.00  0.00    -0.460 OA
BRANCH  32  33
ATOM     33  C   UNL A   1      38.266  32.878  32.851  1.00  0.00     0.338 C 
ATOM     34  O   UNL A   1      37.913  34.030  33.065  1.00  0.00    -0.246 OA
BRANCH  33  35
ATOM     35  C   UNL A   1      39.561  32.494  32.242  1.00  0.00     0.060 A 
ATOM     36  C   UNL A   1      39.652  32.402  30.847  1.00  0.00     0.016 A 
ATOM     37  C   UNL A   1      40.683  32.240  33.033  1.00  0.00     0.016 A 
ATOM     38  C   UNL A   1      40.856  32.035  30.240  1.00  0.00     0.010 A 
ATOM     39  C   UNL A   1      41.883  31.849  32.424  1.00  0.00     0.010 A 
ATOM     40  C   UNL A   1      41.972  31.719  31.026  1.00  0.00    -0.014 A 
BRANCH  40  41
ATOM     41  C   UNL A   1      43.174  31.107  30.399  1.00  0.00     0.031 A 
ATOM     42  C   UNL A   1      44.329  31.997  30.021  1.00  0.00     0.074 A 
ATOM     43  C   UNL A   1      43.260  29.780  30.195  1.00  0.00     0.049 A 
ATOM     44  N   UNL A   1      45.458  31.697  29.430  1.00  0.00    -0.248 NA
ATOM     45  C   UNL A   1      44.185  33.421  30.356  1.00  0.00     0.031 C 
ATOM     46  C   UNL A   1      42.246  28.799  30.573  1.00  0.00     0.029 A 
ATOM     47  N   UNL A   1      44.256  29.030  29.616  1.00  0.00    -0.354 N 
ATOM     48  C   UNL A   1      46.159  32.894  29.318  1.00  0.00     0.074 A 
ATOM     49  C   UNL A   1      45.304  33.929  29.863  1.00  0.00     0.031 C 
ATOM     50  C   UNL A   1      42.670  27.574  30.214  1.00  0.00     0.029 A 
ATOM     51  C   UNL A   1      43.962  27.688  29.541  1.00  0.00     0.049 A 
ATOM     52  H   UNL A   1      45.099  29.416  29.286  1.00  0.00     0.167 HD
ATOM     53  C   UNL A   1      47.402  33.109  28.817  1.00  0.00     0.034 A 
ATOM     54  C   UNL A   1      44.645  26.672  28.972  1.00  0.00     0.034 A 
ATOM     55  C   UNL A   1      48.237  32.071  28.260  1.00  0.00     0.049 A 
ATOM     56  C   UNL A   1      45.976  26.952  28.315  1.00  0.00     0.074 A 
ATOM     57  C   UNL A   1      49.516  32.180  27.740  1.00  0.00     0.029 A 
ATOM     58  N   UNL A   1      47.872  30.737  28.127  1.00  0.00    -0.354 N 
ATOM     59  N   UNL A   1      46.633  28.087  28.218  1.00  0.00    -0.248 NA
ATOM     60  C   UNL A   1      46.660  25.809  27.695  1.00  0.00     0.031 C 
ATOM     61  C   UNL A   1      49.886  30.938  27.214  1.00  0.00     0.029 A 
ATOM     62  C   UNL A   1      48.881  30.025  27.491  1.00  0.00     0.049 A 
ATOM     63  H   UNL A   1      47.022  30.351  28.440  1.00  0.00     0.167 HD
ATOM     64  C   UNL A   1      47.822  27.783  27.556  1.00  0.00     0.074 A 
ATOM     65  C   UNL A   1      47.797  26.359  27.293  1.00  0.00     0.031 C 
ATOM     66  C   UNL A   1      48.844  28.607  27.206  1.00  0.00     0.034 A 
BRANCH  53  67
ATOM     67  C   UNL A   1      47.899  34.538  28.793  1.00  0.00     0.023 A 
ATOM     68  C   UNL A   1      47.632  35.401  27.714  1.00  0.00     0.031 A 
ATOM     69  C   UNL A   1      48.692  35.031  29.845  1.00  0.00     0.131 A 
ATOM     70  C   UNL A   1      48.224  36.673  27.671  1.00  0.00     0.055 A 
ATOM     71  C   UNL A   1      49.202  36.330  29.839  1.00  0.00     0.041 A 
ATOM     72  F   UNL A   1      49.003  34.249  30.891  1.00  0.00    -0.206 F 
ATOM     73  C   UNL A   1      48.985  37.153  28.739  1.00  0.00     0.022 A 
BRANCH  70  74
ATOM     74  S   UNL A   1      48.135  37.617  26.125  1.00  0.00     0.124 S 
ATOM     75  O   UNL A   1      46.741  37.416  25.734  1.00  0.00    -0.237 OA
ATOM     76  O   UNL A   1      48.489  38.964  26.557  1.00  0.00    -0.237 OA
ATOM     77  O   UNL A   1      49.115  36.959  25.263  1.00  0.00    -0.744 OA
ENDBRANCH  70  74
ENDBRANCH  53  67
BRANCH  54  78
ATOM     78  C   UNL A   1      44.072  25.295  28.961  1.00  0.00     0.023 A 
ATOM     79  C   UNL A   1      43.190  24.882  27.948  1.00  0.00     0.031 A 
ATOM     80  C   UNL A   1      44.357  24.387  29.996  1.00  0.00     0.131 A 
ATOM     81  C   UNL A   1      42.598  23.611  28.012  1.00  0.00     0.055 A 
ATOM     82  C   UNL A   1      43.808  23.104  30.025  1.00  0.00     0.041 A 
ATOM     83  F   UNL A   1      45.181  24.735  30.997  1.00  0.00    -0.206 F 
ATOM     84  C   UNL A   1      42.912  22.713  29.035  1.00  0.00     0.022 A 
BRANCH  81  85
ATOM     85  S   UNL A   1      41.346  23.175  26.774  1.00  0.00     0.124 S 
ATOM     86  O   UNL A   1      42.169  22.632  25.699  1.00  0.00    -0.237 OA
ATOM     87  O   UNL A   1      40.522  22.214  27.501  1.00  0.00    -0.237 OA
ATOM     88  O   UNL A   1      40.699  24.453  26.479  1.00  0.00    -0.744 OA
ENDBRANCH  81  85
ENDBRANCH  54  78
BRANCH  66  89
ATOM     89  C   UNL A   1      50.043  27.975  26.531  1.00  0.00     0.023 A 
ATOM     90  C   UNL A   1      50.258  28.081  25.145  1.00  0.00     0.031 A 
ATOM     91  C   UNL A   1      50.972  27.234  27.284  1.00  0.00     0.131 A 
ATOM     92  C   UNL A   1      51.331  27.401  24.547  1.00  0.00     0.055 A 
ATOM     93  C   UNL A   1      52.080  26.620  26.694  1.00  0.00     0.041 A 
ATOM     94  F   UNL A   1      50.821  27.090  28.611  1.00  0.00    -0.206 F 
ATOM     95  C   UNL A   1      52.254  26.687  25.316  1.00  0.00     0.022 A 
BRANCH  92  96
ATOM     96  S   UNL A   1      51.436  27.357  22.736  1.00  0.00     0.124 S 
ATOM     97  O   UNL A   1      51.811  28.732  22.421  1.00  0.00    -0.237 OA
ATOM     98  O   UNL A   1      52.463  26.347  22.507  1.00  0.00    -0.237 OA
ATOM     99  O   UNL A   1      50.087  26.972  22.322  1.00  0.00    -0.744 OA
ENDBRANCH  92  96
ENDBRANCH  66  89
ENDBRANCH  40  41
ENDBRANCH  33  35
ENDBRANCH  32  33
ENDBRANCH  31  32
ENDBRANCH  30  31
ENDBRANCH  29  30
ENDBRANCH  28  29
ENDBRANCH   1  28
TORSDOF 24
ENDMDL
