MODEL 1
REMARK VINA RESULT:     -10.8      0.000      0.000
REMARK SMILES CC1=C(C)C[C@H](C(=O)OCCOCCOCCOC(=O)c2ccc(-c3c4nc(c(-c5cc(S(=O)(=O)[O-])ccc5F)c5ccc([nH]5)c(-c5cc(S(=O)(=O)[O-])ccc5F)c5nc(c(-c6cc(S(=O)(=O)[O-])ccc6F)c6ccc3[nH]6)C=C5)C=C4)cc2)[C@@H](C(=O)Nc2sc3c(c2C(=O)NC2CCCC2)CCCC3)C1
REMARK SMILES IDX 13 1 12 2 11 3 10 4 9 5 7 6 8 7 6 8 1 9 2 10 3 11 105 12
REMARK SMILES IDX 4 13 5 14 84 15 85 16 86 17 87 18 88 20 89 21 92 22 90 23
REMARK SMILES IDX 91 24 104 25 101 26 103 27 102 28 93 29 94 30 95 31 96 33
REMARK SMILES IDX 97 34 100 35 98 36 99 37 14 38 15 39 16 40 17 41 18 42 19 43
REMARK SMILES IDX 20 44 21 45 22 46 83 47 23 48 82 49 24 50 25 51 26 52 76 53
REMARK SMILES IDX 27 54 81 55 75 56 77 57 28 58 80 59 74 60 73 61 29 63 61 64
REMARK SMILES IDX 41 65 60 66 42 67 45 68 59 69 78 70 43 71 44 72 58 74 79 75
REMARK SMILES IDX 46 76 30 77 31 78 39 79 32 80 38 81 40 82 37 83 33 84 34 85
REMARK SMILES IDX 35 86 36 87 62 88 63 89 71 90 64 91 70 92 72 93 69 94 65 95
REMARK SMILES IDX 66 96 67 97 68 98 47 99 48 100 56 101 49 102 55 103 57 104
REMARK SMILES IDX 54 105 50 106 51 107 52 108 53 109
REMARK H PARENT 87 19 95 32 77 62 45 73
REMARK Flexibility Score: inf
ROOT
ATOM      1  C   UNL A   1      37.696  21.641  25.090  1.00  0.00     0.188 C 
ENDROOT
BRANCH   1   2
ATOM      2  O   UNL A   1      37.670  22.915  25.752  1.00  0.00    -0.376 OA
BRANCH   2   3
ATOM      3  C   UNL A   1      36.732  23.833  25.193  1.00  0.00     0.202 C 
BRANCH   3   4
ATOM      4  C   UNL A   1      35.884  23.283  24.039  1.00  0.00     0.261 C 
BRANCH   4   5
ATOM      5  O   UNL A   1      34.477  23.554  24.188  1.00  0.00    -0.463 OA
BRANCH   5   6
ATOM      6  C   UNL A   1      33.713  23.186  23.111  1.00  0.00     0.310 C 
ATOM      7  O   UNL A   1      34.027  23.351  21.942  1.00  0.00    -0.252 OA
BRANCH   6   8
ATOM      8  C   UNL A   1      32.397  22.571  23.560  1.00  0.00     0.116 C 
ATOM      9  C   UNL A   1      32.860  18.700  25.740  1.00  0.00     0.039 C 
ATOM     10  C   UNL A   1      32.704  19.942  24.899  1.00  0.00    -0.074 C 
ATOM     11  C   UNL A   1      32.417  19.973  23.581  1.00  0.00    -0.073 C 
ATOM     12  C   UNL A   1      32.909  21.200  25.701  1.00  0.00     0.045 C 
ATOM     13  C   UNL A   1      32.318  18.763  22.691  1.00  0.00     0.039 C 
ATOM     14  C   UNL A   1      32.155  21.257  22.829  1.00  0.00     0.046 C 
ATOM     15  C   UNL A   1      32.375  22.491  25.081  1.00  0.00     0.097 C 
BRANCH  15  16
ATOM     16  C   UNL A   1      30.977  22.727  25.663  1.00  0.00     0.229 C 
ATOM     17  O   UNL A   1      30.148  21.825  25.775  1.00  0.00    -0.274 OA
ATOM     18  N   UNL A   1      30.726  23.980  26.166  1.00  0.00    -0.317 N 
ATOM     19  H   UNL A   1      30.045  24.086  26.870  1.00  0.00     0.170 HD
BRANCH  18  20
ATOM     20  C   UNL A   1      31.398  25.085  25.715  1.00  0.00     0.108 A 
ATOM     21  S   UNL A   1      32.342  25.832  26.848  1.00  0.00    -0.122 S 
ATOM     22  C   UNL A   1      31.360  25.802  24.535  1.00  0.00     0.078 A 
ATOM     23  C   UNL A   1      33.034  26.888  25.692  1.00  0.00     0.011 A 
ATOM     24  C   UNL A   1      32.593  26.561  24.430  1.00  0.00    -0.019 A 
ATOM     25  C   UNL A   1      34.104  27.937  25.937  1.00  0.00     0.047 C 
ATOM     26  C   UNL A   1      33.419  27.137  23.327  1.00  0.00     0.037 C 
ATOM     27  C   UNL A   1      34.239  28.996  24.832  1.00  0.00     0.006 C 
ATOM     28  C   UNL A   1      33.597  28.643  23.492  1.00  0.00     0.005 C 
BRANCH  22  29
ATOM     29  C   UNL A   1      30.070  25.960  23.873  1.00  0.00     0.254 C 
ATOM     30  O   UNL A   1      29.698  25.164  23.023  1.00  0.00    -0.269 OA
ATOM     31  N   UNL A   1      29.435  27.153  24.076  1.00  0.00    -0.349 N 
ATOM     32  H   UNL A   1      29.205  27.410  24.999  1.00  0.00     0.164 HD
BRANCH  31  33
ATOM     33  C   UNL A   1      29.084  28.059  23.001  1.00  0.00     0.082 C 
ATOM     34  C   UNL A   1      27.757  28.810  23.123  1.00  0.00     0.025 C 
ATOM     35  C   UNL A   1      30.062  29.182  22.713  1.00  0.00     0.025 C 
ATOM     36  C   UNL A   1      27.802  29.750  21.929  1.00  0.00     0.002 C 
ATOM     37  C   UNL A   1      29.288  30.067  21.727  1.00  0.00     0.002 C 
ENDBRANCH  31  33
ENDBRANCH  22  29
ENDBRANCH  18  20
ENDBRANCH  15  16
ENDBRANCH   6   8
ENDBRANCH   5   6
ENDBRANCH   4   5
ENDBRANCH   3   4
ENDBRANCH   2   3
ENDBRANCH   1   2
BRANCH   1  38
ATOM     38  C   UNL A   1      38.791  20.751  25.718  1.00  0.00     0.188 C 
BRANCH  38  39
ATOM     39  O   UNL A   1      39.862  21.508  26.275  1.00  0.00    -0.376 OA
BRANCH  39  40
ATOM     40  C   UNL A   1      41.153  20.884  26.126  1.00  0.00     0.202 C 
BRANCH  40  41
ATOM     41  C   UNL A   1      42.285  21.541  26.957  1.00  0.00     0.261 C 
BRANCH  41  42
ATOM     42  O   UNL A   1      43.552  21.778  26.277  1.00  0.00    -0.460 OA
BRANCH  42  43
ATOM     43  C   UNL A   1      43.570  22.753  25.312  1.00  0.00     0.338 C 
ATOM     44  O   UNL A   1      43.441  22.561  24.118  1.00  0.00    -0.246 OA
BRANCH  43  45
ATOM     45  C   UNL A   1      43.744  24.134  25.901  1.00  0.00     0.060 A 
ATOM     46  C   UNL A   1      44.309  24.285  27.175  1.00  0.00     0.016 A 
ATOM     47  C   UNL A   1      43.283  25.290  25.268  1.00  0.00     0.016 A 
ATOM     48  C   UNL A   1      44.509  25.568  27.755  1.00  0.00     0.010 A 
ATOM     49  C   UNL A   1      43.449  26.572  25.868  1.00  0.00     0.010 A 
ATOM     50  C   UNL A   1      44.118  26.752  27.098  1.00  0.00    -0.014 A 
BRANCH  50  51
ATOM     51  C   UNL A   1      44.177  28.123  27.772  1.00  0.00     0.031 A 
ATOM     52  C   UNL A   1      42.883  28.672  28.288  1.00  0.00     0.074 A 
ATOM     53  C   UNL A   1      45.263  28.920  27.977  1.00  0.00     0.049 A 
ATOM     54  N   UNL A   1      42.655  29.825  28.861  1.00  0.00    -0.248 NA
ATOM     55  C   UNL A   1      41.706  27.802  28.166  1.00  0.00     0.031 C 
ATOM     56  C   UNL A   1      46.621  28.560  27.704  1.00  0.00     0.029 A 
ATOM     57  N   UNL A   1      45.444  30.204  28.468  1.00  0.00    -0.354 N 
ATOM     58  C   UNL A   1      41.319  29.804  29.213  1.00  0.00     0.074 A 
ATOM     59  C   UNL A   1      40.779  28.541  28.751  1.00  0.00     0.031 C 
ATOM     60  C   UNL A   1      47.504  29.516  27.964  1.00  0.00     0.029 A 
ATOM     61  C   UNL A   1      46.756  30.662  28.387  1.00  0.00     0.049 A 
ATOM     62  H   UNL A   1      44.710  30.744  28.839  1.00  0.00     0.167 HD
ATOM     63  C   UNL A   1      40.605  30.751  29.865  1.00  0.00     0.034 A 
ATOM     64  C   UNL A   1      47.359  31.850  28.575  1.00  0.00     0.034 A 
ATOM     65  C   UNL A   1      41.109  32.050  30.232  1.00  0.00     0.049 A 
ATOM     66  C   UNL A   1      46.512  32.951  29.091  1.00  0.00     0.074 A 
ATOM     67  C   UNL A   1      40.427  33.100  30.818  1.00  0.00     0.029 A 
ATOM     68  N   UNL A   1      42.408  32.499  30.013  1.00  0.00    -0.354 N 
ATOM     69  N   UNL A   1      45.241  32.902  29.399  1.00  0.00    -0.248 NA
ATOM     70  C   UNL A   1      47.163  34.241  29.317  1.00  0.00     0.031 C 
ATOM     71  C   UNL A   1      41.291  34.202  30.894  1.00  0.00     0.029 A 
ATOM     72  C   UNL A   1      42.531  33.825  30.409  1.00  0.00     0.049 A 
ATOM     73  H   UNL A   1      43.135  31.954  29.633  1.00  0.00     0.167 HD
ATOM     74  C   UNL A   1      44.934  34.157  29.880  1.00  0.00     0.074 A 
ATOM     75  C   UNL A   1      46.162  34.933  29.839  1.00  0.00     0.031 C 
ATOM     76  C   UNL A   1      43.737  34.613  30.321  1.00  0.00     0.034 A 
BRANCH  63  77
ATOM     77  C   UNL A   1      39.165  30.401  30.103  1.00  0.00     0.023 A 
ATOM     78  C   UNL A   1      38.143  30.949  29.307  1.00  0.00     0.031 A 
ATOM     79  C   UNL A   1      38.806  29.655  31.236  1.00  0.00     0.131 A 
ATOM     80  C   UNL A   1      36.808  30.818  29.709  1.00  0.00     0.055 A 
ATOM     81  C   UNL A   1      37.471  29.462  31.587  1.00  0.00     0.041 A 
ATOM     82  F   UNL A   1      39.747  29.155  32.051  1.00  0.00    -0.206 F 
ATOM     83  C   UNL A   1      36.464  30.060  30.832  1.00  0.00     0.022 A 
BRANCH  80  84
ATOM     84  S   UNL A   1      35.542  31.791  28.850  1.00  0.00     0.124 S 
ATOM     85  O   UNL A   1      34.853  30.760  28.078  1.00  0.00    -0.237 OA
ATOM     86  O   UNL A   1      34.786  32.374  29.953  1.00  0.00    -0.237 OA
ATOM     87  O   UNL A   1      36.320  32.740  28.057  1.00  0.00    -0.744 OA
ENDBRANCH  80  84
ENDBRANCH  63  77
BRANCH  64  88
ATOM     88  C   UNL A   1      48.803  32.049  28.217  1.00  0.00     0.023 A 
ATOM     89  C   UNL A   1      49.201  32.735  27.057  1.00  0.00     0.031 A 
ATOM     90  C   UNL A   1      49.818  31.565  29.069  1.00  0.00     0.131 A 
ATOM     91  C   UNL A   1      50.569  32.903  26.777  1.00  0.00     0.055 A 
ATOM     92  C   UNL A   1      51.175  31.769  28.805  1.00  0.00     0.041 A 
ATOM     93  F   UNL A   1      49.501  30.913  30.200  1.00  0.00    -0.206 F 
ATOM     94  C   UNL A   1      51.557  32.435  27.647  1.00  0.00     0.022 A 
BRANCH  91  95
ATOM     95  S   UNL A   1      51.059  33.699  25.219  1.00  0.00     0.124 S 
ATOM     96  O   UNL A   1      51.361  32.551  24.373  1.00  0.00    -0.237 OA
ATOM     97  O   UNL A   1      49.855  34.451  24.877  1.00  0.00    -0.237 OA
ATOM     98  O   UNL A   1      52.211  34.513  25.599  1.00  0.00    -0.744 OA
ENDBRANCH  91  95
ENDBRANCH  64  88
BRANCH  76  99
ATOM     99  C   UNL A   1      43.736  36.034  30.795  1.00  0.00     0.023 A 
ATOM    100  C   UNL A   1      43.555  37.093  29.889  1.00  0.00     0.031 A 
ATOM    101  C   UNL A   1      44.037  36.334  32.131  1.00  0.00     0.131 A 
ATOM    102  C   UNL A   1      43.763  38.409  30.316  1.00  0.00     0.055 A 
ATOM    103  C   UNL A   1      44.174  37.652  32.566  1.00  0.00     0.041 A 
ATOM    104  F   UNL A   1      44.236  35.353  33.025  1.00  0.00    -0.206 F 
ATOM    105  C   UNL A   1      44.055  38.697  31.652  1.00  0.00     0.022 A 
BRANCH 102 106
ATOM    106  S   UNL A   1      43.763  39.728  29.073  1.00  0.00     0.124 S 
ATOM    107  O   UNL A   1      45.013  39.469  28.364  1.00  0.00    -0.237 OA
ATOM    108  O   UNL A   1      42.539  39.459  28.326  1.00  0.00    -0.237 OA
ATOM    109  O   UNL A   1      43.744  40.951  29.873  1.00  0.00    -0.744 OA
ENDBRANCH 102 106
ENDBRANCH  76  99
ENDBRANCH  50  51
ENDBRANCH  43  45
ENDBRANCH  42  43
ENDBRANCH  41  42
ENDBRANCH  40  41
ENDBRANCH  39  40
ENDBRANCH  38  39
ENDBRANCH   1  38
TORSDOF 24
ENDMDL
MODEL 2
REMARK VINA RESULT:     -10.7      4.998     10.031
REMARK SMILES CC1=C(C)C[C@H](C(=O)OCCOCCOCCOC(=O)c2ccc(-c3c4nc(c(-c5cc(S(=O)(=O)[O-])ccc5F)c5ccc([nH]5)c(-c5cc(S(=O)(=O)[O-])ccc5F)c5nc(c(-c6cc(S(=O)(=O)[O-])ccc6F)c6ccc3[nH]6)C=C5)C=C4)cc2)[C@@H](C(=O)Nc2sc3c(c2C(=O)NC2CCCC2)CCCC3)C1
REMARK SMILES IDX 13 1 12 2 11 3 10 4 9 5 7 6 8 7 6 8 1 9 2 10 3 11 105 12
REMARK SMILES IDX 4 13 5 14 84 15 85 16 86 17 87 18 88 20 89 21 92 22 90 23
REMARK SMILES IDX 91 24 104 25 101 26 103 27 102 28 93 29 94 30 95 31 96 33
REMARK SMILES IDX 97 34 100 35 98 36 99 37 14 38 15 39 16 40 17 41 18 42 19 43
REMARK SMILES IDX 20 44 21 45 22 46 83 47 23 48 82 49 24 50 25 51 26 52 76 53
REMARK SMILES IDX 27 54 81 55 75 56 77 57 28 58 80 59 74 60 73 61 29 63 61 64
REMARK SMILES IDX 41 65 60 66 42 67 45 68 59 69 78 70 43 71 44 72 58 74 79 75
REMARK SMILES IDX 46 76 30 77 31 78 39 79 32 80 38 81 40 82 37 83 33 84 34 85
REMARK SMILES IDX 35 86 36 87 62 88 63 89 71 90 64 91 70 92 72 93 69 94 65 95
REMARK SMILES IDX 66 96 67 97 68 98 47 99 48 100 56 101 49 102 55 103 57 104
REMARK SMILES IDX 54 105 50 106 51 107 52 108 53 109
REMARK H PARENT 87 19 95 32 77 62 45 73
REMARK Flexibility Score: inf
ROOT
ATOM      1  C   UNL A   1      32.106  30.520  26.620  1.00  0.00     0.188 C 
ENDROOT
BRANCH   1   2
ATOM      2  O   UNL A   1      32.700  29.510  25.791  1.00  0.00    -0.376 OA
BRANCH   2   3
ATOM      3  C   UNL A   1      33.063  28.326  26.498  1.00  0.00     0.202 C 
BRANCH   3   4
ATOM      4  C   UNL A   1      32.073  27.882  27.583  1.00  0.00     0.261 C 
BRANCH   4   5
ATOM      5  O   UNL A   1      30.887  27.261  27.049  1.00  0.00    -0.463 OA
BRANCH   5   6
ATOM      6  C   UNL A   1      31.078  25.990  26.575  1.00  0.00     0.310 C 
ATOM      7  O   UNL A   1      31.695  25.111  27.159  1.00  0.00    -0.252 OA
BRANCH   6   8
ATOM      8  C   UNL A   1      30.450  25.820  25.200  1.00  0.00     0.116 C 
ATOM      9  C   UNL A   1      32.481  28.162  21.983  1.00  0.00     0.039 C 
ATOM     10  C   UNL A   1      31.728  27.471  23.094  1.00  0.00    -0.074 C 
ATOM     11  C   UNL A   1      30.623  27.941  23.709  1.00  0.00    -0.073 C 
ATOM     12  C   UNL A   1      32.353  26.153  23.469  1.00  0.00     0.045 C 
ATOM     13  C   UNL A   1      30.014  29.298  23.474  1.00  0.00     0.039 C 
ATOM     14  C   UNL A   1      29.851  27.138  24.730  1.00  0.00     0.046 C 
ATOM     15  C   UNL A   1      31.469  25.189  24.260  1.00  0.00     0.097 C 
BRANCH  15  16
ATOM     16  C   UNL A   1      30.825  24.234  23.248  1.00  0.00     0.229 C 
ATOM     17  O   UNL A   1      29.637  24.304  22.939  1.00  0.00    -0.274 OA
ATOM     18  N   UNL A   1      31.669  23.359  22.609  1.00  0.00    -0.317 N 
ATOM     19  H   UNL A   1      31.420  23.017  21.719  1.00  0.00     0.170 HD
BRANCH  18  20
ATOM     20  C   UNL A   1      32.848  22.950  23.175  1.00  0.00     0.108 A 
ATOM     21  S   UNL A   1      34.208  23.437  22.371  1.00  0.00    -0.122 S 
ATOM     22  C   UNL A   1      33.154  22.097  24.218  1.00  0.00     0.078 A 
ATOM     23  C   UNL A   1      35.242  22.866  23.609  1.00  0.00     0.011 A 
ATOM     24  C   UNL A   1      34.498  22.406  24.672  1.00  0.00    -0.019 A 
ATOM     25  C   UNL A   1      36.755  22.973  23.659  1.00  0.00     0.047 C 
ATOM     26  C   UNL A   1      35.270  22.261  25.942  1.00  0.00     0.037 C 
ATOM     27  C   UNL A   1      37.440  22.034  24.663  1.00  0.00     0.006 C 
ATOM     28  C   UNL A   1      36.532  21.431  25.733  1.00  0.00     0.005 C 
BRANCH  22  29
ATOM     29  C   UNL A   1      32.323  20.912  24.396  1.00  0.00     0.254 C 
ATOM     30  O   UNL A   1      31.661  20.756  25.413  1.00  0.00    -0.269 OA
ATOM     31  N   UNL A   1      32.519  19.903  23.496  1.00  0.00    -0.349 N 
ATOM     32  H   UNL A   1      32.372  20.092  22.540  1.00  0.00     0.164 HD
BRANCH  31  33
ATOM     33  C   UNL A   1      32.932  18.568  23.878  1.00  0.00     0.082 C 
ATOM     34  C   UNL A   1      33.032  17.521  22.767  1.00  0.00     0.025 C 
ATOM     35  C   UNL A   1      34.282  18.443  24.558  1.00  0.00     0.025 C 
ATOM     36  C   UNL A   1      33.625  16.325  23.496  1.00  0.00     0.002 C 
ATOM     37  C   UNL A   1      34.511  16.926  24.594  1.00  0.00     0.002 C 
ENDBRANCH  31  33
ENDBRANCH  22  29
ENDBRANCH  18  20
ENDBRANCH  15  16
ENDBRANCH   6   8
ENDBRANCH   5   6
ENDBRANCH   4   5
ENDBRANCH   3   4
ENDBRANCH   2   3
ENDBRANCH   1   2
BRANCH   1  38
ATOM     38  C   UNL A   1      33.216  31.331  27.325  1.00  0.00     0.188 C 
BRANCH  38  39
ATOM     39  O   UNL A   1      32.869  32.703  27.497  1.00  0.00    -0.376 OA
BRANCH  39  40
ATOM     40  C   UNL A   1      33.819  33.447  28.285  1.00  0.00     0.202 C 
BRANCH  40  41
ATOM     41  C   UNL A   1      33.209  34.630  29.080  1.00  0.00     0.261 C 
BRANCH  41  42
ATOM     42  O   UNL A   1      34.006  35.174  30.172  1.00  0.00    -0.460 OA
BRANCH  42  43
ATOM     43  C   UNL A   1      34.073  34.433  31.325  1.00  0.00     0.338 C 
ATOM     44  O   UNL A   1      33.216  34.402  32.189  1.00  0.00    -0.246 OA
BRANCH  43  45
ATOM     45  C   UNL A   1      35.340  33.613  31.405  1.00  0.00     0.060 A 
ATOM     46  C   UNL A   1      35.397  32.495  32.249  1.00  0.00     0.016 A 
ATOM     47  C   UNL A   1      36.513  33.966  30.735  1.00  0.00     0.016 A 
ATOM     48  C   UNL A   1      36.563  31.686  32.336  1.00  0.00     0.010 A 
ATOM     49  C   UNL A   1      37.692  33.176  30.854  1.00  0.00     0.010 A 
ATOM     50  C   UNL A   1      37.733  31.983  31.608  1.00  0.00    -0.014 A 
BRANCH  50  51
ATOM     51  C   UNL A   1      39.043  31.221  31.812  1.00  0.00     0.031 A 
ATOM     52  C   UNL A   1      39.913  31.676  32.942  1.00  0.00     0.074 A 
ATOM     53  C   UNL A   1      39.528  30.165  31.101  1.00  0.00     0.049 A 
ATOM     54  N   UNL A   1      41.087  31.227  33.301  1.00  0.00    -0.248 NA
ATOM     55  C   UNL A   1      39.382  32.753  33.787  1.00  0.00     0.031 C 
ATOM     56  C   UNL A   1      38.823  29.464  30.071  1.00  0.00     0.029 A 
ATOM     57  N   UNL A   1      40.721  29.459  31.106  1.00  0.00    -0.354 N 
ATOM     58  C   UNL A   1      41.419  31.930  34.443  1.00  0.00     0.074 A 
ATOM     59  C   UNL A   1      40.340  32.866  34.691  1.00  0.00     0.031 C 
ATOM     60  C   UNL A   1      39.515  28.483  29.505  1.00  0.00     0.029 A 
ATOM     61  C   UNL A   1      40.818  28.504  30.099  1.00  0.00     0.049 A 
ATOM     62  H   UNL A   1      41.436  29.620  31.763  1.00  0.00     0.167 HD
ATOM     63  C   UNL A   1      42.522  31.808  35.217  1.00  0.00     0.034 A 
ATOM     64  C   UNL A   1      41.808  27.726  29.622  1.00  0.00     0.034 A 
ATOM     65  C   UNL A   1      43.644  30.957  34.916  1.00  0.00     0.049 A 
ATOM     66  C   UNL A   1      43.094  27.761  30.357  1.00  0.00     0.074 A 
ATOM     67  C   UNL A   1      44.839  30.837  35.604  1.00  0.00     0.029 A 
ATOM     68  N   UNL A   1      43.736  30.107  33.819  1.00  0.00    -0.354 N 
ATOM     69  N   UNL A   1      43.380  28.455  31.429  1.00  0.00    -0.248 NA
ATOM     70  C   UNL A   1      44.168  26.904  29.858  1.00  0.00     0.031 C 
ATOM     71  C   UNL A   1      45.675  29.969  34.889  1.00  0.00     0.029 A 
ATOM     72  C   UNL A   1      44.985  29.498  33.785  1.00  0.00     0.049 A 
ATOM     73  H   UNL A   1      43.019  29.958  33.160  1.00  0.00     0.167 HD
ATOM     74  C   UNL A   1      44.674  28.105  31.754  1.00  0.00     0.074 A 
ATOM     75  C   UNL A   1      45.100  27.121  30.773  1.00  0.00     0.031 C 
ATOM     76  C   UNL A   1      45.429  28.559  32.783  1.00  0.00     0.034 A 
BRANCH  63  77
ATOM     77  C   UNL A   1      42.563  32.726  36.404  1.00  0.00     0.023 A 
ATOM     78  C   UNL A   1      42.061  32.321  37.655  1.00  0.00     0.031 A 
ATOM     79  C   UNL A   1      42.947  34.066  36.238  1.00  0.00     0.131 A 
ATOM     80  C   UNL A   1      41.871  33.273  38.664  1.00  0.00     0.055 A 
ATOM     81  C   UNL A   1      42.828  34.991  37.273  1.00  0.00     0.041 A 
ATOM     82  F   UNL A   1      43.385  34.507  35.049  1.00  0.00    -0.206 F 
ATOM     83  C   UNL A   1      42.271  34.600  38.489  1.00  0.00     0.022 A 
BRANCH  80  84
ATOM     84  S   UNL A   1      40.937  32.795  40.144  1.00  0.00     0.124 S 
ATOM     85  O   UNL A   1      41.708  31.649  40.620  1.00  0.00    -0.237 OA
ATOM     86  O   UNL A   1      41.007  33.998  40.966  1.00  0.00    -0.237 OA
ATOM     87  O   UNL A   1      39.611  32.473  39.621  1.00  0.00    -0.744 OA
ENDBRANCH  80  84
ENDBRANCH  63  77
BRANCH  64  88
ATOM     88  C   UNL A   1      41.620  26.916  28.373  1.00  0.00     0.023 A 
ATOM     89  C   UNL A   1      41.427  25.525  28.402  1.00  0.00     0.031 A 
ATOM     90  C   UNL A   1      41.605  27.549  27.111  1.00  0.00     0.131 A 
ATOM     91  C   UNL A   1      41.244  24.816  27.200  1.00  0.00     0.055 A 
ATOM     92  C   UNL A   1      41.383  26.846  25.925  1.00  0.00     0.041 A 
ATOM     93  F   UNL A   1      41.769  28.879  27.018  1.00  0.00    -0.206 F 
ATOM     94  C   UNL A   1      41.209  25.468  25.965  1.00  0.00     0.022 A 
BRANCH  91  95
ATOM     95  S   UNL A   1      41.104  23.005  27.257  1.00  0.00     0.124 S 
ATOM     96  O   UNL A   1      39.659  22.813  27.276  1.00  0.00    -0.237 OA
ATOM     97  O   UNL A   1      41.788  22.615  26.029  1.00  0.00    -0.237 OA
ATOM     98  O   UNL A   1      41.796  22.649  28.493  1.00  0.00    -0.744 OA
ENDBRANCH  91  95
ENDBRANCH  64  88
BRANCH  76  99
ATOM     99  C   UNL A   1      46.802  27.968  32.871  1.00  0.00     0.023 A 
ATOM    100  C   UNL A   1      47.014  26.737  33.514  1.00  0.00     0.031 A 
ATOM    101  C   UNL A   1      47.915  28.693  32.421  1.00  0.00     0.131 A 
ATOM    102  C   UNL A   1      48.321  26.305  33.766  1.00  0.00     0.055 A 
ATOM    103  C   UNL A   1      49.213  28.224  32.614  1.00  0.00     0.041 A 
ATOM    104  F   UNL A   1      47.758  29.883  31.819  1.00  0.00    -0.206 F 
ATOM    105  C   UNL A   1      49.422  27.032  33.306  1.00  0.00     0.022 A 
BRANCH 102 106
ATOM    106  S   UNL A   1      48.559  24.842  34.808  1.00  0.00     0.124 S 
ATOM    107  O   UNL A   1      49.204  25.416  35.986  1.00  0.00    -0.237 OA
ATOM    108  O   UNL A   1      47.195  24.363  34.998  1.00  0.00    -0.237 OA
ATOM    109  O   UNL A   1      49.410  23.978  33.992  1.00  0.00    -0.744 OA
ENDBRANCH 102 106
ENDBRANCH  76  99
ENDBRANCH  50  51
ENDBRANCH  43  45
ENDBRANCH  42  43
ENDBRANCH  41  42
ENDBRANCH  40  41
ENDBRANCH  39  40
ENDBRANCH  38  39
ENDBRANCH   1  38
TORSDOF 24
ENDMDL
MODEL 3
REMARK VINA RESULT:     -10.4      1.507      7.080
REMARK SMILES CC1=C(C)C[C@H](C(=O)OCCOCCOCCOC(=O)c2ccc(-c3c4nc(c(-c5cc(S(=O)(=O)[O-])ccc5F)c5ccc([nH]5)c(-c5cc(S(=O)(=O)[O-])ccc5F)c5nc(c(-c6cc(S(=O)(=O)[O-])ccc6F)c6ccc3[nH]6)C=C5)C=C4)cc2)[C@@H](C(=O)Nc2sc3c(c2C(=O)NC2CCCC2)CCCC3)C1
REMARK SMILES IDX 13 1 12 2 11 3 10 4 9 5 7 6 8 7 6 8 1 9 2 10 3 11 105 12
REMARK SMILES IDX 4 13 5 14 84 15 85 16 86 17 87 18 88 20 89 21 92 22 90 23
REMARK SMILES IDX 91 24 104 25 101 26 103 27 102 28 93 29 94 30 95 31 96 33
REMARK SMILES IDX 97 34 100 35 98 36 99 37 14 38 15 39 16 40 17 41 18 42 19 43
REMARK SMILES IDX 20 44 21 45 22 46 83 47 23 48 82 49 24 50 25 51 26 52 76 53
REMARK SMILES IDX 27 54 81 55 75 56 77 57 28 58 80 59 74 60 73 61 29 63 61 64
REMARK SMILES IDX 41 65 60 66 42 67 45 68 59 69 78 70 43 71 44 72 58 74 79 75
REMARK SMILES IDX 46 76 30 77 31 78 39 79 32 80 38 81 40 82 37 83 33 84 34 85
REMARK SMILES IDX 35 86 36 87 62 88 63 89 71 90 64 91 70 92 72 93 69 94 65 95
REMARK SMILES IDX 66 96 67 97 68 98 47 99 48 100 56 101 49 102 55 103 57 104
REMARK SMILES IDX 54 105 50 106 51 107 52 108 53 109
REMARK H PARENT 87 19 95 32 77 62 45 73
REMARK Flexibility Score: inf
ROOT
ATOM      1  C   UNL A   1      38.257  21.484  25.300  1.00  0.00     0.188 C 
ENDROOT
BRANCH   1   2
ATOM      2  O   UNL A   1      36.925  21.612  25.818  1.00  0.00    -0.376 OA
BRANCH   2   3
ATOM      3  C   UNL A   1      36.468  22.962  25.903  1.00  0.00     0.202 C 
BRANCH   3   4
ATOM      4  C   UNL A   1      36.312  23.685  24.559  1.00  0.00     0.261 C 
BRANCH   4   5
ATOM      5  O   UNL A   1      35.469  22.978  23.628  1.00  0.00    -0.463 OA
BRANCH   5   6
ATOM      6  C   UNL A   1      34.497  23.749  23.047  1.00  0.00     0.310 C 
ATOM      7  O   UNL A   1      34.696  24.806  22.466  1.00  0.00    -0.252 OA
BRANCH   6   8
ATOM      8  C   UNL A   1      33.120  23.137  23.249  1.00  0.00     0.116 C 
ATOM      9  C   UNL A   1      32.115  22.318  27.525  1.00  0.00     0.039 C 
ATOM     10  C   UNL A   1      32.509  22.484  26.078  1.00  0.00    -0.074 C 
ATOM     11  C   UNL A   1      32.992  21.513  25.274  1.00  0.00    -0.073 C 
ATOM     12  C   UNL A   1      32.306  23.895  25.592  1.00  0.00     0.045 C 
ATOM     13  C   UNL A   1      33.335  20.116  25.718  1.00  0.00     0.039 C 
ATOM     14  C   UNL A   1      33.250  21.723  23.801  1.00  0.00     0.046 C 
ATOM     15  C   UNL A   1      32.265  24.088  24.077  1.00  0.00     0.097 C 
BRANCH  15  16
ATOM     16  C   UNL A   1      30.791  24.070  23.659  1.00  0.00     0.229 C 
ATOM     17  O   UNL A   1      30.328  23.214  22.908  1.00  0.00    -0.274 OA
ATOM     18  N   UNL A   1      29.972  24.997  24.259  1.00  0.00    -0.317 N 
ATOM     19  H   UNL A   1      29.011  24.802  24.344  1.00  0.00     0.170 HD
BRANCH  18  20
ATOM     20  C   UNL A   1      30.459  26.182  24.743  1.00  0.00     0.108 A 
ATOM     21  S   UNL A   1      30.493  26.296  26.392  1.00  0.00    -0.122 S 
ATOM     22  C   UNL A   1      30.816  27.376  24.145  1.00  0.00     0.078 A 
ATOM     23  C   UNL A   1      31.354  27.774  26.352  1.00  0.00     0.011 A 
ATOM     24  C   UNL A   1      31.691  28.091  25.056  1.00  0.00    -0.019 A 
ATOM     25  C   UNL A   1      31.846  28.578  27.542  1.00  0.00     0.047 C 
ATOM     26  C   UNL A   1      32.765  29.122  24.938  1.00  0.00     0.037 C 
ATOM     27  C   UNL A   1      32.219  30.036  27.232  1.00  0.00     0.006 C 
ATOM     28  C   UNL A   1      32.434  30.366  25.757  1.00  0.00     0.005 C 
BRANCH  22  29
ATOM     29  C   UNL A   1      30.026  27.832  23.008  1.00  0.00     0.254 C 
ATOM     30  O   UNL A   1      30.547  28.028  21.918  1.00  0.00    -0.269 OA
ATOM     31  N   UNL A   1      28.757  28.253  23.290  1.00  0.00    -0.349 N 
ATOM     32  H   UNL A   1      28.133  27.614  23.707  1.00  0.00     0.164 HD
BRANCH  31  33
ATOM     33  C   UNL A   1      28.284  29.593  23.008  1.00  0.00     0.082 C 
ATOM     34  C   UNL A   1      29.136  30.758  23.514  1.00  0.00     0.025 C 
ATOM     35  C   UNL A   1      28.088  29.950  21.547  1.00  0.00     0.025 C 
ATOM     36  C   UNL A   1      28.431  31.964  22.914  1.00  0.00     0.002 C 
ATOM     37  C   UNL A   1      27.836  31.463  21.593  1.00  0.00     0.002 C 
ENDBRANCH  31  33
ENDBRANCH  22  29
ENDBRANCH  18  20
ENDBRANCH  15  16
ENDBRANCH   6   8
ENDBRANCH   5   6
ENDBRANCH   4   5
ENDBRANCH   3   4
ENDBRANCH   2   3
ENDBRANCH   1   2
BRANCH   1  38
ATOM     38  C   UNL A   1      39.253  22.192  26.246  1.00  0.00     0.188 C 
BRANCH  38  39
ATOM     39  O   UNL A   1      39.872  21.295  27.163  1.00  0.00    -0.376 OA
BRANCH  39  40
ATOM     40  C   UNL A   1      41.277  21.091  26.916  1.00  0.00     0.202 C 
BRANCH  40  41
ATOM     41  C   UNL A   1      41.902  22.079  25.897  1.00  0.00     0.261 C 
BRANCH  41  42
ATOM     42  O   UNL A   1      43.282  22.485  26.132  1.00  0.00    -0.460 OA
BRANCH  42  43
ATOM     43  C   UNL A   1      43.783  23.482  25.333  1.00  0.00     0.338 C 
ATOM     44  O   UNL A   1      44.154  23.339  24.183  1.00  0.00    -0.246 OA
BRANCH  43  45
ATOM     45  C   UNL A   1      43.803  24.820  26.035  1.00  0.00     0.060 A 
ATOM     46  C   UNL A   1      43.785  24.875  27.436  1.00  0.00     0.016 A 
ATOM     47  C   UNL A   1      43.749  26.035  25.350  1.00  0.00     0.016 A 
ATOM     48  C   UNL A   1      43.824  26.113  28.134  1.00  0.00     0.010 A 
ATOM     49  C   UNL A   1      43.749  27.275  26.052  1.00  0.00     0.010 A 
ATOM     50  C   UNL A   1      43.846  27.350  27.458  1.00  0.00    -0.014 A 
BRANCH  50  51
ATOM     51  C   UNL A   1      43.726  28.687  28.189  1.00  0.00     0.031 A 
ATOM     52  C   UNL A   1      45.004  29.420  28.458  1.00  0.00     0.074 A 
ATOM     53  C   UNL A   1      42.599  29.316  28.626  1.00  0.00     0.049 A 
ATOM     54  N   UNL A   1      45.180  30.548  29.094  1.00  0.00    -0.248 NA
ATOM     55  C   UNL A   1      46.231  28.818  27.923  1.00  0.00     0.031 C 
ATOM     56  C   UNL A   1      41.257  28.890  28.366  1.00  0.00     0.029 A 
ATOM     57  N   UNL A   1      42.354  30.454  29.379  1.00  0.00    -0.354 N 
ATOM     58  C   UNL A   1      46.531  30.821  28.995  1.00  0.00     0.074 A 
ATOM     59  C   UNL A   1      47.134  29.717  28.275  1.00  0.00     0.031 C 
ATOM     60  C   UNL A   1      40.324  29.654  28.920  1.00  0.00     0.029 A 
ATOM     61  C   UNL A   1      41.011  30.654  29.682  1.00  0.00     0.049 A 
ATOM     62  H   UNL A   1      43.067  31.065  29.675  1.00  0.00     0.167 HD
ATOM     63  C   UNL A   1      47.210  31.895  29.461  1.00  0.00     0.034 A 
ATOM     64  C   UNL A   1      40.336  31.491  30.492  1.00  0.00     0.034 A 
ATOM     65  C   UNL A   1      46.636  32.941  30.268  1.00  0.00     0.049 A 
ATOM     66  C   UNL A   1      41.129  32.541  31.173  1.00  0.00     0.074 A 
ATOM     67  C   UNL A   1      47.273  34.021  30.853  1.00  0.00     0.029 A 
ATOM     68  N   UNL A   1      45.299  33.023  30.644  1.00  0.00    -0.354 N 
ATOM     69  N   UNL A   1      42.415  32.760  31.071  1.00  0.00    -0.248 NA
ATOM     70  C   UNL A   1      40.401  33.467  32.040  1.00  0.00     0.031 C 
ATOM     71  C   UNL A   1      46.338  34.716  31.633  1.00  0.00     0.029 A 
ATOM     72  C   UNL A   1      45.103  34.107  31.491  1.00  0.00     0.049 A 
ATOM     73  H   UNL A   1      44.592  32.402  30.351  1.00  0.00     0.167 HD
ATOM     74  C   UNL A   1      42.657  33.872  31.849  1.00  0.00     0.074 A 
ATOM     75  C   UNL A   1      41.377  34.287  32.397  1.00  0.00     0.031 C 
ATOM     76  C   UNL A   1      43.841  34.491  32.076  1.00  0.00     0.034 A 
BRANCH  63  77
ATOM     77  C   UNL A   1      48.682  31.885  29.168  1.00  0.00     0.023 A 
ATOM     78  C   UNL A   1      49.190  32.428  27.974  1.00  0.00     0.031 A 
ATOM     79  C   UNL A   1      49.556  31.177  30.008  1.00  0.00     0.131 A 
ATOM     80  C   UNL A   1      50.517  32.172  27.609  1.00  0.00     0.055 A 
ATOM     81  C   UNL A   1      50.897  30.994  29.675  1.00  0.00     0.041 A 
ATOM     82  F   UNL A   1      49.104  30.601  31.133  1.00  0.00    -0.206 F 
ATOM     83  C   UNL A   1      51.380  31.477  28.461  1.00  0.00     0.022 A 
BRANCH  80  84
ATOM     84  S   UNL A   1      51.056  32.607  25.932  1.00  0.00     0.124 S 
ATOM     85  O   UNL A   1      49.909  33.367  25.443  1.00  0.00    -0.237 OA
ATOM     86  O   UNL A   1      52.272  33.374  26.178  1.00  0.00    -0.237 OA
ATOM     87  O   UNL A   1      51.256  31.310  25.291  1.00  0.00    -0.744 OA
ENDBRANCH  80  84
ENDBRANCH  63  77
BRANCH  64  88
ATOM     88  C   UNL A   1      38.864  31.316  30.730  1.00  0.00     0.023 A 
ATOM     89  C   UNL A   1      37.897  32.017  29.991  1.00  0.00     0.031 A 
ATOM     90  C   UNL A   1      38.406  30.404  31.705  1.00  0.00     0.131 A 
ATOM     91  C   UNL A   1      36.529  31.806  30.247  1.00  0.00     0.055 A 
ATOM     92  C   UNL A   1      37.046  30.170  31.927  1.00  0.00     0.041 A 
ATOM     93  F   UNL A   1      39.282  29.694  32.434  1.00  0.00    -0.206 F 
ATOM     94  C   UNL A   1      36.099  30.880  31.201  1.00  0.00     0.022 A 
BRANCH  91  95
ATOM     95  S   UNL A   1      35.300  32.801  29.352  1.00  0.00     0.124 S 
ATOM     96  O   UNL A   1      34.201  32.856  30.308  1.00  0.00    -0.237 OA
ATOM     97  O   UNL A   1      36.027  34.048  29.136  1.00  0.00    -0.237 OA
ATOM     98  O   UNL A   1      35.039  32.018  28.147  1.00  0.00    -0.744 OA
ENDBRANCH  91  95
ENDBRANCH  64  88
BRANCH  76  99
ATOM     99  C   UNL A   1      43.767  35.693  32.968  1.00  0.00     0.023 A 
ATOM    100  C   UNL A   1      43.590  36.978  32.428  1.00  0.00     0.031 A 
ATOM    101  C   UNL A   1      43.997  35.567  34.346  1.00  0.00     0.131 A 
ATOM    102  C   UNL A   1      43.730  38.099  33.253  1.00  0.00     0.055 A 
ATOM    103  C   UNL A   1      44.067  36.685  35.175  1.00  0.00     0.041 A 
ATOM    104  F   UNL A   1      44.190  34.359  34.899  1.00  0.00    -0.206 F 
ATOM    105  C   UNL A   1      43.951  37.961  34.626  1.00  0.00     0.022 A 
BRANCH 102 106
ATOM    106  S   UNL A   1      43.740  39.739  32.484  1.00  0.00     0.124 S 
ATOM    107  O   UNL A   1      43.459  39.416  31.088  1.00  0.00    -0.237 OA
ATOM    108  O   UNL A   1      42.678  40.433  33.203  1.00  0.00    -0.237 OA
ATOM    109  O   UNL A   1      45.091  40.232  32.749  1.00  0.00    -0.744 OA
ENDBRANCH 102 106
ENDBRANCH  76  99
ENDBRANCH  50  51
ENDBRANCH  43  45
ENDBRANCH  42  43
ENDBRANCH  41  42
ENDBRANCH  40  41
ENDBRANCH  39  40
ENDBRANCH  38  39
ENDBRANCH   1  38
TORSDOF 24
ENDMDL
