MODEL 1
REMARK VINA RESULT:     -10.3      0.000      0.000
REMARK SMILES O=C(OCCOCCOCCOC(=O)c1cc(SCC(=O)N2CCOCC2)ccn1)c1ccc(-c2c3nc(c(-c4cc(S(=O)(=O)[O-])ccc4F)c4ccc([nH]4)c(-c4cc(S(=O)(=O)[O-])ccc4F)c4nc(c(-c5cc(S(=O)(=O)[O-])ccc5F)c5ccc2[nH]5)C=C4)C=C3)cc1
REMARK SMILES IDX 7 1 6 2 5 3 4 4 3 5 2 6 1 7 31 8 32 9 93 10 33 11 92 12
REMARK SMILES IDX 34 13 35 14 36 15 86 16 37 17 91 18 85 19 87 20 38 21 90 22
REMARK SMILES IDX 84 23 83 24 39 26 71 27 51 28 70 29 52 30 55 31 69 32 88 33
REMARK SMILES IDX 53 34 54 35 68 37 89 38 56 39 40 40 41 41 49 42 42 43 48 44
REMARK SMILES IDX 50 45 47 46 43 47 44 48 45 49 46 50 72 51 73 52 81 53 74 54
REMARK SMILES IDX 80 55 82 56 79 57 75 58 76 59 77 60 78 61 57 62 58 63 66 64
REMARK SMILES IDX 59 65 65 66 67 67 64 68 60 69 61 70 62 71 63 72 8 73 9 74
REMARK SMILES IDX 10 75 11 76 12 77 13 78 14 79 15 80 16 81 30 82 17 83 29 84
REMARK SMILES IDX 28 85 18 86 19 87 20 88 21 89 22 90 23 91 27 92 24 93 26 94
REMARK SMILES IDX 25 95
REMARK H PARENT 87 25 55 36
REMARK Flexibility Score: inf
ROOT
ATOM      1  C   UNL A   1      36.171  23.945  25.515  1.00  0.00     0.188 C 
ENDROOT
BRANCH   1   2
ATOM      2  O   UNL A   1      36.429  23.376  24.225  1.00  0.00    -0.376 OA
BRANCH   2   3
ATOM      3  C   UNL A   1      36.609  21.959  24.231  1.00  0.00     0.202 C 
BRANCH   3   4
ATOM      4  C   UNL A   1      37.138  21.358  25.541  1.00  0.00     0.261 C 
BRANCH   4   5
ATOM      5  O   UNL A   1      38.511  20.945  25.454  1.00  0.00    -0.460 OA
BRANCH   5   6
ATOM      6  C   UNL A   1      39.495  21.196  26.355  1.00  0.00     0.338 C 
ATOM      7  O   UNL A   1      40.053  20.245  26.901  1.00  0.00    -0.246 OA
BRANCH   6   8
ATOM      8  C   UNL A   1      39.970  22.573  26.683  1.00  0.00     0.060 A 
ATOM      9  C   UNL A   1      39.425  23.750  26.162  1.00  0.00     0.016 A 
ATOM     10  C   UNL A   1      40.977  22.685  27.654  1.00  0.00     0.016 A 
ATOM     11  C   UNL A   1      39.936  25.000  26.512  1.00  0.00     0.010 A 
ATOM     12  C   UNL A   1      41.454  23.938  28.053  1.00  0.00     0.010 A 
ATOM     13  C   UNL A   1      40.957  25.103  27.456  1.00  0.00    -0.014 A 
BRANCH  13  14
ATOM     14  C   UNL A   1      41.526  26.433  27.778  1.00  0.00     0.031 A 
ATOM     15  C   UNL A   1      42.821  26.838  27.145  1.00  0.00     0.074 A 
ATOM     16  C   UNL A   1      40.873  27.257  28.620  1.00  0.00     0.049 A 
ATOM     17  N   UNL A   1      43.478  27.957  27.269  1.00  0.00    -0.248 NA
ATOM     18  C   UNL A   1      43.467  25.848  26.269  1.00  0.00     0.031 C 
ATOM     19  C   UNL A   1      39.609  26.927  29.271  1.00  0.00     0.029 A 
ATOM     20  N   UNL A   1      41.156  28.523  29.070  1.00  0.00    -0.354 N 
ATOM     21  C   UNL A   1      44.651  27.784  26.544  1.00  0.00     0.074 A 
ATOM     22  C   UNL A   1      44.599  26.463  25.959  1.00  0.00     0.031 C 
ATOM     23  C   UNL A   1      39.218  27.976  30.010  1.00  0.00     0.029 A 
ATOM     24  C   UNL A   1      40.183  29.051  29.893  1.00  0.00     0.049 A 
ATOM     25  H   UNL A   1      41.977  29.009  28.828  1.00  0.00     0.167 HD
ATOM     26  C   UNL A   1      45.686  28.648  26.419  1.00  0.00     0.034 A 
ATOM     27  C   UNL A   1      40.054  30.277  30.447  1.00  0.00     0.034 A 
ATOM     28  C   UNL A   1      45.695  29.961  27.013  1.00  0.00     0.049 A 
ATOM     29  C   UNL A   1      41.156  31.259  30.161  1.00  0.00     0.074 A 
ATOM     30  C   UNL A   1      46.694  30.916  26.989  1.00  0.00     0.029 A 
ATOM     31  N   UNL A   1      44.645  30.501  27.749  1.00  0.00    -0.354 N 
ATOM     32  N   UNL A   1      42.219  31.099  29.404  1.00  0.00    -0.248 NA
ATOM     33  C   UNL A   1      41.036  32.586  30.772  1.00  0.00     0.031 C 
ATOM     34  C   UNL A   1      46.274  32.006  27.760  1.00  0.00     0.029 A 
ATOM     35  C   UNL A   1      44.988  31.759  28.215  1.00  0.00     0.049 A 
ATOM     36  H   UNL A   1      43.783  30.055  27.913  1.00  0.00     0.167 HD
ATOM     37  C   UNL A   1      42.906  32.301  29.473  1.00  0.00     0.074 A 
ATOM     38  C   UNL A   1      42.078  33.207  30.246  1.00  0.00     0.031 C 
ATOM     39  C   UNL A   1      44.138  32.619  28.999  1.00  0.00     0.034 A 
BRANCH  26  40
ATOM     40  C   UNL A   1      46.923  28.138  25.727  1.00  0.00     0.023 A 
ATOM     41  C   UNL A   1      47.132  28.286  24.346  1.00  0.00     0.031 A 
ATOM     42  C   UNL A   1      47.882  27.426  26.471  1.00  0.00     0.131 A 
ATOM     43  C   UNL A   1      48.245  27.677  23.743  1.00  0.00     0.055 A 
ATOM     44  C   UNL A   1      49.020  26.883  25.876  1.00  0.00     0.041 A 
ATOM     45  F   UNL A   1      47.713  27.226  27.787  1.00  0.00    -0.206 F 
ATOM     46  C   UNL A   1      49.202  26.997  24.501  1.00  0.00     0.022 A 
BRANCH  43  47
ATOM     47  S   UNL A   1      48.368  27.681  21.932  1.00  0.00     0.124 S 
ATOM     48  O   UNL A   1      49.485  28.598  21.717  1.00  0.00    -0.237 OA
ATOM     49  O   UNL A   1      48.626  26.278  21.628  1.00  0.00    -0.237 OA
ATOM     50  O   UNL A   1      47.066  28.183  21.500  1.00  0.00    -0.744 OA
ENDBRANCH  43  47
ENDBRANCH  26  40
BRANCH  27  51
ATOM     51  C   UNL A   1      38.826  30.696  31.203  1.00  0.00     0.023 A 
ATOM     52  C   UNL A   1      37.759  31.320  30.526  1.00  0.00     0.031 A 
ATOM     53  C   UNL A   1      38.665  30.489  32.583  1.00  0.00     0.131 A 
ATOM     54  C   UNL A   1      36.595  31.710  31.206  1.00  0.00     0.055 A 
ATOM     55  C   UNL A   1      37.493  30.857  33.258  1.00  0.00     0.041 A 
ATOM     56  F   UNL A   1      39.631  29.890  33.296  1.00  0.00    -0.206 F 
ATOM     57  C   UNL A   1      36.451  31.476  32.571  1.00  0.00     0.022 A 
BRANCH  54  58
ATOM     58  S   UNL A   1      35.288  32.544  30.265  1.00  0.00     0.124 S 
ATOM     59  O   UNL A   1      35.018  31.580  29.205  1.00  0.00    -0.237 OA
ATOM     60  O   UNL A   1      34.243  32.687  31.274  1.00  0.00    -0.237 OA
ATOM     61  O   UNL A   1      35.918  33.791  29.839  1.00  0.00    -0.744 OA
ENDBRANCH  54  58
ENDBRANCH  27  51
BRANCH  39  62
ATOM     62  C   UNL A   1      44.651  33.979  29.382  1.00  0.00     0.023 A 
ATOM     63  C   UNL A   1      44.361  35.096  28.578  1.00  0.00     0.031 A 
ATOM     64  C   UNL A   1      45.459  34.162  30.513  1.00  0.00     0.131 A 
ATOM     65  C   UNL A   1      44.949  36.330  28.862  1.00  0.00     0.055 A 
ATOM     66  C   UNL A   1      45.982  35.415  30.836  1.00  0.00     0.041 A 
ATOM     67  F   UNL A   1      45.763  33.127  31.312  1.00  0.00    -0.206 F 
ATOM     68  C   UNL A   1      45.743  36.504  29.998  1.00  0.00     0.022 A 
BRANCH  65  69
ATOM     69  S   UNL A   1      44.750  37.672  27.661  1.00  0.00     0.124 S 
ATOM     70  O   UNL A   1      44.498  38.816  28.531  1.00  0.00    -0.237 OA
ATOM     71  O   UNL A   1      46.036  37.669  26.970  1.00  0.00    -0.237 OA
ATOM     72  O   UNL A   1      43.611  37.241  26.853  1.00  0.00    -0.744 OA
ENDBRANCH  65  69
ENDBRANCH  39  62
ENDBRANCH  13  14
ENDBRANCH   6   8
ENDBRANCH   5   6
ENDBRANCH   4   5
ENDBRANCH   3   4
ENDBRANCH   2   3
ENDBRANCH   1   2
BRANCH   1  73
ATOM     73  C   UNL A   1      34.760  23.603  26.001  1.00  0.00     0.188 C 
BRANCH  73  74
ATOM     74  O   UNL A   1      34.663  23.108  27.340  1.00  0.00    -0.376 OA
BRANCH  74  75
ATOM     75  C   UNL A   1      33.772  22.021  27.565  1.00  0.00     0.202 C 
BRANCH  75  76
ATOM     76  C   UNL A   1      32.351  22.346  28.039  1.00  0.00     0.261 C 
BRANCH  76  77
ATOM     77  O   UNL A   1      31.635  23.264  27.213  1.00  0.00    -0.459 OA
BRANCH  77  78
ATOM     78  C   UNL A   1      30.812  22.676  26.314  1.00  0.00     0.357 C 
ATOM     79  O   UNL A   1      29.711  22.168  26.522  1.00  0.00    -0.244 OA
BRANCH  78  80
ATOM     80  C   UNL A   1      31.501  22.591  25.022  1.00  0.00     0.149 A 
ATOM     81  C   UNL A   1      31.688  23.784  24.343  1.00  0.00     0.051 A 
ATOM     82  N   UNL A   1      31.947  21.374  24.611  1.00  0.00    -0.249 NA
ATOM     83  C   UNL A   1      32.337  23.741  23.129  1.00  0.00     0.012 A 
ATOM     84  C   UNL A   1      32.653  21.377  23.465  1.00  0.00     0.113 A 
ATOM     85  C   UNL A   1      32.892  22.522  22.721  1.00  0.00     0.035 A 
BRANCH  83  86
ATOM     86  S   UNL A   1      32.524  25.133  22.050  1.00  0.00    -0.116 SA
BRANCH  86  87
ATOM     87  C   UNL A   1      31.005  26.126  22.151  1.00  0.00     0.175 C 
BRANCH  87  88
ATOM     88  C   UNL A   1      31.116  27.607  22.493  1.00  0.00     0.233 C 
ATOM     89  O   UNL A   1      32.220  28.164  22.519  1.00  0.00    -0.274 OA
ATOM     90  N   UNL A   1      29.950  28.350  22.557  1.00  0.00    -0.337 N 
ATOM     91  C   UNL A   1      28.831  27.998  23.425  1.00  0.00     0.148 C 
ATOM     92  C   UNL A   1      29.976  29.751  22.152  1.00  0.00     0.148 C 
ATOM     93  C   UNL A   1      27.495  28.598  22.963  1.00  0.00     0.181 C 
ATOM     94  C   UNL A   1      28.604  30.183  21.633  1.00  0.00     0.181 C 
ATOM     95  O   UNL A   1      27.617  29.997  22.655  1.00  0.00    -0.378 OA
ENDBRANCH  87  88
ENDBRANCH  86  87
ENDBRANCH  83  86
ENDBRANCH  78  80
ENDBRANCH  77  78
ENDBRANCH  76  77
ENDBRANCH  75  76
ENDBRANCH  74  75
ENDBRANCH  73  74
ENDBRANCH   1  73
TORSDOF 23
ENDMDL
MODEL 2
REMARK VINA RESULT:     -10.1      5.664     10.780
REMARK SMILES O=C(OCCOCCOCCOC(=O)c1cc(SCC(=O)N2CCOCC2)ccn1)c1ccc(-c2c3nc(c(-c4cc(S(=O)(=O)[O-])ccc4F)c4ccc([nH]4)c(-c4cc(S(=O)(=O)[O-])ccc4F)c4nc(c(-c5cc(S(=O)(=O)[O-])ccc5F)c5ccc2[nH]5)C=C4)C=C3)cc1
REMARK SMILES IDX 7 1 6 2 5 3 4 4 3 5 2 6 1 7 31 8 32 9 93 10 33 11 92 12
REMARK SMILES IDX 34 13 35 14 36 15 86 16 37 17 91 18 85 19 87 20 38 21 90 22
REMARK SMILES IDX 84 23 83 24 39 26 71 27 51 28 70 29 52 30 55 31 69 32 88 33
REMARK SMILES IDX 53 34 54 35 68 37 89 38 56 39 40 40 41 41 49 42 42 43 48 44
REMARK SMILES IDX 50 45 47 46 43 47 44 48 45 49 46 50 72 51 73 52 81 53 74 54
REMARK SMILES IDX 80 55 82 56 79 57 75 58 76 59 77 60 78 61 57 62 58 63 66 64
REMARK SMILES IDX 59 65 65 66 67 67 64 68 60 69 61 70 62 71 63 72 8 73 9 74
REMARK SMILES IDX 10 75 11 76 12 77 13 78 14 79 15 80 16 81 30 82 17 83 29 84
REMARK SMILES IDX 28 85 18 86 19 87 20 88 21 89 22 90 23 91 27 92 24 93 26 94
REMARK SMILES IDX 25 95
REMARK H PARENT 87 25 55 36
REMARK Flexibility Score: inf
ROOT
ATOM      1  C   UNL A   1      34.817  32.294  28.507  1.00  0.00     0.188 C 
ENDROOT
BRANCH   1   2
ATOM      2  O   UNL A   1      35.180  33.407  27.680  1.00  0.00    -0.376 OA
BRANCH   2   3
ATOM      3  C   UNL A   1      34.382  34.575  27.882  1.00  0.00     0.202 C 
BRANCH   3   4
ATOM      4  C   UNL A   1      33.050  34.356  28.613  1.00  0.00     0.261 C 
BRANCH   4   5
ATOM      5  O   UNL A   1      32.870  35.244  29.729  1.00  0.00    -0.460 OA
BRANCH   5   6
ATOM      6  C   UNL A   1      33.223  35.012  31.019  1.00  0.00     0.338 C 
ATOM      7  O   UNL A   1      32.440  35.332  31.912  1.00  0.00    -0.246 OA
BRANCH   6   8
ATOM      8  C   UNL A   1      34.499  34.342  31.409  1.00  0.00     0.060 A 
ATOM      9  C   UNL A   1      35.774  34.883  31.220  1.00  0.00     0.016 A 
ATOM     10  C   UNL A   1      34.393  33.121  32.094  1.00  0.00     0.016 A 
ATOM     11  C   UNL A   1      36.919  34.184  31.603  1.00  0.00     0.010 A 
ATOM     12  C   UNL A   1      35.536  32.443  32.532  1.00  0.00     0.010 A 
ATOM     13  C   UNL A   1      36.809  32.957  32.257  1.00  0.00    -0.014 A 
BRANCH  13  14
ATOM     14  C   UNL A   1      38.034  32.203  32.610  1.00  0.00     0.031 A 
ATOM     15  C   UNL A   1      38.658  32.423  33.952  1.00  0.00     0.074 A 
ATOM     16  C   UNL A   1      38.562  31.330  31.730  1.00  0.00     0.049 A 
ATOM     17  N   UNL A   1      39.711  31.854  34.470  1.00  0.00    -0.248 NA
ATOM     18  C   UNL A   1      38.021  33.426  34.821  1.00  0.00     0.031 C 
ATOM     19  C   UNL A   1      38.006  31.065  30.407  1.00  0.00     0.029 A 
ATOM     20  N   UNL A   1      39.656  30.502  31.800  1.00  0.00    -0.354 N 
ATOM     21  C   UNL A   1      39.908  32.477  35.696  1.00  0.00     0.074 A 
ATOM     22  C   UNL A   1      38.846  33.445  35.858  1.00  0.00     0.031 C 
ATOM     23  C   UNL A   1      38.748  30.122  29.808  1.00  0.00     0.029 A 
ATOM     24  C   UNL A   1      39.824  29.706  30.687  1.00  0.00     0.049 A 
ATOM     25  H   UNL A   1      40.265  30.480  32.574  1.00  0.00     0.167 HD
ATOM     26  C   UNL A   1      40.913  32.272  36.581  1.00  0.00     0.034 A 
ATOM     27  C   UNL A   1      40.706  28.717  30.423  1.00  0.00     0.034 A 
ATOM     28  C   UNL A   1      41.949  31.290  36.385  1.00  0.00     0.049 A 
ATOM     29  C   UNL A   1      41.716  28.420  31.497  1.00  0.00     0.074 A 
ATOM     30  C   UNL A   1      43.039  31.009  37.189  1.00  0.00     0.029 A 
ATOM     31  N   UNL A   1      42.023  30.427  35.297  1.00  0.00    -0.354 N 
ATOM     32  N   UNL A   1      41.832  28.968  32.686  1.00  0.00    -0.248 NA
ATOM     33  C   UNL A   1      42.691  27.361  31.214  1.00  0.00     0.031 C 
ATOM     34  C   UNL A   1      43.803  30.022  36.556  1.00  0.00     0.029 A 
ATOM     35  C   UNL A   1      43.160  29.642  35.388  1.00  0.00     0.049 A 
ATOM     36  H   UNL A   1      41.363  30.381  34.568  1.00  0.00     0.167 HD
ATOM     37  C   UNL A   1      42.913  28.336  33.281  1.00  0.00     0.074 A 
ATOM     38  C   UNL A   1      43.334  27.290  32.368  1.00  0.00     0.031 C 
ATOM     39  C   UNL A   1      43.550  28.625  34.445  1.00  0.00     0.034 A 
BRANCH  26  40
ATOM     40  C   UNL A   1      40.994  33.216  37.753  1.00  0.00     0.023 A 
ATOM     41  C   UNL A   1      40.363  32.954  38.980  1.00  0.00     0.031 A 
ATOM     42  C   UNL A   1      41.673  34.439  37.603  1.00  0.00     0.131 A 
ATOM     43  C   UNL A   1      40.373  33.931  39.988  1.00  0.00     0.055 A 
ATOM     44  C   UNL A   1      41.736  35.376  38.634  1.00  0.00     0.041 A 
ATOM     45  F   UNL A   1      42.263  34.754  36.440  1.00  0.00    -0.206 F 
ATOM     46  C   UNL A   1      41.074  35.130  39.832  1.00  0.00     0.022 A 
BRANCH  43  47
ATOM     47  S   UNL A   1      39.356  33.670  41.469  1.00  0.00     0.124 S 
ATOM     48  O   UNL A   1      38.068  33.312  40.879  1.00  0.00    -0.237 OA
ATOM     49  O   UNL A   1      40.064  32.596  42.155  1.00  0.00    -0.237 OA
ATOM     50  O   UNL A   1      39.387  34.967  42.140  1.00  0.00    -0.744 OA
ENDBRANCH  43  47
ENDBRANCH  26  40
BRANCH  27  51
ATOM     51  C   UNL A   1      40.621  27.866  29.189  1.00  0.00     0.023 A 
ATOM     52  C   UNL A   1      41.493  28.099  28.108  1.00  0.00     0.031 A 
ATOM     53  C   UNL A   1      39.703  26.812  29.046  1.00  0.00     0.131 A 
ATOM     54  C   UNL A   1      41.442  27.309  26.949  1.00  0.00     0.055 A 
ATOM     55  C   UNL A   1      39.667  26.008  27.898  1.00  0.00     0.041 A 
ATOM     56  F   UNL A   1      38.846  26.520  30.037  1.00  0.00    -0.206 F 
ATOM     57  C   UNL A   1      40.536  26.258  26.839  1.00  0.00     0.022 A 
BRANCH  54  58
ATOM     58  S   UNL A   1      42.575  27.704  25.589  1.00  0.00     0.124 S 
ATOM     59  O   UNL A   1      43.843  27.867  26.290  1.00  0.00    -0.237 OA
ATOM     60  O   UNL A   1      42.461  26.512  24.754  1.00  0.00    -0.237 OA
ATOM     61  O   UNL A   1      42.008  28.922  25.017  1.00  0.00    -0.744 OA
ENDBRANCH  54  58
ENDBRANCH  27  51
BRANCH  39  62
ATOM     62  C   UNL A   1      44.793  27.827  34.722  1.00  0.00     0.023 A 
ATOM     63  C   UNL A   1      44.719  26.645  35.479  1.00  0.00     0.031 A 
ATOM     64  C   UNL A   1      46.050  28.258  34.277  1.00  0.00     0.131 A 
ATOM     65  C   UNL A   1      45.891  25.980  35.849  1.00  0.00     0.055 A 
ATOM     66  C   UNL A   1      47.211  27.548  34.584  1.00  0.00     0.041 A 
ATOM     67  F   UNL A   1      46.172  29.380  33.550  1.00  0.00    -0.206 F 
ATOM     68  C   UNL A   1      47.137  26.411  35.389  1.00  0.00     0.022 A 
BRANCH  65  69
ATOM     69  S   UNL A   1      45.765  24.612  37.029  1.00  0.00     0.124 S 
ATOM     70  O   UNL A   1      46.765  24.984  38.025  1.00  0.00    -0.237 OA
ATOM     71  O   UNL A   1      44.373  24.696  37.462  1.00  0.00    -0.237 OA
ATOM     72  O   UNL A   1      46.093  23.436  36.226  1.00  0.00    -0.744 OA
ENDBRANCH  65  69
ENDBRANCH  39  62
ENDBRANCH  13  14
ENDBRANCH   6   8
ENDBRANCH   5   6
ENDBRANCH   4   5
ENDBRANCH   3   4
ENDBRANCH   2   3
ENDBRANCH   1   2
BRANCH   1  73
ATOM     73  C   UNL A   1      35.095  30.964  27.802  1.00  0.00     0.188 C 
BRANCH  73  74
ATOM     74  O   UNL A   1      33.948  30.160  27.510  1.00  0.00    -0.376 OA
BRANCH  74  75
ATOM     75  C   UNL A   1      32.938  30.744  26.693  1.00  0.00     0.202 C 
BRANCH  75  76
ATOM     76  C   UNL A   1      31.829  29.831  26.162  1.00  0.00     0.261 C 
BRANCH  76  77
ATOM     77  O   UNL A   1      32.176  28.449  26.076  1.00  0.00    -0.459 OA
BRANCH  77  78
ATOM     78  C   UNL A   1      31.544  27.660  26.977  1.00  0.00     0.357 C 
ATOM     79  O   UNL A   1      31.181  27.959  28.114  1.00  0.00    -0.244 OA
BRANCH  78  80
ATOM     80  C   UNL A   1      31.473  26.295  26.446  1.00  0.00     0.149 A 
ATOM     81  C   UNL A   1      32.666  25.737  26.019  1.00  0.00     0.051 A 
ATOM     82  N   UNL A   1      30.269  25.663  26.456  1.00  0.00    -0.249 NA
ATOM     83  C   UNL A   1      32.636  24.453  25.519  1.00  0.00     0.012 A 
ATOM     84  C   UNL A   1      30.286  24.383  26.044  1.00  0.00     0.113 A 
ATOM     85  C   UNL A   1      31.433  23.741  25.603  1.00  0.00     0.035 A 
BRANCH  83  86
ATOM     86  S   UNL A   1      34.025  23.638  24.783  1.00  0.00    -0.116 SA
BRANCH  86  87
ATOM     87  C   UNL A   1      34.564  24.630  23.358  1.00  0.00     0.175 C 
BRANCH  87  88
ATOM     88  C   UNL A   1      33.541  25.004  22.293  1.00  0.00     0.233 C 
ATOM     89  O   UNL A   1      33.092  24.144  21.525  1.00  0.00    -0.274 OA
ATOM     90  N   UNL A   1      32.973  26.264  22.348  1.00  0.00    -0.337 N 
ATOM     91  C   UNL A   1      33.763  27.492  22.347  1.00  0.00     0.148 C 
ATOM     92  C   UNL A   1      31.590  26.441  21.918  1.00  0.00     0.148 C 
ATOM     93  C   UNL A   1      33.013  28.693  22.942  1.00  0.00     0.181 C 
ATOM     94  C   UNL A   1      30.947  27.616  22.657  1.00  0.00     0.181 C 
ATOM     95  O   UNL A   1      31.687  28.815  22.400  1.00  0.00    -0.378 OA
ENDBRANCH  87  88
ENDBRANCH  86  87
ENDBRANCH  83  86
ENDBRANCH  78  80
ENDBRANCH  77  78
ENDBRANCH  76  77
ENDBRANCH  75  76
ENDBRANCH  74  75
ENDBRANCH  73  74
ENDBRANCH   1  73
TORSDOF 23
ENDMDL
MODEL 3
REMARK VINA RESULT:      -9.9      5.840     11.544
REMARK SMILES O=C(OCCOCCOCCOC(=O)c1cc(SCC(=O)N2CCOCC2)ccn1)c1ccc(-c2c3nc(c(-c4cc(S(=O)(=O)[O-])ccc4F)c4ccc([nH]4)c(-c4cc(S(=O)(=O)[O-])ccc4F)c4nc(c(-c5cc(S(=O)(=O)[O-])ccc5F)c5ccc2[nH]5)C=C4)C=C3)cc1
REMARK SMILES IDX 7 1 6 2 5 3 4 4 3 5 2 6 1 7 31 8 32 9 93 10 33 11 92 12
REMARK SMILES IDX 34 13 35 14 36 15 86 16 37 17 91 18 85 19 87 20 38 21 90 22
REMARK SMILES IDX 84 23 83 24 39 26 71 27 51 28 70 29 52 30 55 31 69 32 88 33
REMARK SMILES IDX 53 34 54 35 68 37 89 38 56 39 40 40 41 41 49 42 42 43 48 44
REMARK SMILES IDX 50 45 47 46 43 47 44 48 45 49 46 50 72 51 73 52 81 53 74 54
REMARK SMILES IDX 80 55 82 56 79 57 75 58 76 59 77 60 78 61 57 62 58 63 66 64
REMARK SMILES IDX 59 65 65 66 67 67 64 68 60 69 61 70 62 71 63 72 8 73 9 74
REMARK SMILES IDX 10 75 11 76 12 77 13 78 14 79 15 80 16 81 30 82 17 83 29 84
REMARK SMILES IDX 28 85 18 86 19 87 20 88 21 89 22 90 23 91 27 92 24 93 26 94
REMARK SMILES IDX 25 95
REMARK H PARENT 87 25 55 36
REMARK Flexibility Score: inf
ROOT
ATOM      1  C   UNL A   1      35.101  33.806  27.990  1.00  0.00     0.188 C 
ENDROOT
BRANCH   1   2
ATOM      2  O   UNL A   1      34.284  34.978  28.098  1.00  0.00    -0.376 OA
BRANCH   2   3
ATOM      3  C   UNL A   1      33.250  34.886  29.080  1.00  0.00     0.202 C 
BRANCH   3   4
ATOM      4  C   UNL A   1      32.699  36.222  29.599  1.00  0.00     0.261 C 
BRANCH   4   5
ATOM      5  O   UNL A   1      32.863  36.383  31.017  1.00  0.00    -0.460 OA
BRANCH   5   6
ATOM      6  C   UNL A   1      32.891  35.399  31.951  1.00  0.00     0.338 C 
ATOM      7  O   UNL A   1      31.848  35.109  32.535  1.00  0.00    -0.246 OA
BRANCH   6   8
ATOM      8  C   UNL A   1      34.120  34.616  32.275  1.00  0.00     0.060 A 
ATOM      9  C   UNL A   1      34.130  33.278  32.681  1.00  0.00     0.016 A 
ATOM     10  C   UNL A   1      35.354  35.252  32.065  1.00  0.00     0.016 A 
ATOM     11  C   UNL A   1      35.324  32.621  32.977  1.00  0.00     0.010 A 
ATOM     12  C   UNL A   1      36.557  34.579  32.303  1.00  0.00     0.010 A 
ATOM     13  C   UNL A   1      36.547  33.268  32.794  1.00  0.00    -0.014 A 
BRANCH  13  14
ATOM     14  C   UNL A   1      37.804  32.576  33.162  1.00  0.00     0.031 A 
ATOM     15  C   UNL A   1      38.373  32.789  34.530  1.00  0.00     0.074 A 
ATOM     16  C   UNL A   1      38.409  31.764  32.274  1.00  0.00     0.049 A 
ATOM     17  N   UNL A   1      39.442  32.267  35.063  1.00  0.00    -0.248 NA
ATOM     18  C   UNL A   1      37.651  33.724  35.408  1.00  0.00     0.031 C 
ATOM     19  C   UNL A   1      37.909  31.510  30.926  1.00  0.00     0.029 A 
ATOM     20  N   UNL A   1      39.548  31.001  32.353  1.00  0.00    -0.354 N 
ATOM     21  C   UNL A   1      39.564  32.860  36.314  1.00  0.00     0.074 A 
ATOM     22  C   UNL A   1      38.442  33.758  36.471  1.00  0.00     0.031 C 
ATOM     23  C   UNL A   1      38.725  30.633  30.323  1.00  0.00     0.029 A 
ATOM     24  C   UNL A   1      39.796  30.252  31.222  1.00  0.00     0.049 A 
ATOM     25  H   UNL A   1      40.133  30.990  33.145  1.00  0.00     0.167 HD
ATOM     26  C   UNL A   1      40.553  32.686  37.223  1.00  0.00     0.034 A 
ATOM     27  C   UNL A   1      40.744  29.327  30.956  1.00  0.00     0.034 A 
ATOM     28  C   UNL A   1      41.651  31.774  37.031  1.00  0.00     0.049 A 
ATOM     29  C   UNL A   1      41.737  29.054  32.052  1.00  0.00     0.074 A 
ATOM     30  C   UNL A   1      42.731  31.532  37.859  1.00  0.00     0.029 A 
ATOM     31  N   UNL A   1      41.809  30.952  35.919  1.00  0.00    -0.354 N 
ATOM     32  N   UNL A   1      41.785  29.570  33.260  1.00  0.00    -0.248 NA
ATOM     33  C   UNL A   1      42.781  28.065  31.769  1.00  0.00     0.031 C 
ATOM     34  C   UNL A   1      43.572  30.612  37.222  1.00  0.00     0.029 A 
ATOM     35  C   UNL A   1      42.988  30.233  36.023  1.00  0.00     0.049 A 
ATOM     36  H   UNL A   1      41.175  30.891  35.169  1.00  0.00     0.167 HD
ATOM     37  C   UNL A   1      42.883  28.983  33.870  1.00  0.00     0.074 A 
ATOM     38  C   UNL A   1      43.393  27.994  32.939  1.00  0.00     0.031 C 
ATOM     39  C   UNL A   1      43.466  29.272  35.062  1.00  0.00     0.034 A 
BRANCH  26  40
ATOM     40  C   UNL A   1      40.542  33.594  38.425  1.00  0.00     0.023 A 
ATOM     41  C   UNL A   1      39.700  33.380  39.528  1.00  0.00     0.031 A 
ATOM     42  C   UNL A   1      41.358  34.741  38.426  1.00  0.00     0.131 A 
ATOM     43  C   UNL A   1      39.649  34.332  40.559  1.00  0.00     0.055 A 
ATOM     44  C   UNL A   1      41.352  35.648  39.486  1.00  0.00     0.041 A 
ATOM     45  F   UNL A   1      42.155  35.012  37.381  1.00  0.00    -0.206 F 
ATOM     46  C   UNL A   1      40.485  35.452  40.557  1.00  0.00     0.022 A 
BRANCH  43  47
ATOM     47  S   UNL A   1      38.387  34.154  41.852  1.00  0.00     0.124 S 
ATOM     48  O   UNL A   1      39.164  33.562  42.939  1.00  0.00    -0.237 OA
ATOM     49  O   UNL A   1      37.946  35.529  42.057  1.00  0.00    -0.237 OA
ATOM     50  O   UNL A   1      37.398  33.266  41.246  1.00  0.00    -0.744 OA
ENDBRANCH  43  47
ENDBRANCH  26  40
BRANCH  27  51
ATOM     51  C   UNL A   1      40.746  28.512  29.695  1.00  0.00     0.023 A 
ATOM     52  C   UNL A   1      41.624  28.841  28.643  1.00  0.00     0.031 A 
ATOM     53  C   UNL A   1      39.909  27.401  29.497  1.00  0.00     0.131 A 
ATOM     54  C   UNL A   1      41.655  28.088  27.460  1.00  0.00     0.055 A 
ATOM     55  C   UNL A   1      39.956  26.635  28.324  1.00  0.00     0.041 A 
ATOM     56  F   UNL A   1      39.053  27.017  30.457  1.00  0.00    -0.206 F 
ATOM     57  C   UNL A   1      40.829  26.979  27.295  1.00  0.00     0.022 A 
BRANCH  54  58
ATOM     58  S   UNL A   1      42.786  28.606  26.140  1.00  0.00     0.124 S 
ATOM     59  O   UNL A   1      43.080  29.983  26.519  1.00  0.00    -0.237 OA
ATOM     60  O   UNL A   1      43.883  27.656  26.301  1.00  0.00    -0.237 OA
ATOM     61  O   UNL A   1      41.992  28.441  24.926  1.00  0.00    -0.744 OA
ENDBRANCH  54  58
ENDBRANCH  27  51
BRANCH  39  62
ATOM     62  C   UNL A   1      44.746  28.540  35.354  1.00  0.00     0.023 A 
ATOM     63  C   UNL A   1      44.712  27.273  35.963  1.00  0.00     0.031 A 
ATOM     64  C   UNL A   1      45.994  29.112  35.072  1.00  0.00     0.131 A 
ATOM     65  C   UNL A   1      45.902  26.657  36.356  1.00  0.00     0.055 A 
ATOM     66  C   UNL A   1      47.182  28.457  35.396  1.00  0.00     0.041 A 
ATOM     67  F   UNL A   1      46.078  30.319  34.489  1.00  0.00    -0.206 F 
ATOM     68  C   UNL A   1      47.140  27.230  36.058  1.00  0.00     0.022 A 
BRANCH  65  69
ATOM     69  S   UNL A   1      45.799  25.152  37.358  1.00  0.00     0.124 S 
ATOM     70  O   UNL A   1      47.092  25.155  38.036  1.00  0.00    -0.237 OA
ATOM     71  O   UNL A   1      44.637  25.414  38.202  1.00  0.00    -0.237 OA
ATOM     72  O   UNL A   1      45.618  24.092  36.368  1.00  0.00    -0.744 OA
ENDBRANCH  65  69
ENDBRANCH  39  62
ENDBRANCH  13  14
ENDBRANCH   6   8
ENDBRANCH   5   6
ENDBRANCH   4   5
ENDBRANCH   3   4
ENDBRANCH   2   3
ENDBRANCH   1   2
BRANCH   1  73
ATOM     73  C   UNL A   1      34.948  32.905  29.217  1.00  0.00     0.188 C 
BRANCH  73  74
ATOM     74  O   UNL A   1      34.533  31.560  28.958  1.00  0.00    -0.376 OA
BRANCH  74  75
ATOM     75  C   UNL A   1      33.937  31.299  27.691  1.00  0.00     0.202 C 
BRANCH  75  76
ATOM     76  C   UNL A   1      33.901  29.848  27.202  1.00  0.00     0.261 C 
BRANCH  76  77
ATOM     77  O   UNL A   1      32.617  29.226  27.255  1.00  0.00    -0.459 OA
BRANCH  77  78
ATOM     78  C   UNL A   1      32.195  28.723  26.072  1.00  0.00     0.357 C 
ATOM     79  O   UNL A   1      31.681  29.334  25.136  1.00  0.00    -0.244 OA
BRANCH  78  80
ATOM     80  C   UNL A   1      32.303  27.261  26.111  1.00  0.00     0.149 A 
ATOM     81  C   UNL A   1      33.541  26.726  25.798  1.00  0.00     0.051 A 
ATOM     82  N   UNL A   1      31.211  26.546  26.493  1.00  0.00    -0.249 NA
ATOM     83  C   UNL A   1      33.679  25.355  25.830  1.00  0.00     0.012 A 
ATOM     84  C   UNL A   1      31.401  25.219  26.599  1.00  0.00     0.113 A 
ATOM     85  C   UNL A   1      32.605  24.596  26.312  1.00  0.00     0.035 A 
BRANCH  83  86
ATOM     86  S   UNL A   1      35.133  24.488  25.310  1.00  0.00    -0.116 SA
BRANCH  86  87
ATOM     87  C   UNL A   1      35.204  22.919  26.226  1.00  0.00     0.175 C 
BRANCH  87  88
ATOM     88  C   UNL A   1      35.510  21.635  25.464  1.00  0.00     0.233 C 
ATOM     89  O   UNL A   1      36.625  21.106  25.548  1.00  0.00    -0.274 OA
ATOM     90  N   UNL A   1      34.458  20.969  24.860  1.00  0.00    -0.337 N 
ATOM     91  C   UNL A   1      33.568  21.603  23.893  1.00  0.00     0.148 C 
ATOM     92  C   UNL A   1      34.489  19.512  24.782  1.00  0.00     0.148 C 
ATOM     93  C   UNL A   1      32.209  20.898  23.770  1.00  0.00     0.181 C 
ATOM     94  C   UNL A   1      33.068  18.948  24.755  1.00  0.00     0.181 C 
ATOM     95  O   UNL A   1      32.357  19.475  23.629  1.00  0.00    -0.378 OA
ENDBRANCH  87  88
ENDBRANCH  86  87
ENDBRANCH  83  86
ENDBRANCH  78  80
ENDBRANCH  77  78
ENDBRANCH  76  77
ENDBRANCH  75  76
ENDBRANCH  74  75
ENDBRANCH  73  74
ENDBRANCH   1  73
TORSDOF 23
ENDMDL
