MODEL 1
REMARK VINA RESULT:      -9.2      0.000      0.000
REMARK SMILES O=C(OCCOCCOCCOC(=O)c1ccc(S(=O)(=O)Cc2ncccn2)c(F)c1)c1ccc(-c2c3nc(c(-c4cc(S(=O)(=O)[O-])ccc4F)c4ccc([nH]4)c(-c4cc(S(=O)(=O)[O-])ccc4F)c4nc(c(-c5cc(S(=O)(=O)[O-])ccc5F)c5ccc2[nH]5)C=C4)C=C3)cc1
REMARK SMILES IDX 7 1 6 2 5 3 4 4 3 5 2 6 1 7 32 8 33 9 94 10 34 11 93 12
REMARK SMILES IDX 35 13 36 14 37 15 87 16 38 17 92 18 86 19 88 20 39 21 91 22
REMARK SMILES IDX 85 23 84 24 40 26 72 27 52 28 71 29 53 30 56 31 70 32 89 33
REMARK SMILES IDX 54 34 55 35 69 37 90 38 57 39 41 40 42 41 50 42 43 43 49 44
REMARK SMILES IDX 51 45 48 46 44 47 45 48 46 49 47 50 73 51 74 52 82 53 75 54
REMARK SMILES IDX 81 55 83 56 80 57 76 58 77 59 78 60 79 61 58 62 59 63 67 64
REMARK SMILES IDX 60 65 66 66 68 67 65 68 61 69 62 70 63 71 64 72 8 73 9 74
REMARK SMILES IDX 10 75 11 76 12 77 13 78 14 79 15 80 16 81 31 82 17 83 29 84
REMARK SMILES IDX 18 85 30 86 19 87 20 88 21 89 22 90 23 91 24 92 28 93 25 94
REMARK SMILES IDX 27 95 26 96
REMARK H PARENT 88 25 56 36
REMARK Flexibility Score: inf
ROOT
ATOM      1  C   UNL A   1      40.343  22.189  27.588  1.00  0.00     0.188 C 
ENDROOT
BRANCH   1   2
ATOM      2  O   UNL A   1      41.741  22.079  27.294  1.00  0.00    -0.376 OA
BRANCH   2   3
ATOM      3  C   UNL A   1      42.206  23.026  26.324  1.00  0.00     0.202 C 
BRANCH   3   4
ATOM      4  C   UNL A   1      43.115  22.432  25.241  1.00  0.00     0.261 C 
BRANCH   4   5
ATOM      5  O   UNL A   1      44.362  21.972  25.785  1.00  0.00    -0.460 OA
BRANCH   5   6
ATOM      6  C   UNL A   1      45.556  22.621  25.798  1.00  0.00     0.338 C 
ATOM      7  O   UNL A   1      46.552  22.011  25.407  1.00  0.00    -0.246 OA
BRANCH   6   8
ATOM      8  C   UNL A   1      45.728  24.046  26.224  1.00  0.00     0.060 A 
ATOM      9  C   UNL A   1      46.095  24.467  27.503  1.00  0.00     0.016 A 
ATOM     10  C   UNL A   1      45.540  25.034  25.241  1.00  0.00     0.016 A 
ATOM     11  C   UNL A   1      46.121  25.815  27.841  1.00  0.00     0.010 A 
ATOM     12  C   UNL A   1      45.628  26.394  25.556  1.00  0.00     0.010 A 
ATOM     13  C   UNL A   1      45.865  26.788  26.877  1.00  0.00    -0.014 A 
BRANCH  13  14
ATOM     14  C   UNL A   1      45.703  28.189  27.321  1.00  0.00     0.031 A 
ATOM     15  C   UNL A   1      44.389  28.595  27.926  1.00  0.00     0.074 A 
ATOM     16  C   UNL A   1      46.759  29.024  27.325  1.00  0.00     0.049 A 
ATOM     17  N   UNL A   1      44.014  29.759  28.379  1.00  0.00    -0.248 NA
ATOM     18  C   UNL A   1      43.369  27.540  28.062  1.00  0.00     0.031 C 
ATOM     19  C   UNL A   1      48.108  28.669  26.883  1.00  0.00     0.029 A 
ATOM     20  N   UNL A   1      46.880  30.323  27.741  1.00  0.00    -0.354 N 
ATOM     21  C   UNL A   1      42.718  29.580  28.848  1.00  0.00     0.074 A 
ATOM     22  C   UNL A   1      42.360  28.201  28.608  1.00  0.00     0.031 C 
ATOM     23  C   UNL A   1      48.923  29.723  27.055  1.00  0.00     0.029 A 
ATOM     24  C   UNL A   1      48.144  30.842  27.573  1.00  0.00     0.049 A 
ATOM     25  H   UNL A   1      46.133  30.838  28.123  1.00  0.00     0.167 HD
ATOM     26  C   UNL A   1      41.905  30.491  29.429  1.00  0.00     0.034 A 
ATOM     27  C   UNL A   1      48.608  32.089  27.786  1.00  0.00     0.034 A 
ATOM     28  C   UNL A   1      42.287  31.858  29.652  1.00  0.00     0.049 A 
ATOM     29  C   UNL A   1      47.640  33.119  28.309  1.00  0.00     0.074 A 
ATOM     30  C   UNL A   1      41.530  32.894  30.170  1.00  0.00     0.029 A 
ATOM     31  N   UNL A   1      43.542  32.380  29.366  1.00  0.00    -0.354 N 
ATOM     32  N   UNL A   1      46.386  32.959  28.667  1.00  0.00    -0.248 NA
ATOM     33  C   UNL A   1      48.137  34.493  28.442  1.00  0.00     0.031 C 
ATOM     34  C   UNL A   1      42.315  34.051  30.153  1.00  0.00     0.029 A 
ATOM     35  C   UNL A   1      43.576  33.727  29.675  1.00  0.00     0.049 A 
ATOM     36  H   UNL A   1      44.297  31.865  29.000  1.00  0.00     0.167 HD
ATOM     37  C   UNL A   1      45.944  34.213  29.069  1.00  0.00     0.074 A 
ATOM     38  C   UNL A   1      47.072  35.115  28.929  1.00  0.00     0.031 C 
ATOM     39  C   UNL A   1      44.720  34.591  29.510  1.00  0.00     0.034 A 
BRANCH  26  40
ATOM     40  C   UNL A   1      40.517  30.046  29.792  1.00  0.00     0.023 A 
ATOM     41  C   UNL A   1      40.084  29.989  31.128  1.00  0.00     0.031 A 
ATOM     42  C   UNL A   1      39.621  29.649  28.783  1.00  0.00     0.131 A 
ATOM     43  C   UNL A   1      38.798  29.508  31.421  1.00  0.00     0.055 A 
ATOM     44  C   UNL A   1      38.326  29.222  29.079  1.00  0.00     0.041 A 
ATOM     45  F   UNL A   1      39.999  29.658  27.495  1.00  0.00    -0.206 F 
ATOM     46  C   UNL A   1      37.910  29.146  30.405  1.00  0.00     0.022 A 
BRANCH  43  47
ATOM     47  S   UNL A   1      38.314  29.298  33.157  1.00  0.00     0.124 S 
ATOM     48  O   UNL A   1      37.372  28.185  33.067  1.00  0.00    -0.237 OA
ATOM     49  O   UNL A   1      39.585  29.004  33.813  1.00  0.00    -0.237 OA
ATOM     50  O   UNL A   1      37.720  30.587  33.504  1.00  0.00    -0.744 OA
ENDBRANCH  43  47
ENDBRANCH  26  40
BRANCH  27  51
ATOM     51  C   UNL A   1      50.013  32.448  27.437  1.00  0.00     0.023 A 
ATOM     52  C   UNL A   1      50.333  33.082  26.227  1.00  0.00     0.031 A 
ATOM     53  C   UNL A   1      51.068  32.136  28.315  1.00  0.00     0.131 A 
ATOM     54  C   UNL A   1      51.677  33.363  25.919  1.00  0.00     0.055 A 
ATOM     55  C   UNL A   1      52.395  32.456  28.025  1.00  0.00     0.041 A 
ATOM     56  F   UNL A   1      50.819  31.519  29.479  1.00  0.00    -0.206 F 
ATOM     57  C   UNL A   1      52.707  33.066  26.815  1.00  0.00     0.022 A 
BRANCH  54  58
ATOM     58  S   UNL A   1      52.070  34.083  24.300  1.00  0.00     0.124 S 
ATOM     59  O   UNL A   1      53.379  34.677  24.547  1.00  0.00    -0.237 OA
ATOM     60  O   UNL A   1      52.051  32.910  23.433  1.00  0.00    -0.237 OA
ATOM     61  O   UNL A   1      50.985  35.036  24.077  1.00  0.00    -0.744 OA
ENDBRANCH  54  58
ENDBRANCH  27  51
BRANCH  39  62
ATOM     62  C   UNL A   1      44.543  36.035  29.882  1.00  0.00     0.023 A 
ATOM     63  C   UNL A   1      44.033  36.960  28.958  1.00  0.00     0.031 A 
ATOM     64  C   UNL A   1      44.829  36.469  31.186  1.00  0.00     0.131 A 
ATOM     65  C   UNL A   1      43.841  38.291  29.349  1.00  0.00     0.055 A 
ATOM     66  C   UNL A   1      44.597  37.785  31.581  1.00  0.00     0.041 A 
ATOM     67  F   UNL A   1      45.312  35.613  32.101  1.00  0.00    -0.206 F 
ATOM     68  C   UNL A   1      44.103  38.705  30.659  1.00  0.00     0.022 A 
BRANCH  65  69
ATOM     69  S   UNL A   1      43.250  39.484  28.120  1.00  0.00     0.124 S 
ATOM     70  O   UNL A   1      41.802  39.352  28.245  1.00  0.00    -0.237 OA
ATOM     71  O   UNL A   1      43.819  40.740  28.596  1.00  0.00    -0.237 OA
ATOM     72  O   UNL A   1      43.813  38.989  26.865  1.00  0.00    -0.744 OA
ENDBRANCH  65  69
ENDBRANCH  39  62
ENDBRANCH  13  14
ENDBRANCH   6   8
ENDBRANCH   5   6
ENDBRANCH   4   5
ENDBRANCH   3   4
ENDBRANCH   2   3
ENDBRANCH   1   2
BRANCH   1  73
ATOM     73  C   UNL A   1      39.713  23.385  26.866  1.00  0.00     0.188 C 
BRANCH  73  74
ATOM     74  O   UNL A   1      38.438  23.133  26.272  1.00  0.00    -0.376 OA
BRANCH  74  75
ATOM     75  C   UNL A   1      38.299  21.906  25.558  1.00  0.00     0.202 C 
BRANCH  75  76
ATOM     76  C   UNL A   1      36.869  21.417  25.304  1.00  0.00     0.261 C 
BRANCH  76  77
ATOM     77  O   UNL A   1      35.913  21.798  26.313  1.00  0.00    -0.460 OA
BRANCH  77  78
ATOM     78  C   UNL A   1      34.624  21.593  25.961  1.00  0.00     0.338 C 
ATOM     79  O   UNL A   1      33.943  20.601  26.226  1.00  0.00    -0.246 OA
BRANCH  78  80
ATOM     80  C   UNL A   1      34.067  22.682  25.137  1.00  0.00     0.063 A 
ATOM     81  C   UNL A   1      33.859  23.909  25.778  1.00  0.00     0.017 A 
ATOM     82  C   UNL A   1      33.884  22.579  23.754  1.00  0.00     0.056 A 
ATOM     83  C   UNL A   1      33.539  25.044  25.036  1.00  0.00     0.024 A 
ATOM     84  C   UNL A   1      33.559  23.725  23.017  1.00  0.00     0.142 A 
ATOM     85  C   UNL A   1      33.431  24.958  23.643  1.00  0.00     0.103 A 
ATOM     86  F   UNL A   1      33.368  23.596  21.698  1.00  0.00    -0.206 F 
BRANCH  85  87
ATOM     87  S   UNL A   1      33.149  26.462  22.759  1.00  0.00     0.188 S 
ATOM     88  O   UNL A   1      32.905  27.461  23.782  1.00  0.00    -0.223 OA
ATOM     89  O   UNL A   1      34.293  26.619  21.871  1.00  0.00    -0.223 OA
BRANCH  87  90
ATOM     90  C   UNL A   1      31.697  26.386  21.777  1.00  0.00     0.219 C 
BRANCH  90  91
ATOM     91  C   UNL A   1      30.556  27.034  22.484  1.00  0.00     0.143 A 
ATOM     92  N   UNL A   1      30.195  28.269  22.087  1.00  0.00    -0.240 NA
ATOM     93  N   UNL A   1      29.845  26.297  23.360  1.00  0.00    -0.240 NA
ATOM     94  C   UNL A   1      29.072  28.783  22.622  1.00  0.00     0.115 A 
ATOM     95  C   UNL A   1      28.742  26.864  23.885  1.00  0.00     0.115 A 
ATOM     96  C   UNL A   1      28.298  28.117  23.540  1.00  0.00     0.040 A 
ENDBRANCH  90  91
ENDBRANCH  87  90
ENDBRANCH  85  87
ENDBRANCH  78  80
ENDBRANCH  77  78
ENDBRANCH  76  77
ENDBRANCH  75  76
ENDBRANCH  74  75
ENDBRANCH  73  74
ENDBRANCH   1  73
TORSDOF 23
ENDMDL
MODEL 2
REMARK VINA RESULT:      -9.2      6.782      9.338
REMARK SMILES O=C(OCCOCCOCCOC(=O)c1ccc(S(=O)(=O)Cc2ncccn2)c(F)c1)c1ccc(-c2c3nc(c(-c4cc(S(=O)(=O)[O-])ccc4F)c4ccc([nH]4)c(-c4cc(S(=O)(=O)[O-])ccc4F)c4nc(c(-c5cc(S(=O)(=O)[O-])ccc5F)c5ccc2[nH]5)C=C4)C=C3)cc1
REMARK SMILES IDX 7 1 6 2 5 3 4 4 3 5 2 6 1 7 32 8 33 9 94 10 34 11 93 12
REMARK SMILES IDX 35 13 36 14 37 15 87 16 38 17 92 18 86 19 88 20 39 21 91 22
REMARK SMILES IDX 85 23 84 24 40 26 72 27 52 28 71 29 53 30 56 31 70 32 89 33
REMARK SMILES IDX 54 34 55 35 69 37 90 38 57 39 41 40 42 41 50 42 43 43 49 44
REMARK SMILES IDX 51 45 48 46 44 47 45 48 46 49 47 50 73 51 74 52 82 53 75 54
REMARK SMILES IDX 81 55 83 56 80 57 76 58 77 59 78 60 79 61 58 62 59 63 67 64
REMARK SMILES IDX 60 65 66 66 68 67 65 68 61 69 62 70 63 71 64 72 8 73 9 74
REMARK SMILES IDX 10 75 11 76 12 77 13 78 14 79 15 80 16 81 31 82 17 83 29 84
REMARK SMILES IDX 18 85 30 86 19 87 20 88 21 89 22 90 23 91 24 92 28 93 25 94
REMARK SMILES IDX 27 95 26 96
REMARK H PARENT 88 25 56 36
REMARK Flexibility Score: inf
ROOT
ATOM      1  C   UNL A   1      41.435  21.270  26.301  1.00  0.00     0.188 C 
ENDROOT
BRANCH   1   2
ATOM      2  O   UNL A   1      41.947  22.231  25.370  1.00  0.00    -0.376 OA
BRANCH   2   3
ATOM      3  C   UNL A   1      42.658  23.313  25.985  1.00  0.00     0.202 C 
BRANCH   3   4
ATOM      4  C   UNL A   1      41.853  24.613  26.107  1.00  0.00     0.261 C 
BRANCH   4   5
ATOM      5  O   UNL A   1      42.616  25.754  25.684  1.00  0.00    -0.460 OA
BRANCH   5   6
ATOM      6  C   UNL A   1      42.593  27.010  26.201  1.00  0.00     0.338 C 
ATOM      7  O   UNL A   1      42.210  27.929  25.476  1.00  0.00    -0.246 OA
BRANCH   6   8
ATOM      8  C   UNL A   1      42.971  27.341  27.612  1.00  0.00     0.060 A 
ATOM      9  C   UNL A   1      44.229  27.778  28.029  1.00  0.00     0.016 A 
ATOM     10  C   UNL A   1      41.960  27.236  28.584  1.00  0.00     0.016 A 
ATOM     11  C   UNL A   1      44.523  27.954  29.376  1.00  0.00     0.010 A 
ATOM     12  C   UNL A   1      42.231  27.474  29.936  1.00  0.00     0.010 A 
ATOM     13  C   UNL A   1      43.534  27.780  30.342  1.00  0.00    -0.014 A 
BRANCH  13  14
ATOM     14  C   UNL A   1      43.936  27.777  31.764  1.00  0.00     0.031 A 
ATOM     15  C   UNL A   1      43.710  29.025  32.569  1.00  0.00     0.074 A 
ATOM     16  C   UNL A   1      44.344  26.635  32.349  1.00  0.00     0.049 A 
ATOM     17  N   UNL A   1      43.984  29.260  33.823  1.00  0.00    -0.248 NA
ATOM     18  C   UNL A   1      43.062  30.153  31.875  1.00  0.00     0.031 C 
ATOM     19  C   UNL A   1      44.461  25.344  31.673  1.00  0.00     0.029 A 
ATOM     20  N   UNL A   1      44.703  26.363  33.643  1.00  0.00    -0.354 N 
ATOM     21  C   UNL A   1      43.550  30.558  34.066  1.00  0.00     0.074 A 
ATOM     22  C   UNL A   1      43.011  31.070  32.828  1.00  0.00     0.031 C 
ATOM     23  C   UNL A   1      44.860  24.414  32.556  1.00  0.00     0.029 A 
ATOM     24  C   UNL A   1      45.073  25.053  33.850  1.00  0.00     0.049 A 
ATOM     25  H   UNL A   1      44.697  27.040  34.358  1.00  0.00     0.167 HD
ATOM     26  C   UNL A   1      43.598  31.253  35.225  1.00  0.00     0.034 A 
ATOM     27  C   UNL A   1      45.557  24.450  34.953  1.00  0.00     0.034 A 
ATOM     28  C   UNL A   1      44.143  30.717  36.442  1.00  0.00     0.049 A 
ATOM     29  C   UNL A   1      45.726  25.287  36.194  1.00  0.00     0.074 A 
ATOM     30  C   UNL A   1      44.310  31.343  37.664  1.00  0.00     0.029 A 
ATOM     31  N   UNL A   1      44.614  29.418  36.588  1.00  0.00    -0.354 N 
ATOM     32  N   UNL A   1      45.393  26.543  36.389  1.00  0.00    -0.248 NA
ATOM     33  C   UNL A   1      46.346  24.639  37.356  1.00  0.00     0.031 C 
ATOM     34  C   UNL A   1      44.924  30.436  38.533  1.00  0.00     0.029 A 
ATOM     35  C   UNL A   1      45.092  29.229  37.871  1.00  0.00     0.049 A 
ATOM     36  H   UNL A   1      44.606  28.733  35.881  1.00  0.00     0.167 HD
ATOM     37  C   UNL A   1      45.762  26.835  37.696  1.00  0.00     0.074 A 
ATOM     38  C   UNL A   1      46.324  25.618  38.250  1.00  0.00     0.031 C 
ATOM     39  C   UNL A   1      45.653  28.001  38.379  1.00  0.00     0.034 A 
BRANCH  26  40
ATOM     40  C   UNL A   1      43.111  32.673  35.199  1.00  0.00     0.023 A 
ATOM     41  C   UNL A   1      41.787  33.007  35.532  1.00  0.00     0.031 A 
ATOM     42  C   UNL A   1      43.981  33.706  34.810  1.00  0.00     0.131 A 
ATOM     43  C   UNL A   1      41.361  34.341  35.434  1.00  0.00     0.055 A 
ATOM     44  C   UNL A   1      43.566  35.038  34.766  1.00  0.00     0.041 A 
ATOM     45  F   UNL A   1      45.246  33.433  34.455  1.00  0.00    -0.206 F 
ATOM     46  C   UNL A   1      42.248  35.360  35.075  1.00  0.00     0.022 A 
BRANCH  43  47
ATOM     47  S   UNL A   1      39.613  34.728  35.721  1.00  0.00     0.124 S 
ATOM     48  O   UNL A   1      39.420  34.230  37.080  1.00  0.00    -0.237 OA
ATOM     49  O   UNL A   1      39.574  36.179  35.564  1.00  0.00    -0.237 OA
ATOM     50  O   UNL A   1      38.920  33.973  34.680  1.00  0.00    -0.744 OA
ENDBRANCH  43  47
ENDBRANCH  26  40
BRANCH  27  51
ATOM     51  C   UNL A   1      45.985  23.022  34.914  1.00  0.00     0.023 A 
ATOM     52  C   UNL A   1      47.325  22.659  34.710  1.00  0.00     0.031 A 
ATOM     53  C   UNL A   1      45.039  21.990  35.059  1.00  0.00     0.131 A 
ATOM     54  C   UNL A   1      47.678  21.299  34.636  1.00  0.00     0.055 A 
ATOM     55  C   UNL A   1      45.400  20.642  35.028  1.00  0.00     0.041 A 
ATOM     56  F   UNL A   1      43.743  22.281  35.243  1.00  0.00    -0.206 F 
ATOM     57  C   UNL A   1      46.726  20.290  34.806  1.00  0.00     0.022 A 
BRANCH  54  58
ATOM     58  S   UNL A   1      49.399  20.861  34.263  1.00  0.00     0.124 S 
ATOM     59  O   UNL A   1      49.801  20.163  35.479  1.00  0.00    -0.237 OA
ATOM     60  O   UNL A   1      49.251  20.037  33.068  1.00  0.00    -0.237 OA
ATOM     61  O   UNL A   1      50.042  22.156  34.046  1.00  0.00    -0.744 OA
ENDBRANCH  54  58
ENDBRANCH  27  51
BRANCH  39  62
ATOM     62  C   UNL A   1      46.141  28.009  39.798  1.00  0.00     0.023 A 
ATOM     63  C   UNL A   1      47.379  28.578  40.133  1.00  0.00     0.031 A 
ATOM     64  C   UNL A   1      45.331  27.500  40.827  1.00  0.00     0.131 A 
ATOM     65  C   UNL A   1      47.786  28.607  41.472  1.00  0.00     0.055 A 
ATOM     66  C   UNL A   1      45.723  27.569  42.162  1.00  0.00     0.041 A 
ATOM     67  F   UNL A   1      44.136  26.954  40.549  1.00  0.00    -0.206 F 
ATOM     68  C   UNL A   1      46.959  28.122  42.491  1.00  0.00     0.022 A 
BRANCH  65  69
ATOM     69  S   UNL A   1      49.420  29.281  41.873  1.00  0.00     0.124 S 
ATOM     70  O   UNL A   1      49.390  29.297  43.332  1.00  0.00    -0.237 OA
ATOM     71  O   UNL A   1      50.323  28.310  41.264  1.00  0.00    -0.237 OA
ATOM     72  O   UNL A   1      49.412  30.597  41.237  1.00  0.00    -0.744 OA
ENDBRANCH  65  69
ENDBRANCH  39  62
ENDBRANCH  13  14
ENDBRANCH   6   8
ENDBRANCH   5   6
ENDBRANCH   4   5
ENDBRANCH   3   4
ENDBRANCH   2   3
ENDBRANCH   1   2
BRANCH   1  73
ATOM     73  C   UNL A   1      40.340  21.878  27.185  1.00  0.00     0.188 C 
BRANCH  73  74
ATOM     74  O   UNL A   1      39.209  22.395  26.482  1.00  0.00    -0.376 OA
BRANCH  74  75
ATOM     75  C   UNL A   1      38.501  21.477  25.650  1.00  0.00     0.202 C 
BRANCH  75  76
ATOM     76  C   UNL A   1      37.427  22.071  24.731  1.00  0.00     0.261 C 
BRANCH  76  77
ATOM     77  O   UNL A   1      36.303  22.655  25.416  1.00  0.00    -0.460 OA
BRANCH  77  78
ATOM     78  C   UNL A   1      35.157  22.657  24.698  1.00  0.00     0.338 C 
ATOM     79  O   UNL A   1      34.599  21.675  24.207  1.00  0.00    -0.246 OA
BRANCH  78  80
ATOM     80  C   UNL A   1      34.612  24.011  24.481  1.00  0.00     0.063 A 
ATOM     81  C   UNL A   1      33.999  24.248  23.244  1.00  0.00     0.017 A 
ATOM     82  C   UNL A   1      34.557  24.985  25.483  1.00  0.00     0.056 A 
ATOM     83  C   UNL A   1      33.276  25.419  23.032  1.00  0.00     0.024 A 
ATOM     84  C   UNL A   1      33.829  26.161  25.259  1.00  0.00     0.142 A 
ATOM     85  C   UNL A   1      33.155  26.360  24.062  1.00  0.00     0.103 A 
ATOM     86  F   UNL A   1      33.810  27.086  26.226  1.00  0.00    -0.206 F 
BRANCH  85  87
ATOM     87  S   UNL A   1      32.118  27.759  23.763  1.00  0.00     0.188 S 
ATOM     88  O   UNL A   1      31.321  27.902  24.967  1.00  0.00    -0.223 OA
ATOM     89  O   UNL A   1      33.013  28.839  23.370  1.00  0.00    -0.223 OA
BRANCH  87  90
ATOM     90  C   UNL A   1      30.991  27.473  22.449  1.00  0.00     0.219 C 
BRANCH  90  91
ATOM     91  C   UNL A   1      29.904  28.493  22.462  1.00  0.00     0.143 A 
ATOM     92  N   UNL A   1      30.104  29.628  21.766  1.00  0.00    -0.240 NA
ATOM     93  N   UNL A   1      28.725  28.165  23.027  1.00  0.00    -0.240 NA
ATOM     94  C   UNL A   1      29.062  30.474  21.657  1.00  0.00     0.115 A 
ATOM     95  C   UNL A   1      27.721  29.054  22.910  1.00  0.00     0.115 A 
ATOM     96  C   UNL A   1      27.832  30.235  22.219  1.00  0.00     0.040 A 
ENDBRANCH  90  91
ENDBRANCH  87  90
ENDBRANCH  85  87
ENDBRANCH  78  80
ENDBRANCH  77  78
ENDBRANCH  76  77
ENDBRANCH  75  76
ENDBRANCH  74  75
ENDBRANCH  73  74
ENDBRANCH   1  73
TORSDOF 23
ENDMDL
MODEL 3
REMARK VINA RESULT:      -9.1      5.359     12.585
REMARK SMILES O=C(OCCOCCOCCOC(=O)c1ccc(S(=O)(=O)Cc2ncccn2)c(F)c1)c1ccc(-c2c3nc(c(-c4cc(S(=O)(=O)[O-])ccc4F)c4ccc([nH]4)c(-c4cc(S(=O)(=O)[O-])ccc4F)c4nc(c(-c5cc(S(=O)(=O)[O-])ccc5F)c5ccc2[nH]5)C=C4)C=C3)cc1
REMARK SMILES IDX 7 1 6 2 5 3 4 4 3 5 2 6 1 7 32 8 33 9 94 10 34 11 93 12
REMARK SMILES IDX 35 13 36 14 37 15 87 16 38 17 92 18 86 19 88 20 39 21 91 22
REMARK SMILES IDX 85 23 84 24 40 26 72 27 52 28 71 29 53 30 56 31 70 32 89 33
REMARK SMILES IDX 54 34 55 35 69 37 90 38 57 39 41 40 42 41 50 42 43 43 49 44
REMARK SMILES IDX 51 45 48 46 44 47 45 48 46 49 47 50 73 51 74 52 82 53 75 54
REMARK SMILES IDX 81 55 83 56 80 57 76 58 77 59 78 60 79 61 58 62 59 63 67 64
REMARK SMILES IDX 60 65 66 66 68 67 65 68 61 69 62 70 63 71 64 72 8 73 9 74
REMARK SMILES IDX 10 75 11 76 12 77 13 78 14 79 15 80 16 81 31 82 17 83 29 84
REMARK SMILES IDX 18 85 30 86 19 87 20 88 21 89 22 90 23 91 24 92 28 93 25 94
REMARK SMILES IDX 27 95 26 96
REMARK H PARENT 88 25 56 36
REMARK Flexibility Score: inf
ROOT
ATOM      1  C   UNL A   1      37.894  33.816  32.337  1.00  0.00     0.188 C 
ENDROOT
BRANCH   1   2
ATOM      2  O   UNL A   1      37.143  33.101  31.348  1.00  0.00    -0.376 OA
BRANCH   2   3
ATOM      3  C   UNL A   1      35.898  33.722  31.005  1.00  0.00     0.202 C 
BRANCH   3   4
ATOM      4  C   UNL A   1      34.728  32.745  30.829  1.00  0.00     0.261 C 
BRANCH   4   5
ATOM      5  O   UNL A   1      34.399  32.551  29.445  1.00  0.00    -0.460 OA
BRANCH   5   6
ATOM      6  C   UNL A   1      34.817  31.556  28.620  1.00  0.00     0.338 C 
ATOM      7  O   UNL A   1      34.164  31.334  27.599  1.00  0.00    -0.246 OA
BRANCH   6   8
ATOM      8  C   UNL A   1      36.047  30.734  28.857  1.00  0.00     0.060 A 
ATOM      9  C   UNL A   1      36.115  29.597  29.663  1.00  0.00     0.016 A 
ATOM     10  C   UNL A   1      37.216  31.125  28.179  1.00  0.00     0.016 A 
ATOM     11  C   UNL A   1      37.325  28.962  29.916  1.00  0.00     0.010 A 
ATOM     12  C   UNL A   1      38.426  30.452  28.377  1.00  0.00     0.010 A 
ATOM     13  C   UNL A   1      38.493  29.398  29.294  1.00  0.00    -0.014 A 
BRANCH  13  14
ATOM     14  C   UNL A   1      39.781  28.828  29.745  1.00  0.00     0.031 A 
ATOM     15  C   UNL A   1      40.405  29.384  30.994  1.00  0.00     0.074 A 
ATOM     16  C   UNL A   1      40.289  27.740  29.138  1.00  0.00     0.049 A 
ATOM     17  N   UNL A   1      41.524  29.051  31.577  1.00  0.00    -0.248 NA
ATOM     18  C   UNL A   1      39.653  30.440  31.697  1.00  0.00     0.031 C 
ATOM     19  C   UNL A   1      39.676  27.052  28.002  1.00  0.00     0.029 A 
ATOM     20  N   UNL A   1      41.411  27.000  29.404  1.00  0.00    -0.354 N 
ATOM     21  C   UNL A   1      41.614  29.856  32.706  1.00  0.00     0.074 A 
ATOM     22  C   UNL A   1      40.447  30.708  32.721  1.00  0.00     0.031 C 
ATOM     23  C   UNL A   1      40.425  25.989  27.670  1.00  0.00     0.029 A 
ATOM     24  C   UNL A   1      41.597  25.947  28.537  1.00  0.00     0.049 A 
ATOM     25  H   UNL A   1      42.027  27.203  30.144  1.00  0.00     0.167 HD
ATOM     26  C   UNL A   1      42.586  29.873  33.646  1.00  0.00     0.034 A 
ATOM     27  C   UNL A   1      42.614  25.069  28.440  1.00  0.00     0.034 A 
ATOM     28  C   UNL A   1      43.737  29.015  33.603  1.00  0.00     0.049 A 
ATOM     29  C   UNL A   1      43.751  25.200  29.420  1.00  0.00     0.074 A 
ATOM     30  C   UNL A   1      44.824  28.983  34.458  1.00  0.00     0.029 A 
ATOM     31  N   UNL A   1      43.949  28.031  32.645  1.00  0.00    -0.354 N 
ATOM     32  N   UNL A   1      43.868  26.026  30.435  1.00  0.00    -0.248 NA
ATOM     33  C   UNL A   1      44.895  24.300  29.237  1.00  0.00     0.031 C 
ATOM     34  C   UNL A   1      45.714  28.012  33.988  1.00  0.00     0.029 A 
ATOM     35  C   UNL A   1      45.159  27.402  32.872  1.00  0.00     0.049 A 
ATOM     36  H   UNL A   1      43.328  27.814  31.913  1.00  0.00     0.167 HD
ATOM     37  C   UNL A   1      45.099  25.744  31.013  1.00  0.00     0.074 A 
ATOM     38  C   UNL A   1      45.678  24.657  30.246  1.00  0.00     0.031 C 
ATOM     39  C   UNL A   1      45.702  26.329  32.077  1.00  0.00     0.034 A 
BRANCH  26  40
ATOM     40  C   UNL A   1      42.467  30.893  34.743  1.00  0.00     0.023 A 
ATOM     41  C   UNL A   1      42.719  32.256  34.515  1.00  0.00     0.031 A 
ATOM     42  C   UNL A   1      42.121  30.487  36.044  1.00  0.00     0.131 A 
ATOM     43  C   UNL A   1      42.655  33.163  35.585  1.00  0.00     0.055 A 
ATOM     44  C   UNL A   1      42.008  31.401  37.091  1.00  0.00     0.041 A 
ATOM     45  F   UNL A   1      41.900  29.191  36.317  1.00  0.00    -0.206 F 
ATOM     46  C   UNL A   1      42.280  32.747  36.866  1.00  0.00     0.022 A 
BRANCH  43  47
ATOM     47  S   UNL A   1      43.131  34.890  35.302  1.00  0.00     0.124 S 
ATOM     48  O   UNL A   1      43.765  35.232  36.573  1.00  0.00    -0.237 OA
ATOM     49  O   UNL A   1      44.024  34.795  34.152  1.00  0.00    -0.237 OA
ATOM     50  O   UNL A   1      41.857  35.558  35.045  1.00  0.00    -0.744 OA
ENDBRANCH  43  47
ENDBRANCH  26  40
BRANCH  27  51
ATOM     51  C   UNL A   1      42.644  24.057  27.345  1.00  0.00     0.023 A 
ATOM     52  C   UNL A   1      41.999  22.817  27.468  1.00  0.00     0.031 A 
ATOM     53  C   UNL A   1      43.349  24.316  26.154  1.00  0.00     0.131 A 
ATOM     54  C   UNL A   1      42.090  21.875  26.428  1.00  0.00     0.055 A 
ATOM     55  C   UNL A   1      43.400  23.395  25.106  1.00  0.00     0.041 A 
ATOM     56  F   UNL A   1      43.993  25.480  25.989  1.00  0.00    -0.206 F 
ATOM     57  C   UNL A   1      42.775  22.161  25.244  1.00  0.00     0.022 A 
BRANCH  54  58
ATOM     58  S   UNL A   1      41.339  20.240  26.661  1.00  0.00     0.124 S 
ATOM     59  O   UNL A   1      41.593  19.606  25.373  1.00  0.00    -0.237 OA
ATOM     60  O   UNL A   1      42.095  19.716  27.794  1.00  0.00    -0.237 OA
ATOM     61  O   UNL A   1      39.936  20.544  26.941  1.00  0.00    -0.744 OA
ENDBRANCH  54  58
ENDBRANCH  27  51
BRANCH  39  62
ATOM     62  C   UNL A   1      47.048  25.796  32.477  1.00  0.00     0.023 A 
ATOM     63  C   UNL A   1      47.171  24.837  33.494  1.00  0.00     0.031 A 
ATOM     64  C   UNL A   1      48.203  26.207  31.791  1.00  0.00     0.131 A 
ATOM     65  C   UNL A   1      48.437  24.330  33.814  1.00  0.00     0.055 A 
ATOM     66  C   UNL A   1      49.454  25.668  32.086  1.00  0.00     0.041 A 
ATOM     67  F   UNL A   1      48.125  27.117  30.807  1.00  0.00    -0.206 F 
ATOM     68  C   UNL A   1      49.576  24.726  33.105  1.00  0.00     0.022 A 
BRANCH  65  69
ATOM     69  S   UNL A   1      48.582  23.147  35.178  1.00  0.00     0.124 S 
ATOM     70  O   UNL A   1      47.697  23.733  36.181  1.00  0.00    -0.237 OA
ATOM     71  O   UNL A   1      48.121  21.902  34.572  1.00  0.00    -0.237 OA
ATOM     72  O   UNL A   1      50.005  23.180  35.510  1.00  0.00    -0.744 OA
ENDBRANCH  65  69
ENDBRANCH  39  62
ENDBRANCH  13  14
ENDBRANCH   6   8
ENDBRANCH   5   6
ENDBRANCH   4   5
ENDBRANCH   3   4
ENDBRANCH   2   3
ENDBRANCH   1   2
BRANCH   1  73
ATOM     73  C   UNL A   1      39.126  34.489  31.723  1.00  0.00     0.188 C 
BRANCH  73  74
ATOM     74  O   UNL A   1      39.557  33.945  30.474  1.00  0.00    -0.376 OA
BRANCH  74  75
ATOM     75  C   UNL A   1      40.910  33.499  30.405  1.00  0.00     0.202 C 
BRANCH  75  76
ATOM     76  C   UNL A   1      41.979  34.577  30.200  1.00  0.00     0.261 C 
BRANCH  76  77
ATOM     77  O   UNL A   1      42.654  34.524  28.929  1.00  0.00    -0.460 OA
BRANCH  77  78
ATOM     78  C   UNL A   1      43.903  34.010  28.985  1.00  0.00     0.338 C 
ATOM     79  O   UNL A   1      44.870  34.500  29.572  1.00  0.00    -0.246 OA
BRANCH  78  80
ATOM     80  C   UNL A   1      44.057  32.772  28.199  1.00  0.00     0.063 A 
ATOM     81  C   UNL A   1      45.021  32.790  27.182  1.00  0.00     0.017 A 
ATOM     82  C   UNL A   1      43.402  31.577  28.515  1.00  0.00     0.056 A 
ATOM     83  C   UNL A   1      45.380  31.611  26.534  1.00  0.00     0.024 A 
ATOM     84  C   UNL A   1      43.768  30.397  27.856  1.00  0.00     0.142 A 
ATOM     85  C   UNL A   1      44.780  30.401  26.905  1.00  0.00     0.103 A 
ATOM     86  F   UNL A   1      43.112  29.271  28.162  1.00  0.00    -0.206 F 
BRANCH  85  87
ATOM     87  S   UNL A   1      45.378  28.930  26.129  1.00  0.00     0.188 S 
ATOM     88  O   UNL A   1      44.205  28.309  25.544  1.00  0.00    -0.223 OA
ATOM     89  O   UNL A   1      46.466  29.357  25.258  1.00  0.00    -0.223 OA
BRANCH  87  90
ATOM     90  C   UNL A   1      46.022  27.787  27.293  1.00  0.00     0.219 C 
BRANCH  90  91
ATOM     91  C   UNL A   1      47.489  27.986  27.463  1.00  0.00     0.143 A 
ATOM     92  N   UNL A   1      48.313  27.239  26.704  1.00  0.00    -0.240 NA
ATOM     93  N   UNL A   1      47.911  29.005  28.238  1.00  0.00    -0.240 NA
ATOM     94  C   UNL A   1      49.626  27.531  26.752  1.00  0.00     0.115 A 
ATOM     95  C   UNL A   1      49.236  29.243  28.269  1.00  0.00     0.115 A 
ATOM     96  C   UNL A   1      50.150  28.534  27.529  1.00  0.00     0.040 A 
ENDBRANCH  90  91
ENDBRANCH  87  90
ENDBRANCH  85  87
ENDBRANCH  78  80
ENDBRANCH  77  78
ENDBRANCH  76  77
ENDBRANCH  75  76
ENDBRANCH  74  75
ENDBRANCH  73  74
ENDBRANCH   1  73
TORSDOF 23
ENDMDL
