MODEL 1
REMARK VINA RESULT:     -11.5      0.000      0.000
REMARK SMILES Cc1ccnc(C(=O)c2[nH]c3cc(F)ccc3c2CC(=O)OCCOCCOCCOC(=O)c2ccc(-c3c4nc(c(-c5cc(S(=O)(=O)[O-])ccc5F)c5ccc([nH]5)c(-c5cc(S(=O)(=O)[O-])ccc5F)c5nc(c(-c6cc(S(=O)(=O)[O-])ccc6F)c6ccc3[nH]6)C=C5)C=C4)cc2)c1
REMARK SMILES IDX 26 1 25 2 24 3 23 4 22 5 20 6 21 7 19 8 18 9 9 10 10 11
REMARK SMILES IDX 11 12 17 14 12 15 16 16 13 17 15 18 14 19 7 20 8 21 6 22
REMARK SMILES IDX 1 23 2 24 3 25 97 26 4 27 5 28 27 29 28 30 29 31 30 32 31 33
REMARK SMILES IDX 32 34 33 35 34 36 35 37 96 38 36 39 95 40 37 41 38 42 39 43
REMARK SMILES IDX 89 44 40 45 94 46 88 47 90 48 41 49 93 50 87 51 86 52 42 54
REMARK SMILES IDX 74 55 54 56 73 57 55 58 58 59 72 60 91 61 56 62 57 63 71 65
REMARK SMILES IDX 92 66 59 67 43 68 44 69 52 70 45 71 51 72 53 73 50 74 46 75
REMARK SMILES IDX 47 76 48 77 49 78 75 79 76 80 84 81 77 82 83 83 85 84 82 85
REMARK SMILES IDX 78 86 79 87 80 88 81 89 60 90 61 91 69 92 62 93 68 94 70 95
REMARK SMILES IDX 67 96 63 97 64 98 65 99 66 100
REMARK H PARENT 10 13 90 53 58 64
REMARK Flexibility Score: inf
ROOT
ATOM      1  C   UNL A   1      29.772  28.113  23.104  1.00  0.00     0.188 C 
ENDROOT
BRANCH   1   2
ATOM      2  O   UNL A   1      29.280  26.894  23.651  1.00  0.00    -0.376 OA
BRANCH   2   3
ATOM      3  C   UNL A   1      30.226  25.987  24.200  1.00  0.00     0.202 C 
BRANCH   3   4
ATOM      4  C   UNL A   1      30.373  24.651  23.472  1.00  0.00     0.261 C 
BRANCH   4   5
ATOM      5  O   UNL A   1      31.485  23.867  23.962  1.00  0.00    -0.463 OA
BRANCH   5   6
ATOM      6  C   UNL A   1      32.518  23.724  23.094  1.00  0.00     0.310 C 
ATOM      7  O   UNL A   1      32.958  24.656  22.420  1.00  0.00    -0.252 OA
BRANCH   6   8
ATOM      8  C   UNL A   1      33.167  22.353  23.028  1.00  0.00     0.161 C 
BRANCH   8   9
ATOM      9  C   UNL A   1      33.178  21.432  24.230  1.00  0.00     0.000 A 
ATOM     10  C   UNL A   1      33.814  21.643  25.462  1.00  0.00     0.093 A 
ATOM     11  N   UNL A   1      33.567  20.537  26.243  1.00  0.00    -0.351 N 
ATOM     12  C   UNL A   1      33.083  19.512  25.472  1.00  0.00     0.049 A 
ATOM     13  H   UNL A   1      33.717  20.489  27.216  1.00  0.00     0.167 HD
ATOM     14  C   UNL A   1      32.798  20.046  24.216  1.00  0.00     0.004 A 
ATOM     15  C   UNL A   1      32.912  18.159  25.785  1.00  0.00     0.066 A 
ATOM     16  C   UNL A   1      32.317  19.177  23.212  1.00  0.00     0.013 A 
ATOM     17  C   UNL A   1      32.483  17.323  24.757  1.00  0.00     0.125 A 
ATOM     18  C   UNL A   1      32.187  17.811  23.491  1.00  0.00     0.040 A 
ATOM     19  F   UNL A   1      32.375  16.007  24.992  1.00  0.00    -0.207 F 
BRANCH  10  20
ATOM     20  C   UNL A   1      34.597  22.788  25.898  1.00  0.00     0.227 C 
ATOM     21  O   UNL A   1      34.077  23.807  26.346  1.00  0.00    -0.285 OA
BRANCH  20  22
ATOM     22  C   UNL A   1      36.086  22.754  25.786  1.00  0.00     0.113 A 
ATOM     23  C   UNL A   1      39.109  24.784  26.810  1.00  0.00     0.044 C 
ATOM     24  C   UNL A   1      38.231  23.675  26.309  1.00  0.00    -0.047 A 
ATOM     25  C   UNL A   1      38.782  22.420  26.036  1.00  0.00     0.023 A 
ATOM     26  C   UNL A   1      36.846  23.841  26.204  1.00  0.00     0.036 A 
ATOM     27  C   UNL A   1      37.947  21.415  25.577  1.00  0.00     0.112 A 
ATOM     28  N   UNL A   1      36.614  21.565  25.408  1.00  0.00    -0.253 NA
ENDBRANCH  20  22
ENDBRANCH  10  20
ENDBRANCH   8   9
ENDBRANCH   6   8
ENDBRANCH   5   6
ENDBRANCH   4   5
ENDBRANCH   3   4
ENDBRANCH   2   3
ENDBRANCH   1   2
BRANCH   1  29
ATOM     29  C   UNL A   1      30.627  29.039  23.999  1.00  0.00     0.188 C 
BRANCH  29  30
ATOM     30  O   UNL A   1      32.045  28.990  23.896  1.00  0.00    -0.376 OA
BRANCH  30  31
ATOM     31  C   UNL A   1      32.787  29.371  25.046  1.00  0.00     0.202 C 
BRANCH  31  32
ATOM     32  C   UNL A   1      32.101  30.405  25.935  1.00  0.00     0.261 C 
BRANCH  32  33
ATOM     33  O   UNL A   1      32.646  30.387  27.267  1.00  0.00    -0.460 OA
BRANCH  33  34
ATOM     34  C   UNL A   1      33.424  31.461  27.549  1.00  0.00     0.338 C 
ATOM     35  O   UNL A   1      33.039  32.613  27.658  1.00  0.00    -0.246 OA
BRANCH  34  36
ATOM     36  C   UNL A   1      34.845  31.088  27.724  1.00  0.00     0.060 A 
ATOM     37  C   UNL A   1      35.213  29.770  27.967  1.00  0.00     0.016 A 
ATOM     38  C   UNL A   1      35.782  32.102  27.917  1.00  0.00     0.016 A 
ATOM     39  C   UNL A   1      36.440  29.481  28.571  1.00  0.00     0.010 A 
ATOM     40  C   UNL A   1      37.054  31.797  28.423  1.00  0.00     0.010 A 
ATOM     41  C   UNL A   1      37.374  30.491  28.836  1.00  0.00    -0.014 A 
BRANCH  41  42
ATOM     42  C   UNL A   1      38.610  30.210  29.635  1.00  0.00     0.031 A 
ATOM     43  C   UNL A   1      39.691  29.305  29.074  1.00  0.00     0.074 A 
ATOM     44  C   UNL A   1      38.821  30.801  30.831  1.00  0.00     0.049 A 
ATOM     45  N   UNL A   1      40.751  28.809  29.663  1.00  0.00    -0.248 NA
ATOM     46  C   UNL A   1      39.562  28.909  27.661  1.00  0.00     0.031 C 
ATOM     47  C   UNL A   1      37.931  31.778  31.462  1.00  0.00     0.029 A 
ATOM     48  N   UNL A   1      39.857  30.677  31.728  1.00  0.00    -0.354 N 
ATOM     49  C   UNL A   1      41.394  28.023  28.710  1.00  0.00     0.074 A 
ATOM     50  C   UNL A   1      40.595  28.093  27.506  1.00  0.00     0.031 C 
ATOM     51  C   UNL A   1      38.474  32.188  32.617  1.00  0.00     0.029 A 
ATOM     52  C   UNL A   1      39.687  31.422  32.875  1.00  0.00     0.049 A 
ATOM     53  H   UNL A   1      40.644  30.110  31.567  1.00  0.00     0.167 HD
ATOM     54  C   UNL A   1      42.541  27.305  28.825  1.00  0.00     0.034 A 
ATOM     55  C   UNL A   1      40.381  31.445  34.031  1.00  0.00     0.034 A 
ATOM     56  C   UNL A   1      43.336  27.235  30.028  1.00  0.00     0.049 A 
ATOM     57  C   UNL A   1      41.573  30.532  34.181  1.00  0.00     0.074 A 
ATOM     58  C   UNL A   1      44.483  26.495  30.264  1.00  0.00     0.029 A 
ATOM     59  N   UNL A   1      43.073  27.933  31.199  1.00  0.00    -0.354 N 
ATOM     60  N   UNL A   1      42.114  29.723  33.300  1.00  0.00    -0.248 NA
ATOM     61  C   UNL A   1      42.240  30.530  35.490  1.00  0.00     0.031 C 
ATOM     62  C   UNL A   1      44.870  26.689  31.595  1.00  0.00     0.029 A 
ATOM     63  C   UNL A   1      44.015  27.616  32.168  1.00  0.00     0.049 A 
ATOM     64  H   UNL A   1      42.326  28.562  31.326  1.00  0.00     0.167 HD
ATOM     65  C   UNL A   1      43.194  29.128  33.948  1.00  0.00     0.074 A 
ATOM     66  C   UNL A   1      43.252  29.706  35.274  1.00  0.00     0.031 C 
ATOM     67  C   UNL A   1      44.054  28.181  33.495  1.00  0.00     0.034 A 
BRANCH  54  68
ATOM     68  C   UNL A   1      42.974  26.478  27.637  1.00  0.00     0.023 A 
ATOM     69  C   UNL A   1      42.716  25.100  27.553  1.00  0.00     0.031 A 
ATOM     70  C   UNL A   1      43.644  27.090  26.562  1.00  0.00     0.131 A 
ATOM     71  C   UNL A   1      43.164  24.371  26.439  1.00  0.00     0.055 A 
ATOM     72  C   UNL A   1      44.028  26.372  25.427  1.00  0.00     0.041 A 
ATOM     73  F   UNL A   1      43.936  28.400  26.596  1.00  0.00    -0.206 F 
ATOM     74  C   UNL A   1      43.796  25.002  25.364  1.00  0.00     0.022 A 
BRANCH  71  75
ATOM     75  S   UNL A   1      43.004  22.563  26.460  1.00  0.00     0.124 S 
ATOM     76  O   UNL A   1      44.391  22.141  26.272  1.00  0.00    -0.237 OA
ATOM     77  O   UNL A   1      42.437  22.312  27.780  1.00  0.00    -0.237 OA
ATOM     78  O   UNL A   1      42.116  22.283  25.336  1.00  0.00    -0.744 OA
ENDBRANCH  71  75
ENDBRANCH  54  68
BRANCH  55  79
ATOM     79  C   UNL A   1      39.918  32.275  35.186  1.00  0.00     0.023 A 
ATOM     80  C   UNL A   1      39.186  31.713  36.245  1.00  0.00     0.031 A 
ATOM     81  C   UNL A   1      40.125  33.669  35.202  1.00  0.00     0.131 A 
ATOM     82  C   UNL A   1      38.641  32.543  37.239  1.00  0.00     0.055 A 
ATOM     83  C   UNL A   1      39.651  34.478  36.235  1.00  0.00     0.041 A 
ATOM     84  F   UNL A   1      40.797  34.269  34.207  1.00  0.00    -0.206 F 
ATOM     85  C   UNL A   1      38.888  33.918  37.252  1.00  0.00     0.022 A 
BRANCH  82  86
ATOM     86  S   UNL A   1      37.488  31.821  38.439  1.00  0.00     0.124 S 
ATOM     87  O   UNL A   1      37.282  30.487  37.886  1.00  0.00    -0.237 OA
ATOM     88  O   UNL A   1      38.256  31.891  39.677  1.00  0.00    -0.237 OA
ATOM     89  O   UNL A   1      36.329  32.709  38.375  1.00  0.00    -0.744 OA
ENDBRANCH  82  86
ENDBRANCH  55  79
BRANCH  67  90
ATOM     90  C   UNL A   1      45.147  27.750  34.445  1.00  0.00     0.023 A 
ATOM     91  C   UNL A   1      45.065  26.541  35.159  1.00  0.00     0.031 A 
ATOM     92  C   UNL A   1      46.246  28.589  34.697  1.00  0.00     0.131 A 
ATOM     93  C   UNL A   1      46.007  26.252  36.158  1.00  0.00     0.055 A 
ATOM     94  C   UNL A   1      47.223  28.260  35.638  1.00  0.00     0.041 A 
ATOM     95  F   UNL A   1      46.379  29.756  34.047  1.00  0.00    -0.206 F 
ATOM     96  C   UNL A   1      47.095  27.096  36.391  1.00  0.00     0.022 A 
BRANCH  93  97
ATOM     97  S   UNL A   1      45.705  24.835  37.249  1.00  0.00     0.124 S 
ATOM     98  O   UNL A   1      44.600  25.315  38.072  1.00  0.00    -0.237 OA
ATOM     99  O   UNL A   1      45.380  23.775  36.300  1.00  0.00    -0.237 OA
ATOM    100  O   UNL A   1      46.975  24.668  37.953  1.00  0.00    -0.744 OA
ENDBRANCH  93  97
ENDBRANCH  67  90
ENDBRANCH  41  42
ENDBRANCH  34  36
ENDBRANCH  33  34
ENDBRANCH  32  33
ENDBRANCH  31  32
ENDBRANCH  30  31
ENDBRANCH  29  30
ENDBRANCH   1  29
TORSDOF 23
ENDMDL
MODEL 2
REMARK VINA RESULT:     -11.3      2.117      2.485
REMARK SMILES Cc1ccnc(C(=O)c2[nH]c3cc(F)ccc3c2CC(=O)OCCOCCOCCOC(=O)c2ccc(-c3c4nc(c(-c5cc(S(=O)(=O)[O-])ccc5F)c5ccc([nH]5)c(-c5cc(S(=O)(=O)[O-])ccc5F)c5nc(c(-c6cc(S(=O)(=O)[O-])ccc6F)c6ccc3[nH]6)C=C5)C=C4)cc2)c1
REMARK SMILES IDX 26 1 25 2 24 3 23 4 22 5 20 6 21 7 19 8 18 9 9 10 10 11
REMARK SMILES IDX 11 12 17 14 12 15 16 16 13 17 15 18 14 19 7 20 8 21 6 22
REMARK SMILES IDX 1 23 2 24 3 25 97 26 4 27 5 28 27 29 28 30 29 31 30 32 31 33
REMARK SMILES IDX 32 34 33 35 34 36 35 37 96 38 36 39 95 40 37 41 38 42 39 43
REMARK SMILES IDX 89 44 40 45 94 46 88 47 90 48 41 49 93 50 87 51 86 52 42 54
REMARK SMILES IDX 74 55 54 56 73 57 55 58 58 59 72 60 91 61 56 62 57 63 71 65
REMARK SMILES IDX 92 66 59 67 43 68 44 69 52 70 45 71 51 72 53 73 50 74 46 75
REMARK SMILES IDX 47 76 48 77 49 78 75 79 76 80 84 81 77 82 83 83 85 84 82 85
REMARK SMILES IDX 78 86 79 87 80 88 81 89 60 90 61 91 69 92 62 93 68 94 70 95
REMARK SMILES IDX 67 96 63 97 64 98 65 99 66 100
REMARK H PARENT 10 13 90 53 58 64
REMARK Flexibility Score: inf
ROOT
ATOM      1  C   UNL A   1      29.699  28.684  23.052  1.00  0.00     0.188 C 
ENDROOT
BRANCH   1   2
ATOM      2  O   UNL A   1      30.348  27.883  22.070  1.00  0.00    -0.376 OA
BRANCH   2   3
ATOM      3  C   UNL A   1      30.772  26.582  22.453  1.00  0.00     0.202 C 
BRANCH   3   4
ATOM      4  C   UNL A   1      31.735  25.883  21.493  1.00  0.00     0.261 C 
BRANCH   4   5
ATOM      5  O   UNL A   1      32.938  25.421  22.148  1.00  0.00    -0.463 OA
BRANCH   5   6
ATOM      6  C   UNL A   1      33.690  26.390  22.728  1.00  0.00     0.310 C 
ATOM      7  O   UNL A   1      34.047  27.404  22.130  1.00  0.00    -0.252 OA
BRANCH   6   8
ATOM      8  C   UNL A   1      34.030  26.201  24.195  1.00  0.00     0.161 C 
BRANCH   8   9
ATOM      9  C   UNL A   1      33.746  24.894  24.905  1.00  0.00     0.000 A 
ATOM     10  C   UNL A   1      34.463  23.694  24.802  1.00  0.00     0.093 A 
ATOM     11  N   UNL A   1      33.836  22.773  25.611  1.00  0.00    -0.351 N 
ATOM     12  C   UNL A   1      32.592  23.227  25.967  1.00  0.00     0.049 A 
ATOM     13  H   UNL A   1      34.223  21.912  25.892  1.00  0.00     0.167 HD
ATOM     14  C   UNL A   1      32.515  24.562  25.570  1.00  0.00     0.004 A 
ATOM     15  C   UNL A   1      31.531  22.548  26.576  1.00  0.00     0.066 A 
ATOM     16  C   UNL A   1      31.307  25.258  25.790  1.00  0.00     0.013 A 
ATOM     17  C   UNL A   1      30.339  23.252  26.732  1.00  0.00     0.125 A 
ATOM     18  C   UNL A   1      30.217  24.582  26.352  1.00  0.00     0.040 A 
ATOM     19  F   UNL A   1      29.273  22.618  27.244  1.00  0.00    -0.207 F 
BRANCH  10  20
ATOM     20  C   UNL A   1      35.652  23.408  24.017  1.00  0.00     0.227 C 
ATOM     21  O   UNL A   1      35.639  23.388  22.788  1.00  0.00    -0.285 OA
BRANCH  20  22
ATOM     22  C   UNL A   1      36.942  23.103  24.707  1.00  0.00     0.113 A 
ATOM     23  C   UNL A   1      39.181  24.522  27.405  1.00  0.00     0.044 C 
ATOM     24  C   UNL A   1      38.567  23.604  26.389  1.00  0.00    -0.047 A 
ATOM     25  C   UNL A   1      38.991  22.275  26.305  1.00  0.00     0.023 A 
ATOM     26  C   UNL A   1      37.500  24.024  25.587  1.00  0.00     0.036 A 
ATOM     27  C   UNL A   1      38.405  21.450  25.360  1.00  0.00     0.112 A 
ATOM     28  N   UNL A   1      37.414  21.846  24.529  1.00  0.00    -0.253 NA
ENDBRANCH  20  22
ENDBRANCH  10  20
ENDBRANCH   8   9
ENDBRANCH   6   8
ENDBRANCH   5   6
ENDBRANCH   4   5
ENDBRANCH   3   4
ENDBRANCH   2   3
ENDBRANCH   1   2
BRANCH   1  29
ATOM     29  C   UNL A   1      30.559  29.582  23.969  1.00  0.00     0.188 C 
BRANCH  29  30
ATOM     30  O   UNL A   1      31.714  29.034  24.593  1.00  0.00    -0.376 OA
BRANCH  30  31
ATOM     31  C   UNL A   1      31.640  28.802  25.992  1.00  0.00     0.202 C 
BRANCH  31  32
ATOM     32  C   UNL A   1      31.943  30.021  26.860  1.00  0.00     0.261 C 
BRANCH  32  33
ATOM     33  O   UNL A   1      33.185  30.637  26.474  1.00  0.00    -0.460 OA
BRANCH  33  34
ATOM     34  C   UNL A   1      33.768  31.348  27.469  1.00  0.00     0.338 C 
ATOM     35  O   UNL A   1      33.218  32.183  28.169  1.00  0.00    -0.246 OA
BRANCH  34  36
ATOM     36  C   UNL A   1      35.197  31.000  27.640  1.00  0.00     0.060 A 
ATOM     37  C   UNL A   1      35.598  29.675  27.763  1.00  0.00     0.016 A 
ATOM     38  C   UNL A   1      36.099  32.015  27.950  1.00  0.00     0.016 A 
ATOM     39  C   UNL A   1      36.821  29.363  28.364  1.00  0.00     0.010 A 
ATOM     40  C   UNL A   1      37.370  31.698  28.452  1.00  0.00     0.010 A 
ATOM     41  C   UNL A   1      37.720  30.368  28.745  1.00  0.00    -0.014 A 
BRANCH  41  42
ATOM     42  C   UNL A   1      38.948  30.045  29.541  1.00  0.00     0.031 A 
ATOM     43  C   UNL A   1      39.995  29.103  28.977  1.00  0.00     0.074 A 
ATOM     44  C   UNL A   1      39.181  30.628  30.736  1.00  0.00     0.049 A 
ATOM     45  N   UNL A   1      41.040  28.572  29.563  1.00  0.00    -0.248 NA
ATOM     46  C   UNL A   1      39.849  28.713  27.564  1.00  0.00     0.031 C 
ATOM     47  C   UNL A   1      38.327  31.634  31.370  1.00  0.00     0.029 A 
ATOM     48  N   UNL A   1      40.215  30.469  31.630  1.00  0.00    -0.354 N 
ATOM     49  C   UNL A   1      41.653  27.764  28.608  1.00  0.00     0.074 A 
ATOM     50  C   UNL A   1      40.854  27.862  27.406  1.00  0.00     0.031 C 
ATOM     51  C   UNL A   1      38.886  32.026  32.523  1.00  0.00     0.029 A 
ATOM     52  C   UNL A   1      40.073  31.219  32.778  1.00  0.00     0.049 A 
ATOM     53  H   UNL A   1      40.982  29.875  31.467  1.00  0.00     0.167 HD
ATOM     54  C   UNL A   1      42.775  27.008  28.720  1.00  0.00     0.034 A 
ATOM     55  C   UNL A   1      40.771  31.218  33.933  1.00  0.00     0.034 A 
ATOM     56  C   UNL A   1      43.571  26.911  29.921  1.00  0.00     0.049 A 
ATOM     57  C   UNL A   1      41.932  30.265  34.079  1.00  0.00     0.074 A 
ATOM     58  C   UNL A   1      44.693  26.132  30.154  1.00  0.00     0.029 A 
ATOM     59  N   UNL A   1      43.335  27.618  31.093  1.00  0.00    -0.354 N 
ATOM     60  N   UNL A   1      42.443  29.438  33.196  1.00  0.00    -0.248 NA
ATOM     61  C   UNL A   1      42.602  30.240  35.386  1.00  0.00     0.031 C 
ATOM     62  C   UNL A   1      45.090  26.313  31.484  1.00  0.00     0.029 A 
ATOM     63  C   UNL A   1      44.269  27.268  32.058  1.00  0.00     0.049 A 
ATOM     64  H   UNL A   1      42.610  28.271  31.221  1.00  0.00     0.167 HD
ATOM     65  C   UNL A   1      43.504  28.807  33.841  1.00  0.00     0.074 A 
ATOM     66  C   UNL A   1      43.585  29.383  35.167  1.00  0.00     0.031 C 
ATOM     67  C   UNL A   1      44.330  27.831  33.385  1.00  0.00     0.034 A 
BRANCH  54  68
ATOM     68  C   UNL A   1      43.177  26.168  27.530  1.00  0.00     0.023 A 
ATOM     69  C   UNL A   1      42.893  24.794  27.458  1.00  0.00     0.031 A 
ATOM     70  C   UNL A   1      43.844  26.761  26.443  1.00  0.00     0.131 A 
ATOM     71  C   UNL A   1      43.312  24.051  26.341  1.00  0.00     0.055 A 
ATOM     72  C   UNL A   1      44.199  26.031  25.307  1.00  0.00     0.041 A 
ATOM     73  F   UNL A   1      44.160  28.066  26.466  1.00  0.00    -0.206 F 
ATOM     74  C   UNL A   1      43.941  24.665  25.255  1.00  0.00     0.022 A 
BRANCH  71  75
ATOM     75  S   UNL A   1      43.120  22.246  26.375  1.00  0.00     0.124 S 
ATOM     76  O   UNL A   1      42.181  22.028  25.275  1.00  0.00    -0.237 OA
ATOM     77  O   UNL A   1      44.483  21.780  26.149  1.00  0.00    -0.237 OA
ATOM     78  O   UNL A   1      42.582  21.983  27.707  1.00  0.00    -0.744 OA
ENDBRANCH  71  75
ENDBRANCH  54  68
BRANCH  55  79
ATOM     79  C   UNL A   1      40.339  32.063  35.089  1.00  0.00     0.023 A 
ATOM     80  C   UNL A   1      39.441  31.580  36.054  1.00  0.00     0.031 A 
ATOM     81  C   UNL A   1      40.753  33.406  35.194  1.00  0.00     0.131 A 
ATOM     82  C   UNL A   1      38.943  32.444  37.043  1.00  0.00     0.055 A 
ATOM     83  C   UNL A   1      40.317  34.237  36.227  1.00  0.00     0.041 A 
ATOM     84  F   UNL A   1      41.592  33.934  34.290  1.00  0.00    -0.206 F 
ATOM     85  C   UNL A   1      39.393  33.762  37.149  1.00  0.00     0.022 A 
BRANCH  82  86
ATOM     86  S   UNL A   1      37.593  31.862  38.107  1.00  0.00     0.124 S 
ATOM     87  O   UNL A   1      37.387  30.506  37.609  1.00  0.00    -0.237 OA
ATOM     88  O   UNL A   1      38.185  31.974  39.436  1.00  0.00    -0.237 OA
ATOM     89  O   UNL A   1      36.510  32.801  37.826  1.00  0.00    -0.744 OA
ENDBRANCH  82  86
ENDBRANCH  55  79
BRANCH  67  90
ATOM     90  C   UNL A   1      45.410  27.363  34.332  1.00  0.00     0.023 A 
ATOM     91  C   UNL A   1      46.709  27.903  34.290  1.00  0.00     0.031 A 
ATOM     92  C   UNL A   1      45.163  26.315  35.236  1.00  0.00     0.131 A 
ATOM     93  C   UNL A   1      47.732  27.330  35.061  1.00  0.00     0.055 A 
ATOM     94  C   UNL A   1      46.167  25.800  36.058  1.00  0.00     0.041 A 
ATOM     95  F   UNL A   1      43.944  25.759  35.322  1.00  0.00    -0.206 F 
ATOM     96  C   UNL A   1      47.465  26.292  35.957  1.00  0.00     0.022 A 
BRANCH  93  97
ATOM     97  S   UNL A   1      49.441  27.859  34.764  1.00  0.00     0.124 S 
ATOM     98  O   UNL A   1      50.167  27.137  35.804  1.00  0.00    -0.237 OA
ATOM     99  O   UNL A   1      49.672  27.410  33.395  1.00  0.00    -0.237 OA
ATOM    100  O   UNL A   1      49.386  29.309  34.939  1.00  0.00    -0.744 OA
ENDBRANCH  93  97
ENDBRANCH  67  90
ENDBRANCH  41  42
ENDBRANCH  34  36
ENDBRANCH  33  34
ENDBRANCH  32  33
ENDBRANCH  31  32
ENDBRANCH  30  31
ENDBRANCH  29  30
ENDBRANCH   1  29
TORSDOF 23
ENDMDL
MODEL 3
REMARK VINA RESULT:     -11.1      2.666      3.160
REMARK SMILES Cc1ccnc(C(=O)c2[nH]c3cc(F)ccc3c2CC(=O)OCCOCCOCCOC(=O)c2ccc(-c3c4nc(c(-c5cc(S(=O)(=O)[O-])ccc5F)c5ccc([nH]5)c(-c5cc(S(=O)(=O)[O-])ccc5F)c5nc(c(-c6cc(S(=O)(=O)[O-])ccc6F)c6ccc3[nH]6)C=C5)C=C4)cc2)c1
REMARK SMILES IDX 26 1 25 2 24 3 23 4 22 5 20 6 21 7 19 8 18 9 9 10 10 11
REMARK SMILES IDX 11 12 17 14 12 15 16 16 13 17 15 18 14 19 7 20 8 21 6 22
REMARK SMILES IDX 1 23 2 24 3 25 97 26 4 27 5 28 27 29 28 30 29 31 30 32 31 33
REMARK SMILES IDX 32 34 33 35 34 36 35 37 96 38 36 39 95 40 37 41 38 42 39 43
REMARK SMILES IDX 89 44 40 45 94 46 88 47 90 48 41 49 93 50 87 51 86 52 42 54
REMARK SMILES IDX 74 55 54 56 73 57 55 58 58 59 72 60 91 61 56 62 57 63 71 65
REMARK SMILES IDX 92 66 59 67 43 68 44 69 52 70 45 71 51 72 53 73 50 74 46 75
REMARK SMILES IDX 47 76 48 77 49 78 75 79 76 80 84 81 77 82 83 83 85 84 82 85
REMARK SMILES IDX 78 86 79 87 80 88 81 89 60 90 61 91 69 92 62 93 68 94 70 95
REMARK SMILES IDX 67 96 63 97 64 98 65 99 66 100
REMARK H PARENT 10 13 90 53 58 64
REMARK Flexibility Score: inf
ROOT
ATOM      1  C   UNL A   1      29.810  28.166  22.911  1.00  0.00     0.188 C 
ENDROOT
BRANCH   1   2
ATOM      2  O   UNL A   1      30.678  27.532  21.977  1.00  0.00    -0.376 OA
BRANCH   2   3
ATOM      3  C   UNL A   1      31.127  26.218  22.278  1.00  0.00     0.202 C 
BRANCH   3   4
ATOM      4  C   UNL A   1      32.450  25.800  21.637  1.00  0.00     0.261 C 
BRANCH   4   5
ATOM      5  O   UNL A   1      33.455  25.441  22.614  1.00  0.00    -0.463 OA
BRANCH   5   6
ATOM      6  C   UNL A   1      33.917  26.467  23.371  1.00  0.00     0.310 C 
ATOM      7  O   UNL A   1      33.986  27.624  22.956  1.00  0.00    -0.252 OA
BRANCH   6   8
ATOM      8  C   UNL A   1      34.298  26.139  24.803  1.00  0.00     0.161 C 
BRANCH   8   9
ATOM      9  C   UNL A   1      33.969  24.793  25.413  1.00  0.00     0.000 A 
ATOM     10  C   UNL A   1      34.748  23.627  25.380  1.00  0.00     0.093 A 
ATOM     11  N   UNL A   1      34.047  22.649  26.049  1.00  0.00    -0.351 N 
ATOM     12  C   UNL A   1      32.744  23.038  26.225  1.00  0.00     0.049 A 
ATOM     13  H   UNL A   1      34.426  21.793  26.356  1.00  0.00     0.167 HD
ATOM     14  C   UNL A   1      32.668  24.384  25.869  1.00  0.00     0.004 A 
ATOM     15  C   UNL A   1      31.635  22.292  26.639  1.00  0.00     0.066 A 
ATOM     16  C   UNL A   1      31.409  25.022  25.924  1.00  0.00     0.013 A 
ATOM     17  C   UNL A   1      30.402  22.941  26.634  1.00  0.00     0.125 A 
ATOM     18  C   UNL A   1      30.279  24.280  26.287  1.00  0.00     0.040 A 
ATOM     19  F   UNL A   1      29.301  22.245  26.953  1.00  0.00    -0.207 F 
BRANCH  10  20
ATOM     20  C   UNL A   1      36.055  23.422  24.778  1.00  0.00     0.227 C 
ATOM     21  O   UNL A   1      36.220  23.395  23.560  1.00  0.00    -0.285 OA
BRANCH  20  22
ATOM     22  C   UNL A   1      37.249  23.215  25.650  1.00  0.00     0.113 A 
ATOM     23  C   UNL A   1      40.059  20.735  26.161  1.00  0.00     0.044 C 
ATOM     24  C   UNL A   1      39.204  21.965  26.235  1.00  0.00    -0.047 A 
ATOM     25  C   UNL A   1      39.686  23.112  26.871  1.00  0.00     0.023 A 
ATOM     26  C   UNL A   1      37.964  22.024  25.588  1.00  0.00     0.036 A 
ATOM     27  C   UNL A   1      38.876  24.234  26.922  1.00  0.00     0.112 A 
ATOM     28  N   UNL A   1      37.648  24.299  26.358  1.00  0.00    -0.253 NA
ENDBRANCH  20  22
ENDBRANCH  10  20
ENDBRANCH   8   9
ENDBRANCH   6   8
ENDBRANCH   5   6
ENDBRANCH   4   5
ENDBRANCH   3   4
ENDBRANCH   2   3
ENDBRANCH   1   2
BRANCH   1  29
ATOM     29  C   UNL A   1      30.413  29.150  23.937  1.00  0.00     0.188 C 
BRANCH  29  30
ATOM     30  O   UNL A   1      31.640  28.823  24.578  1.00  0.00    -0.376 OA
BRANCH  30  31
ATOM     31  C   UNL A   1      31.605  28.654  25.989  1.00  0.00     0.202 C 
BRANCH  31  32
ATOM     32  C   UNL A   1      31.907  29.917  26.791  1.00  0.00     0.261 C 
BRANCH  32  33
ATOM     33  O   UNL A   1      33.158  30.502  26.386  1.00  0.00    -0.460 OA
BRANCH  33  34
ATOM     34  C   UNL A   1      33.698  31.325  27.318  1.00  0.00     0.338 C 
ATOM     35  O   UNL A   1      33.136  32.268  27.851  1.00  0.00    -0.246 OA
BRANCH  34  36
ATOM     36  C   UNL A   1      35.092  30.954  27.648  1.00  0.00     0.060 A 
ATOM     37  C   UNL A   1      35.426  29.642  27.961  1.00  0.00     0.016 A 
ATOM     38  C   UNL A   1      36.009  31.971  27.910  1.00  0.00     0.016 A 
ATOM     39  C   UNL A   1      36.584  29.367  28.695  1.00  0.00     0.010 A 
ATOM     40  C   UNL A   1      37.221  31.676  28.550  1.00  0.00     0.010 A 
ATOM     41  C   UNL A   1      37.491  30.382  29.028  1.00  0.00    -0.014 A 
BRANCH  41  42
ATOM     42  C   UNL A   1      38.637  30.119  29.957  1.00  0.00     0.031 A 
ATOM     43  C   UNL A   1      39.775  29.213  29.525  1.00  0.00     0.074 A 
ATOM     44  C   UNL A   1      38.717  30.727  31.160  1.00  0.00     0.049 A 
ATOM     45  N   UNL A   1      40.770  28.732  30.230  1.00  0.00    -0.248 NA
ATOM     46  C   UNL A   1      39.798  28.798  28.112  1.00  0.00     0.031 C 
ATOM     47  C   UNL A   1      37.761  31.706  31.680  1.00  0.00     0.029 A 
ATOM     48  N   UNL A   1      39.654  30.621  32.163  1.00  0.00    -0.354 N 
ATOM     49  C   UNL A   1      41.514  27.937  29.360  1.00  0.00     0.074 A 
ATOM     50  C   UNL A   1      40.846  27.986  28.078  1.00  0.00     0.031 C 
ATOM     51  C   UNL A   1      38.177  32.135  32.880  1.00  0.00     0.029 A 
ATOM     52  C   UNL A   1      39.360  31.380  33.275  1.00  0.00     0.049 A 
ATOM     53  H   UNL A   1      40.457  30.057  32.093  1.00  0.00     0.167 HD
ATOM     54  C   UNL A   1      42.646  27.228  29.605  1.00  0.00     0.034 A 
ATOM     55  C   UNL A   1      39.928  31.423  34.498  1.00  0.00     0.034 A 
ATOM     56  C   UNL A   1      43.310  27.180  30.887  1.00  0.00     0.049 A 
ATOM     57  C   UNL A   1      41.103  30.520  34.784  1.00  0.00     0.074 A 
ATOM     58  C   UNL A   1      44.429  26.450  31.252  1.00  0.00     0.029 A 
ATOM     59  N   UNL A   1      42.921  27.892  32.014  1.00  0.00    -0.354 N 
ATOM     60  N   UNL A   1      41.738  29.702  33.976  1.00  0.00    -0.248 NA
ATOM     61  C   UNL A   1      41.628  30.539  36.156  1.00  0.00     0.031 C 
ATOM     62  C   UNL A   1      44.674  26.664  32.614  1.00  0.00     0.029 A 
ATOM     63  C   UNL A   1      43.758  27.593  33.080  1.00  0.00     0.049 A 
ATOM     64  H   UNL A   1      42.162  28.517  32.052  1.00  0.00     0.167 HD
ATOM     65  C   UNL A   1      42.746  29.123  34.743  1.00  0.00     0.074 A 
ATOM     66  C   UNL A   1      42.661  29.719  36.059  1.00  0.00     0.031 C 
ATOM     67  C   UNL A   1      43.654  28.176  34.396  1.00  0.00     0.034 A 
BRANCH  54  68
ATOM     68  C   UNL A   1      43.206  26.389  28.481  1.00  0.00     0.023 A 
ATOM     69  C   UNL A   1      44.259  26.839  27.667  1.00  0.00     0.031 A 
ATOM     70  C   UNL A   1      42.681  25.108  28.231  1.00  0.00     0.131 A 
ATOM     71  C   UNL A   1      44.726  26.032  26.617  1.00  0.00     0.055 A 
ATOM     72  C   UNL A   1      43.194  24.283  27.227  1.00  0.00     0.041 A 
ATOM     73  F   UNL A   1      41.660  24.633  28.963  1.00  0.00    -0.206 F 
ATOM     74  C   UNL A   1      44.217  24.747  26.407  1.00  0.00     0.022 A 
BRANCH  71  75
ATOM     75  S   UNL A   1      45.936  26.727  25.456  1.00  0.00     0.124 S 
ATOM     76  O   UNL A   1      45.182  27.835  24.872  1.00  0.00    -0.237 OA
ATOM     77  O   UNL A   1      47.037  27.101  26.336  1.00  0.00    -0.237 OA
ATOM     78  O   UNL A   1      46.213  25.620  24.545  1.00  0.00    -0.744 OA
ENDBRANCH  71  75
ENDBRANCH  54  68
BRANCH  55  79
ATOM     79  C   UNL A   1      39.342  32.265  35.586  1.00  0.00     0.023 A 
ATOM     80  C   UNL A   1      39.755  33.592  35.786  1.00  0.00     0.031 A 
ATOM     81  C   UNL A   1      38.421  31.721  36.502  1.00  0.00     0.131 A 
ATOM     82  C   UNL A   1      39.294  34.309  36.904  1.00  0.00     0.055 A 
ATOM     83  C   UNL A   1      37.904  32.465  37.564  1.00  0.00     0.041 A 
ATOM     84  F   UNL A   1      38.005  30.451  36.379  1.00  0.00    -0.206 F 
ATOM     85  C   UNL A   1      38.355  33.761  37.780  1.00  0.00     0.022 A 
BRANCH  82  86
ATOM     86  S   UNL A   1      40.045  35.918  37.275  1.00  0.00     0.124 S 
ATOM     87  O   UNL A   1      39.701  36.688  36.084  1.00  0.00    -0.237 OA
ATOM     88  O   UNL A   1      39.357  36.298  38.504  1.00  0.00    -0.237 OA
ATOM     89  O   UNL A   1      41.464  35.605  37.427  1.00  0.00    -0.744 OA
ENDBRANCH  82  86
ENDBRANCH  55  79
BRANCH  67  90
ATOM     90  C   UNL A   1      44.643  27.764  35.461  1.00  0.00     0.023 A 
ATOM     91  C   UNL A   1      45.877  28.424  35.613  1.00  0.00     0.031 A 
ATOM     92  C   UNL A   1      44.385  26.655  36.285  1.00  0.00     0.131 A 
ATOM     93  C   UNL A   1      46.842  27.911  36.493  1.00  0.00     0.055 A 
ATOM     94  C   UNL A   1      45.319  26.196  37.215  1.00  0.00     0.041 A 
ATOM     95  F   UNL A   1      43.226  25.985  36.187  1.00  0.00    -0.206 F 
ATOM     96  C   UNL A   1      46.565  26.811  37.307  1.00  0.00     0.022 A 
BRANCH  93  97
ATOM     97  S   UNL A   1      48.515  28.610  36.447  1.00  0.00     0.124 S 
ATOM     98  O   UNL A   1      49.320  27.448  36.086  1.00  0.00    -0.237 OA
ATOM     99  O   UNL A   1      48.392  29.644  35.424  1.00  0.00    -0.237 OA
ATOM    100  O   UNL A   1      48.716  29.107  37.807  1.00  0.00    -0.744 OA
ENDBRANCH  93  97
ENDBRANCH  67  90
ENDBRANCH  41  42
ENDBRANCH  34  36
ENDBRANCH  33  34
ENDBRANCH  32  33
ENDBRANCH  31  32
ENDBRANCH  30  31
ENDBRANCH  29  30
ENDBRANCH   1  29
TORSDOF 23
ENDMDL
