MODEL 1
REMARK VINA RESULT:     -10.7      0.000      0.000
REMARK SMILES CC(C)(C)C1CN(c2cccc(Cl)c2C(=O)OCCOCCOCCOC(=O)c2ccc(-c3c4nc(c(-c5cc(S(=O)(=O)[O-])ccc5F)c5ccc([nH]5)c(-c5cc(S(=O)(=O)[O-])ccc5F)c5nc(c(-c6cc(S(=O)(=O)[O-])ccc6F)c6ccc3[nH]6)C=C5)C=C4)cc2)C1
REMARK SMILES IDX 22 1 21 2 20 3 19 4 18 5 17 6 15 7 16 8 14 9 8 10 9 11 10 12
REMARK SMILES IDX 12 13 11 14 13 15 7 16 5 17 6 18 92 19 2 20 1 21 3 22 4 23
REMARK SMILES IDX 23 24 24 25 25 26 26 27 27 28 28 29 29 30 30 31 91 32 31 33
REMARK SMILES IDX 90 34 32 35 33 36 34 37 84 38 35 39 89 40 83 41 85 42 36 43
REMARK SMILES IDX 88 44 82 45 81 46 37 48 69 49 49 50 68 51 50 52 53 53 67 54
REMARK SMILES IDX 86 55 51 56 52 57 66 59 87 60 54 61 38 62 39 63 47 64 40 65
REMARK SMILES IDX 46 66 48 67 45 68 41 69 42 70 43 71 44 72 70 73 71 74 79 75
REMARK SMILES IDX 72 76 78 77 80 78 77 79 73 80 74 81 75 82 76 83 55 84 56 85
REMARK SMILES IDX 64 86 57 87 63 88 65 89 62 90 58 91 59 92 60 93 61 94
REMARK H PARENT 85 47 53 58
REMARK Flexibility Score: inf
ROOT
ATOM      1  C   UNL A   1      33.721  20.410  24.765  1.00  0.00     0.188 C 
ENDROOT
BRANCH   1   2
ATOM      2  C   UNL A   1      33.318  21.437  23.695  1.00  0.00     0.188 C 
BRANCH   2   3
ATOM      3  O   UNL A   1      32.096  22.120  23.960  1.00  0.00    -0.376 OA
BRANCH   3   4
ATOM      4  C   UNL A   1      31.999  23.408  23.353  1.00  0.00     0.202 C 
BRANCH   4   5
ATOM      5  C   UNL A   1      30.633  24.029  23.641  1.00  0.00     0.261 C 
BRANCH   5   6
ATOM      6  O   UNL A   1      30.722  25.462  23.665  1.00  0.00    -0.460 OA
BRANCH   6   7
ATOM      7  C   UNL A   1      30.581  26.065  24.867  1.00  0.00     0.341 C 
ATOM      8  O   UNL A   1      29.660  25.902  25.650  1.00  0.00    -0.246 OA
BRANCH   7   9
ATOM      9  C   UNL A   1      31.801  26.866  25.108  1.00  0.00     0.102 A 
ATOM     10  C   UNL A   1      31.826  28.211  24.677  1.00  0.00     0.053 A 
ATOM     11  C   UNL A   1      32.983  28.972  24.915  1.00  0.00     0.027 A 
ATOM     12  C   UNL A   1      34.083  28.421  25.579  1.00  0.00     0.004 A 
ATOM     13  C   UNL A   1      32.913  26.312  25.763  1.00  0.00     0.057 A 
ATOM     14  C   UNL A   1      34.045  27.096  26.006  1.00  0.00     0.021 A 
ATOM     15  Cl  UNL A   1      32.982  24.660  26.275  1.00  0.00    -0.083 Cl
BRANCH  10  16
ATOM     16  N   UNL A   1      30.709  28.789  24.039  1.00  0.00    -0.370 N 
ATOM     17  C   UNL A   1      29.684  30.094  22.786  1.00  0.00     0.033 C 
ATOM     18  C   UNL A   1      30.221  30.122  24.214  1.00  0.00     0.122 C 
ATOM     19  C   UNL A   1      30.361  28.721  22.652  1.00  0.00     0.122 C 
BRANCH  17  20
ATOM     20  C   UNL A   1      28.168  30.290  22.561  1.00  0.00    -0.032 C 
ATOM     21  C   UNL A   1      27.954  30.637  21.077  1.00  0.00     0.011 C 
ATOM     22  C   UNL A   1      27.648  31.423  23.471  1.00  0.00     0.011 C 
ATOM     23  C   UNL A   1      27.347  29.040  22.899  1.00  0.00     0.011 C 
ENDBRANCH  17  20
ENDBRANCH  10  16
ENDBRANCH   7   9
ENDBRANCH   6   7
ENDBRANCH   5   6
ENDBRANCH   4   5
ENDBRANCH   3   4
ENDBRANCH   2   3
ENDBRANCH   1   2
BRANCH   1  24
ATOM     24  O   UNL A   1      34.884  20.606  25.559  1.00  0.00    -0.376 OA
BRANCH  24  25
ATOM     25  C   UNL A   1      35.998  21.268  24.991  1.00  0.00     0.202 C 
BRANCH  25  26
ATOM     26  C   UNL A   1      37.386  20.784  25.420  1.00  0.00     0.261 C 
BRANCH  26  27
ATOM     27  O   UNL A   1      38.438  21.765  25.346  1.00  0.00    -0.460 OA
BRANCH  27  28
ATOM     28  C   UNL A   1      39.372  21.679  26.328  1.00  0.00     0.338 C 
ATOM     29  O   UNL A   1      39.952  20.668  26.689  1.00  0.00    -0.246 OA
BRANCH  28  30
ATOM     30  C   UNL A   1      39.692  23.014  26.889  1.00  0.00     0.060 A 
ATOM     31  C   UNL A   1      39.045  24.134  26.347  1.00  0.00     0.016 A 
ATOM     32  C   UNL A   1      40.701  23.191  27.840  1.00  0.00     0.016 A 
ATOM     33  C   UNL A   1      39.434  25.429  26.718  1.00  0.00     0.010 A 
ATOM     34  C   UNL A   1      41.093  24.491  28.202  1.00  0.00     0.010 A 
ATOM     35  C   UNL A   1      40.485  25.622  27.624  1.00  0.00    -0.014 A 
BRANCH  35  36
ATOM     36  C   UNL A   1      41.018  26.984  27.921  1.00  0.00     0.031 A 
ATOM     37  C   UNL A   1      42.478  27.269  27.807  1.00  0.00     0.074 A 
ATOM     38  C   UNL A   1      40.219  27.988  28.323  1.00  0.00     0.049 A 
ATOM     39  N   UNL A   1      43.121  28.365  28.119  1.00  0.00    -0.248 NA
ATOM     40  C   UNL A   1      43.311  26.201  27.248  1.00  0.00     0.031 C 
ATOM     41  C   UNL A   1      38.776  27.894  28.368  1.00  0.00     0.029 A 
ATOM     42  N   UNL A   1      40.485  29.249  28.803  1.00  0.00    -0.354 N 
ATOM     43  C   UNL A   1      44.434  28.145  27.742  1.00  0.00     0.074 A 
ATOM     44  C   UNL A   1      44.505  26.778  27.257  1.00  0.00     0.031 C 
ATOM     45  C   UNL A   1      38.285  29.000  28.948  1.00  0.00     0.029 A 
ATOM     46  C   UNL A   1      39.377  29.874  29.327  1.00  0.00     0.049 A 
ATOM     47  H   UNL A   1      41.378  29.663  28.775  1.00  0.00     0.167 HD
ATOM     48  C   UNL A   1      45.470  29.019  27.758  1.00  0.00     0.034 A 
ATOM     49  C   UNL A   1      39.229  30.993  30.063  1.00  0.00     0.034 A 
ATOM     50  C   UNL A   1      45.406  30.361  28.286  1.00  0.00     0.049 A 
ATOM     51  C   UNL A   1      40.430  31.857  30.292  1.00  0.00     0.074 A 
ATOM     52  C   UNL A   1      46.403  31.321  28.322  1.00  0.00     0.029 A 
ATOM     53  N   UNL A   1      44.295  30.929  28.900  1.00  0.00    -0.354 N 
ATOM     54  N   UNL A   1      41.664  31.653  29.898  1.00  0.00    -0.248 NA
ATOM     55  C   UNL A   1      40.221  33.117  31.013  1.00  0.00     0.031 C 
ATOM     56  C   UNL A   1      45.919  32.436  29.020  1.00  0.00     0.029 A 
ATOM     57  C   UNL A   1      44.598  32.203  29.363  1.00  0.00     0.049 A 
ATOM     58  H   UNL A   1      43.419  30.490  28.995  1.00  0.00     0.167 HD
ATOM     59  C   UNL A   1      42.370  32.784  30.277  1.00  0.00     0.074 A 
ATOM     60  C   UNL A   1      41.426  33.663  30.939  1.00  0.00     0.031 C 
ATOM     61  C   UNL A   1      43.678  33.073  30.061  1.00  0.00     0.034 A 
BRANCH  48  62
ATOM     62  C   UNL A   1      46.771  28.502  27.209  1.00  0.00     0.023 A 
ATOM     63  C   UNL A   1      46.986  28.410  25.821  1.00  0.00     0.031 A 
ATOM     64  C   UNL A   1      47.768  28.018  28.070  1.00  0.00     0.131 A 
ATOM     65  C   UNL A   1      48.128  27.763  25.336  1.00  0.00     0.055 A 
ATOM     66  C   UNL A   1      48.942  27.447  27.578  1.00  0.00     0.041 A 
ATOM     67  F   UNL A   1      47.600  28.060  29.400  1.00  0.00    -0.206 F 
ATOM     68  C   UNL A   1      49.120  27.299  26.204  1.00  0.00     0.022 A 
BRANCH  65  69
ATOM     69  S   UNL A   1      48.219  27.389  23.564  1.00  0.00     0.124 S 
ATOM     70  O   UNL A   1      48.013  25.943  23.558  1.00  0.00    -0.237 OA
ATOM     71  O   UNL A   1      47.134  28.192  23.015  1.00  0.00    -0.237 OA
ATOM     72  O   UNL A   1      49.565  27.822  23.192  1.00  0.00    -0.744 OA
ENDBRANCH  65  69
ENDBRANCH  48  62
BRANCH  49  73
ATOM     73  C   UNL A   1      37.912  31.339  30.671  1.00  0.00     0.023 A 
ATOM     74  C   UNL A   1      36.959  32.101  29.981  1.00  0.00     0.031 A 
ATOM     75  C   UNL A   1      37.609  30.937  31.987  1.00  0.00     0.131 A 
ATOM     76  C   UNL A   1      35.761  32.467  30.619  1.00  0.00     0.055 A 
ATOM     77  C   UNL A   1      36.404  31.277  32.606  1.00  0.00     0.041 A 
ATOM     78  F   UNL A   1      38.483  30.197  32.688  1.00  0.00    -0.206 F 
ATOM     79  C   UNL A   1      35.474  32.055  31.923  1.00  0.00     0.022 A 
BRANCH  76  80
ATOM     80  S   UNL A   1      34.602  33.549  29.736  1.00  0.00     0.124 S 
ATOM     81  O   UNL A   1      33.863  34.157  30.837  1.00  0.00    -0.237 OA
ATOM     82  O   UNL A   1      35.510  34.428  29.007  1.00  0.00    -0.237 OA
ATOM     83  O   UNL A   1      33.835  32.622  28.907  1.00  0.00    -0.744 OA
ENDBRANCH  76  80
ENDBRANCH  49  73
BRANCH  61  84
ATOM     84  C   UNL A   1      44.149  34.427  30.525  1.00  0.00     0.023 A 
ATOM     85  C   UNL A   1      44.743  34.606  31.787  1.00  0.00     0.031 A 
ATOM     86  C   UNL A   1      43.943  35.561  29.723  1.00  0.00     0.131 A 
ATOM     87  C   UNL A   1      45.053  35.898  32.235  1.00  0.00     0.055 A 
ATOM     88  C   UNL A   1      44.312  36.838  30.149  1.00  0.00     0.041 A 
ATOM     89  F   UNL A   1      43.367  35.448  28.515  1.00  0.00    -0.206 F 
ATOM     90  C   UNL A   1      44.858  37.014  31.417  1.00  0.00     0.022 A 
BRANCH  87  91
ATOM     91  S   UNL A   1      45.628  36.112  33.941  1.00  0.00     0.124 S 
ATOM     92  O   UNL A   1      47.078  36.081  33.776  1.00  0.00    -0.237 OA
ATOM     93  O   UNL A   1      45.057  37.404  34.306  1.00  0.00    -0.237 OA
ATOM     94  O   UNL A   1      45.058  34.964  34.642  1.00  0.00    -0.744 OA
ENDBRANCH  87  91
ENDBRANCH  61  84
ENDBRANCH  35  36
ENDBRANCH  28  30
ENDBRANCH  27  28
ENDBRANCH  26  27
ENDBRANCH  25  26
ENDBRANCH  24  25
ENDBRANCH   1  24
TORSDOF 22
ENDMDL
MODEL 2
REMARK VINA RESULT:     -10.7      1.730      1.950
REMARK SMILES CC(C)(C)C1CN(c2cccc(Cl)c2C(=O)OCCOCCOCCOC(=O)c2ccc(-c3c4nc(c(-c5cc(S(=O)(=O)[O-])ccc5F)c5ccc([nH]5)c(-c5cc(S(=O)(=O)[O-])ccc5F)c5nc(c(-c6cc(S(=O)(=O)[O-])ccc6F)c6ccc3[nH]6)C=C5)C=C4)cc2)C1
REMARK SMILES IDX 22 1 21 2 20 3 19 4 18 5 17 6 15 7 16 8 14 9 8 10 9 11 10 12
REMARK SMILES IDX 12 13 11 14 13 15 7 16 5 17 6 18 92 19 2 20 1 21 3 22 4 23
REMARK SMILES IDX 23 24 24 25 25 26 26 27 27 28 28 29 29 30 30 31 91 32 31 33
REMARK SMILES IDX 90 34 32 35 33 36 34 37 84 38 35 39 89 40 83 41 85 42 36 43
REMARK SMILES IDX 88 44 82 45 81 46 37 48 69 49 49 50 68 51 50 52 53 53 67 54
REMARK SMILES IDX 86 55 51 56 52 57 66 59 87 60 54 61 38 62 39 63 47 64 40 65
REMARK SMILES IDX 46 66 48 67 45 68 41 69 42 70 43 71 44 72 70 73 71 74 79 75
REMARK SMILES IDX 72 76 78 77 80 78 77 79 73 80 74 81 75 82 76 83 55 84 56 85
REMARK SMILES IDX 64 86 57 87 63 88 65 89 62 90 58 91 59 92 60 93 61 94
REMARK H PARENT 85 47 53 58
REMARK Flexibility Score: inf
ROOT
ATOM      1  C   UNL A   1      33.413  20.649  24.840  1.00  0.00     0.188 C 
ENDROOT
BRANCH   1   2
ATOM      2  C   UNL A   1      33.123  21.719  23.775  1.00  0.00     0.188 C 
BRANCH   2   3
ATOM      3  O   UNL A   1      31.879  22.394  23.935  1.00  0.00    -0.376 OA
BRANCH   3   4
ATOM      4  C   UNL A   1      31.697  23.508  23.062  1.00  0.00     0.202 C 
BRANCH   4   5
ATOM      5  C   UNL A   1      30.397  24.237  23.395  1.00  0.00     0.261 C 
BRANCH   5   6
ATOM      6  O   UNL A   1      30.629  25.647  23.543  1.00  0.00    -0.460 OA
BRANCH   6   7
ATOM      7  C   UNL A   1      30.492  26.163  24.786  1.00  0.00     0.341 C 
ATOM      8  O   UNL A   1      29.579  25.936  25.562  1.00  0.00    -0.246 OA
BRANCH   7   9
ATOM      9  C   UNL A   1      31.707  26.956  25.073  1.00  0.00     0.102 A 
ATOM     10  C   UNL A   1      31.745  28.309  24.670  1.00  0.00     0.053 A 
ATOM     11  C   UNL A   1      32.897  29.062  24.952  1.00  0.00     0.027 A 
ATOM     12  C   UNL A   1      33.979  28.496  25.633  1.00  0.00     0.004 A 
ATOM     13  C   UNL A   1      32.801  26.386  25.745  1.00  0.00     0.057 A 
ATOM     14  C   UNL A   1      33.928  27.163  26.032  1.00  0.00     0.021 A 
ATOM     15  Cl  UNL A   1      32.855  24.724  26.225  1.00  0.00    -0.083 Cl
BRANCH  10  16
ATOM     16  N   UNL A   1      30.646  28.902  24.016  1.00  0.00    -0.370 N 
ATOM     17  C   UNL A   1      29.654  30.238  22.769  1.00  0.00     0.033 C 
ATOM     18  C   UNL A   1      30.150  30.229  24.213  1.00  0.00     0.122 C 
ATOM     19  C   UNL A   1      30.337  28.870  22.618  1.00  0.00     0.122 C 
BRANCH  17  20
ATOM     20  C   UNL A   1      28.145  30.438  22.506  1.00  0.00    -0.032 C 
ATOM     21  C   UNL A   1      27.976  30.873  21.039  1.00  0.00     0.011 C 
ATOM     22  C   UNL A   1      27.585  31.510  23.465  1.00  0.00     0.011 C 
ATOM     23  C   UNL A   1      27.323  29.165  22.741  1.00  0.00     0.011 C 
ENDBRANCH  17  20
ENDBRANCH  10  16
ENDBRANCH   7   9
ENDBRANCH   6   7
ENDBRANCH   5   6
ENDBRANCH   4   5
ENDBRANCH   3   4
ENDBRANCH   2   3
ENDBRANCH   1   2
BRANCH   1  24
ATOM     24  O   UNL A   1      34.653  20.632  25.535  1.00  0.00    -0.376 OA
BRANCH  24  25
ATOM     25  C   UNL A   1      35.816  21.093  24.873  1.00  0.00     0.202 C 
BRANCH  25  26
ATOM     26  C   UNL A   1      37.146  20.451  25.278  1.00  0.00     0.261 C 
BRANCH  26  27
ATOM     27  O   UNL A   1      38.306  21.296  25.157  1.00  0.00    -0.460 OA
BRANCH  27  28
ATOM     28  C   UNL A   1      39.211  21.175  26.163  1.00  0.00     0.338 C 
ATOM     29  O   UNL A   1      39.682  20.134  26.591  1.00  0.00    -0.246 OA
BRANCH  28  30
ATOM     30  C   UNL A   1      39.651  22.502  26.657  1.00  0.00     0.060 A 
ATOM     31  C   UNL A   1      39.091  23.647  26.073  1.00  0.00     0.016 A 
ATOM     32  C   UNL A   1      40.687  22.636  27.586  1.00  0.00     0.016 A 
ATOM     33  C   UNL A   1      39.593  24.920  26.379  1.00  0.00     0.010 A 
ATOM     34  C   UNL A   1      41.193  23.912  27.882  1.00  0.00     0.010 A 
ATOM     35  C   UNL A   1      40.672  25.064  27.261  1.00  0.00    -0.014 A 
BRANCH  35  36
ATOM     36  C   UNL A   1      41.322  26.388  27.487  1.00  0.00     0.031 A 
ATOM     37  C   UNL A   1      42.764  26.592  27.159  1.00  0.00     0.074 A 
ATOM     38  C   UNL A   1      40.653  27.428  28.013  1.00  0.00     0.049 A 
ATOM     39  N   UNL A   1      43.509  27.643  27.381  1.00  0.00    -0.248 NA
ATOM     40  C   UNL A   1      43.440  25.488  26.472  1.00  0.00     0.031 C 
ATOM     41  C   UNL A   1      39.230  27.416  28.273  1.00  0.00     0.029 A 
ATOM     42  N   UNL A   1      41.061  28.663  28.459  1.00  0.00    -0.354 N 
ATOM     43  C   UNL A   1      44.736  27.356  26.811  1.00  0.00     0.074 A 
ATOM     44  C   UNL A   1      44.654  25.996  26.308  1.00  0.00     0.031 C 
ATOM     45  C   UNL A   1      38.896  28.537  28.929  1.00  0.00     0.029 A 
ATOM     46  C   UNL A   1      40.081  29.341  29.149  1.00  0.00     0.049 A 
ATOM     47  H   UNL A   1      41.963  29.027  28.302  1.00  0.00     0.167 HD
ATOM     48  C   UNL A   1      45.814  28.169  26.680  1.00  0.00     0.034 A 
ATOM     49  C   UNL A   1      40.111  30.453  29.909  1.00  0.00     0.034 A 
ATOM     50  C   UNL A   1      45.907  29.503  27.224  1.00  0.00     0.049 A 
ATOM     51  C   UNL A   1      41.382  31.243  29.964  1.00  0.00     0.074 A 
ATOM     52  C   UNL A   1      46.953  30.404  27.120  1.00  0.00     0.029 A 
ATOM     53  N   UNL A   1      44.936  30.122  28.003  1.00  0.00    -0.354 N 
ATOM     54  N   UNL A   1      42.529  30.976  29.388  1.00  0.00    -0.248 NA
ATOM     55  C   UNL A   1      41.356  32.500  30.720  1.00  0.00     0.031 C 
ATOM     56  C   UNL A   1      46.645  31.532  27.892  1.00  0.00     0.029 A 
ATOM     57  C   UNL A   1      45.378  31.368  28.427  1.00  0.00     0.049 A 
ATOM     58  H   UNL A   1      44.059  29.732  28.223  1.00  0.00     0.167 HD
ATOM     59  C   UNL A   1      43.349  32.059  29.668  1.00  0.00     0.074 A 
ATOM     60  C   UNL A   1      42.567  32.978  30.472  1.00  0.00     0.031 C 
ATOM     61  C   UNL A   1      44.625  32.276  29.262  1.00  0.00     0.034 A 
BRANCH  48  62
ATOM     62  C   UNL A   1      46.986  27.589  25.938  1.00  0.00     0.023 A 
ATOM     63  C   UNL A   1      47.279  27.989  24.621  1.00  0.00     0.031 A 
ATOM     64  C   UNL A   1      47.762  26.571  26.512  1.00  0.00     0.131 A 
ATOM     65  C   UNL A   1      48.261  27.311  23.890  1.00  0.00     0.055 A 
ATOM     66  C   UNL A   1      48.794  25.953  25.805  1.00  0.00     0.041 A 
ATOM     67  F   UNL A   1      47.506  26.137  27.756  1.00  0.00    -0.206 F 
ATOM     68  C   UNL A   1      49.036  26.309  24.480  1.00  0.00     0.022 A 
BRANCH  65  69
ATOM     69  S   UNL A   1      48.395  27.641  22.113  1.00  0.00     0.124 S 
ATOM     70  O   UNL A   1      48.734  26.319  21.592  1.00  0.00    -0.237 OA
ATOM     71  O   UNL A   1      47.065  28.137  21.782  1.00  0.00    -0.237 OA
ATOM     72  O   UNL A   1      49.468  28.630  22.029  1.00  0.00    -0.744 OA
ENDBRANCH  65  69
ENDBRANCH  48  62
BRANCH  49  73
ATOM     73  C   UNL A   1      38.921  30.862  30.710  1.00  0.00     0.023 A 
ATOM     74  C   UNL A   1      37.934  31.707  30.185  1.00  0.00     0.031 A 
ATOM     75  C   UNL A   1      38.784  30.436  32.046  1.00  0.00     0.131 A 
ATOM     76  C   UNL A   1      36.867  32.128  30.998  1.00  0.00     0.055 A 
ATOM     77  C   UNL A   1      37.705  30.832  32.841  1.00  0.00     0.041 A 
ATOM     78  F   UNL A   1      39.696  29.619  32.595  1.00  0.00    -0.206 F 
ATOM     79  C   UNL A   1      36.743  31.691  32.319  1.00  0.00     0.022 A 
BRANCH  76  80
ATOM     80  S   UNL A   1      35.671  33.311  30.320  1.00  0.00     0.124 S 
ATOM     81  O   UNL A   1      35.349  34.116  31.492  1.00  0.00    -0.237 OA
ATOM     82  O   UNL A   1      36.458  33.970  29.283  1.00  0.00    -0.237 OA
ATOM     83  O   UNL A   1      34.589  32.458  29.831  1.00  0.00    -0.744 OA
ENDBRANCH  76  80
ENDBRANCH  49  73
BRANCH  61  84
ATOM     84  C   UNL A   1      45.238  33.593  29.663  1.00  0.00     0.023 A 
ATOM     85  C   UNL A   1      45.186  34.716  28.820  1.00  0.00     0.031 A 
ATOM     86  C   UNL A   1      45.938  33.707  30.876  1.00  0.00     0.131 A 
ATOM     87  C   UNL A   1      45.875  35.885  29.172  1.00  0.00     0.055 A 
ATOM     88  C   UNL A   1      46.569  34.894  31.251  1.00  0.00     0.041 A 
ATOM     89  F   UNL A   1      46.031  32.660  31.713  1.00  0.00    -0.206 F 
ATOM     90  C   UNL A   1      46.552  35.988  30.390  1.00  0.00     0.022 A 
BRANCH  87  91
ATOM     91  S   UNL A   1      45.956  37.242  27.972  1.00  0.00     0.124 S 
ATOM     92  O   UNL A   1      44.828  38.074  28.382  1.00  0.00    -0.237 OA
ATOM     93  O   UNL A   1      47.282  37.801  28.216  1.00  0.00    -0.237 OA
ATOM     94  O   UNL A   1      45.796  36.570  26.683  1.00  0.00    -0.744 OA
ENDBRANCH  87  91
ENDBRANCH  61  84
ENDBRANCH  35  36
ENDBRANCH  28  30
ENDBRANCH  27  28
ENDBRANCH  26  27
ENDBRANCH  25  26
ENDBRANCH  24  25
ENDBRANCH   1  24
TORSDOF 22
ENDMDL
MODEL 3
REMARK VINA RESULT:     -10.1      2.570      8.292
REMARK SMILES CC(C)(C)C1CN(c2cccc(Cl)c2C(=O)OCCOCCOCCOC(=O)c2ccc(-c3c4nc(c(-c5cc(S(=O)(=O)[O-])ccc5F)c5ccc([nH]5)c(-c5cc(S(=O)(=O)[O-])ccc5F)c5nc(c(-c6cc(S(=O)(=O)[O-])ccc6F)c6ccc3[nH]6)C=C5)C=C4)cc2)C1
REMARK SMILES IDX 22 1 21 2 20 3 19 4 18 5 17 6 15 7 16 8 14 9 8 10 9 11 10 12
REMARK SMILES IDX 12 13 11 14 13 15 7 16 5 17 6 18 92 19 2 20 1 21 3 22 4 23
REMARK SMILES IDX 23 24 24 25 25 26 26 27 27 28 28 29 29 30 30 31 91 32 31 33
REMARK SMILES IDX 90 34 32 35 33 36 34 37 84 38 35 39 89 40 83 41 85 42 36 43
REMARK SMILES IDX 88 44 82 45 81 46 37 48 69 49 49 50 68 51 50 52 53 53 67 54
REMARK SMILES IDX 86 55 51 56 52 57 66 59 87 60 54 61 38 62 39 63 47 64 40 65
REMARK SMILES IDX 46 66 48 67 45 68 41 69 42 70 43 71 44 72 70 73 71 74 79 75
REMARK SMILES IDX 72 76 78 77 80 78 77 79 73 80 74 81 75 82 76 83 55 84 56 85
REMARK SMILES IDX 64 86 57 87 63 88 65 89 62 90 58 91 59 92 60 93 61 94
REMARK H PARENT 85 47 53 58
REMARK Flexibility Score: inf
ROOT
ATOM      1  C   UNL A   1      37.693  22.150  25.305  1.00  0.00     0.188 C 
ENDROOT
BRANCH   1   2
ATOM      2  C   UNL A   1      37.114  23.483  24.805  1.00  0.00     0.188 C 
BRANCH   2   3
ATOM      3  O   UNL A   1      36.269  24.150  25.737  1.00  0.00    -0.376 OA
BRANCH   3   4
ATOM      4  C   UNL A   1      35.206  24.893  25.140  1.00  0.00     0.202 C 
BRANCH   4   5
ATOM      5  C   UNL A   1      34.023  24.993  26.102  1.00  0.00     0.261 C 
BRANCH   5   6
ATOM      6  O   UNL A   1      33.423  26.296  26.034  1.00  0.00    -0.460 OA
BRANCH   6   7
ATOM      7  C   UNL A   1      32.071  26.349  26.044  1.00  0.00     0.341 C 
ATOM      8  O   UNL A   1      31.346  26.019  26.967  1.00  0.00    -0.246 OA
BRANCH   7   9
ATOM      9  C   UNL A   1      31.643  26.986  24.780  1.00  0.00     0.102 A 
ATOM     10  C   UNL A   1      31.548  26.192  23.617  1.00  0.00     0.053 A 
ATOM     11  C   UNL A   1      31.132  26.798  22.420  1.00  0.00     0.027 A 
ATOM     12  C   UNL A   1      30.801  28.155  22.378  1.00  0.00     0.004 A 
ATOM     13  C   UNL A   1      31.322  28.353  24.732  1.00  0.00     0.057 A 
ATOM     14  C   UNL A   1      30.891  28.928  23.532  1.00  0.00     0.021 A 
ATOM     15  Cl  UNL A   1      31.462  29.406  26.098  1.00  0.00    -0.083 Cl
BRANCH  10  16
ATOM     16  N   UNL A   1      31.843  24.813  23.654  1.00  0.00    -0.370 N 
ATOM     17  C   UNL A   1      31.746  22.818  23.074  1.00  0.00     0.033 C 
ATOM     18  C   UNL A   1      30.935  23.753  23.967  1.00  0.00     0.122 C 
ATOM     19  C   UNL A   1      32.583  24.050  22.696  1.00  0.00     0.122 C 
BRANCH  17  20
ATOM     20  C   UNL A   1      32.376  21.556  23.703  1.00  0.00    -0.032 C 
ATOM     21  C   UNL A   1      33.890  21.799  23.830  1.00  0.00     0.011 C 
ATOM     22  C   UNL A   1      32.089  20.330  22.811  1.00  0.00     0.011 C 
ATOM     23  C   UNL A   1      31.810  21.233  25.091  1.00  0.00     0.011 C 
ENDBRANCH  17  20
ENDBRANCH  10  16
ENDBRANCH   7   9
ENDBRANCH   6   7
ENDBRANCH   5   6
ENDBRANCH   4   5
ENDBRANCH   3   4
ENDBRANCH   2   3
ENDBRANCH   1   2
BRANCH   1  24
ATOM     24  O   UNL A   1      37.452  20.942  24.596  1.00  0.00    -0.376 OA
BRANCH  24  25
ATOM     25  C   UNL A   1      37.802  19.711  25.202  1.00  0.00     0.202 C 
BRANCH  25  26
ATOM     26  C   UNL A   1      39.281  19.316  25.167  1.00  0.00     0.261 C 
BRANCH  26  27
ATOM     27  O   UNL A   1      40.003  19.497  26.401  1.00  0.00    -0.460 OA
BRANCH  27  28
ATOM     28  C   UNL A   1      41.294  19.891  26.257  1.00  0.00     0.338 C 
ATOM     29  O   UNL A   1      42.206  19.229  25.788  1.00  0.00    -0.246 OA
BRANCH  28  30
ATOM     30  C   UNL A   1      41.477  21.304  26.670  1.00  0.00     0.060 A 
ATOM     31  C   UNL A   1      41.667  22.268  25.670  1.00  0.00     0.016 A 
ATOM     32  C   UNL A   1      41.591  21.670  28.014  1.00  0.00     0.016 A 
ATOM     33  C   UNL A   1      42.015  23.584  26.007  1.00  0.00     0.010 A 
ATOM     34  C   UNL A   1      41.948  22.987  28.347  1.00  0.00     0.010 A 
ATOM     35  C   UNL A   1      42.193  23.949  27.348  1.00  0.00    -0.014 A 
BRANCH  35  36
ATOM     36  C   UNL A   1      42.708  25.298  27.727  1.00  0.00     0.031 A 
ATOM     37  C   UNL A   1      41.779  26.349  28.238  1.00  0.00     0.074 A 
ATOM     38  C   UNL A   1      44.006  25.624  27.600  1.00  0.00     0.049 A 
ATOM     39  N   UNL A   1      42.040  27.599  28.520  1.00  0.00    -0.248 NA
ATOM     40  C   UNL A   1      40.396  25.934  28.487  1.00  0.00     0.031 C 
ATOM     41  C   UNL A   1      45.037  24.681  27.230  1.00  0.00     0.029 A 
ATOM     42  N   UNL A   1      44.676  26.819  27.721  1.00  0.00    -0.354 N 
ATOM     43  C   UNL A   1      40.866  28.115  29.037  1.00  0.00     0.074 A 
ATOM     44  C   UNL A   1      39.872  27.061  28.949  1.00  0.00     0.031 C 
ATOM     45  C   UNL A   1      46.189  25.342  27.046  1.00  0.00     0.029 A 
ATOM     46  C   UNL A   1      45.976  26.757  27.272  1.00  0.00     0.049 A 
ATOM     47  H   UNL A   1      44.269  27.636  28.090  1.00  0.00     0.167 HD
ATOM     48  C   UNL A   1      40.653  29.341  29.577  1.00  0.00     0.034 A 
ATOM     49  C   UNL A   1      46.896  27.710  27.022  1.00  0.00     0.034 A 
ATOM     50  C   UNL A   1      41.631  30.402  29.620  1.00  0.00     0.049 A 
ATOM     51  C   UNL A   1      46.577  29.123  27.401  1.00  0.00     0.074 A 
ATOM     52  C   UNL A   1      41.506  31.667  30.167  1.00  0.00     0.029 A 
ATOM     53  N   UNL A   1      42.906  30.340  29.067  1.00  0.00    -0.354 N 
ATOM     54  N   UNL A   1      45.470  29.593  27.924  1.00  0.00    -0.248 NA
ATOM     55  C   UNL A   1      47.634  30.123  27.209  1.00  0.00     0.031 C 
ATOM     56  C   UNL A   1      42.672  32.391  29.883  1.00  0.00     0.029 A 
ATOM     57  C   UNL A   1      43.556  31.559  29.216  1.00  0.00     0.049 A 
ATOM     58  H   UNL A   1      43.292  29.546  28.632  1.00  0.00     0.167 HD
ATOM     59  C   UNL A   1      45.715  30.935  28.174  1.00  0.00     0.074 A 
ATOM     60  C   UNL A   1      47.071  31.201  27.734  1.00  0.00     0.031 C 
ATOM     61  C   UNL A   1      44.892  31.849  28.746  1.00  0.00     0.034 A 
BRANCH  48  62
ATOM     62  C   UNL A   1      39.276  29.583  30.130  1.00  0.00     0.023 A 
ATOM     63  C   UNL A   1      38.318  30.307  29.396  1.00  0.00     0.031 A 
ATOM     64  C   UNL A   1      38.943  29.167  31.428  1.00  0.00     0.131 A 
ATOM     65  C   UNL A   1      37.109  30.672  30.000  1.00  0.00     0.055 A 
ATOM     66  C   UNL A   1      37.704  29.465  31.995  1.00  0.00     0.041 A 
ATOM     67  F   UNL A   1      39.832  28.495  32.177  1.00  0.00    -0.206 F 
ATOM     68  C   UNL A   1      36.786  30.238  31.289  1.00  0.00     0.022 A 
BRANCH  65  69
ATOM     69  S   UNL A   1      36.041  31.860  29.143  1.00  0.00     0.124 S 
ATOM     70  O   UNL A   1      34.899  31.938  30.052  1.00  0.00    -0.237 OA
ATOM     71  O   UNL A   1      36.882  33.048  29.070  1.00  0.00    -0.237 OA
ATOM     72  O   UNL A   1      35.766  31.210  27.863  1.00  0.00    -0.744 OA
ENDBRANCH  65  69
ENDBRANCH  48  62
BRANCH  49  73
ATOM     73  C   UNL A   1      48.182  27.372  26.346  1.00  0.00     0.023 A 
ATOM     74  C   UNL A   1      48.336  27.480  24.957  1.00  0.00     0.031 A 
ATOM     75  C   UNL A   1      49.273  26.889  27.096  1.00  0.00     0.131 A 
ATOM     76  C   UNL A   1      49.540  27.080  24.353  1.00  0.00     0.055 A 
ATOM     77  C   UNL A   1      50.479  26.522  26.494  1.00  0.00     0.041 A 
ATOM     78  F   UNL A   1      49.182  26.776  28.430  1.00  0.00    -0.206 F 
ATOM     79  C   UNL A   1      50.614  26.609  25.113  1.00  0.00     0.022 A 
BRANCH  76  80
ATOM     80  S   UNL A   1      49.663  27.127  22.543  1.00  0.00     0.124 S 
ATOM     81  O   UNL A   1      48.662  26.142  22.151  1.00  0.00    -0.237 OA
ATOM     82  O   UNL A   1      49.340  28.521  22.258  1.00  0.00    -0.237 OA
ATOM     83  O   UNL A   1      51.050  26.745  22.286  1.00  0.00    -0.744 OA
ENDBRANCH  76  80
ENDBRANCH  49  73
BRANCH  61  84
ATOM     84  C   UNL A   1      45.467  33.225  28.958  1.00  0.00     0.023 A 
ATOM     85  C   UNL A   1      45.449  34.195  27.941  1.00  0.00     0.031 A 
ATOM     86  C   UNL A   1      46.097  33.550  30.171  1.00  0.00     0.131 A 
ATOM     87  C   UNL A   1      46.105  35.420  28.132  1.00  0.00     0.055 A 
ATOM     88  C   UNL A   1      46.694  34.794  30.379  1.00  0.00     0.041 A 
ATOM     89  F   UNL A   1      46.156  32.655  31.172  1.00  0.00    -0.206 F 
ATOM     90  C   UNL A   1      46.712  35.733  29.351  1.00  0.00     0.022 A 
BRANCH  87  91
ATOM     91  S   UNL A   1      46.237  36.564  26.732  1.00  0.00     0.124 S 
ATOM     92  O   UNL A   1      46.152  35.656  25.592  1.00  0.00    -0.237 OA
ATOM     93  O   UNL A   1      45.089  37.442  26.933  1.00  0.00    -0.237 OA
ATOM     94  O   UNL A   1      47.540  37.196  26.927  1.00  0.00    -0.744 OA
ENDBRANCH  87  91
ENDBRANCH  61  84
ENDBRANCH  35  36
ENDBRANCH  28  30
ENDBRANCH  27  28
ENDBRANCH  26  27
ENDBRANCH  25  26
ENDBRANCH  24  25
ENDBRANCH   1  24
TORSDOF 22
ENDMDL
