MODEL 1
REMARK VINA RESULT:     -10.7      0.000      0.000
REMARK SMILES Cc1c(CC(=O)OCCOCCOCCOC(=O)c2ccc(-c3c4nc(c(-c5cc(S(=O)(=O)[O-])ccc5F)c5ccc([nH]5)c(-c5cc(S(=O)(=O)[O-])ccc5F)c5nc(c(-c6cc(S(=O)(=O)[O-])ccc6F)c6ccc3[nH]6)C=C5)C=C4)cc2)cccc1-c1ccn(C(F)F)c(=O)c1
REMARK SMILES IDX 11 1 10 2 9 3 8 4 7 5 5 6 6 7 4 8 3 9 1 10 2 11 85 12 82 13
REMARK SMILES IDX 84 14 83 15 86 16 87 17 95 18 88 19 93 20 89 21 94 22 90 23
REMARK SMILES IDX 91 24 92 25 12 26 13 27 14 28 15 29 16 30 17 31 18 32 19 33
REMARK SMILES IDX 20 34 81 35 21 36 80 37 22 38 23 39 24 40 74 41 25 42 79 43
REMARK SMILES IDX 73 44 75 45 26 46 78 47 72 48 71 49 27 51 59 52 39 53 58 54
REMARK SMILES IDX 40 55 43 56 57 57 76 58 41 59 42 60 56 62 77 63 44 64 28 65
REMARK SMILES IDX 29 66 37 67 30 68 36 69 38 70 35 71 31 72 32 73 33 74 34 75
REMARK SMILES IDX 60 76 61 77 69 78 62 79 68 80 70 81 67 82 63 83 64 84 65 85
REMARK SMILES IDX 66 86 45 87 46 88 54 89 47 90 53 91 55 92 52 93 48 94 49 95
REMARK SMILES IDX 50 96 51 97
REMARK H PARENT 75 50 43 61
REMARK Flexibility Score: inf
ROOT
ATOM      1  C   UNL A   1      39.334  22.172  25.773  1.00  0.00     0.188 C 
ENDROOT
BRANCH   1   2
ATOM      2  O   UNL A   1      37.982  22.697  25.831  1.00  0.00    -0.376 OA
BRANCH   2   3
ATOM      3  C   UNL A   1      37.053  22.766  24.738  1.00  0.00     0.202 C 
BRANCH   3   4
ATOM      4  C   UNL A   1      35.875  23.978  24.492  1.00  0.00     0.261 C 
BRANCH   4   5
ATOM      5  O   UNL A   1      35.087  24.993  25.611  1.00  0.00    -0.463 OA
BRANCH   5   6
ATOM      6  C   UNL A   1      33.797  25.560  25.888  1.00  0.00     0.310 C 
ATOM      7  O   UNL A   1      33.422  26.735  25.886  1.00  0.00    -0.252 OA
BRANCH   6   8
ATOM      8  C   UNL A   1      32.627  24.699  26.188  1.00  0.00     0.158 C 
BRANCH   8   9
ATOM      9  C   UNL A   1      32.457  23.567  25.274  1.00  0.00    -0.033 A 
ATOM     10  C   UNL A   1      33.582  22.013  26.961  1.00  0.00     0.045 C 
ATOM     11  C   UNL A   1      32.982  22.308  25.594  1.00  0.00    -0.039 A 
ATOM     12  C   UNL A   1      32.856  21.319  24.614  1.00  0.00    -0.015 A 
ATOM     13  C   UNL A   1      31.788  23.833  24.077  1.00  0.00     0.004 A 
ATOM     14  C   UNL A   1      32.227  21.596  23.386  1.00  0.00     0.009 A 
ATOM     15  C   UNL A   1      31.681  22.848  23.124  1.00  0.00     0.001 A 
BRANCH  12  16
ATOM     16  C   UNL A   1      33.373  19.981  24.893  1.00  0.00    -0.011 A 
ATOM     17  C   UNL A   1      34.769  19.662  24.699  1.00  0.00     0.027 A 
ATOM     18  C   UNL A   1      32.479  19.012  25.143  1.00  0.00     0.080 A 
ATOM     19  C   UNL A   1      35.167  18.389  24.716  1.00  0.00     0.095 A 
ATOM     20  C   UNL A   1      32.927  17.601  25.247  1.00  0.00     0.255 A 
ATOM     21  N   UNL A   1      34.267  17.371  24.973  1.00  0.00    -0.258 N 
ATOM     22  O   UNL A   1      32.101  16.745  25.549  1.00  0.00    -0.269 OA
BRANCH  21  23
ATOM     23  C   UNL A   1      34.713  16.007  25.007  1.00  0.00     0.451 C 
ATOM     24  F   UNL A   1      34.854  15.519  23.750  1.00  0.00    -0.185 F 
ATOM     25  F   UNL A   1      35.902  15.886  25.643  1.00  0.00    -0.185 F 
ENDBRANCH  21  23
ENDBRANCH  12  16
ENDBRANCH   8   9
ENDBRANCH   6   8
ENDBRANCH   5   6
ENDBRANCH   4   5
ENDBRANCH   3   4
ENDBRANCH   2   3
ENDBRANCH   1   2
BRANCH   1  26
ATOM     26  C   UNL A   1      39.995  21.335  26.877  1.00  0.00     0.188 C 
BRANCH  26  27
ATOM     27  O   UNL A   1      40.721  20.240  26.337  1.00  0.00    -0.376 OA
BRANCH  27  28
ATOM     28  C   UNL A   1      42.093  20.185  26.696  1.00  0.00     0.202 C 
BRANCH  28  29
ATOM     29  C   UNL A   1      43.067  20.693  25.608  1.00  0.00     0.261 C 
BRANCH  29  30
ATOM     30  O   UNL A   1      42.708  21.997  25.082  1.00  0.00    -0.460 OA
BRANCH  30  31
ATOM     31  C   UNL A   1      43.527  23.063  25.395  1.00  0.00     0.338 C 
ATOM     32  O   UNL A   1      43.890  23.885  24.564  1.00  0.00    -0.246 OA
BRANCH  31  33
ATOM     33  C   UNL A   1      43.687  23.208  26.880  1.00  0.00     0.060 A 
ATOM     34  C   UNL A   1      42.762  23.614  27.852  1.00  0.00     0.016 A 
ATOM     35  C   UNL A   1      44.941  23.027  27.339  1.00  0.00     0.016 A 
ATOM     36  C   UNL A   1      43.162  24.003  29.216  1.00  0.00     0.010 A 
ATOM     37  C   UNL A   1      45.273  23.618  28.552  1.00  0.00     0.010 A 
ATOM     38  C   UNL A   1      44.499  24.104  29.625  1.00  0.00    -0.014 A 
BRANCH  38  39
ATOM     39  C   UNL A   1      45.112  24.879  30.965  1.00  0.00     0.031 A 
ATOM     40  C   UNL A   1      44.794  24.891  32.646  1.00  0.00     0.074 A 
ATOM     41  C   UNL A   1      46.085  25.770  30.657  1.00  0.00     0.049 A 
ATOM     42  N   UNL A   1      45.136  25.886  33.452  1.00  0.00    -0.248 NA
ATOM     43  C   UNL A   1      44.023  23.933  33.539  1.00  0.00     0.031 C 
ATOM     44  C   UNL A   1      46.992  26.492  31.542  1.00  0.00     0.029 A 
ATOM     45  N   UNL A   1      46.304  26.355  29.413  1.00  0.00    -0.354 N 
ATOM     46  C   UNL A   1      44.806  25.547  34.768  1.00  0.00     0.074 A 
ATOM     47  C   UNL A   1      43.861  24.522  34.704  1.00  0.00     0.031 C 
ATOM     48  C   UNL A   1      47.400  27.605  30.915  1.00  0.00     0.029 A 
ATOM     49  C   UNL A   1      46.698  27.679  29.650  1.00  0.00     0.049 A 
ATOM     50  H   UNL A   1      46.200  25.923  28.535  1.00  0.00     0.167 HD
ATOM     51  C   UNL A   1      45.420  26.018  35.883  1.00  0.00     0.034 A 
ATOM     52  C   UNL A   1      45.920  28.694  29.179  1.00  0.00     0.034 A 
ATOM     53  C   UNL A   1      45.978  27.313  35.588  1.00  0.00     0.049 A 
ATOM     54  C   UNL A   1      45.341  29.541  30.307  1.00  0.00     0.074 A 
ATOM     55  C   UNL A   1      47.223  27.817  35.293  1.00  0.00     0.029 A 
ATOM     56  N   UNL A   1      45.067  28.272  35.185  1.00  0.00    -0.354 N 
ATOM     57  N   UNL A   1      45.670  29.431  31.570  1.00  0.00    -0.248 NA
ATOM     58  C   UNL A   1      44.279  30.525  30.103  1.00  0.00     0.031 C 
ATOM     59  C   UNL A   1      47.016  29.006  34.511  1.00  0.00     0.029 A 
ATOM     60  C   UNL A   1      45.653  29.248  34.412  1.00  0.00     0.049 A 
ATOM     61  H   UNL A   1      44.111  28.258  35.422  1.00  0.00     0.167 HD
ATOM     62  C   UNL A   1      44.808  30.177  32.332  1.00  0.00     0.074 A 
ATOM     63  C   UNL A   1      43.968  30.863  31.363  1.00  0.00     0.031 C 
ATOM     64  C   UNL A   1      44.769  30.161  33.698  1.00  0.00     0.034 A 
BRANCH  51  65
ATOM     65  C   UNL A   1      45.481  25.251  37.215  1.00  0.00     0.023 A 
ATOM     66  C   UNL A   1      46.012  23.948  37.232  1.00  0.00     0.031 A 
ATOM     67  C   UNL A   1      44.915  25.661  38.462  1.00  0.00     0.131 A 
ATOM     68  C   UNL A   1      45.983  23.154  38.408  1.00  0.00     0.055 A 
ATOM     69  C   UNL A   1      44.981  24.913  39.647  1.00  0.00     0.041 A 
ATOM     70  F   UNL A   1      44.174  26.769  38.606  1.00  0.00    -0.206 F 
ATOM     71  C   UNL A   1      45.509  23.644  39.623  1.00  0.00     0.022 A 
BRANCH  68  72
ATOM     72  S   UNL A   1      46.461  21.407  38.314  1.00  0.00     0.124 S 
ATOM     73  O   UNL A   1      47.917  21.493  38.316  1.00  0.00    -0.237 OA
ATOM     74  O   UNL A   1      45.838  20.852  39.510  1.00  0.00    -0.237 OA
ATOM     75  O   UNL A   1      45.876  20.959  37.049  1.00  0.00    -0.744 OA
ENDBRANCH  68  72
ENDBRANCH  51  65
BRANCH  52  76
ATOM     76  C   UNL A   1      45.316  28.378  27.832  1.00  0.00     0.023 A 
ATOM     77  C   UNL A   1      46.164  28.538  26.700  1.00  0.00     0.031 A 
ATOM     78  C   UNL A   1      44.132  27.656  27.627  1.00  0.00     0.131 A 
ATOM     79  C   UNL A   1      45.915  27.856  25.500  1.00  0.00     0.055 A 
ATOM     80  C   UNL A   1      43.826  27.072  26.384  1.00  0.00     0.041 A 
ATOM     81  F   UNL A   1      43.305  27.375  28.643  1.00  0.00    -0.206 F 
ATOM     82  C   UNL A   1      44.733  27.141  25.326  1.00  0.00     0.022 A 
BRANCH  79  83
ATOM     83  S   UNL A   1      47.251  27.648  24.276  1.00  0.00     0.124 S 
ATOM     84  O   UNL A   1      48.389  28.251  24.960  1.00  0.00    -0.237 OA
ATOM     85  O   UNL A   1      47.320  26.202  24.079  1.00  0.00    -0.237 OA
ATOM     86  O   UNL A   1      46.742  28.381  23.119  1.00  0.00    -0.744 OA
ENDBRANCH  79  83
ENDBRANCH  52  76
BRANCH  64  87
ATOM     87  C   UNL A   1      43.802  31.039  34.448  1.00  0.00     0.023 A 
ATOM     88  C   UNL A   1      42.472  30.628  34.611  1.00  0.00     0.031 A 
ATOM     89  C   UNL A   1      44.135  32.316  34.951  1.00  0.00     0.131 A 
ATOM     90  C   UNL A   1      41.552  31.438  35.293  1.00  0.00     0.055 A 
ATOM     91  C   UNL A   1      43.187  33.167  35.526  1.00  0.00     0.041 A 
ATOM     92  F   UNL A   1      45.398  32.766  34.952  1.00  0.00    -0.206 F 
ATOM     93  C   UNL A   1      41.885  32.726  35.707  1.00  0.00     0.022 A 
BRANCH  90  94
ATOM     94  S   UNL A   1      39.944  30.731  35.721  1.00  0.00     0.124 S 
ATOM     95  O   UNL A   1      40.274  29.348  36.045  1.00  0.00    -0.237 OA
ATOM     96  O   UNL A   1      39.550  31.571  36.850  1.00  0.00    -0.237 OA
ATOM     97  O   UNL A   1      39.154  30.915  34.505  1.00  0.00    -0.744 OA
ENDBRANCH  90  94
ENDBRANCH  64  87
ENDBRANCH  38  39
ENDBRANCH  31  33
ENDBRANCH  30  31
ENDBRANCH  29  30
ENDBRANCH  28  29
ENDBRANCH  27  28
ENDBRANCH  26  27
ENDBRANCH   1  26
TORSDOF 23
ENDMDL
MODEL 2
REMARK VINA RESULT:     -10.3      8.329     13.962
REMARK SMILES Cc1c(CC(=O)OCCOCCOCCOC(=O)c2ccc(-c3c4nc(c(-c5cc(S(=O)(=O)[O-])ccc5F)c5ccc([nH]5)c(-c5cc(S(=O)(=O)[O-])ccc5F)c5nc(c(-c6cc(S(=O)(=O)[O-])ccc6F)c6ccc3[nH]6)C=C5)C=C4)cc2)cccc1-c1ccn(C(F)F)c(=O)c1
REMARK SMILES IDX 11 1 10 2 9 3 8 4 7 5 5 6 6 7 4 8 3 9 1 10 2 11 85 12 82 13
REMARK SMILES IDX 84 14 83 15 86 16 87 17 95 18 88 19 93 20 89 21 94 22 90 23
REMARK SMILES IDX 91 24 92 25 12 26 13 27 14 28 15 29 16 30 17 31 18 32 19 33
REMARK SMILES IDX 20 34 81 35 21 36 80 37 22 38 23 39 24 40 74 41 25 42 79 43
REMARK SMILES IDX 73 44 75 45 26 46 78 47 72 48 71 49 27 51 59 52 39 53 58 54
REMARK SMILES IDX 40 55 43 56 57 57 76 58 41 59 42 60 56 62 77 63 44 64 28 65
REMARK SMILES IDX 29 66 37 67 30 68 36 69 38 70 35 71 31 72 32 73 33 74 34 75
REMARK SMILES IDX 60 76 61 77 69 78 62 79 68 80 70 81 67 82 63 83 64 84 65 85
REMARK SMILES IDX 66 86 45 87 46 88 54 89 47 90 53 91 55 92 52 93 48 94 49 95
REMARK SMILES IDX 50 96 51 97
REMARK H PARENT 75 50 43 61
REMARK Flexibility Score: inf
ROOT
ATOM      1  C   UNL A   1      38.359  32.852  37.793  1.00  0.00     0.188 C 
ENDROOT
BRANCH   1   2
ATOM      2  O   UNL A   1      38.833  31.562  37.326  1.00  0.00    -0.376 OA
BRANCH   2   3
ATOM      3  C   UNL A   1      38.413  30.888  36.129  1.00  0.00     0.202 C 
BRANCH   3   4
ATOM      4  C   UNL A   1      38.927  31.241  34.540  1.00  0.00     0.261 C 
BRANCH   4   5
ATOM      5  O   UNL A   1      39.740  30.267  33.402  1.00  0.00    -0.463 OA
BRANCH   5   6
ATOM      6  C   UNL A   1      39.478  29.344  32.334  1.00  0.00     0.310 C 
ATOM      7  O   UNL A   1      39.648  28.124  32.270  1.00  0.00    -0.252 OA
BRANCH   6   8
ATOM      8  C   UNL A   1      38.854  29.793  31.065  1.00  0.00     0.158 C 
BRANCH   8   9
ATOM      9  C   UNL A   1      38.687  31.244  30.952  1.00  0.00    -0.033 A 
ATOM     10  C   UNL A   1      36.312  31.060  31.876  1.00  0.00     0.045 C 
ATOM     11  C   UNL A   1      37.457  31.845  31.252  1.00  0.00    -0.039 A 
ATOM     12  C   UNL A   1      37.368  33.220  31.016  1.00  0.00    -0.015 A 
ATOM     13  C   UNL A   1      39.796  31.961  30.497  1.00  0.00     0.004 A 
ATOM     14  C   UNL A   1      38.467  33.939  30.510  1.00  0.00     0.009 A 
ATOM     15  C   UNL A   1      39.684  33.312  30.266  1.00  0.00     0.001 A 
BRANCH  12  16
ATOM     16  C   UNL A   1      36.115  33.907  31.321  1.00  0.00    -0.011 A 
ATOM     17  C   UNL A   1      35.065  34.023  30.335  1.00  0.00     0.027 A 
ATOM     18  C   UNL A   1      36.050  34.594  32.472  1.00  0.00     0.080 A 
ATOM     19  C   UNL A   1      34.048  34.860  30.546  1.00  0.00     0.095 A 
ATOM     20  C   UNL A   1      34.880  35.463  32.751  1.00  0.00     0.255 A 
ATOM     21  N   UNL A   1      33.956  35.578  31.723  1.00  0.00    -0.258 N 
ATOM     22  O   UNL A   1      34.812  36.021  33.842  1.00  0.00    -0.269 OA
BRANCH  21  23
ATOM     23  C   UNL A   1      32.845  36.461  31.944  1.00  0.00     0.451 C 
ATOM     24  F   UNL A   1      33.096  37.684  31.417  1.00  0.00    -0.185 F 
ATOM     25  F   UNL A   1      31.709  35.984  31.384  1.00  0.00    -0.185 F 
ENDBRANCH  21  23
ENDBRANCH  12  16
ENDBRANCH   8   9
ENDBRANCH   6   8
ENDBRANCH   5   6
ENDBRANCH   4   5
ENDBRANCH   3   4
ENDBRANCH   2   3
ENDBRANCH   1   2
BRANCH   1  26
ATOM     26  C   UNL A   1      38.633  34.189  37.092  1.00  0.00     0.188 C 
BRANCH  26  27
ATOM     27  O   UNL A   1      39.441  35.041  37.892  1.00  0.00    -0.376 OA
BRANCH  27  28
ATOM     28  C   UNL A   1      40.816  34.692  37.951  1.00  0.00     0.202 C 
BRANCH  28  29
ATOM     29  C   UNL A   1      41.787  35.895  37.989  1.00  0.00     0.261 C 
BRANCH  29  30
ATOM     30  O   UNL A   1      41.775  36.679  36.769  1.00  0.00    -0.460 OA
BRANCH  30  31
ATOM     31  C   UNL A   1      42.991  36.996  36.197  1.00  0.00     0.338 C 
ATOM     32  O   UNL A   1      43.750  37.828  36.676  1.00  0.00    -0.246 OA
BRANCH  31  33
ATOM     33  C   UNL A   1      43.346  36.034  35.103  1.00  0.00     0.060 A 
ATOM     34  C   UNL A   1      44.601  35.588  34.665  1.00  0.00     0.016 A 
ATOM     35  C   UNL A   1      42.308  35.616  34.352  1.00  0.00     0.016 A 
ATOM     36  C   UNL A   1      44.792  34.888  33.382  1.00  0.00     0.010 A 
ATOM     37  C   UNL A   1      42.585  35.163  33.068  1.00  0.00     0.010 A 
ATOM     38  C   UNL A   1      43.764  34.704  32.446  1.00  0.00    -0.014 A 
BRANCH  38  39
ATOM     39  C   UNL A   1      43.894  34.297  30.837  1.00  0.00     0.031 A 
ATOM     40  C   UNL A   1      44.549  33.000  29.934  1.00  0.00     0.074 A 
ATOM     41  C   UNL A   1      43.398  35.251  30.012  1.00  0.00     0.049 A 
ATOM     42  N   UNL A   1      44.894  33.093  28.658  1.00  0.00    -0.248 NA
ATOM     43  C   UNL A   1      44.971  31.597  30.335  1.00  0.00     0.031 C 
ATOM     44  C   UNL A   1      43.150  35.194  28.577  1.00  0.00     0.029 A 
ATOM     45  N   UNL A   1      43.202  36.592  30.327  1.00  0.00    -0.354 N 
ATOM     46  C   UNL A   1      45.316  31.840  28.202  1.00  0.00     0.074 A 
ATOM     47  C   UNL A   1      45.643  31.082  29.328  1.00  0.00     0.031 C 
ATOM     48  C   UNL A   1      43.171  36.444  28.092  1.00  0.00     0.029 A 
ATOM     49  C   UNL A   1      43.525  37.331  29.181  1.00  0.00     0.049 A 
ATOM     50  H   UNL A   1      42.895  36.953  31.190  1.00  0.00     0.167 HD
ATOM     51  C   UNL A   1      45.255  31.404  26.919  1.00  0.00     0.034 A 
ATOM     52  C   UNL A   1      44.555  38.221  29.238  1.00  0.00     0.034 A 
ATOM     53  C   UNL A   1      45.306  32.546  26.042  1.00  0.00     0.049 A 
ATOM     54  C   UNL A   1      45.694  37.839  28.301  1.00  0.00     0.074 A 
ATOM     55  C   UNL A   1      44.402  33.281  25.311  1.00  0.00     0.029 A 
ATOM     56  N   UNL A   1      46.439  33.330  26.157  1.00  0.00    -0.354 N 
ATOM     57  N   UNL A   1      45.644  36.873  27.417  1.00  0.00    -0.248 NA
ATOM     58  C   UNL A   1      47.014  38.467  28.348  1.00  0.00     0.031 C 
ATOM     59  C   UNL A   1      44.951  34.603  25.178  1.00  0.00     0.029 A 
ATOM     60  C   UNL A   1      46.211  34.628  25.759  1.00  0.00     0.049 A 
ATOM     61  H   UNL A   1      47.307  32.999  26.484  1.00  0.00     0.167 HD
ATOM     62  C   UNL A   1      46.899  36.656  26.908  1.00  0.00     0.074 A 
ATOM     63  C   UNL A   1      47.719  37.696  27.507  1.00  0.00     0.031 C 
ATOM     64  C   UNL A   1      47.231  35.618  26.082  1.00  0.00     0.034 A 
BRANCH  51  65
ATOM     65  C   UNL A   1      45.148  29.921  26.523  1.00  0.00     0.023 A 
ATOM     66  C   UNL A   1      46.196  29.329  25.794  1.00  0.00     0.031 A 
ATOM     67  C   UNL A   1      44.009  29.074  26.690  1.00  0.00     0.131 A 
ATOM     68  C   UNL A   1      46.096  28.002  25.303  1.00  0.00     0.055 A 
ATOM     69  C   UNL A   1      43.956  27.730  26.292  1.00  0.00     0.041 A 
ATOM     70  F   UNL A   1      42.832  29.507  27.161  1.00  0.00    -0.206 F 
ATOM     71  C   UNL A   1      45.001  27.187  25.583  1.00  0.00     0.022 A 
BRANCH  68  72
ATOM     72  S   UNL A   1      47.368  27.372  24.174  1.00  0.00     0.124 S 
ATOM     73  O   UNL A   1      48.597  27.770  24.851  1.00  0.00    -0.237 OA
ATOM     74  O   UNL A   1      47.073  25.945  24.142  1.00  0.00    -0.237 OA
ATOM     75  O   UNL A   1      47.100  28.086  22.924  1.00  0.00    -0.744 OA
ENDBRANCH  68  72
ENDBRANCH  51  65
BRANCH  52  76
ATOM     76  C   UNL A   1      44.626  38.933  30.569  1.00  0.00     0.023 A 
ATOM     77  C   UNL A   1      43.842  40.113  30.702  1.00  0.00     0.031 A 
ATOM     78  C   UNL A   1      45.129  38.379  31.754  1.00  0.00     0.131 A 
ATOM     79  C   UNL A   1      43.445  40.585  31.962  1.00  0.00     0.055 A 
ATOM     80  C   UNL A   1      44.827  38.928  33.014  1.00  0.00     0.041 A 
ATOM     81  F   UNL A   1      45.807  37.224  31.748  1.00  0.00    -0.206 F 
ATOM     82  C   UNL A   1      43.955  40.012  33.124  1.00  0.00     0.022 A 
BRANCH  79  83
ATOM     83  S   UNL A   1      42.043  41.743  32.101  1.00  0.00     0.124 S 
ATOM     84  O   UNL A   1      41.644  41.575  33.493  1.00  0.00    -0.237 OA
ATOM     85  O   UNL A   1      42.626  43.038  31.757  1.00  0.00    -0.237 OA
ATOM     86  O   UNL A   1      41.105  41.231  31.104  1.00  0.00    -0.744 OA
ENDBRANCH  79  83
ENDBRANCH  52  76
BRANCH  64  87
ATOM     87  C   UNL A   1      48.634  35.479  25.552  1.00  0.00     0.023 A 
ATOM     88  C   UNL A   1      49.364  34.311  25.812  1.00  0.00     0.031 A 
ATOM     89  C   UNL A   1      49.308  36.502  24.851  1.00  0.00     0.131 A 
ATOM     90  C   UNL A   1      50.676  34.168  25.340  1.00  0.00     0.055 A 
ATOM     91  C   UNL A   1      50.653  36.402  24.485  1.00  0.00     0.041 A 
ATOM     92  F   UNL A   1      48.678  37.617  24.450  1.00  0.00    -0.206 F 
ATOM     93  C   UNL A   1      51.345  35.224  24.722  1.00  0.00     0.022 A 
BRANCH  90  94
ATOM     94  S   UNL A   1      51.453  32.540  25.455  1.00  0.00     0.124 S 
ATOM     95  O   UNL A   1      52.643  32.804  26.256  1.00  0.00    -0.237 OA
ATOM     96  O   UNL A   1      50.404  31.764  26.113  1.00  0.00    -0.237 OA
ATOM     97  O   UNL A   1      51.707  32.182  24.061  1.00  0.00    -0.744 OA
ENDBRANCH  90  94
ENDBRANCH  64  87
ENDBRANCH  38  39
ENDBRANCH  31  33
ENDBRANCH  30  31
ENDBRANCH  29  30
ENDBRANCH  28  29
ENDBRANCH  27  28
ENDBRANCH  26  27
ENDBRANCH   1  26
TORSDOF 23
ENDMDL
MODEL 3
REMARK VINA RESULT:     -10.0      4.163      6.465
REMARK SMILES Cc1c(CC(=O)OCCOCCOCCOC(=O)c2ccc(-c3c4nc(c(-c5cc(S(=O)(=O)[O-])ccc5F)c5ccc([nH]5)c(-c5cc(S(=O)(=O)[O-])ccc5F)c5nc(c(-c6cc(S(=O)(=O)[O-])ccc6F)c6ccc3[nH]6)C=C5)C=C4)cc2)cccc1-c1ccn(C(F)F)c(=O)c1
REMARK SMILES IDX 11 1 10 2 9 3 8 4 7 5 5 6 6 7 4 8 3 9 1 10 2 11 85 12 82 13
REMARK SMILES IDX 84 14 83 15 86 16 87 17 95 18 88 19 93 20 89 21 94 22 90 23
REMARK SMILES IDX 91 24 92 25 12 26 13 27 14 28 15 29 16 30 17 31 18 32 19 33
REMARK SMILES IDX 20 34 81 35 21 36 80 37 22 38 23 39 24 40 74 41 25 42 79 43
REMARK SMILES IDX 73 44 75 45 26 46 78 47 72 48 71 49 27 51 59 52 39 53 58 54
REMARK SMILES IDX 40 55 43 56 57 57 76 58 41 59 42 60 56 62 77 63 44 64 28 65
REMARK SMILES IDX 29 66 37 67 30 68 36 69 38 70 35 71 31 72 32 73 33 74 34 75
REMARK SMILES IDX 60 76 61 77 69 78 62 79 68 80 70 81 67 82 63 83 64 84 65 85
REMARK SMILES IDX 66 86 45 87 46 88 54 89 47 90 53 91 55 92 52 93 48 94 49 95
REMARK SMILES IDX 50 96 51 97
REMARK H PARENT 75 50 43 61
REMARK Flexibility Score: inf
ROOT
ATOM      1  C   UNL A   1      38.349  23.670  25.741  1.00  0.00     0.188 C 
ENDROOT
BRANCH   1   2
ATOM      2  O   UNL A   1      37.038  24.078  26.211  1.00  0.00    -0.376 OA
BRANCH   2   3
ATOM      3  C   UNL A   1      35.776  23.681  25.653  1.00  0.00     0.202 C 
BRANCH   3   4
ATOM      4  C   UNL A   1      34.241  23.914  26.363  1.00  0.00     0.261 C 
BRANCH   4   5
ATOM      5  O   UNL A   1      33.129  25.194  26.191  1.00  0.00    -0.463 OA
BRANCH   5   6
ATOM      6  C   UNL A   1      31.718  25.443  26.111  1.00  0.00     0.310 C 
ATOM      7  O   UNL A   1      30.948  25.957  26.927  1.00  0.00    -0.252 OA
BRANCH   6   8
ATOM      8  C   UNL A   1      30.949  25.126  24.883  1.00  0.00     0.158 C 
BRANCH   8   9
ATOM      9  C   UNL A   1      31.641  24.236  23.948  1.00  0.00    -0.033 A 
ATOM     10  C   UNL A   1      31.121  22.232  25.444  1.00  0.00     0.045 C 
ATOM     11  C   UNL A   1      31.802  22.876  24.246  1.00  0.00    -0.039 A 
ATOM     12  C   UNL A   1      32.563  22.132  23.340  1.00  0.00    -0.015 A 
ATOM     13  C   UNL A   1      32.149  24.829  22.789  1.00  0.00     0.004 A 
ATOM     14  C   UNL A   1      33.119  22.736  22.197  1.00  0.00     0.009 A 
ATOM     15  C   UNL A   1      32.900  24.080  21.915  1.00  0.00     0.001 A 
BRANCH  12  16
ATOM     16  C   UNL A   1      32.757  20.705  23.588  1.00  0.00    -0.011 A 
ATOM     17  C   UNL A   1      33.663  20.240  24.614  1.00  0.00     0.027 A 
ATOM     18  C   UNL A   1      32.223  19.845  22.708  1.00  0.00     0.080 A 
ATOM     19  C   UNL A   1      34.013  18.954  24.656  1.00  0.00     0.095 A 
ATOM     20  C   UNL A   1      32.541  18.399  22.799  1.00  0.00     0.255 A 
ATOM     21  N   UNL A   1      33.476  18.046  23.762  1.00  0.00    -0.258 N 
ATOM     22  O   UNL A   1      31.981  17.626  22.028  1.00  0.00    -0.269 OA
BRANCH  21  23
ATOM     23  C   UNL A   1      33.847  16.661  23.831  1.00  0.00     0.451 C 
ATOM     24  F   UNL A   1      34.937  16.498  24.620  1.00  0.00    -0.185 F 
ATOM     25  F   UNL A   1      32.846  15.899  24.330  1.00  0.00    -0.185 F 
ENDBRANCH  21  23
ENDBRANCH  12  16
ENDBRANCH   8   9
ENDBRANCH   6   8
ENDBRANCH   5   6
ENDBRANCH   4   5
ENDBRANCH   3   4
ENDBRANCH   2   3
ENDBRANCH   1   2
BRANCH   1  26
ATOM     26  C   UNL A   1      39.379  22.902  26.581  1.00  0.00     0.188 C 
BRANCH  26  27
ATOM     27  O   UNL A   1      39.643  21.617  26.034  1.00  0.00    -0.376 OA
BRANCH  27  28
ATOM     28  C   UNL A   1      40.750  20.933  26.601  1.00  0.00     0.202 C 
BRANCH  28  29
ATOM     29  C   UNL A   1      42.043  20.984  25.754  1.00  0.00     0.261 C 
BRANCH  29  30
ATOM     30  O   UNL A   1      43.244  21.148  26.552  1.00  0.00    -0.460 OA
BRANCH  30  31
ATOM     31  C   UNL A   1      44.054  22.232  26.280  1.00  0.00     0.338 C 
ATOM     32  O   UNL A   1      45.053  22.151  25.579  1.00  0.00    -0.246 OA
BRANCH  31  33
ATOM     33  C   UNL A   1      43.417  23.514  26.731  1.00  0.00     0.060 A 
ATOM     34  C   UNL A   1      43.675  24.835  26.340  1.00  0.00     0.016 A 
ATOM     35  C   UNL A   1      42.540  23.389  27.746  1.00  0.00     0.016 A 
ATOM     36  C   UNL A   1      43.185  25.998  27.101  1.00  0.00     0.010 A 
ATOM     37  C   UNL A   1      42.307  24.508  28.535  1.00  0.00     0.010 A 
ATOM     38  C   UNL A   1      42.517  25.887  28.329  1.00  0.00    -0.014 A 
BRANCH  38  39
ATOM     39  C   UNL A   1      42.252  27.071  29.470  1.00  0.00     0.031 A 
ATOM     40  C   UNL A   1      41.098  28.306  29.732  1.00  0.00     0.074 A 
ATOM     41  C   UNL A   1      43.217  27.109  30.421  1.00  0.00     0.049 A 
ATOM     42  N   UNL A   1      41.324  29.375  30.481  1.00  0.00    -0.248 NA
ATOM     43  C   UNL A   1      39.714  28.540  29.152  1.00  0.00     0.031 C 
ATOM     44  C   UNL A   1      43.250  27.850  31.675  1.00  0.00     0.029 A 
ATOM     45  N   UNL A   1      44.504  26.592  30.310  1.00  0.00    -0.354 N 
ATOM     46  C   UNL A   1      40.156  30.142  30.554  1.00  0.00     0.074 A 
ATOM     47  C   UNL A   1      39.346  29.758  29.484  1.00  0.00     0.031 C 
ATOM     48  C   UNL A   1      44.531  28.025  32.032  1.00  0.00     0.029 A 
ATOM     49  C   UNL A   1      45.358  27.483  30.974  1.00  0.00     0.049 A 
ATOM     50  H   UNL A   1      44.766  25.761  29.851  1.00  0.00     0.167 HD
ATOM     51  C   UNL A   1      39.819  30.975  31.570  1.00  0.00     0.034 A 
ATOM     52  C   UNL A   1      46.335  28.115  30.264  1.00  0.00     0.034 A 
ATOM     53  C   UNL A   1      41.026  31.436  32.207  1.00  0.00     0.049 A 
ATOM     54  C   UNL A   1      46.137  29.626  30.240  1.00  0.00     0.074 A 
ATOM     55  C   UNL A   1      41.728  31.131  33.350  1.00  0.00     0.029 A 
ATOM     56  N   UNL A   1      41.902  32.122  31.387  1.00  0.00    -0.354 N 
ATOM     57  N   UNL A   1      45.244  30.275  30.945  1.00  0.00    -0.248 NA
ATOM     58  C   UNL A   1      46.881  30.516  29.350  1.00  0.00     0.031 C 
ATOM     59  C   UNL A   1      43.102  31.470  33.097  1.00  0.00     0.029 A 
ATOM     60  C   UNL A   1      43.201  32.046  31.838  1.00  0.00     0.049 A 
ATOM     61  H   UNL A   1      41.630  32.609  30.574  1.00  0.00     0.167 HD
ATOM     62  C   UNL A   1      45.187  31.577  30.520  1.00  0.00     0.074 A 
ATOM     63  C   UNL A   1      46.249  31.684  29.533  1.00  0.00     0.031 C 
ATOM     64  C   UNL A   1      44.253  32.487  30.933  1.00  0.00     0.034 A 
BRANCH  51  65
ATOM     65  C   UNL A   1      38.369  31.331  31.940  1.00  0.00     0.023 A 
ATOM     66  C   UNL A   1      38.083  32.617  32.433  1.00  0.00     0.031 A 
ATOM     67  C   UNL A   1      37.253  30.437  31.976  1.00  0.00     0.131 A 
ATOM     68  C   UNL A   1      36.787  32.959  32.899  1.00  0.00     0.055 A 
ATOM     69  C   UNL A   1      35.951  30.809  32.340  1.00  0.00     0.041 A 
ATOM     70  F   UNL A   1      37.358  29.119  31.756  1.00  0.00    -0.206 F 
ATOM     71  C   UNL A   1      35.712  32.076  32.817  1.00  0.00     0.022 A 
BRANCH  68  72
ATOM     72  S   UNL A   1      36.533  34.545  33.740  1.00  0.00     0.124 S 
ATOM     73  O   UNL A   1      35.402  34.247  34.611  1.00  0.00    -0.237 OA
ATOM     74  O   UNL A   1      37.820  34.758  34.392  1.00  0.00    -0.237 OA
ATOM     75  O   UNL A   1      36.235  35.470  32.646  1.00  0.00    -0.744 OA
ENDBRANCH  68  72
ENDBRANCH  51  65
BRANCH  52  76
ATOM     76  C   UNL A   1      46.943  27.226  29.205  1.00  0.00     0.023 A 
ATOM     77  C   UNL A   1      46.407  27.342  27.892  1.00  0.00     0.031 A 
ATOM     78  C   UNL A   1      48.165  26.549  29.324  1.00  0.00     0.131 A 
ATOM     79  C   UNL A   1      47.151  26.962  26.765  1.00  0.00     0.055 A 
ATOM     80  C   UNL A   1      48.853  26.061  28.198  1.00  0.00     0.041 A 
ATOM     81  F   UNL A   1      48.797  26.458  30.502  1.00  0.00    -0.206 F 
ATOM     82  C   UNL A   1      48.365  26.296  26.912  1.00  0.00     0.022 A 
BRANCH  79  83
ATOM     83  S   UNL A   1      46.692  27.591  25.116  1.00  0.00     0.124 S 
ATOM     84  O   UNL A   1      47.938  28.197  24.662  1.00  0.00    -0.237 OA
ATOM     85  O   UNL A   1      46.266  26.394  24.394  1.00  0.00    -0.237 OA
ATOM     86  O   UNL A   1      45.605  28.520  25.419  1.00  0.00    -0.744 OA
ENDBRANCH  79  83
ENDBRANCH  52  76
BRANCH  64  87
ATOM     87  C   UNL A   1      44.290  33.905  30.428  1.00  0.00     0.023 A 
ATOM     88  C   UNL A   1      44.826  34.918  31.236  1.00  0.00     0.031 A 
ATOM     89  C   UNL A   1      43.744  34.308  29.190  1.00  0.00     0.131 A 
ATOM     90  C   UNL A   1      44.856  36.247  30.790  1.00  0.00     0.055 A 
ATOM     91  C   UNL A   1      43.671  35.649  28.802  1.00  0.00     0.041 A 
ATOM     92  F   UNL A   1      43.305  33.417  28.289  1.00  0.00    -0.206 F 
ATOM     93  C   UNL A   1      44.237  36.630  29.602  1.00  0.00     0.022 A 
BRANCH  90  94
ATOM     94  S   UNL A   1      45.814  37.447  31.745  1.00  0.00     0.124 S 
ATOM     95  O   UNL A   1      44.819  38.457  32.088  1.00  0.00    -0.237 OA
ATOM     96  O   UNL A   1      46.288  36.622  32.854  1.00  0.00    -0.237 OA
ATOM     97  O   UNL A   1      46.848  37.882  30.809  1.00  0.00    -0.744 OA
ENDBRANCH  90  94
ENDBRANCH  64  87
ENDBRANCH  38  39
ENDBRANCH  31  33
ENDBRANCH  30  31
ENDBRANCH  29  30
ENDBRANCH  28  29
ENDBRANCH  27  28
ENDBRANCH  26  27
ENDBRANCH   1  26
TORSDOF 23
ENDMDL
