MODEL 1
REMARK VINA RESULT:     -10.0      0.000      0.000
REMARK SMILES Cc1ccncc1[C@H](F)C(=O)OCCOCCOCCOC(=O)c1ccc(-c2c3nc(c(-c4cc(S(=O)(=O)[O-])ccc4F)c4ccc([nH]4)c(-c4cc(S(=O)(=O)[O-])ccc4F)c4nc(c(-c5cc(S(=O)(=O)[O-])ccc5F)c5ccc2[nH]5)C=C4)C=C3)cc1
REMARK SMILES IDX 17 1 16 2 15 3 14 4 13 5 12 6 10 7 11 8 8 9 9 10 7 11 1 12
REMARK SMILES IDX 2 13 3 14 4 15 6 16 5 17 18 18 19 19 20 20 21 21 22 22 23 23
REMARK SMILES IDX 24 24 25 25 86 26 26 27 85 28 27 29 28 30 29 31 79 32 30 33
REMARK SMILES IDX 84 34 78 35 80 36 31 37 83 38 77 39 76 40 32 42 64 43 44 44
REMARK SMILES IDX 63 45 45 46 48 47 62 48 81 49 46 50 47 51 61 53 82 54 49 55
REMARK SMILES IDX 33 56 34 57 42 58 35 59 41 60 43 61 40 62 36 63 37 64 38 65
REMARK SMILES IDX 39 66 65 67 66 68 74 69 67 70 73 71 75 72 72 73 68 74 69 75
REMARK SMILES IDX 70 76 71 77 50 78 51 79 59 80 52 81 58 82 60 83 57 84 53 85
REMARK SMILES IDX 54 86 55 87 56 88
REMARK H PARENT 80 41 48 52
REMARK Flexibility Score: inf
ROOT
ATOM      1  C   UNL A   1      33.298  19.501  25.075  1.00  0.00     0.188 C 
ENDROOT
BRANCH   1   2
ATOM      2  C   UNL A   1      32.703  20.781  24.454  1.00  0.00     0.188 C 
BRANCH   2   3
ATOM      3  O   UNL A   1      32.497  20.862  23.049  1.00  0.00    -0.376 OA
BRANCH   3   4
ATOM      4  C   UNL A   1      31.850  21.992  22.478  1.00  0.00     0.202 C 
BRANCH   4   5
ATOM      5  C   UNL A   1      31.957  23.374  23.141  1.00  0.00     0.261 C 
BRANCH   5   6
ATOM      6  O   UNL A   1      32.781  24.312  22.439  1.00  0.00    -0.461 OA
BRANCH   6   7
ATOM      7  C   UNL A   1      32.409  25.622  22.507  1.00  0.00     0.345 C 
ATOM      8  O   UNL A   1      31.255  26.016  22.388  1.00  0.00    -0.248 OA
BRANCH   7   9
ATOM      9  C   UNL A   1      33.603  26.524  22.846  1.00  0.00     0.308 C 
ATOM     10  F   UNL A   1      33.932  27.295  21.757  1.00  0.00    -0.230 F 
BRANCH   9  11
ATOM     11  C   UNL A   1      33.430  27.402  24.064  1.00  0.00     0.019 A 
ATOM     12  C   UNL A   1      34.137  25.509  25.652  1.00  0.00     0.045 C 
ATOM     13  C   UNL A   1      33.742  26.933  25.357  1.00  0.00    -0.041 A 
ATOM     14  C   UNL A   1      33.724  27.841  26.419  1.00  0.00     0.024 A 
ATOM     15  C   UNL A   1      33.316  29.141  26.184  1.00  0.00     0.111 A 
ATOM     16  C   UNL A   1      32.952  28.708  23.961  1.00  0.00     0.118 A 
ATOM     17  N   UNL A   1      32.903  29.587  24.985  1.00  0.00    -0.264 NA
ENDBRANCH   9  11
ENDBRANCH   7   9
ENDBRANCH   6   7
ENDBRANCH   5   6
ENDBRANCH   4   5
ENDBRANCH   3   4
ENDBRANCH   2   3
ENDBRANCH   1   2
BRANCH   1  18
ATOM     18  O   UNL A   1      34.645  19.277  24.740  1.00  0.00    -0.376 OA
BRANCH  18  19
ATOM     19  C   UNL A   1      35.576  20.325  24.954  1.00  0.00     0.202 C 
BRANCH  19  20
ATOM     20  C   UNL A   1      37.108  20.123  24.983  1.00  0.00     0.261 C 
BRANCH  20  21
ATOM     21  O   UNL A   1      37.942  21.231  25.347  1.00  0.00    -0.460 OA
BRANCH  21  22
ATOM     22  C   UNL A   1      39.107  20.945  25.973  1.00  0.00     0.338 C 
ATOM     23  O   UNL A   1      39.709  19.876  25.941  1.00  0.00    -0.246 OA
BRANCH  22  24
ATOM     24  C   UNL A   1      39.656  22.194  26.539  1.00  0.00     0.060 A 
ATOM     25  C   UNL A   1      39.140  23.424  26.106  1.00  0.00     0.016 A 
ATOM     26  C   UNL A   1      40.681  22.156  27.487  1.00  0.00     0.016 A 
ATOM     27  C   UNL A   1      39.657  24.620  26.608  1.00  0.00     0.010 A 
ATOM     28  C   UNL A   1      41.216  23.356  27.969  1.00  0.00     0.010 A 
ATOM     29  C   UNL A   1      40.726  24.595  27.514  1.00  0.00    -0.014 A 
BRANCH  29  30
ATOM     30  C   UNL A   1      41.460  25.846  27.837  1.00  0.00     0.031 A 
ATOM     31  C   UNL A   1      40.727  26.932  28.577  1.00  0.00     0.074 A 
ATOM     32  C   UNL A   1      42.747  26.023  27.485  1.00  0.00     0.049 A 
ATOM     33  N   UNL A   1      41.114  28.144  28.883  1.00  0.00    -0.248 NA
ATOM     34  C   UNL A   1      39.365  26.602  29.021  1.00  0.00     0.031 C 
ATOM     35  C   UNL A   1      43.581  25.032  26.808  1.00  0.00     0.029 A 
ATOM     36  N   UNL A   1      43.571  27.113  27.634  1.00  0.00    -0.354 N 
ATOM     37  C   UNL A   1      40.040  28.726  29.548  1.00  0.00     0.074 A 
ATOM     38  C   UNL A   1      38.975  27.745  29.561  1.00  0.00     0.031 C 
ATOM     39  C   UNL A   1      44.792  25.570  26.577  1.00  0.00     0.029 A 
ATOM     40  C   UNL A   1      44.805  26.954  27.048  1.00  0.00     0.049 A 
ATOM     41  H   UNL A   1      43.303  27.930  28.114  1.00  0.00     0.167 HD
ATOM     42  C   UNL A   1      39.953  29.960  30.104  1.00  0.00     0.034 A 
ATOM     43  C   UNL A   1      45.813  27.836  26.875  1.00  0.00     0.034 A 
ATOM     44  C   UNL A   1      41.017  30.935  30.061  1.00  0.00     0.049 A 
ATOM     45  C   UNL A   1      45.663  29.241  27.414  1.00  0.00     0.074 A 
ATOM     46  C   UNL A   1      41.040  32.210  30.598  1.00  0.00     0.029 A 
ATOM     47  N   UNL A   1      42.241  30.751  29.428  1.00  0.00    -0.354 N 
ATOM     48  N   UNL A   1      44.647  29.780  28.049  1.00  0.00    -0.248 NA
ATOM     49  C   UNL A   1      46.798  30.153  27.216  1.00  0.00     0.031 C 
ATOM     50  C   UNL A   1      42.238  32.824  30.218  1.00  0.00     0.029 A 
ATOM     51  C   UNL A   1      43.007  31.903  29.528  1.00  0.00     0.049 A 
ATOM     52  H   UNL A   1      42.522  29.924  28.975  1.00  0.00     0.167 HD
ATOM     53  C   UNL A   1      45.036  31.085  28.353  1.00  0.00     0.074 A 
ATOM     54  C   UNL A   1      46.382  31.244  27.843  1.00  0.00     0.031 C 
ATOM     55  C   UNL A   1      44.346  32.059  29.003  1.00  0.00     0.034 A 
BRANCH  42  56
ATOM     56  C   UNL A   1      38.637  30.335  30.746  1.00  0.00     0.023 A 
ATOM     57  C   UNL A   1      37.595  30.928  30.010  1.00  0.00     0.031 A 
ATOM     58  C   UNL A   1      38.440  30.146  32.126  1.00  0.00     0.131 A 
ATOM     59  C   UNL A   1      36.447  31.392  30.670  1.00  0.00     0.055 A 
ATOM     60  C   UNL A   1      37.256  30.526  32.760  1.00  0.00     0.041 A 
ATOM     61  F   UNL A   1      39.406  29.609  32.888  1.00  0.00    -0.206 F 
ATOM     62  C   UNL A   1      36.258  31.171  32.036  1.00  0.00     0.022 A 
BRANCH  59  63
ATOM     63  S   UNL A   1      35.289  32.444  29.751  1.00  0.00     0.124 S 
ATOM     64  O   UNL A   1      36.184  33.462  29.204  1.00  0.00    -0.237 OA
ATOM     65  O   UNL A   1      34.715  31.514  28.787  1.00  0.00    -0.237 OA
ATOM     66  O   UNL A   1      34.371  32.923  30.781  1.00  0.00    -0.744 OA
ENDBRANCH  59  63
ENDBRANCH  42  56
BRANCH  43  67
ATOM     67  C   UNL A   1      47.033  27.444  26.109  1.00  0.00     0.023 A 
ATOM     68  C   UNL A   1      47.187  27.775  24.754  1.00  0.00     0.031 A 
ATOM     69  C   UNL A   1      48.048  26.684  26.720  1.00  0.00     0.131 A 
ATOM     70  C   UNL A   1      48.308  27.314  24.043  1.00  0.00     0.055 A 
ATOM     71  C   UNL A   1      49.187  26.276  26.025  1.00  0.00     0.041 A 
ATOM     72  F   UNL A   1      47.949  26.332  28.011  1.00  0.00    -0.206 F 
ATOM     73  C   UNL A   1      49.317  26.581  24.674  1.00  0.00     0.022 A 
BRANCH  70  74
ATOM     74  S   UNL A   1      48.390  27.613  22.255  1.00  0.00     0.124 S 
ATOM     75  O   UNL A   1      47.095  28.231  21.998  1.00  0.00    -0.237 OA
ATOM     76  O   UNL A   1      49.551  28.489  22.148  1.00  0.00    -0.237 OA
ATOM     77  O   UNL A   1      48.567  26.275  21.694  1.00  0.00    -0.744 OA
ENDBRANCH  70  74
ENDBRANCH  43  67
BRANCH  55  78
ATOM     78  C   UNL A   1      45.058  33.371  29.245  1.00  0.00     0.023 A 
ATOM     79  C   UNL A   1      44.907  34.473  28.385  1.00  0.00     0.031 A 
ATOM     80  C   UNL A   1      45.902  33.518  30.361  1.00  0.00     0.131 A 
ATOM     81  C   UNL A   1      45.632  35.652  28.623  1.00  0.00     0.055 A 
ATOM     82  C   UNL A   1      46.569  34.715  30.630  1.00  0.00     0.041 A 
ATOM     83  F   UNL A   1      46.089  32.501  31.216  1.00  0.00    -0.206 F 
ATOM     84  C   UNL A   1      46.446  35.786  29.751  1.00  0.00     0.022 A 
BRANCH  81  85
ATOM     85  S   UNL A   1      45.578  36.977  27.385  1.00  0.00     0.124 S 
ATOM     86  O   UNL A   1      44.190  36.915  26.937  1.00  0.00    -0.237 OA
ATOM     87  O   UNL A   1      45.943  38.152  28.169  1.00  0.00    -0.237 OA
ATOM     88  O   UNL A   1      46.569  36.561  26.393  1.00  0.00    -0.744 OA
ENDBRANCH  81  85
ENDBRANCH  55  78
ENDBRANCH  29  30
ENDBRANCH  22  24
ENDBRANCH  21  22
ENDBRANCH  20  21
ENDBRANCH  19  20
ENDBRANCH  18  19
ENDBRANCH   1  18
TORSDOF 21
ENDMDL
MODEL 2
REMARK VINA RESULT:      -9.7      1.753      7.892
REMARK SMILES Cc1ccncc1[C@H](F)C(=O)OCCOCCOCCOC(=O)c1ccc(-c2c3nc(c(-c4cc(S(=O)(=O)[O-])ccc4F)c4ccc([nH]4)c(-c4cc(S(=O)(=O)[O-])ccc4F)c4nc(c(-c5cc(S(=O)(=O)[O-])ccc5F)c5ccc2[nH]5)C=C4)C=C3)cc1
REMARK SMILES IDX 17 1 16 2 15 3 14 4 13 5 12 6 10 7 11 8 8 9 9 10 7 11 1 12
REMARK SMILES IDX 2 13 3 14 4 15 6 16 5 17 18 18 19 19 20 20 21 21 22 22 23 23
REMARK SMILES IDX 24 24 25 25 86 26 26 27 85 28 27 29 28 30 29 31 79 32 30 33
REMARK SMILES IDX 84 34 78 35 80 36 31 37 83 38 77 39 76 40 32 42 64 43 44 44
REMARK SMILES IDX 63 45 45 46 48 47 62 48 81 49 46 50 47 51 61 53 82 54 49 55
REMARK SMILES IDX 33 56 34 57 42 58 35 59 41 60 43 61 40 62 36 63 37 64 38 65
REMARK SMILES IDX 39 66 65 67 66 68 74 69 67 70 73 71 75 72 72 73 68 74 69 75
REMARK SMILES IDX 70 76 71 77 50 78 51 79 59 80 52 81 58 82 60 83 57 84 53 85
REMARK SMILES IDX 54 86 55 87 56 88
REMARK H PARENT 80 41 48 52
REMARK Flexibility Score: inf
ROOT
ATOM      1  C   UNL A   1      37.152  22.277  25.441  1.00  0.00     0.188 C 
ENDROOT
BRANCH   1   2
ATOM      2  C   UNL A   1      36.107  23.277  24.908  1.00  0.00     0.188 C 
BRANCH   2   3
ATOM      3  O   UNL A   1      35.789  23.304  23.522  1.00  0.00    -0.376 OA
BRANCH   3   4
ATOM      4  C   UNL A   1      34.491  22.937  23.072  1.00  0.00     0.202 C 
BRANCH   4   5
ATOM      5  C   UNL A   1      33.239  23.591  23.675  1.00  0.00     0.261 C 
BRANCH   5   6
ATOM      6  O   UNL A   1      32.454  24.350  22.747  1.00  0.00    -0.461 OA
BRANCH   6   7
ATOM      7  C   UNL A   1      32.837  25.641  22.536  1.00  0.00     0.345 C 
ATOM      8  O   UNL A   1      33.881  25.966  21.981  1.00  0.00    -0.248 OA
BRANCH   7   9
ATOM      9  C   UNL A   1      31.755  26.627  22.994  1.00  0.00     0.308 C 
ATOM     10  F   UNL A   1      30.512  26.149  22.657  1.00  0.00    -0.230 F 
BRANCH   9  11
ATOM     11  C   UNL A   1      31.787  26.993  24.460  1.00  0.00     0.019 A 
ATOM     12  C   UNL A   1      33.504  28.863  24.059  1.00  0.00     0.045 C 
ATOM     13  C   UNL A   1      32.559  28.076  24.930  1.00  0.00    -0.041 A 
ATOM     14  C   UNL A   1      32.415  28.469  26.264  1.00  0.00     0.024 A 
ATOM     15  C   UNL A   1      31.592  27.732  27.095  1.00  0.00     0.111 A 
ATOM     16  C   UNL A   1      31.058  26.274  25.407  1.00  0.00     0.118 A 
ATOM     17  N   UNL A   1      30.934  26.628  26.705  1.00  0.00    -0.264 NA
ENDBRANCH   9  11
ENDBRANCH   7   9
ENDBRANCH   6   7
ENDBRANCH   5   6
ENDBRANCH   4   5
ENDBRANCH   3   4
ENDBRANCH   2   3
ENDBRANCH   1   2
BRANCH   1  18
ATOM     18  O   UNL A   1      37.527  21.293  24.509  1.00  0.00    -0.376 OA
BRANCH  18  19
ATOM     19  C   UNL A   1      37.687  19.959  24.963  1.00  0.00     0.202 C 
BRANCH  19  20
ATOM     20  C   UNL A   1      38.974  19.427  25.634  1.00  0.00     0.261 C 
BRANCH  20  21
ATOM     21  O   UNL A   1      40.103  20.303  25.749  1.00  0.00    -0.460 OA
BRANCH  21  22
ATOM     22  C   UNL A   1      40.700  20.379  26.961  1.00  0.00     0.338 C 
ATOM     23  O   UNL A   1      41.173  19.446  27.602  1.00  0.00    -0.246 OA
BRANCH  22  24
ATOM     24  C   UNL A   1      40.884  21.804  27.306  1.00  0.00     0.060 A 
ATOM     25  C   UNL A   1      40.232  22.781  26.538  1.00  0.00     0.016 A 
ATOM     26  C   UNL A   1      41.699  22.178  28.376  1.00  0.00     0.016 A 
ATOM     27  C   UNL A   1      40.408  24.136  26.829  1.00  0.00     0.010 A 
ATOM     28  C   UNL A   1      41.894  23.537  28.648  1.00  0.00     0.010 A 
ATOM     29  C   UNL A   1      41.271  24.525  27.862  1.00  0.00    -0.014 A 
BRANCH  29  30
ATOM     30  C   UNL A   1      41.678  25.948  27.998  1.00  0.00     0.031 A 
ATOM     31  C   UNL A   1      43.023  26.359  27.464  1.00  0.00     0.074 A 
ATOM     32  C   UNL A   1      40.879  26.859  28.583  1.00  0.00     0.049 A 
ATOM     33  N   UNL A   1      43.643  27.507  27.552  1.00  0.00    -0.248 NA
ATOM     34  C   UNL A   1      43.773  25.321  26.741  1.00  0.00     0.031 C 
ATOM     35  C   UNL A   1      39.537  26.599  29.097  1.00  0.00     0.029 A 
ATOM     36  N   UNL A   1      41.095  28.189  28.857  1.00  0.00    -0.354 N 
ATOM     37  C   UNL A   1      44.860  27.330  26.903  1.00  0.00     0.074 A 
ATOM     38  C   UNL A   1      44.904  25.950  26.466  1.00  0.00     0.031 C 
ATOM     39  C   UNL A   1      39.057  27.728  29.649  1.00  0.00     0.029 A 
ATOM     40  C   UNL A   1      40.074  28.777  29.566  1.00  0.00     0.049 A 
ATOM     41  H   UNL A   1      41.903  28.674  28.572  1.00  0.00     0.167 HD
ATOM     42  C   UNL A   1      45.846  28.236  26.685  1.00  0.00     0.034 A 
ATOM     43  C   UNL A   1      39.986  30.005  30.121  1.00  0.00     0.034 A 
ATOM     44  C   UNL A   1      45.797  29.602  27.148  1.00  0.00     0.049 A 
ATOM     45  C   UNL A   1      41.137  30.972  29.954  1.00  0.00     0.074 A 
ATOM     46  C   UNL A   1      46.734  30.605  26.976  1.00  0.00     0.029 A 
ATOM     47  N   UNL A   1      44.761  30.152  27.895  1.00  0.00    -0.354 N 
ATOM     48  N   UNL A   1      42.280  30.800  29.331  1.00  0.00    -0.248 NA
ATOM     49  C   UNL A   1      40.981  32.302  30.560  1.00  0.00     0.031 C 
ATOM     50  C   UNL A   1      46.306  31.731  27.688  1.00  0.00     0.029 A 
ATOM     51  C   UNL A   1      45.056  31.467  28.224  1.00  0.00     0.049 A 
ATOM     52  H   UNL A   1      43.938  29.678  28.153  1.00  0.00     0.167 HD
ATOM     53  C   UNL A   1      42.965  32.009  29.446  1.00  0.00     0.074 A 
ATOM     54  C   UNL A   1      42.099  32.905  30.185  1.00  0.00     0.031 C 
ATOM     55  C   UNL A   1      44.193  32.351  28.974  1.00  0.00     0.034 A 
BRANCH  42  56
ATOM     56  C   UNL A   1      47.082  27.748  25.965  1.00  0.00     0.023 A 
ATOM     57  C   UNL A   1      47.318  28.045  24.611  1.00  0.00     0.031 A 
ATOM     58  C   UNL A   1      48.012  26.926  26.627  1.00  0.00     0.131 A 
ATOM     59  C   UNL A   1      48.401  27.455  23.942  1.00  0.00     0.055 A 
ATOM     60  C   UNL A   1      49.139  26.417  25.979  1.00  0.00     0.041 A 
ATOM     61  F   UNL A   1      47.830  26.585  27.913  1.00  0.00    -0.206 F 
ATOM     62  C   UNL A   1      49.329  26.664  24.623  1.00  0.00     0.022 A 
BRANCH  59  63
ATOM     63  S   UNL A   1      48.477  27.590  22.134  1.00  0.00     0.124 S 
ATOM     64  O   UNL A   1      47.164  28.151  21.824  1.00  0.00    -0.237 OA
ATOM     65  O   UNL A   1      49.615  28.479  21.932  1.00  0.00    -0.237 OA
ATOM     66  O   UNL A   1      48.675  26.211  21.695  1.00  0.00    -0.744 OA
ENDBRANCH  59  63
ENDBRANCH  42  56
BRANCH  43  67
ATOM     67  C   UNL A   1      38.795  30.378  30.939  1.00  0.00     0.023 A 
ATOM     68  C   UNL A   1      37.704  31.062  30.379  1.00  0.00     0.031 A 
ATOM     69  C   UNL A   1      38.755  30.094  32.317  1.00  0.00     0.131 A 
ATOM     70  C   UNL A   1      36.639  31.473  31.198  1.00  0.00     0.055 A 
ATOM     71  C   UNL A   1      37.670  30.454  33.116  1.00  0.00     0.041 A 
ATOM     72  F   UNL A   1      39.775  29.451  32.907  1.00  0.00    -0.206 F 
ATOM     73  C   UNL A   1      36.607  31.159  32.560  1.00  0.00     0.022 A 
BRANCH  70  74
ATOM     74  S   UNL A   1      35.330  32.501  30.477  1.00  0.00     0.124 S 
ATOM     75  O   UNL A   1      34.968  31.732  29.293  1.00  0.00    -0.237 OA
ATOM     76  O   UNL A   1      34.342  32.530  31.549  1.00  0.00    -0.237 OA
ATOM     77  O   UNL A   1      36.001  33.773  30.215  1.00  0.00    -0.744 OA
ENDBRANCH  70  74
ENDBRANCH  43  67
BRANCH  55  78
ATOM     78  C   UNL A   1      44.653  33.774  29.200  1.00  0.00     0.023 A 
ATOM     79  C   UNL A   1      45.415  34.144  30.322  1.00  0.00     0.031 A 
ATOM     80  C   UNL A   1      44.319  34.778  28.272  1.00  0.00     0.131 A 
ATOM     81  C   UNL A   1      45.770  35.489  30.515  1.00  0.00     0.055 A 
ATOM     82  C   UNL A   1      44.733  36.101  28.434  1.00  0.00     0.041 A 
ATOM     83  F   UNL A   1      43.590  34.487  27.183  1.00  0.00    -0.206 F 
ATOM     84  C   UNL A   1      45.452  36.466  29.568  1.00  0.00     0.022 A 
BRANCH  81  85
ATOM     85  S   UNL A   1      46.571  35.968  32.071  1.00  0.00     0.124 S 
ATOM     86  O   UNL A   1      47.296  34.751  32.425  1.00  0.00    -0.237 OA
ATOM     87  O   UNL A   1      47.391  37.103  31.664  1.00  0.00    -0.237 OA
ATOM     88  O   UNL A   1      45.449  36.296  32.948  1.00  0.00    -0.744 OA
ENDBRANCH  81  85
ENDBRANCH  55  78
ENDBRANCH  29  30
ENDBRANCH  22  24
ENDBRANCH  21  22
ENDBRANCH  20  21
ENDBRANCH  19  20
ENDBRANCH  18  19
ENDBRANCH   1  18
TORSDOF 21
ENDMDL
MODEL 3
REMARK VINA RESULT:      -9.5      5.221      8.404
REMARK SMILES Cc1ccncc1[C@H](F)C(=O)OCCOCCOCCOC(=O)c1ccc(-c2c3nc(c(-c4cc(S(=O)(=O)[O-])ccc4F)c4ccc([nH]4)c(-c4cc(S(=O)(=O)[O-])ccc4F)c4nc(c(-c5cc(S(=O)(=O)[O-])ccc5F)c5ccc2[nH]5)C=C4)C=C3)cc1
REMARK SMILES IDX 17 1 16 2 15 3 14 4 13 5 12 6 10 7 11 8 8 9 9 10 7 11 1 12
REMARK SMILES IDX 2 13 3 14 4 15 6 16 5 17 18 18 19 19 20 20 21 21 22 22 23 23
REMARK SMILES IDX 24 24 25 25 86 26 26 27 85 28 27 29 28 30 29 31 79 32 30 33
REMARK SMILES IDX 84 34 78 35 80 36 31 37 83 38 77 39 76 40 32 42 64 43 44 44
REMARK SMILES IDX 63 45 45 46 48 47 62 48 81 49 46 50 47 51 61 53 82 54 49 55
REMARK SMILES IDX 33 56 34 57 42 58 35 59 41 60 43 61 40 62 36 63 37 64 38 65
REMARK SMILES IDX 39 66 65 67 66 68 74 69 67 70 73 71 75 72 72 73 68 74 69 75
REMARK SMILES IDX 70 76 71 77 50 78 51 79 59 80 52 81 58 82 60 83 57 84 53 85
REMARK SMILES IDX 54 86 55 87 56 88
REMARK H PARENT 80 41 48 52
REMARK Flexibility Score: inf
ROOT
ATOM      1  C   UNL A   1      31.161  29.701  24.770  1.00  0.00     0.188 C 
ENDROOT
BRANCH   1   2
ATOM      2  C   UNL A   1      31.414  28.181  24.819  1.00  0.00     0.188 C 
BRANCH   2   3
ATOM      3  O   UNL A   1      32.490  27.662  25.592  1.00  0.00    -0.376 OA
BRANCH   3   4
ATOM      4  C   UNL A   1      33.520  26.900  24.976  1.00  0.00     0.202 C 
BRANCH   4   5
ATOM      5  C   UNL A   1      33.356  25.386  24.768  1.00  0.00     0.261 C 
BRANCH   5   6
ATOM      6  O   UNL A   1      32.017  24.902  24.930  1.00  0.00    -0.461 OA
BRANCH   6   7
ATOM      7  C   UNL A   1      31.805  24.026  25.954  1.00  0.00     0.345 C 
ATOM      8  O   UNL A   1      30.712  23.824  26.470  1.00  0.00    -0.248 OA
BRANCH   7   9
ATOM      9  C   UNL A   1      33.086  23.260  26.308  1.00  0.00     0.308 C 
ATOM     10  F   UNL A   1      33.187  23.120  27.671  1.00  0.00    -0.230 F 
BRANCH   9  11
ATOM     11  C   UNL A   1      33.247  21.916  25.638  1.00  0.00     0.019 A 
ATOM     12  C   UNL A   1      35.691  22.406  25.015  1.00  0.00     0.045 C 
ATOM     13  C   UNL A   1      34.484  21.508  25.097  1.00  0.00    -0.041 A 
ATOM     14  C   UNL A   1      34.613  20.192  24.644  1.00  0.00     0.024 A 
ATOM     15  C   UNL A   1      33.506  19.364  24.661  1.00  0.00     0.111 A 
ATOM     16  C   UNL A   1      32.180  21.024  25.526  1.00  0.00     0.118 A 
ATOM     17  N   UNL A   1      32.286  19.758  25.065  1.00  0.00    -0.264 NA
ENDBRANCH   9  11
ENDBRANCH   7   9
ENDBRANCH   6   7
ENDBRANCH   5   6
ENDBRANCH   4   5
ENDBRANCH   3   4
ENDBRANCH   2   3
ENDBRANCH   1   2
BRANCH   1  18
ATOM     18  O   UNL A   1      32.038  30.451  25.573  1.00  0.00    -0.376 OA
BRANCH  18  19
ATOM     19  C   UNL A   1      31.493  31.216  26.635  1.00  0.00     0.202 C 
BRANCH  19  20
ATOM     20  C   UNL A   1      31.763  32.725  26.837  1.00  0.00     0.261 C 
BRANCH  20  21
ATOM     21  O   UNL A   1      33.121  33.185  26.852  1.00  0.00    -0.460 OA
BRANCH  21  22
ATOM     22  C   UNL A   1      33.591  33.673  28.024  1.00  0.00     0.338 C 
ATOM     23  O   UNL A   1      33.049  34.513  28.734  1.00  0.00    -0.246 OA
BRANCH  22  24
ATOM     24  C   UNL A   1      34.769  32.877  28.425  1.00  0.00     0.060 A 
ATOM     25  C   UNL A   1      34.601  31.521  28.742  1.00  0.00     0.016 A 
ATOM     26  C   UNL A   1      36.034  33.465  28.496  1.00  0.00     0.016 A 
ATOM     27  C   UNL A   1      35.696  30.753  29.147  1.00  0.00     0.010 A 
ATOM     28  C   UNL A   1      37.124  32.700  28.927  1.00  0.00     0.010 A 
ATOM     29  C   UNL A   1      36.958  31.347  29.280  1.00  0.00    -0.014 A 
BRANCH  29  30
ATOM     30  C   UNL A   1      38.056  30.620  29.968  1.00  0.00     0.031 A 
ATOM     31  C   UNL A   1      38.351  30.966  31.402  1.00  0.00     0.074 A 
ATOM     32  C   UNL A   1      38.780  29.674  29.341  1.00  0.00     0.049 A 
ATOM     33  N   UNL A   1      39.315  30.548  32.182  1.00  0.00    -0.248 NA
ATOM     34  C   UNL A   1      37.434  31.925  32.035  1.00  0.00     0.031 C 
ATOM     35  C   UNL A   1      38.564  29.215  27.971  1.00  0.00     0.029 A 
ATOM     36  N   UNL A   1      39.859  28.943  29.776  1.00  0.00    -0.354 N 
ATOM     37  C   UNL A   1      39.127  31.200  33.396  1.00  0.00     0.074 A 
ATOM     38  C   UNL A   1      37.981  32.071  33.230  1.00  0.00     0.031 C 
ATOM     39  C   UNL A   1      39.500  28.297  27.668  1.00  0.00     0.029 A 
ATOM     40  C   UNL A   1      40.406  28.137  28.805  1.00  0.00     0.049 A 
ATOM     41  H   UNL A   1      40.209  28.992  30.696  1.00  0.00     0.167 HD
ATOM     42  C   UNL A   1      39.838  31.078  34.545  1.00  0.00     0.034 A 
ATOM     43  C   UNL A   1      41.529  27.388  28.818  1.00  0.00     0.034 A 
ATOM     44  C   UNL A   1      40.992  30.223  34.686  1.00  0.00     0.049 A 
ATOM     45  C   UNL A   1      42.368  27.339  30.075  1.00  0.00     0.074 A 
ATOM     46  C   UNL A   1      41.781  30.016  35.804  1.00  0.00     0.029 A 
ATOM     47  N   UNL A   1      41.537  29.447  33.669  1.00  0.00    -0.354 N 
ATOM     48  N   UNL A   1      42.178  27.951  31.222  1.00  0.00    -0.248 NA
ATOM     49  C   UNL A   1      43.569  26.493  30.041  1.00  0.00     0.031 C 
ATOM     50  C   UNL A   1      42.846  29.186  35.441  1.00  0.00     0.029 A 
ATOM     51  C   UNL A   1      42.673  28.793  34.125  1.00  0.00     0.049 A 
ATOM     52  H   UNL A   1      41.171  29.372  32.759  1.00  0.00     0.167 HD
ATOM     53  C   UNL A   1      43.219  27.539  32.053  1.00  0.00     0.074 A 
ATOM     54  C   UNL A   1      44.024  26.616  31.280  1.00  0.00     0.031 C 
ATOM     55  C   UNL A   1      43.479  27.884  33.342  1.00  0.00     0.034 A 
BRANCH  42  56
ATOM     56  C   UNL A   1      39.414  31.941  35.712  1.00  0.00     0.023 A 
ATOM     57  C   UNL A   1      38.645  31.429  36.772  1.00  0.00     0.031 A 
ATOM     58  C   UNL A   1      39.738  33.309  35.737  1.00  0.00     0.131 A 
ATOM     59  C   UNL A   1      38.152  32.293  37.760  1.00  0.00     0.055 A 
ATOM     60  C   UNL A   1      39.321  34.146  36.775  1.00  0.00     0.041 A 
ATOM     61  F   UNL A   1      40.448  33.864  34.742  1.00  0.00    -0.206 F 
ATOM     62  C   UNL A   1      38.507  33.644  37.785  1.00  0.00     0.022 A 
BRANCH  59  63
ATOM     63  S   UNL A   1      36.897  31.664  38.909  1.00  0.00     0.124 S 
ATOM     64  O   UNL A   1      35.763  32.538  38.617  1.00  0.00    -0.237 OA
ATOM     65  O   UNL A   1      36.756  30.274  38.493  1.00  0.00    -0.237 OA
ATOM     66  O   UNL A   1      37.503  31.864  40.224  1.00  0.00    -0.744 OA
ENDBRANCH  59  63
ENDBRANCH  42  56
BRANCH  43  67
ATOM     67  C   UNL A   1      41.968  26.668  27.586  1.00  0.00     0.023 A 
ATOM     68  C   UNL A   1      41.812  25.279  27.452  1.00  0.00     0.031 A 
ATOM     69  C   UNL A   1      42.599  27.363  26.537  1.00  0.00     0.131 A 
ATOM     70  C   UNL A   1      42.315  24.624  26.315  1.00  0.00     0.055 A 
ATOM     71  C   UNL A   1      43.047  26.716  25.385  1.00  0.00     0.041 A 
ATOM     72  F   UNL A   1      42.782  28.690  26.617  1.00  0.00    -0.206 F 
ATOM     73  C   UNL A   1      42.917  25.336  25.273  1.00  0.00     0.022 A 
BRANCH  70  74
ATOM     74  S   UNL A   1      42.250  22.812  26.253  1.00  0.00     0.124 S 
ATOM     75  O   UNL A   1      40.813  22.567  26.271  1.00  0.00    -0.237 OA
ATOM     76  O   UNL A   1      42.932  22.528  24.995  1.00  0.00    -0.237 OA
ATOM     77  O   UNL A   1      42.969  22.403  27.457  1.00  0.00    -0.744 OA
ENDBRANCH  70  74
ENDBRANCH  43  67
BRANCH  55  78
ATOM     78  C   UNL A   1      44.660  27.219  34.014  1.00  0.00     0.023 A 
ATOM     79  C   UNL A   1      44.514  26.080  34.825  1.00  0.00     0.031 A 
ATOM     80  C   UNL A   1      45.956  27.738  33.837  1.00  0.00     0.131 A 
ATOM     81  C   UNL A   1      45.633  25.532  35.471  1.00  0.00     0.055 A 
ATOM     82  C   UNL A   1      47.075  27.148  34.428  1.00  0.00     0.041 A 
ATOM     83  F   UNL A   1      46.159  28.826  33.077  1.00  0.00    -0.206 F 
ATOM     84  C   UNL A   1      46.915  26.046  35.261  1.00  0.00     0.022 A 
BRANCH  81  85
ATOM     85  S   UNL A   1      45.383  24.194  36.672  1.00  0.00     0.124 S 
ATOM     86  O   UNL A   1      44.752  23.165  35.851  1.00  0.00    -0.237 OA
ATOM     87  O   UNL A   1      46.744  23.913  37.115  1.00  0.00    -0.237 OA
ATOM     88  O   UNL A   1      44.515  24.798  37.682  1.00  0.00    -0.744 OA
ENDBRANCH  81  85
ENDBRANCH  55  78
ENDBRANCH  29  30
ENDBRANCH  22  24
ENDBRANCH  21  22
ENDBRANCH  20  21
ENDBRANCH  19  20
ENDBRANCH  18  19
ENDBRANCH   1  18
TORSDOF 21
ENDMDL
