MODEL 1
REMARK VINA RESULT:      -9.3      0.000      0.000
REMARK SMILES Cn1cc(-c2cc(C(F)(F)F)c3c(C4CC4)nn(CC(=O)OCCOCCOCCOC(=O)c4ccc(-c5c6nc(c(-c7cc(S(=O)(=O)[O-])ccc7F)c7ccc([nH]7)c(-c7cc(S(=O)(=O)[O-])ccc7F)c7nc(c(-c8cc(S(=O)(=O)[O-])ccc8F)c8ccc5[nH]8)C=C7)C=C6)cc4)c3n2)cn1
REMARK SMILES IDX 27 1 26 2 25 3 24 4 23 5 22 6 20 7 21 8 19 9 18 10 5 11 6 12
REMARK SMILES IDX 98 13 7 14 97 15 12 16 13 17 17 18 4 19 1 20 2 21 3 22
REMARK SMILES IDX 100 23 99 24 8 25 9 26 10 27 11 28 14 29 15 30 16 31 28 32
REMARK SMILES IDX 29 33 30 34 31 35 32 36 33 37 34 38 35 39 96 40 36 41 95 42
REMARK SMILES IDX 37 43 38 44 39 45 89 46 40 47 94 48 88 49 90 50 41 51 93 52
REMARK SMILES IDX 87 53 86 54 42 56 74 57 54 58 73 59 55 60 58 61 72 62 91 63
REMARK SMILES IDX 56 64 57 65 71 67 92 68 59 69 43 70 44 71 52 72 45 73 51 74
REMARK SMILES IDX 53 75 50 76 46 77 47 78 48 79 49 80 75 81 76 82 84 83 77 84
REMARK SMILES IDX 83 85 85 86 82 87 78 88 79 89 80 90 81 91 60 92 61 93 69 94
REMARK SMILES IDX 62 95 68 96 70 97 67 98 63 99 64 100 65 101 66 102
REMARK H PARENT 90 55 58 66
REMARK Flexibility Score: inf
ROOT
ATOM      1  C   UNL A   1      34.041  33.682  29.474  1.00  0.00     0.188 C 
ENDROOT
BRANCH   1   2
ATOM      2  C   UNL A   1      33.853  34.987  30.254  1.00  0.00     0.188 C 
BRANCH   2   3
ATOM      3  O   UNL A   1      33.055  34.894  31.438  1.00  0.00    -0.376 OA
BRANCH   3   4
ATOM      4  C   UNL A   1      33.691  35.217  32.673  1.00  0.00     0.202 C 
BRANCH   4   5
ATOM      5  C   UNL A   1      35.226  35.364  32.643  1.00  0.00     0.261 C 
BRANCH   5   6
ATOM      6  O   UNL A   1      35.931  35.197  33.898  1.00  0.00    -0.462 OA
BRANCH   6   7
ATOM      7  C   UNL A   1      35.932  33.947  34.409  1.00  0.00     0.327 C 
ATOM      8  O   UNL A   1      35.771  33.710  35.609  1.00  0.00    -0.250 OA
BRANCH   7   9
ATOM      9  C   UNL A   1      36.250  32.823  33.480  1.00  0.00     0.269 C 
BRANCH   9  10
ATOM     10  N   UNL A   1      37.097  31.682  33.829  1.00  0.00    -0.236 N 
ATOM     11  C   UNL A   1      39.473  31.689  31.382  1.00  0.00     0.077 A 
ATOM     12  C   UNL A   1      40.231  30.557  31.672  1.00  0.00     0.043 A 
ATOM     13  N   UNL A   1      38.140  31.697  31.646  1.00  0.00    -0.228 NA
ATOM     14  C   UNL A   1      39.721  29.643  32.619  1.00  0.00     0.071 A 
ATOM     15  C   UNL A   1      37.929  31.152  32.862  1.00  0.00     0.159 A 
ATOM     16  C   UNL A   1      38.764  30.231  33.470  1.00  0.00     0.055 A 
ATOM     17  C   UNL A   1      38.688  30.652  34.826  1.00  0.00     0.076 A 
ATOM     18  N   UNL A   1      37.641  31.478  35.054  1.00  0.00    -0.174 NA
BRANCH  11  19
ATOM     19  C   UNL A   1      40.004  33.036  31.683  1.00  0.00     0.038 A 
ATOM     20  C   UNL A   1      41.278  34.388  34.711  1.00  0.00     0.173 C 
ATOM     21  N   UNL A   1      40.817  34.247  33.344  1.00  0.00    -0.275 N 
ATOM     22  C   UNL A   1      41.094  33.177  32.535  1.00  0.00     0.118 A 
ATOM     23  N   UNL A   1      39.792  34.989  32.885  1.00  0.00    -0.181 NA
ATOM     24  C   UNL A   1      39.258  34.218  31.929  1.00  0.00     0.145 A 
ENDBRANCH  11  19
BRANCH  14  25
ATOM     25  C   UNL A   1      39.951  28.163  32.526  1.00  0.00     0.417 C 
ATOM     26  F   UNL A   1      40.587  27.595  33.578  1.00  0.00    -0.166 F 
ATOM     27  F   UNL A   1      38.773  27.481  32.403  1.00  0.00    -0.166 F 
ATOM     28  F   UNL A   1      40.680  27.811  31.428  1.00  0.00    -0.166 F 
ENDBRANCH  14  25
BRANCH  17  29
ATOM     29  C   UNL A   1      39.750  30.494  35.922  1.00  0.00     0.041 C 
ATOM     30  C   UNL A   1      41.239  30.450  35.686  1.00  0.00     0.011 C 
ATOM     31  C   UNL A   1      40.653  31.645  36.343  1.00  0.00     0.011 C 
ENDBRANCH  17  29
ENDBRANCH   9  10
ENDBRANCH   7   9
ENDBRANCH   6   7
ENDBRANCH   5   6
ENDBRANCH   4   5
ENDBRANCH   3   4
ENDBRANCH   2   3
ENDBRANCH   1   2
BRANCH   1  32
ATOM     32  O   UNL A   1      34.860  33.875  28.325  1.00  0.00    -0.376 OA
BRANCH  32  33
ATOM     33  C   UNL A   1      35.948  33.006  28.041  1.00  0.00     0.202 C 
BRANCH  33  34
ATOM     34  C   UNL A   1      36.103  31.771  28.928  1.00  0.00     0.261 C 
BRANCH  34  35
ATOM     35  O   UNL A   1      37.147  30.926  28.482  1.00  0.00    -0.460 OA
BRANCH  35  36
ATOM     36  C   UNL A   1      37.180  29.716  29.076  1.00  0.00     0.338 C 
ATOM     37  O   UNL A   1      36.672  29.406  30.133  1.00  0.00    -0.246 OA
BRANCH  36  38
ATOM     38  C   UNL A   1      37.959  28.814  28.215  1.00  0.00     0.060 A 
ATOM     39  C   UNL A   1      38.187  27.526  28.701  1.00  0.00     0.016 A 
ATOM     40  C   UNL A   1      38.789  29.426  27.277  1.00  0.00     0.016 A 
ATOM     41  C   UNL A   1      39.458  27.031  28.585  1.00  0.00     0.010 A 
ATOM     42  C   UNL A   1      40.072  28.973  27.222  1.00  0.00     0.010 A 
ATOM     43  C   UNL A   1      40.405  27.856  27.984  1.00  0.00    -0.014 A 
BRANCH  43  44
ATOM     44  C   UNL A   1      41.800  27.568  28.198  1.00  0.00     0.031 A 
ATOM     45  C   UNL A   1      42.189  26.271  27.625  1.00  0.00     0.074 A 
ATOM     46  C   UNL A   1      42.621  28.491  28.732  1.00  0.00     0.049 A 
ATOM     47  N   UNL A   1      42.356  25.155  28.256  1.00  0.00    -0.248 NA
ATOM     48  C   UNL A   1      42.103  26.134  26.160  1.00  0.00     0.031 C 
ATOM     49  C   UNL A   1      42.351  29.908  29.004  1.00  0.00     0.029 A 
ATOM     50  N   UNL A   1      43.933  28.372  29.044  1.00  0.00    -0.354 N 
ATOM     51  C   UNL A   1      42.649  24.240  27.253  1.00  0.00     0.074 A 
ATOM     52  C   UNL A   1      42.154  24.811  26.030  1.00  0.00     0.031 C 
ATOM     53  C   UNL A   1      43.527  30.553  29.199  1.00  0.00     0.029 A 
ATOM     54  C   UNL A   1      44.603  29.577  29.195  1.00  0.00     0.049 A 
ATOM     55  H   UNL A   1      44.376  27.501  29.153  1.00  0.00     0.167 HD
ATOM     56  C   UNL A   1      43.587  23.269  27.427  1.00  0.00     0.034 A 
ATOM     57  C   UNL A   1      45.953  29.730  29.189  1.00  0.00     0.034 A 
ATOM     58  C   UNL A   1      43.941  23.129  28.813  1.00  0.00     0.049 A 
ATOM     59  C   UNL A   1      46.553  28.384  29.398  1.00  0.00     0.074 A 
ATOM     60  C   UNL A   1      43.255  22.791  29.960  1.00  0.00     0.029 A 
ATOM     61  N   UNL A   1      45.098  23.753  29.220  1.00  0.00    -0.354 N 
ATOM     62  N   UNL A   1      46.468  27.714  30.513  1.00  0.00    -0.248 NA
ATOM     63  C   UNL A   1      46.839  27.588  28.212  1.00  0.00     0.031 C 
ATOM     64  C   UNL A   1      43.821  23.599  30.985  1.00  0.00     0.029 A 
ATOM     65  C   UNL A   1      44.863  24.348  30.432  1.00  0.00     0.049 A 
ATOM     66  H   UNL A   1      45.949  23.770  28.725  1.00  0.00     0.167 HD
ATOM     67  C   UNL A   1      46.250  26.401  30.117  1.00  0.00     0.074 A 
ATOM     68  C   UNL A   1      46.577  26.370  28.694  1.00  0.00     0.031 C 
ATOM     69  C   UNL A   1      45.536  25.542  30.901  1.00  0.00     0.034 A 
BRANCH  56  70
ATOM     70  C   UNL A   1      44.456  22.763  26.304  1.00  0.00     0.023 A 
ATOM     71  C   UNL A   1      44.328  21.470  25.757  1.00  0.00     0.031 A 
ATOM     72  C   UNL A   1      45.299  23.641  25.606  1.00  0.00     0.131 A 
ATOM     73  C   UNL A   1      45.040  21.066  24.626  1.00  0.00     0.055 A 
ATOM     74  C   UNL A   1      45.954  23.266  24.425  1.00  0.00     0.041 A 
ATOM     75  F   UNL A   1      45.469  24.906  26.019  1.00  0.00    -0.206 F 
ATOM     76  C   UNL A   1      45.834  21.970  23.934  1.00  0.00     0.022 A 
BRANCH  73  77
ATOM     77  S   UNL A   1      44.917  19.352  24.042  1.00  0.00     0.124 S 
ATOM     78  O   UNL A   1      43.866  18.818  24.900  1.00  0.00    -0.237 OA
ATOM     79  O   UNL A   1      44.558  19.545  22.640  1.00  0.00    -0.237 OA
ATOM     80  O   UNL A   1      46.256  18.817  24.268  1.00  0.00    -0.744 OA
ENDBRANCH  73  77
ENDBRANCH  56  70
BRANCH  57  81
ATOM     81  C   UNL A   1      46.717  30.815  28.523  1.00  0.00     0.023 A 
ATOM     82  C   UNL A   1      47.310  31.834  29.291  1.00  0.00     0.031 A 
ATOM     83  C   UNL A   1      46.594  31.040  27.141  1.00  0.00     0.131 A 
ATOM     84  C   UNL A   1      47.696  33.043  28.698  1.00  0.00     0.055 A 
ATOM     85  C   UNL A   1      46.993  32.244  26.546  1.00  0.00     0.041 A 
ATOM     86  F   UNL A   1      46.012  30.123  26.351  1.00  0.00    -0.206 F 
ATOM     87  C   UNL A   1      47.534  33.260  27.329  1.00  0.00     0.022 A 
BRANCH  84  88
ATOM     88  S   UNL A   1      48.357  34.385  29.723  1.00  0.00     0.124 S 
ATOM     89  O   UNL A   1      49.773  34.390  29.362  1.00  0.00    -0.237 OA
ATOM     90  O   UNL A   1      47.582  35.528  29.252  1.00  0.00    -0.237 OA
ATOM     91  O   UNL A   1      48.073  33.942  31.085  1.00  0.00    -0.744 OA
ENDBRANCH  84  88
ENDBRANCH  57  81
BRANCH  69  92
ATOM     92  C   UNL A   1      45.216  25.958  32.317  1.00  0.00     0.023 A 
ATOM     93  C   UNL A   1      45.933  25.314  33.338  1.00  0.00     0.031 A 
ATOM     94  C   UNL A   1      44.106  26.741  32.687  1.00  0.00     0.131 A 
ATOM     95  C   UNL A   1      45.508  25.413  34.665  1.00  0.00     0.055 A 
ATOM     96  C   UNL A   1      43.726  26.892  34.025  1.00  0.00     0.041 A 
ATOM     97  F   UNL A   1      43.311  27.303  31.770  1.00  0.00    -0.206 F 
ATOM     98  C   UNL A   1      44.417  26.210  35.021  1.00  0.00     0.022 A 
BRANCH  95  99
ATOM     99  S   UNL A   1      46.280  24.384  35.938  1.00  0.00     0.124 S 
ATOM    100  O   UNL A   1      46.482  23.120  35.236  1.00  0.00    -0.237 OA
ATOM    101  O   UNL A   1      47.496  25.135  36.241  1.00  0.00    -0.237 OA
ATOM    102  O   UNL A   1      45.292  24.348  37.012  1.00  0.00    -0.744 OA
ENDBRANCH  95  99
ENDBRANCH  69  92
ENDBRANCH  43  44
ENDBRANCH  36  38
ENDBRANCH  35  36
ENDBRANCH  34  35
ENDBRANCH  33  34
ENDBRANCH  32  33
ENDBRANCH   1  32
TORSDOF 24
ENDMDL
MODEL 2
REMARK VINA RESULT:      -9.1      4.974      9.865
REMARK SMILES Cn1cc(-c2cc(C(F)(F)F)c3c(C4CC4)nn(CC(=O)OCCOCCOCCOC(=O)c4ccc(-c5c6nc(c(-c7cc(S(=O)(=O)[O-])ccc7F)c7ccc([nH]7)c(-c7cc(S(=O)(=O)[O-])ccc7F)c7nc(c(-c8cc(S(=O)(=O)[O-])ccc8F)c8ccc5[nH]8)C=C7)C=C6)cc4)c3n2)cn1
REMARK SMILES IDX 27 1 26 2 25 3 24 4 23 5 22 6 20 7 21 8 19 9 18 10 5 11 6 12
REMARK SMILES IDX 98 13 7 14 97 15 12 16 13 17 17 18 4 19 1 20 2 21 3 22
REMARK SMILES IDX 100 23 99 24 8 25 9 26 10 27 11 28 14 29 15 30 16 31 28 32
REMARK SMILES IDX 29 33 30 34 31 35 32 36 33 37 34 38 35 39 96 40 36 41 95 42
REMARK SMILES IDX 37 43 38 44 39 45 89 46 40 47 94 48 88 49 90 50 41 51 93 52
REMARK SMILES IDX 87 53 86 54 42 56 74 57 54 58 73 59 55 60 58 61 72 62 91 63
REMARK SMILES IDX 56 64 57 65 71 67 92 68 59 69 43 70 44 71 52 72 45 73 51 74
REMARK SMILES IDX 53 75 50 76 46 77 47 78 48 79 49 80 75 81 76 82 84 83 77 84
REMARK SMILES IDX 83 85 85 86 82 87 78 88 79 89 80 90 81 91 60 92 61 93 69 94
REMARK SMILES IDX 62 95 68 96 70 97 67 98 63 99 64 100 65 101 66 102
REMARK H PARENT 90 55 58 66
REMARK Flexibility Score: inf
ROOT
ATOM      1  C   UNL A   1      33.858  33.746  28.249  1.00  0.00     0.188 C 
ENDROOT
BRANCH   1   2
ATOM      2  C   UNL A   1      35.177  33.008  28.005  1.00  0.00     0.188 C 
BRANCH   2   3
ATOM      3  O   UNL A   1      35.059  31.664  27.528  1.00  0.00    -0.376 OA
BRANCH   3   4
ATOM      4  C   UNL A   1      33.767  31.065  27.599  1.00  0.00     0.202 C 
BRANCH   4   5
ATOM      5  C   UNL A   1      33.715  29.573  27.986  1.00  0.00     0.261 C 
BRANCH   5   6
ATOM      6  O   UNL A   1      33.291  28.639  26.963  1.00  0.00    -0.462 OA
BRANCH   6   7
ATOM      7  C   UNL A   1      32.134  27.987  27.208  1.00  0.00     0.327 C 
ATOM      8  O   UNL A   1      31.461  28.171  28.225  1.00  0.00    -0.250 OA
BRANCH   7   9
ATOM      9  C   UNL A   1      31.724  26.925  26.244  1.00  0.00     0.269 C 
BRANCH   9  10
ATOM     10  N   UNL A   1      32.461  25.678  26.031  1.00  0.00    -0.236 N 
ATOM     11  C   UNL A   1      31.179  24.499  23.099  1.00  0.00     0.077 A 
ATOM     12  C   UNL A   1      31.826  23.276  22.937  1.00  0.00     0.043 A 
ATOM     13  N   UNL A   1      30.885  24.950  24.346  1.00  0.00    -0.228 NA
ATOM     14  C   UNL A   1      32.549  22.760  24.034  1.00  0.00     0.071 A 
ATOM     15  C   UNL A   1      31.948  24.746  25.150  1.00  0.00     0.159 A 
ATOM     16  C   UNL A   1      32.902  23.761  24.962  1.00  0.00     0.055 A 
ATOM     17  C   UNL A   1      34.081  24.447  25.363  1.00  0.00     0.076 A 
ATOM     18  N   UNL A   1      33.812  25.572  26.064  1.00  0.00    -0.174 NA
BRANCH  11  19
ATOM     19  C   UNL A   1      31.574  25.662  22.275  1.00  0.00     0.038 A 
ATOM     20  C   UNL A   1      34.080  28.122  22.814  1.00  0.00     0.173 C 
ATOM     21  N   UNL A   1      32.971  27.376  22.254  1.00  0.00    -0.275 N 
ATOM     22  C   UNL A   1      32.916  26.010  22.166  1.00  0.00     0.118 A 
ATOM     23  N   UNL A   1      31.763  27.950  22.102  1.00  0.00    -0.181 NA
ATOM     24  C   UNL A   1      30.917  26.916  22.190  1.00  0.00     0.145 A 
ENDBRANCH  11  19
BRANCH  14  25
ATOM     25  C   UNL A   1      32.659  21.290  24.318  1.00  0.00     0.417 C 
ATOM     26  F   UNL A   1      31.799  20.799  25.242  1.00  0.00    -0.166 F 
ATOM     27  F   UNL A   1      32.444  20.547  23.192  1.00  0.00    -0.166 F 
ATOM     28  F   UNL A   1      33.901  20.928  24.750  1.00  0.00    -0.166 F 
ENDBRANCH  14  25
BRANCH  17  29
ATOM     29  C   UNL A   1      35.519  24.206  24.886  1.00  0.00     0.041 C 
ATOM     30  C   UNL A   1      36.248  22.888  24.963  1.00  0.00     0.011 C 
ATOM     31  C   UNL A   1      35.829  23.397  23.633  1.00  0.00     0.011 C 
ENDBRANCH  17  29
ENDBRANCH   9  10
ENDBRANCH   7   9
ENDBRANCH   6   7
ENDBRANCH   5   6
ENDBRANCH   4   5
ENDBRANCH   3   4
ENDBRANCH   2   3
ENDBRANCH   1   2
BRANCH   1  32
ATOM     32  O   UNL A   1      33.629  33.961  29.639  1.00  0.00    -0.376 OA
BRANCH  32  33
ATOM     33  C   UNL A   1      34.707  34.037  30.561  1.00  0.00     0.202 C 
BRANCH  33  34
ATOM     34  C   UNL A   1      34.799  32.936  31.617  1.00  0.00     0.261 C 
BRANCH  34  35
ATOM     35  O   UNL A   1      35.163  31.690  31.053  1.00  0.00    -0.460 OA
BRANCH  35  36
ATOM     36  C   UNL A   1      36.313  31.174  31.530  1.00  0.00     0.338 C 
ATOM     37  O   UNL A   1      36.699  31.186  32.681  1.00  0.00    -0.246 OA
BRANCH  36  38
ATOM     38  C   UNL A   1      37.046  30.587  30.399  1.00  0.00     0.060 A 
ATOM     39  C   UNL A   1      37.031  29.195  30.298  1.00  0.00     0.016 A 
ATOM     40  C   UNL A   1      38.054  31.375  29.845  1.00  0.00     0.016 A 
ATOM     41  C   UNL A   1      38.224  28.577  30.032  1.00  0.00     0.010 A 
ATOM     42  C   UNL A   1      39.257  30.767  29.653  1.00  0.00     0.010 A 
ATOM     43  C   UNL A   1      39.340  29.394  29.878  1.00  0.00    -0.014 A 
BRANCH  43  44
ATOM     44  C   UNL A   1      40.646  28.802  30.004  1.00  0.00     0.031 A 
ATOM     45  C   UNL A   1      41.178  28.928  31.369  1.00  0.00     0.074 A 
ATOM     46  C   UNL A   1      41.187  28.101  28.991  1.00  0.00     0.049 A 
ATOM     47  N   UNL A   1      42.051  29.781  31.793  1.00  0.00    -0.248 NA
ATOM     48  C   UNL A   1      40.452  28.219  32.438  1.00  0.00     0.031 C 
ATOM     49  C   UNL A   1      40.555  27.664  27.740  1.00  0.00     0.029 A 
ATOM     50  N   UNL A   1      42.411  27.525  28.923  1.00  0.00    -0.354 N 
ATOM     51  C   UNL A   1      42.150  29.517  33.153  1.00  0.00     0.074 A 
ATOM     52  C   UNL A   1      40.945  28.822  33.516  1.00  0.00     0.031 C 
ATOM     53  C   UNL A   1      41.316  26.698  27.172  1.00  0.00     0.029 A 
ATOM     54  C   UNL A   1      42.537  26.548  27.946  1.00  0.00     0.049 A 
ATOM     55  H   UNL A   1      43.151  27.778  29.520  1.00  0.00     0.167 HD
ATOM     56  C   UNL A   1      43.347  29.552  33.800  1.00  0.00     0.034 A 
ATOM     57  C   UNL A   1      43.528  25.622  27.888  1.00  0.00     0.034 A 
ATOM     58  C   UNL A   1      44.353  30.196  33.001  1.00  0.00     0.049 A 
ATOM     59  C   UNL A   1      44.626  26.088  28.778  1.00  0.00     0.074 A 
ATOM     60  C   UNL A   1      44.508  31.459  32.468  1.00  0.00     0.029 A 
ATOM     61  N   UNL A   1      45.211  29.374  32.309  1.00  0.00    -0.354 N 
ATOM     62  N   UNL A   1      45.364  27.136  28.539  1.00  0.00    -0.248 NA
ATOM     63  C   UNL A   1      44.582  25.661  30.171  1.00  0.00     0.031 C 
ATOM     64  C   UNL A   1      45.132  31.258  31.207  1.00  0.00     0.029 A 
ATOM     65  C   UNL A   1      45.385  29.893  31.052  1.00  0.00     0.049 A 
ATOM     66  H   UNL A   1      45.629  28.553  32.656  1.00  0.00     0.167 HD
ATOM     67  C   UNL A   1      45.513  27.749  29.776  1.00  0.00     0.074 A 
ATOM     68  C   UNL A   1      45.089  26.751  30.754  1.00  0.00     0.031 C 
ATOM     69  C   UNL A   1      45.673  29.101  29.873  1.00  0.00     0.034 A 
BRANCH  56  70
ATOM     70  C   UNL A   1      43.678  28.641  34.956  1.00  0.00     0.023 A 
ATOM     71  C   UNL A   1      43.625  27.236  34.866  1.00  0.00     0.031 A 
ATOM     72  C   UNL A   1      44.263  29.157  36.123  1.00  0.00     0.131 A 
ATOM     73  C   UNL A   1      44.070  26.406  35.896  1.00  0.00     0.055 A 
ATOM     74  C   UNL A   1      44.785  28.328  37.124  1.00  0.00     0.041 A 
ATOM     75  F   UNL A   1      44.395  30.481  36.299  1.00  0.00    -0.206 F 
ATOM     76  C   UNL A   1      44.682  26.945  37.020  1.00  0.00     0.022 A 
BRANCH  73  77
ATOM     77  S   UNL A   1      43.867  24.608  35.764  1.00  0.00     0.124 S 
ATOM     78  O   UNL A   1      43.936  24.196  37.161  1.00  0.00    -0.237 OA
ATOM     79  O   UNL A   1      42.554  24.506  35.134  1.00  0.00    -0.237 OA
ATOM     80  O   UNL A   1      44.988  24.198  34.923  1.00  0.00    -0.744 OA
ENDBRANCH  73  77
ENDBRANCH  56  70
BRANCH  57  81
ATOM     81  C   UNL A   1      43.378  24.186  27.545  1.00  0.00     0.023 A 
ATOM     82  C   UNL A   1      44.195  23.606  26.556  1.00  0.00     0.031 A 
ATOM     83  C   UNL A   1      42.235  23.467  27.936  1.00  0.00     0.131 A 
ATOM     84  C   UNL A   1      43.834  22.395  25.951  1.00  0.00     0.055 A 
ATOM     85  C   UNL A   1      41.882  22.249  27.341  1.00  0.00     0.041 A 
ATOM     86  F   UNL A   1      41.395  23.972  28.854  1.00  0.00    -0.206 F 
ATOM     87  C   UNL A   1      42.677  21.714  26.331  1.00  0.00     0.022 A 
BRANCH  84  88
ATOM     88  S   UNL A   1      44.842  21.721  24.602  1.00  0.00     0.124 S 
ATOM     89  O   UNL A   1      44.484  20.304  24.619  1.00  0.00    -0.237 OA
ATOM     90  O   UNL A   1      44.352  22.480  23.457  1.00  0.00    -0.237 OA
ATOM     91  O   UNL A   1      46.209  22.014  25.022  1.00  0.00    -0.744 OA
ENDBRANCH  84  88
ENDBRANCH  57  81
BRANCH  69  92
ATOM     92  C   UNL A   1      45.950  29.885  28.612  1.00  0.00     0.023 A 
ATOM     93  C   UNL A   1      47.287  30.231  28.369  1.00  0.00     0.031 A 
ATOM     94  C   UNL A   1      44.959  30.491  27.817  1.00  0.00     0.131 A 
ATOM     95  C   UNL A   1      47.601  31.190  27.403  1.00  0.00     0.055 A 
ATOM     96  C   UNL A   1      45.284  31.401  26.804  1.00  0.00     0.041 A 
ATOM     97  F   UNL A   1      43.656  30.295  28.052  1.00  0.00    -0.206 F 
ATOM     98  C   UNL A   1      46.610  31.770  26.606  1.00  0.00     0.022 A 
BRANCH  95  99
ATOM     99  S   UNL A   1      49.295  31.814  27.267  1.00  0.00     0.124 S 
ATOM    100  O   UNL A   1      49.082  33.216  26.922  1.00  0.00    -0.237 OA
ATOM    101  O   UNL A   1      49.818  31.571  28.610  1.00  0.00    -0.237 OA
ATOM    102  O   UNL A   1      49.890  30.997  26.215  1.00  0.00    -0.744 OA
ENDBRANCH  95  99
ENDBRANCH  69  92
ENDBRANCH  43  44
ENDBRANCH  36  38
ENDBRANCH  35  36
ENDBRANCH  34  35
ENDBRANCH  33  34
ENDBRANCH  32  33
ENDBRANCH   1  32
TORSDOF 24
ENDMDL
MODEL 3
REMARK VINA RESULT:      -8.9      5.151     10.114
REMARK SMILES Cn1cc(-c2cc(C(F)(F)F)c3c(C4CC4)nn(CC(=O)OCCOCCOCCOC(=O)c4ccc(-c5c6nc(c(-c7cc(S(=O)(=O)[O-])ccc7F)c7ccc([nH]7)c(-c7cc(S(=O)(=O)[O-])ccc7F)c7nc(c(-c8cc(S(=O)(=O)[O-])ccc8F)c8ccc5[nH]8)C=C7)C=C6)cc4)c3n2)cn1
REMARK SMILES IDX 27 1 26 2 25 3 24 4 23 5 22 6 20 7 21 8 19 9 18 10 5 11 6 12
REMARK SMILES IDX 98 13 7 14 97 15 12 16 13 17 17 18 4 19 1 20 2 21 3 22
REMARK SMILES IDX 100 23 99 24 8 25 9 26 10 27 11 28 14 29 15 30 16 31 28 32
REMARK SMILES IDX 29 33 30 34 31 35 32 36 33 37 34 38 35 39 96 40 36 41 95 42
REMARK SMILES IDX 37 43 38 44 39 45 89 46 40 47 94 48 88 49 90 50 41 51 93 52
REMARK SMILES IDX 87 53 86 54 42 56 74 57 54 58 73 59 55 60 58 61 72 62 91 63
REMARK SMILES IDX 56 64 57 65 71 67 92 68 59 69 43 70 44 71 52 72 45 73 51 74
REMARK SMILES IDX 53 75 50 76 46 77 47 78 48 79 49 80 75 81 76 82 84 83 77 84
REMARK SMILES IDX 83 85 85 86 82 87 78 88 79 89 80 90 81 91 60 92 61 93 69 94
REMARK SMILES IDX 62 95 68 96 70 97 67 98 63 99 64 100 65 101 66 102
REMARK H PARENT 90 55 58 66
REMARK Flexibility Score: inf
ROOT
ATOM      1  C   UNL A   1      33.650  34.590  28.548  1.00  0.00     0.188 C 
ENDROOT
BRANCH   1   2
ATOM      2  C   UNL A   1      35.052  34.065  28.224  1.00  0.00     0.188 C 
BRANCH   2   3
ATOM      3  O   UNL A   1      35.108  32.759  27.644  1.00  0.00    -0.376 OA
BRANCH   3   4
ATOM      4  C   UNL A   1      33.865  32.152  27.298  1.00  0.00     0.202 C 
BRANCH   4   5
ATOM      5  C   UNL A   1      33.599  30.744  27.869  1.00  0.00     0.261 C 
BRANCH   5   6
ATOM      6  O   UNL A   1      33.193  29.716  26.933  1.00  0.00    -0.462 OA
BRANCH   6   7
ATOM      7  C   UNL A   1      34.096  28.738  26.708  1.00  0.00     0.327 C 
ATOM      8  O   UNL A   1      35.302  28.870  26.934  1.00  0.00    -0.250 OA
BRANCH   7   9
ATOM      9  C   UNL A   1      33.611  27.487  26.055  1.00  0.00     0.269 C 
BRANCH   9  10
ATOM     10  N   UNL A   1      32.994  27.437  24.728  1.00  0.00    -0.236 N 
ATOM     11  C   UNL A   1      33.131  24.127  23.921  1.00  0.00     0.077 A 
ATOM     12  C   UNL A   1      32.615  24.093  22.628  1.00  0.00     0.043 A 
ATOM     13  N   UNL A   1      33.844  25.206  24.338  1.00  0.00    -0.228 NA
ATOM     14  C   UNL A   1      32.449  25.319  21.949  1.00  0.00     0.071 A 
ATOM     15  C   UNL A   1      33.216  26.330  23.934  1.00  0.00     0.159 A 
ATOM     16  C   UNL A   1      32.383  26.415  22.832  1.00  0.00     0.055 A 
ATOM     17  C   UNL A   1      31.391  27.313  23.314  1.00  0.00     0.076 A 
ATOM     18  N   UNL A   1      31.788  27.977  24.424  1.00  0.00    -0.174 NA
BRANCH  11  19
ATOM     19  C   UNL A   1      32.314  23.654  25.060  1.00  0.00     0.038 A 
ATOM     20  C   UNL A   1      29.412  25.055  26.553  1.00  0.00     0.173 C 
ATOM     21  N   UNL A   1      30.552  24.205  26.276  1.00  0.00    -0.275 N 
ATOM     22  C   UNL A   1      30.931  23.793  25.025  1.00  0.00     0.118 A 
ATOM     23  N   UNL A   1      31.529  24.045  27.188  1.00  0.00    -0.181 NA
ATOM     24  C   UNL A   1      32.610  23.785  26.441  1.00  0.00     0.145 A 
ENDBRANCH  11  19
BRANCH  14  25
ATOM     25  C   UNL A   1      32.626  25.458  20.465  1.00  0.00     0.417 C 
ATOM     26  F   UNL A   1      33.514  26.397  20.060  1.00  0.00    -0.166 F 
ATOM     27  F   UNL A   1      33.052  24.289  19.901  1.00  0.00    -0.166 F 
ATOM     28  F   UNL A   1      31.461  25.758  19.821  1.00  0.00    -0.166 F 
ENDBRANCH  14  25
BRANCH  17  29
ATOM     29  C   UNL A   1      29.918  27.403  22.893  1.00  0.00     0.041 C 
ATOM     30  C   UNL A   1      28.745  27.412  23.840  1.00  0.00     0.011 C 
ATOM     31  C   UNL A   1      29.090  28.661  23.116  1.00  0.00     0.011 C 
ENDBRANCH  17  29
ENDBRANCH   9  10
ENDBRANCH   7   9
ENDBRANCH   6   7
ENDBRANCH   5   6
ENDBRANCH   4   5
ENDBRANCH   3   4
ENDBRANCH   2   3
ENDBRANCH   1   2
BRANCH   1  32
ATOM     32  O   UNL A   1      33.368  34.502  29.942  1.00  0.00    -0.376 OA
BRANCH  32  33
ATOM     33  C   UNL A   1      34.413  34.425  30.902  1.00  0.00     0.202 C 
BRANCH  33  34
ATOM     34  C   UNL A   1      34.471  33.166  31.767  1.00  0.00     0.261 C 
BRANCH  34  35
ATOM     35  O   UNL A   1      34.862  32.028  31.022  1.00  0.00    -0.460 OA
BRANCH  35  36
ATOM     36  C   UNL A   1      35.959  31.401  31.492  1.00  0.00     0.338 C 
ATOM     37  O   UNL A   1      36.333  31.346  32.645  1.00  0.00    -0.246 OA
BRANCH  36  38
ATOM     38  C   UNL A   1      36.649  30.787  30.348  1.00  0.00     0.060 A 
ATOM     39  C   UNL A   1      36.639  29.393  30.286  1.00  0.00     0.016 A 
ATOM     40  C   UNL A   1      37.629  31.564  29.732  1.00  0.00     0.016 A 
ATOM     41  C   UNL A   1      37.824  28.773  29.989  1.00  0.00     0.010 A 
ATOM     42  C   UNL A   1      38.827  30.958  29.508  1.00  0.00     0.010 A 
ATOM     43  C   UNL A   1      38.928  29.592  29.767  1.00  0.00    -0.014 A 
BRANCH  43  44
ATOM     44  C   UNL A   1      40.242  29.011  29.857  1.00  0.00     0.031 A 
ATOM     45  C   UNL A   1      40.802  29.122  31.212  1.00  0.00     0.074 A 
ATOM     46  C   UNL A   1      40.767  28.329  28.822  1.00  0.00     0.049 A 
ATOM     47  N   UNL A   1      41.677  29.978  31.628  1.00  0.00    -0.248 NA
ATOM     48  C   UNL A   1      40.106  28.392  32.285  1.00  0.00     0.031 C 
ATOM     49  C   UNL A   1      40.111  27.905  27.579  1.00  0.00     0.029 A 
ATOM     50  N   UNL A   1      41.994  27.766  28.719  1.00  0.00    -0.354 N 
ATOM     51  C   UNL A   1      41.808  29.696  32.982  1.00  0.00     0.074 A 
ATOM     52  C   UNL A   1      40.617  28.984  33.361  1.00  0.00     0.031 C 
ATOM     53  C   UNL A   1      40.869  26.954  26.981  1.00  0.00     0.029 A 
ATOM     54  C   UNL A   1      42.108  26.805  27.726  1.00  0.00     0.049 A 
ATOM     55  H   UNL A   1      42.745  28.018  29.303  1.00  0.00     0.167 HD
ATOM     56  C   UNL A   1      43.018  29.732  33.604  1.00  0.00     0.034 A 
ATOM     57  C   UNL A   1      43.106  25.889  27.633  1.00  0.00     0.034 A 
ATOM     58  C   UNL A   1      44.001  30.398  32.792  1.00  0.00     0.049 A 
ATOM     59  C   UNL A   1      44.218  26.352  28.506  1.00  0.00     0.074 A 
ATOM     60  C   UNL A   1      44.132  31.669  32.274  1.00  0.00     0.029 A 
ATOM     61  N   UNL A   1      44.851  29.593  32.070  1.00  0.00    -0.354 N 
ATOM     62  N   UNL A   1      44.941  27.410  28.266  1.00  0.00    -0.248 NA
ATOM     63  C   UNL A   1      44.209  25.905  29.893  1.00  0.00     0.031 C 
ATOM     64  C   UNL A   1      44.730  31.492  30.997  1.00  0.00     0.029 A 
ATOM     65  C   UNL A   1      44.992  30.131  30.817  1.00  0.00     0.049 A 
ATOM     66  H   UNL A   1      45.283  28.771  32.396  1.00  0.00     0.167 HD
ATOM     67  C   UNL A   1      45.112  28.008  29.508  1.00  0.00     0.074 A 
ATOM     68  C   UNL A   1      44.718  26.991  30.480  1.00  0.00     0.031 C 
ATOM     69  C   UNL A   1      45.261  29.359  29.621  1.00  0.00     0.034 A 
BRANCH  56  70
ATOM     70  C   UNL A   1      43.382  28.809  34.739  1.00  0.00     0.023 A 
ATOM     71  C   UNL A   1      43.688  27.446  34.551  1.00  0.00     0.031 A 
ATOM     72  C   UNL A   1      43.640  29.323  36.019  1.00  0.00     0.131 A 
ATOM     73  C   UNL A   1      44.162  26.640  35.588  1.00  0.00     0.055 A 
ATOM     74  C   UNL A   1      44.191  28.539  37.041  1.00  0.00     0.041 A 
ATOM     75  F   UNL A   1      43.416  30.616  36.299  1.00  0.00    -0.206 F 
ATOM     76  C   UNL A   1      44.446  27.187  36.832  1.00  0.00     0.022 A 
BRANCH  73  77
ATOM     77  S   UNL A   1      44.426  24.867  35.309  1.00  0.00     0.124 S 
ATOM     78  O   UNL A   1      43.745  24.659  34.036  1.00  0.00    -0.237 OA
ATOM     79  O   UNL A   1      45.883  24.789  35.273  1.00  0.00    -0.237 OA
ATOM     80  O   UNL A   1      43.804  24.241  36.472  1.00  0.00    -0.744 OA
ENDBRANCH  73  77
ENDBRANCH  56  70
BRANCH  57  81
ATOM     81  C   UNL A   1      42.961  24.456  27.272  1.00  0.00     0.023 A 
ATOM     82  C   UNL A   1      43.856  23.863  26.362  1.00  0.00     0.031 A 
ATOM     83  C   UNL A   1      41.774  23.758  27.554  1.00  0.00     0.131 A 
ATOM     84  C   UNL A   1      43.531  22.659  25.722  1.00  0.00     0.055 A 
ATOM     85  C   UNL A   1      41.455  22.548  26.925  1.00  0.00     0.041 A 
ATOM     86  F   UNL A   1      40.862  24.278  28.391  1.00  0.00    -0.206 F 
ATOM     87  C   UNL A   1      42.331  22.000  25.991  1.00  0.00     0.022 A 
BRANCH  84  88
ATOM     88  S   UNL A   1      44.646  21.969  24.470  1.00  0.00     0.124 S 
ATOM     89  O   UNL A   1      44.581  20.535  24.747  1.00  0.00    -0.237 OA
ATOM     90  O   UNL A   1      44.008  22.401  23.232  1.00  0.00    -0.237 OA
ATOM     91  O   UNL A   1      45.929  22.595  24.778  1.00  0.00    -0.744 OA
ENDBRANCH  84  88
ENDBRANCH  57  81
BRANCH  69  92
ATOM     92  C   UNL A   1      45.503  30.164  28.366  1.00  0.00     0.023 A 
ATOM     93  C   UNL A   1      46.798  30.675  28.187  1.00  0.00     0.031 A 
ATOM     94  C   UNL A   1      44.488  30.634  27.512  1.00  0.00     0.131 A 
ATOM     95  C   UNL A   1      47.039  31.660  27.227  1.00  0.00     0.055 A 
ATOM     96  C   UNL A   1      44.748  31.571  26.505  1.00  0.00     0.041 A 
ATOM     97  F   UNL A   1      43.210  30.275  27.682  1.00  0.00    -0.206 F 
ATOM     98  C   UNL A   1      46.026  32.103  26.371  1.00  0.00     0.022 A 
BRANCH  95  99
ATOM     99  S   UNL A   1      48.644  32.492  27.170  1.00  0.00     0.124 S 
ATOM    100  O   UNL A   1      49.012  32.555  28.582  1.00  0.00    -0.237 OA
ATOM    101  O   UNL A   1      49.437  31.573  26.357  1.00  0.00    -0.237 OA
ATOM    102  O   UNL A   1      48.356  33.779  26.545  1.00  0.00    -0.744 OA
ENDBRANCH  95  99
ENDBRANCH  69  92
ENDBRANCH  43  44
ENDBRANCH  36  38
ENDBRANCH  35  36
ENDBRANCH  34  35
ENDBRANCH  33  34
ENDBRANCH  32  33
ENDBRANCH   1  32
TORSDOF 24
ENDMDL
