MODEL 1
REMARK VINA RESULT:      -9.7      0.000      0.000
REMARK SMILES O=C(CC[C@H]1CCCC[N@H+]1C[C@@H]1COc2ccccc21)OCCOCCOCCOC(=O)c1ccc(-c2c3nc(c(-c4cc(S(=O)(=O)[O-])ccc4F)c4ccc([nH]4)c(-c4cc(S(=O)(=O)[O-])ccc4F)c4nc(c(-c5cc(S(=O)(=O)[O-])ccc5F)c5ccc2[nH]5)C=C4)C=C3)cc1
REMARK SMILES IDX 25 1 24 2 23 3 22 4 21 5 2 6 1 7 3 8 4 9 5 10 6 11 10 12
REMARK SMILES IDX 7 13 9 14 8 16 11 17 12 18 13 19 20 20 14 21 15 22 19 23
REMARK SMILES IDX 16 24 18 25 17 26 26 27 27 28 28 29 29 30 30 31 31 32 32 33
REMARK SMILES IDX 33 34 34 35 95 36 35 37 94 38 36 39 37 40 38 41 88 42 39 43
REMARK SMILES IDX 93 44 87 45 89 46 40 47 92 48 86 49 85 50 41 52 73 53 53 54
REMARK SMILES IDX 72 55 54 56 57 57 71 58 90 59 55 60 56 61 70 63 91 64 58 65
REMARK SMILES IDX 42 66 43 67 51 68 44 69 50 70 52 71 49 72 45 73 46 74 47 75
REMARK SMILES IDX 48 76 74 77 75 78 83 79 76 80 82 81 84 82 81 83 77 84 78 85
REMARK SMILES IDX 79 86 80 87 59 88 60 89 68 90 61 91 67 92 69 93 66 94 62 95
REMARK SMILES IDX 63 96 64 97 65 98
REMARK H PARENT 10 15 89 51 57 62
REMARK Flexibility Score: inf
ROOT
ATOM      1  C   UNL A   1      33.032  27.629  26.158  1.00  0.00     0.188 C 
ENDROOT
BRANCH   1   2
ATOM      2  O   UNL A   1      33.116  26.624  25.161  1.00  0.00    -0.376 OA
BRANCH   2   3
ATOM      3  C   UNL A   1      31.934  26.101  24.553  1.00  0.00     0.202 C 
BRANCH   3   4
ATOM      4  C   UNL A   1      31.977  25.407  23.169  1.00  0.00     0.261 C 
BRANCH   4   5
ATOM      5  O   UNL A   1      33.163  24.601  23.052  1.00  0.00    -0.463 OA
BRANCH   5   6
ATOM      6  C   UNL A   1      33.233  23.409  22.399  1.00  0.00     0.306 C 
ATOM      7  O   UNL A   1      33.437  23.271  21.205  1.00  0.00    -0.252 OA
BRANCH   6   8
ATOM      8  C   UNL A   1      32.979  22.308  23.412  1.00  0.00     0.129 C 
BRANCH   8   9
ATOM      9  C   UNL A   1      32.842  20.830  23.021  1.00  0.00     0.077 C 
BRANCH   9  10
ATOM     10  C   UNL A   1      32.205  19.824  24.022  1.00  0.00     0.184 C 
ATOM     11  C   UNL A   1      31.894  18.483  23.301  1.00  0.00     0.065 C 
ATOM     12  N   UNL A   1      32.990  19.552  25.199  1.00  0.00    -0.332 N 
ATOM     13  C   UNL A   1      33.154  17.874  22.715  1.00  0.00     0.012 C 
ATOM     14  C   UNL A   1      33.964  18.475  25.112  1.00  0.00     0.262 C 
ATOM     15  H   UNL A   1      32.019  19.458  25.499  1.00  0.00     0.348 HD
ATOM     16  C   UNL A   1      34.217  17.724  23.785  1.00  0.00     0.062 C 
BRANCH  12  17
ATOM     17  C   UNL A   1      33.074  20.393  26.411  1.00  0.00     0.274 C 
BRANCH  17  18
ATOM     18  C   UNL A   1      34.251  21.261  26.999  1.00  0.00     0.116 C 
ATOM     19  C   UNL A   1      33.772  22.554  27.663  1.00  0.00     0.244 C 
ATOM     20  C   UNL A   1      35.334  21.851  26.158  1.00  0.00     0.006 A 
ATOM     21  O   UNL A   1      34.053  23.665  26.783  1.00  0.00    -0.492 OA
ATOM     22  C   UNL A   1      35.113  23.214  26.038  1.00  0.00     0.123 A 
ATOM     23  C   UNL A   1      36.436  21.284  25.528  1.00  0.00     0.008 A 
ATOM     24  C   UNL A   1      35.854  24.014  25.187  1.00  0.00     0.047 A 
ATOM     25  C   UNL A   1      37.183  22.063  24.634  1.00  0.00     0.001 A 
ATOM     26  C   UNL A   1      36.874  23.418  24.445  1.00  0.00     0.004 A 
ENDBRANCH  17  18
ENDBRANCH  12  17
ENDBRANCH   9  10
ENDBRANCH   8   9
ENDBRANCH   6   8
ENDBRANCH   5   6
ENDBRANCH   4   5
ENDBRANCH   3   4
ENDBRANCH   2   3
ENDBRANCH   1   2
BRANCH   1  27
ATOM     27  C   UNL A   1      32.746  29.057  25.690  1.00  0.00     0.188 C 
BRANCH  27  28
ATOM     28  O   UNL A   1      32.712  30.132  26.616  1.00  0.00    -0.376 OA
BRANCH  28  29
ATOM     29  C   UNL A   1      31.666  31.083  26.560  1.00  0.00     0.202 C 
BRANCH  29  30
ATOM     30  C   UNL A   1      32.048  32.568  26.708  1.00  0.00     0.261 C 
BRANCH  30  31
ATOM     31  O   UNL A   1      32.424  33.016  28.020  1.00  0.00    -0.460 OA
BRANCH  31  32
ATOM     32  C   UNL A   1      33.528  33.800  28.060  1.00  0.00     0.338 C 
ATOM     33  O   UNL A   1      33.565  35.011  27.970  1.00  0.00    -0.246 OA
BRANCH  32  34
ATOM     34  C   UNL A   1      34.726  32.967  28.314  1.00  0.00     0.060 A 
ATOM     35  C   UNL A   1      34.550  31.732  28.947  1.00  0.00     0.016 A 
ATOM     36  C   UNL A   1      36.012  33.462  28.082  1.00  0.00     0.016 A 
ATOM     37  C   UNL A   1      35.656  31.024  29.418  1.00  0.00     0.010 A 
ATOM     38  C   UNL A   1      37.122  32.759  28.575  1.00  0.00     0.010 A 
ATOM     39  C   UNL A   1      36.944  31.566  29.297  1.00  0.00    -0.014 A 
BRANCH  39  40
ATOM     40  C   UNL A   1      38.035  30.994  30.135  1.00  0.00     0.031 A 
ATOM     41  C   UNL A   1      38.949  29.959  29.522  1.00  0.00     0.074 A 
ATOM     42  C   UNL A   1      38.281  31.454  31.376  1.00  0.00     0.049 A 
ATOM     43  N   UNL A   1      39.989  29.354  30.037  1.00  0.00    -0.248 NA
ATOM     44  C   UNL A   1      38.650  29.562  28.138  1.00  0.00     0.031 C 
ATOM     45  C   UNL A   1      37.512  32.492  32.059  1.00  0.00     0.029 A 
ATOM     46  N   UNL A   1      39.258  31.108  32.279  1.00  0.00    -0.354 N 
ATOM     47  C   UNL A   1      40.479  28.520  29.036  1.00  0.00     0.074 A 
ATOM     48  C   UNL A   1      39.585  28.655  27.905  1.00  0.00     0.031 C 
ATOM     49  C   UNL A   1      38.042  32.692  33.279  1.00  0.00     0.029 A 
ATOM     50  C   UNL A   1      39.167  31.779  33.476  1.00  0.00     0.049 A 
ATOM     51  H   UNL A   1      39.958  30.443  32.086  1.00  0.00     0.167 HD
ATOM     52  C   UNL A   1      41.581  27.728  29.047  1.00  0.00     0.034 A 
ATOM     53  C   UNL A   1      39.896  31.656  34.606  1.00  0.00     0.034 A 
ATOM     54  C   UNL A   1      42.455  27.578  30.186  1.00  0.00     0.049 A 
ATOM     55  C   UNL A   1      41.059  30.688  34.631  1.00  0.00     0.074 A 
ATOM     56  C   UNL A   1      43.584  26.787  30.311  1.00  0.00     0.029 A 
ATOM     57  N   UNL A   1      42.294  28.227  31.403  1.00  0.00    -0.354 N 
ATOM     58  N   UNL A   1      41.509  29.903  33.678  1.00  0.00    -0.248 NA
ATOM     59  C   UNL A   1      41.824  30.605  35.883  1.00  0.00     0.031 C 
ATOM     60  C   UNL A   1      44.059  26.899  31.621  1.00  0.00     0.029 A 
ATOM     61  C   UNL A   1      43.284  27.831  32.291  1.00  0.00     0.049 A 
ATOM     62  H   UNL A   1      41.580  28.875  31.608  1.00  0.00     0.167 HD
ATOM     63  C   UNL A   1      42.628  29.260  34.208  1.00  0.00     0.074 A 
ATOM     64  C   UNL A   1      42.798  29.772  35.551  1.00  0.00     0.031 C 
ATOM     65  C   UNL A   1      43.441  28.333  33.637  1.00  0.00     0.034 A 
BRANCH  52  66
ATOM     66  C   UNL A   1      41.875  26.930  27.797  1.00  0.00     0.023 A 
ATOM     67  C   UNL A   1      41.671  25.539  27.743  1.00  0.00     0.031 A 
ATOM     68  C   UNL A   1      42.382  27.563  26.649  1.00  0.00     0.131 A 
ATOM     69  C   UNL A   1      42.034  24.822  26.591  1.00  0.00     0.055 A 
ATOM     70  C   UNL A   1      42.663  26.856  25.478  1.00  0.00     0.041 A 
ATOM     71  F   UNL A   1      42.620  28.885  26.647  1.00  0.00    -0.206 F 
ATOM     72  C   UNL A   1      42.502  25.474  25.449  1.00  0.00     0.022 A 
BRANCH  69  73
ATOM     73  S   UNL A   1      42.014  23.009  26.655  1.00  0.00     0.124 S 
ATOM     74  O   UNL A   1      40.813  22.755  27.446  1.00  0.00    -0.237 OA
ATOM     75  O   UNL A   1      41.942  22.643  25.245  1.00  0.00    -0.237 OA
ATOM     76  O   UNL A   1      43.272  22.676  27.322  1.00  0.00    -0.744 OA
ENDBRANCH  69  73
ENDBRANCH  52  66
BRANCH  53  77
ATOM     77  C   UNL A   1      39.526  32.423  35.834  1.00  0.00     0.023 A 
ATOM     78  C   UNL A   1      38.676  31.882  36.813  1.00  0.00     0.031 A 
ATOM     79  C   UNL A   1      39.955  33.752  35.999  1.00  0.00     0.131 A 
ATOM     80  C   UNL A   1      38.236  32.686  37.879  1.00  0.00     0.055 A 
ATOM     81  C   UNL A   1      39.568  34.525  37.095  1.00  0.00     0.041 A 
ATOM     82  F   UNL A   1      40.759  34.325  35.089  1.00  0.00    -0.206 F 
ATOM     83  C   UNL A   1      38.689  33.997  38.035  1.00  0.00     0.022 A 
BRANCH  80  84
ATOM     84  S   UNL A   1      36.966  32.030  38.997  1.00  0.00     0.124 S 
ATOM     85  O   UNL A   1      37.499  32.403  40.302  1.00  0.00    -0.237 OA
ATOM     86  O   UNL A   1      35.775  32.752  38.560  1.00  0.00    -0.237 OA
ATOM     87  O   UNL A   1      36.965  30.597  38.708  1.00  0.00    -0.744 OA
ENDBRANCH  80  84
ENDBRANCH  53  77
BRANCH  65  88
ATOM     88  C   UNL A   1      44.616  27.849  34.458  1.00  0.00     0.023 A 
ATOM     89  C   UNL A   1      44.521  26.728  35.302  1.00  0.00     0.031 A 
ATOM     90  C   UNL A   1      45.842  28.541  34.423  1.00  0.00     0.131 A 
ATOM     91  C   UNL A   1      45.596  26.383  36.135  1.00  0.00     0.055 A 
ATOM     92  C   UNL A   1      46.934  28.146  35.198  1.00  0.00     0.041 A 
ATOM     93  F   UNL A   1      45.997  29.619  33.640  1.00  0.00    -0.206 F 
ATOM     94  C   UNL A   1      46.809  27.074  36.076  1.00  0.00     0.022 A 
BRANCH  91  95
ATOM     95  S   UNL A   1      45.342  25.106  37.399  1.00  0.00     0.124 S 
ATOM     96  O   UNL A   1      45.906  25.739  38.587  1.00  0.00    -0.237 OA
ATOM     97  O   UNL A   1      43.893  24.942  37.390  1.00  0.00    -0.237 OA
ATOM     98  O   UNL A   1      46.097  23.962  36.888  1.00  0.00    -0.744 OA
ENDBRANCH  91  95
ENDBRANCH  65  88
ENDBRANCH  39  40
ENDBRANCH  32  34
ENDBRANCH  31  32
ENDBRANCH  30  31
ENDBRANCH  29  30
ENDBRANCH  28  29
ENDBRANCH  27  28
ENDBRANCH   1  27
TORSDOF 24
ENDMDL
MODEL 2
REMARK VINA RESULT:      -9.1      5.869     11.015
REMARK SMILES O=C(CC[C@H]1CCCC[N@H+]1C[C@@H]1COc2ccccc21)OCCOCCOCCOC(=O)c1ccc(-c2c3nc(c(-c4cc(S(=O)(=O)[O-])ccc4F)c4ccc([nH]4)c(-c4cc(S(=O)(=O)[O-])ccc4F)c4nc(c(-c5cc(S(=O)(=O)[O-])ccc5F)c5ccc2[nH]5)C=C4)C=C3)cc1
REMARK SMILES IDX 25 1 24 2 23 3 22 4 21 5 2 6 1 7 3 8 4 9 5 10 6 11 10 12
REMARK SMILES IDX 7 13 9 14 8 16 11 17 12 18 13 19 20 20 14 21 15 22 19 23
REMARK SMILES IDX 16 24 18 25 17 26 26 27 27 28 28 29 29 30 30 31 31 32 32 33
REMARK SMILES IDX 33 34 34 35 95 36 35 37 94 38 36 39 37 40 38 41 88 42 39 43
REMARK SMILES IDX 93 44 87 45 89 46 40 47 92 48 86 49 85 50 41 52 73 53 53 54
REMARK SMILES IDX 72 55 54 56 57 57 71 58 90 59 55 60 56 61 70 63 91 64 58 65
REMARK SMILES IDX 42 66 43 67 51 68 44 69 50 70 52 71 49 72 45 73 46 74 47 75
REMARK SMILES IDX 48 76 74 77 75 78 83 79 76 80 82 81 84 82 81 83 77 84 78 85
REMARK SMILES IDX 79 86 80 87 59 88 60 89 68 90 61 91 67 92 69 93 66 94 62 95
REMARK SMILES IDX 63 96 64 97 65 98
REMARK H PARENT 10 15 89 51 57 62
REMARK Flexibility Score: inf
ROOT
ATOM      1  C   UNL A   1      36.030  23.644  25.040  1.00  0.00     0.188 C 
ENDROOT
BRANCH   1   2
ATOM      2  O   UNL A   1      35.799  22.912  23.847  1.00  0.00    -0.376 OA
BRANCH   2   3
ATOM      3  C   UNL A   1      34.582  23.074  23.117  1.00  0.00     0.202 C 
BRANCH   3   4
ATOM      4  C   UNL A   1      33.872  24.448  23.026  1.00  0.00     0.261 C 
BRANCH   4   5
ATOM      5  O   UNL A   1      33.692  24.825  21.650  1.00  0.00    -0.463 OA
BRANCH   5   6
ATOM      6  C   UNL A   1      32.835  25.787  21.212  1.00  0.00     0.306 C 
ATOM      7  O   UNL A   1      32.497  25.955  20.054  1.00  0.00    -0.252 OA
BRANCH   6   8
ATOM      8  C   UNL A   1      32.416  26.617  22.413  1.00  0.00     0.129 C 
BRANCH   8   9
ATOM      9  C   UNL A   1      31.417  27.778  22.316  1.00  0.00     0.077 C 
BRANCH   9  10
ATOM     10  C   UNL A   1      30.655  28.247  23.588  1.00  0.00     0.184 C 
ATOM     11  C   UNL A   1      30.284  29.751  23.461  1.00  0.00     0.065 C 
ATOM     12  N   UNL A   1      29.465  27.496  23.900  1.00  0.00    -0.332 N 
ATOM     13  C   UNL A   1      29.418  29.998  22.241  1.00  0.00     0.012 C 
ATOM     14  C   UNL A   1      28.222  27.939  23.287  1.00  0.00     0.262 C 
ATOM     15  H   UNL A   1      29.830  27.803  24.802  1.00  0.00     0.348 HD
ATOM     16  C   UNL A   1      28.196  29.100  22.268  1.00  0.00     0.062 C 
BRANCH  12  17
ATOM     17  C   UNL A   1      29.407  26.192  24.592  1.00  0.00     0.274 C 
BRANCH  17  18
ATOM     18  C   UNL A   1      29.966  25.727  25.991  1.00  0.00     0.116 C 
ATOM     19  C   UNL A   1      31.022  26.676  26.563  1.00  0.00     0.244 C 
ATOM     20  C   UNL A   1      30.707  24.448  26.193  1.00  0.00     0.006 A 
ATOM     21  O   UNL A   1      32.327  26.078  26.400  1.00  0.00    -0.492 OA
ATOM     22  C   UNL A   1      32.053  24.734  26.361  1.00  0.00     0.123 A 
ATOM     23  C   UNL A   1      30.285  23.124  26.233  1.00  0.00     0.008 A 
ATOM     24  C   UNL A   1      33.021  23.748  26.409  1.00  0.00     0.047 A 
ATOM     25  C   UNL A   1      31.247  22.105  26.246  1.00  0.00     0.001 A 
ATOM     26  C   UNL A   1      32.612  22.418  26.307  1.00  0.00     0.004 A 
ENDBRANCH  17  18
ENDBRANCH  12  17
ENDBRANCH   9  10
ENDBRANCH   8   9
ENDBRANCH   6   8
ENDBRANCH   5   6
ENDBRANCH   4   5
ENDBRANCH   3   4
ENDBRANCH   2   3
ENDBRANCH   1   2
BRANCH   1  27
ATOM     27  C   UNL A   1      37.486  23.847  25.464  1.00  0.00     0.188 C 
BRANCH  27  28
ATOM     28  O   UNL A   1      38.081  23.010  26.445  1.00  0.00    -0.376 OA
BRANCH  28  29
ATOM     29  C   UNL A   1      39.485  22.836  26.472  1.00  0.00     0.202 C 
BRANCH  29  30
ATOM     30  C   UNL A   1      40.022  21.486  26.985  1.00  0.00     0.261 C 
BRANCH  30  31
ATOM     31  O   UNL A   1      40.383  20.510  25.996  1.00  0.00    -0.460 OA
BRANCH  31  32
ATOM     32  C   UNL A   1      41.635  20.008  26.120  1.00  0.00     0.338 C 
ATOM     33  O   UNL A   1      41.956  18.837  26.085  1.00  0.00    -0.246 OA
BRANCH  32  34
ATOM     34  C   UNL A   1      42.611  21.116  26.235  1.00  0.00     0.060 A 
ATOM     35  C   UNL A   1      43.014  21.512  27.513  1.00  0.00     0.016 A 
ATOM     36  C   UNL A   1      42.996  21.857  25.114  1.00  0.00     0.016 A 
ATOM     37  C   UNL A   1      43.739  22.692  27.684  1.00  0.00     0.010 A 
ATOM     38  C   UNL A   1      43.707  23.054  25.290  1.00  0.00     0.010 A 
ATOM     39  C   UNL A   1      44.030  23.507  26.581  1.00  0.00    -0.014 A 
BRANCH  39  40
ATOM     40  C   UNL A   1      44.447  24.915  26.829  1.00  0.00     0.031 A 
ATOM     41  C   UNL A   1      43.424  25.887  27.367  1.00  0.00     0.074 A 
ATOM     42  C   UNL A   1      45.727  25.304  26.681  1.00  0.00     0.049 A 
ATOM     43  N   UNL A   1      43.561  27.146  27.699  1.00  0.00    -0.248 NA
ATOM     44  C   UNL A   1      42.064  25.362  27.561  1.00  0.00     0.031 C 
ATOM     45  C   UNL A   1      46.822  24.448  26.228  1.00  0.00     0.029 A 
ATOM     46  N   UNL A   1      46.322  26.522  26.908  1.00  0.00    -0.354 N 
ATOM     47  C   UNL A   1      42.313  27.557  28.159  1.00  0.00     0.074 A 
ATOM     48  C   UNL A   1      41.419  26.429  28.006  1.00  0.00     0.031 C 
ATOM     49  C   UNL A   1      47.956  25.172  26.202  1.00  0.00     0.029 A 
ATOM     50  C   UNL A   1      47.664  26.547  26.607  1.00  0.00     0.049 A 
ATOM     51  H   UNL A   1      45.833  27.303  27.255  1.00  0.00     0.167 HD
ATOM     52  C   UNL A   1      41.948  28.756  28.679  1.00  0.00     0.034 A 
ATOM     53  C   UNL A   1      48.549  27.566  26.635  1.00  0.00     0.034 A 
ATOM     54  C   UNL A   1      42.838  29.885  28.807  1.00  0.00     0.049 A 
ATOM     55  C   UNL A   1      48.093  28.925  27.121  1.00  0.00     0.074 A 
ATOM     56  C   UNL A   1      42.564  31.150  29.299  1.00  0.00     0.029 A 
ATOM     57  N   UNL A   1      44.175  29.891  28.432  1.00  0.00    -0.354 N 
ATOM     58  N   UNL A   1      46.908  29.300  27.550  1.00  0.00    -0.248 NA
ATOM     59  C   UNL A   1      49.101  29.993  27.143  1.00  0.00     0.031 C 
ATOM     60  C   UNL A   1      43.710  31.939  29.152  1.00  0.00     0.029 A 
ATOM     61  C   UNL A   1      44.729  31.144  28.653  1.00  0.00     0.049 A 
ATOM     62  H   UNL A   1      44.661  29.118  28.061  1.00  0.00     0.167 HD
ATOM     63  C   UNL A   1      47.043  30.638  27.922  1.00  0.00     0.074 A 
ATOM     64  C   UNL A   1      48.428  30.991  27.694  1.00  0.00     0.031 C 
ATOM     65  C   UNL A   1      46.109  31.496  28.409  1.00  0.00     0.034 A 
BRANCH  52  66
ATOM     66  C   UNL A   1      40.507  28.916  29.109  1.00  0.00     0.023 A 
ATOM     67  C   UNL A   1      40.126  28.841  30.461  1.00  0.00     0.031 A 
ATOM     68  C   UNL A   1      39.497  29.130  28.154  1.00  0.00     0.131 A 
ATOM     69  C   UNL A   1      38.769  28.913  30.813  1.00  0.00     0.055 A 
ATOM     70  C   UNL A   1      38.157  29.283  28.519  1.00  0.00     0.041 A 
ATOM     71  F   UNL A   1      39.794  29.188  26.846  1.00  0.00    -0.206 F 
ATOM     72  C   UNL A   1      37.785  29.161  29.854  1.00  0.00     0.022 A 
BRANCH  69  73
ATOM     73  S   UNL A   1      38.293  28.539  32.523  1.00  0.00     0.124 S 
ATOM     74  O   UNL A   1      39.353  29.207  33.275  1.00  0.00    -0.237 OA
ATOM     75  O   UNL A   1      36.965  29.135  32.620  1.00  0.00    -0.237 OA
ATOM     76  O   UNL A   1      38.326  27.079  32.577  1.00  0.00    -0.744 OA
ENDBRANCH  69  73
ENDBRANCH  52  66
BRANCH  53  77
ATOM     77  C   UNL A   1      49.946  27.371  26.142  1.00  0.00     0.023 A 
ATOM     78  C   UNL A   1      50.283  27.550  24.790  1.00  0.00     0.031 A 
ATOM     79  C   UNL A   1      50.951  26.914  27.013  1.00  0.00     0.131 A 
ATOM     80  C   UNL A   1      51.571  27.217  24.339  1.00  0.00     0.055 A 
ATOM     81  C   UNL A   1      52.249  26.648  26.573  1.00  0.00     0.041 A 
ATOM     82  F   UNL A   1      50.684  26.713  28.314  1.00  0.00    -0.206 F 
ATOM     83  C   UNL A   1      52.560  26.784  25.224  1.00  0.00     0.022 A 
BRANCH  80  84
ATOM     84  S   UNL A   1      51.904  27.246  22.556  1.00  0.00     0.124 S 
ATOM     85  O   UNL A   1      52.362  28.617  22.362  1.00  0.00    -0.237 OA
ATOM     86  O   UNL A   1      52.919  26.206  22.420  1.00  0.00    -0.237 OA
ATOM     87  O   UNL A   1      50.607  26.930  21.962  1.00  0.00    -0.744 OA
ENDBRANCH  80  84
ENDBRANCH  53  77
BRANCH  65  88
ATOM     88  C   UNL A   1      46.574  32.890  28.768  1.00  0.00     0.023 A 
ATOM     89  C   UNL A   1      46.564  33.941  27.832  1.00  0.00     0.031 A 
ATOM     90  C   UNL A   1      47.069  33.165  30.056  1.00  0.00     0.131 A 
ATOM     91  C   UNL A   1      47.115  35.186  28.169  1.00  0.00     0.055 A 
ATOM     92  C   UNL A   1      47.545  34.430  30.409  1.00  0.00     0.041 A 
ATOM     93  F   UNL A   1      47.107  32.207  30.994  1.00  0.00    -0.206 F 
ATOM     94  C   UNL A   1      47.589  35.444  29.457  1.00  0.00     0.022 A 
BRANCH  91  95
ATOM     95  S   UNL A   1      47.331  36.424  26.859  1.00  0.00     0.124 S 
ATOM     96  O   UNL A   1      46.172  36.171  26.010  1.00  0.00    -0.237 OA
ATOM     97  O   UNL A   1      47.313  37.676  27.608  1.00  0.00    -0.237 OA
ATOM     98  O   UNL A   1      48.621  36.075  26.266  1.00  0.00    -0.744 OA
ENDBRANCH  91  95
ENDBRANCH  65  88
ENDBRANCH  39  40
ENDBRANCH  32  34
ENDBRANCH  31  32
ENDBRANCH  30  31
ENDBRANCH  29  30
ENDBRANCH  28  29
ENDBRANCH  27  28
ENDBRANCH   1  27
TORSDOF 24
ENDMDL
MODEL 3
REMARK VINA RESULT:      -8.9      6.395      8.963
REMARK SMILES O=C(CC[C@H]1CCCC[N@H+]1C[C@@H]1COc2ccccc21)OCCOCCOCCOC(=O)c1ccc(-c2c3nc(c(-c4cc(S(=O)(=O)[O-])ccc4F)c4ccc([nH]4)c(-c4cc(S(=O)(=O)[O-])ccc4F)c4nc(c(-c5cc(S(=O)(=O)[O-])ccc5F)c5ccc2[nH]5)C=C4)C=C3)cc1
REMARK SMILES IDX 25 1 24 2 23 3 22 4 21 5 2 6 1 7 3 8 4 9 5 10 6 11 10 12
REMARK SMILES IDX 7 13 9 14 8 16 11 17 12 18 13 19 20 20 14 21 15 22 19 23
REMARK SMILES IDX 16 24 18 25 17 26 26 27 27 28 28 29 29 30 30 31 31 32 32 33
REMARK SMILES IDX 33 34 34 35 95 36 35 37 94 38 36 39 37 40 38 41 88 42 39 43
REMARK SMILES IDX 93 44 87 45 89 46 40 47 92 48 86 49 85 50 41 52 73 53 53 54
REMARK SMILES IDX 72 55 54 56 57 57 71 58 90 59 55 60 56 61 70 63 91 64 58 65
REMARK SMILES IDX 42 66 43 67 51 68 44 69 50 70 52 71 49 72 45 73 46 74 47 75
REMARK SMILES IDX 48 76 74 77 75 78 83 79 76 80 82 81 84 82 81 83 77 84 78 85
REMARK SMILES IDX 79 86 80 87 59 88 60 89 68 90 61 91 67 92 69 93 66 94 62 95
REMARK SMILES IDX 63 96 64 97 65 98
REMARK H PARENT 10 15 89 51 57 62
REMARK Flexibility Score: inf
ROOT
ATOM      1  C   UNL A   1      35.984  32.865  28.457  1.00  0.00     0.188 C 
ENDROOT
BRANCH   1   2
ATOM      2  O   UNL A   1      34.972  32.558  27.513  1.00  0.00    -0.376 OA
BRANCH   2   3
ATOM      3  C   UNL A   1      33.802  31.839  27.908  1.00  0.00     0.202 C 
BRANCH   3   4
ATOM      4  C   UNL A   1      33.337  30.573  27.146  1.00  0.00     0.261 C 
BRANCH   4   5
ATOM      5  O   UNL A   1      32.308  30.910  26.200  1.00  0.00    -0.463 OA
BRANCH   5   6
ATOM      6  C   UNL A   1      31.533  30.008  25.539  1.00  0.00     0.306 C 
ATOM      7  O   UNL A   1      30.653  30.286  24.742  1.00  0.00    -0.252 OA
BRANCH   6   8
ATOM      8  C   UNL A   1      31.942  28.620  25.997  1.00  0.00     0.129 C 
BRANCH   8   9
ATOM      9  C   UNL A   1      32.316  27.496  25.021  1.00  0.00     0.077 C 
BRANCH   9  10
ATOM     10  C   UNL A   1      31.293  26.364  24.721  1.00  0.00     0.184 C 
ATOM     11  C   UNL A   1      30.072  26.941  23.951  1.00  0.00     0.065 C 
ATOM     12  N   UNL A   1      31.820  25.241  23.988  1.00  0.00    -0.332 N 
ATOM     13  C   UNL A   1      30.504  27.583  22.646  1.00  0.00     0.012 C 
ATOM     14  C   UNL A   1      31.787  25.323  22.535  1.00  0.00     0.262 C 
ATOM     15  H   UNL A   1      31.087  24.851  24.581  1.00  0.00     0.348 HD
ATOM     16  C   UNL A   1      31.303  26.601  21.812  1.00  0.00     0.062 C 
BRANCH  12  17
ATOM     17  C   UNL A   1      32.596  24.115  24.546  1.00  0.00     0.274 C 
BRANCH  17  18
ATOM     18  C   UNL A   1      33.192  22.822  23.869  1.00  0.00     0.116 C 
ATOM     19  C   UNL A   1      32.582  21.525  24.405  1.00  0.00     0.244 C 
ATOM     20  C   UNL A   1      34.629  22.432  23.972  1.00  0.00     0.006 A 
ATOM     21  O   UNL A   1      33.529  20.894  25.295  1.00  0.00    -0.492 OA
ATOM     22  C   UNL A   1      34.739  21.363  24.849  1.00  0.00     0.123 A 
ATOM     23  C   UNL A   1      35.777  22.939  23.373  1.00  0.00     0.008 A 
ATOM     24  C   UNL A   1      35.961  20.877  25.277  1.00  0.00     0.047 A 
ATOM     25  C   UNL A   1      37.028  22.488  23.814  1.00  0.00     0.001 A 
ATOM     26  C   UNL A   1      37.118  21.479  24.783  1.00  0.00     0.004 A 
ENDBRANCH  17  18
ENDBRANCH  12  17
ENDBRANCH   9  10
ENDBRANCH   8   9
ENDBRANCH   6   8
ENDBRANCH   5   6
ENDBRANCH   4   5
ENDBRANCH   3   4
ENDBRANCH   2   3
ENDBRANCH   1   2
BRANCH   1  27
ATOM     27  C   UNL A   1      36.394  31.755  29.428  1.00  0.00     0.188 C 
BRANCH  27  28
ATOM     28  O   UNL A   1      36.602  30.428  28.968  1.00  0.00    -0.376 OA
BRANCH  28  29
ATOM     29  C   UNL A   1      37.836  29.779  29.211  1.00  0.00     0.202 C 
BRANCH  29  30
ATOM     30  C   UNL A   1      37.847  28.645  30.254  1.00  0.00     0.261 C 
BRANCH  30  31
ATOM     31  O   UNL A   1      37.272  28.935  31.537  1.00  0.00    -0.460 OA
BRANCH  31  32
ATOM     32  C   UNL A   1      37.985  28.484  32.597  1.00  0.00     0.338 C 
ATOM     33  O   UNL A   1      38.112  27.329  32.951  1.00  0.00    -0.246 OA
BRANCH  32  34
ATOM     34  C   UNL A   1      38.681  29.616  33.251  1.00  0.00     0.060 A 
ATOM     35  C   UNL A   1      38.101  30.886  33.167  1.00  0.00     0.016 A 
ATOM     36  C   UNL A   1      39.959  29.460  33.796  1.00  0.00     0.016 A 
ATOM     37  C   UNL A   1      38.826  32.013  33.556  1.00  0.00     0.010 A 
ATOM     38  C   UNL A   1      40.694  30.597  34.167  1.00  0.00     0.010 A 
ATOM     39  C   UNL A   1      40.151  31.883  33.993  1.00  0.00    -0.014 A 
BRANCH  39  40
ATOM     40  C   UNL A   1      41.011  33.099  34.025  1.00  0.00     0.031 A 
ATOM     41  C   UNL A   1      41.579  33.617  32.725  1.00  0.00     0.074 A 
ATOM     42  C   UNL A   1      41.201  33.793  35.163  1.00  0.00     0.049 A 
ATOM     43  N   UNL A   1      42.315  34.675  32.498  1.00  0.00    -0.248 NA
ATOM     44  C   UNL A   1      41.268  32.835  31.520  1.00  0.00     0.031 C 
ATOM     45  C   UNL A   1      40.658  33.434  36.472  1.00  0.00     0.029 A 
ATOM     46  N   UNL A   1      41.900  34.954  35.394  1.00  0.00    -0.354 N 
ATOM     47  C   UNL A   1      42.538  34.697  31.124  1.00  0.00     0.074 A 
ATOM     48  C   UNL A   1      41.908  33.513  30.580  1.00  0.00     0.031 C 
ATOM     49  C   UNL A   1      41.052  34.352  37.372  1.00  0.00     0.029 A 
ATOM     50  C   UNL A   1      41.898  35.347  36.712  1.00  0.00     0.049 A 
ATOM     51  H   UNL A   1      42.358  35.457  34.683  1.00  0.00     0.167 HD
ATOM     52  C   UNL A   1      43.189  35.626  30.379  1.00  0.00     0.034 A 
ATOM     53  C   UNL A   1      42.523  36.378  37.319  1.00  0.00     0.034 A 
ATOM     54  C   UNL A   1      43.835  36.793  30.931  1.00  0.00     0.049 A 
ATOM     55  C   UNL A   1      43.333  37.345  36.482  1.00  0.00     0.074 A 
ATOM     56  C   UNL A   1      44.539  37.784  30.268  1.00  0.00     0.029 A 
ATOM     57  N   UNL A   1      43.865  37.124  32.279  1.00  0.00    -0.354 N 
ATOM     58  N   UNL A   1      43.536  37.352  35.184  1.00  0.00    -0.248 NA
ATOM     59  C   UNL A   1      43.980  38.456  37.193  1.00  0.00     0.031 C 
ATOM     60  C   UNL A   1      45.057  38.669  31.220  1.00  0.00     0.029 A 
ATOM     61  C   UNL A   1      44.601  38.286  32.470  1.00  0.00     0.049 A 
ATOM     62  H   UNL A   1      43.428  36.610  32.996  1.00  0.00     0.167 HD
ATOM     63  C   UNL A   1      44.308  38.484  34.924  1.00  0.00     0.074 A 
ATOM     64  C   UNL A   1      44.506  39.148  36.195  1.00  0.00     0.031 C 
ATOM     65  C   UNL A   1      44.807  38.936  33.744  1.00  0.00     0.034 A 
BRANCH  52  66
ATOM     66  C   UNL A   1      43.267  35.390  28.888  1.00  0.00     0.023 A 
ATOM     67  C   UNL A   1      44.305  34.633  28.313  1.00  0.00     0.031 A 
ATOM     68  C   UNL A   1      42.302  35.940  28.026  1.00  0.00     0.131 A 
ATOM     69  C   UNL A   1      44.388  34.504  26.917  1.00  0.00     0.055 A 
ATOM     70  C   UNL A   1      42.345  35.739  26.645  1.00  0.00     0.041 A 
ATOM     71  F   UNL A   1      41.301  36.692  28.513  1.00  0.00    -0.206 F 
ATOM     72  C   UNL A   1      43.401  35.029  26.082  1.00  0.00     0.022 A 
BRANCH  69  73
ATOM     73  S   UNL A   1      45.880  33.761  26.201  1.00  0.00     0.124 S 
ATOM     74  O   UNL A   1      46.418  34.873  25.422  1.00  0.00    -0.237 OA
ATOM     75  O   UNL A   1      46.642  33.379  27.385  1.00  0.00    -0.237 OA
ATOM     76  O   UNL A   1      45.361  32.647  25.408  1.00  0.00    -0.744 OA
ENDBRANCH  69  73
ENDBRANCH  52  66
BRANCH  53  77
ATOM     77  C   UNL A   1      42.464  36.533  38.804  1.00  0.00     0.023 A 
ATOM     78  C   UNL A   1      41.422  37.236  39.432  1.00  0.00     0.031 A 
ATOM     79  C   UNL A   1      43.508  36.046  39.613  1.00  0.00     0.131 A 
ATOM     80  C   UNL A   1      41.479  37.484  40.814  1.00  0.00     0.055 A 
ATOM     81  C   UNL A   1      43.525  36.238  40.995  1.00  0.00     0.041 A 
ATOM     82  F   UNL A   1      44.536  35.377  39.067  1.00  0.00    -0.206 F 
ATOM     83  C   UNL A   1      42.513  36.975  41.601  1.00  0.00     0.022 A 
BRANCH  80  84
ATOM     84  S   UNL A   1      40.238  38.583  41.552  1.00  0.00     0.124 S 
ATOM     85  O   UNL A   1      39.008  38.096  40.941  1.00  0.00    -0.237 OA
ATOM     86  O   UNL A   1      40.399  38.308  42.977  1.00  0.00    -0.237 OA
ATOM     87  O   UNL A   1      40.665  39.914  41.125  1.00  0.00    -0.744 OA
ENDBRANCH  80  84
ENDBRANCH  53  77
BRANCH  65  88
ATOM     88  C   UNL A   1      45.579  40.237  33.774  1.00  0.00     0.023 A 
ATOM     89  C   UNL A   1      44.936  41.479  33.921  1.00  0.00     0.031 A 
ATOM     90  C   UNL A   1      46.978  40.239  33.618  1.00  0.00     0.131 A 
ATOM     91  C   UNL A   1      45.673  42.669  33.823  1.00  0.00     0.055 A 
ATOM     92  C   UNL A   1      47.717  41.424  33.600  1.00  0.00     0.041 A 
ATOM     93  F   UNL A   1      47.652  39.088  33.472  1.00  0.00    -0.206 F 
ATOM     94  C   UNL A   1      47.063  42.649  33.682  1.00  0.00     0.022 A 
BRANCH  91  95
ATOM     95  S   UNL A   1      44.777  44.245  33.745  1.00  0.00     0.124 S 
ATOM     96  O   UNL A   1      45.657  45.131  34.501  1.00  0.00    -0.237 OA
ATOM     97  O   UNL A   1      44.703  44.491  32.310  1.00  0.00    -0.237 OA
ATOM     98  O   UNL A   1      43.498  43.945  34.389  1.00  0.00    -0.744 OA
ENDBRANCH  91  95
ENDBRANCH  65  88
ENDBRANCH  39  40
ENDBRANCH  32  34
ENDBRANCH  31  32
ENDBRANCH  30  31
ENDBRANCH  29  30
ENDBRANCH  28  29
ENDBRANCH  27  28
ENDBRANCH   1  27
TORSDOF 24
ENDMDL
