MODEL 1
REMARK VINA RESULT:     -10.1      0.000      0.000
REMARK SMILES O=C(/C=N/O)Nc1cccc(C(=O)OCCOCCOCCOC(=O)c2ccc(-c3c4nc(c(-c5cc(S(=O)(=O)[O-])ccc5F)c5ccc([nH]5)c(-c5cc(S(=O)(=O)[O-])ccc5F)c5nc(c(-c6cc(S(=O)(=O)[O-])ccc6F)c6ccc3[nH]6)C=C5)C=C4)cc2)c1
REMARK SMILES IDX 18 1 17 2 16 3 15 4 14 5 12 6 13 7 11 8 7 9 8 10 89 11 9 12
REMARK SMILES IDX 10 13 6 14 1 15 2 16 3 18 4 19 5 20 19 22 20 23 21 24 22 25
REMARK SMILES IDX 23 26 24 27 25 28 26 29 27 30 88 31 28 32 87 33 29 34 30 35
REMARK SMILES IDX 31 36 81 37 32 38 86 39 80 40 82 41 33 42 85 43 79 44 78 45
REMARK SMILES IDX 34 47 66 48 46 49 65 50 47 51 50 52 64 53 83 54 48 55 49 56
REMARK SMILES IDX 63 58 84 59 51 60 35 61 36 62 44 63 37 64 43 65 45 66 42 67
REMARK SMILES IDX 38 68 39 69 40 70 41 71 67 72 68 73 76 74 69 75 75 76 77 77
REMARK SMILES IDX 74 78 70 79 71 80 72 81 73 82 52 83 53 84 61 85 54 86 60 87
REMARK SMILES IDX 62 88 59 89 55 90 56 91 57 92 58 93
REMARK H PARENT 6 17 5 21 82 46 50 57
REMARK Flexibility Score: inf
ROOT
ATOM      1  C   UNL A   1      34.595  24.925  24.184  1.00  0.00     0.188 C 
ENDROOT
BRANCH   1   2
ATOM      2  O   UNL A   1      33.399  25.576  23.763  1.00  0.00    -0.376 OA
BRANCH   2   3
ATOM      3  C   UNL A   1      32.592  26.254  24.716  1.00  0.00     0.202 C 
BRANCH   3   4
ATOM      4  C   UNL A   1      32.298  25.578  26.063  1.00  0.00     0.261 C 
BRANCH   4   5
ATOM      5  O   UNL A   1      31.293  24.554  26.008  1.00  0.00    -0.460 OA
BRANCH   5   6
ATOM      6  C   UNL A   1      31.653  23.343  26.519  1.00  0.00     0.338 C 
ATOM      7  O   UNL A   1      31.629  22.998  27.678  1.00  0.00    -0.246 OA
BRANCH   6   8
ATOM      8  C   UNL A   1      31.919  22.415  25.392  1.00  0.00     0.062 A 
ATOM      9  C   UNL A   1      32.999  20.452  24.475  1.00  0.00     0.042 A 
ATOM     10  C   UNL A   1      32.514  20.801  23.207  1.00  0.00     0.026 A 
ATOM     11  C   UNL A   1      32.718  21.281  25.564  1.00  0.00     0.041 A 
ATOM     12  C   UNL A   1      31.706  21.929  23.039  1.00  0.00     0.003 A 
ATOM     13  C   UNL A   1      31.391  22.729  24.135  1.00  0.00     0.016 A 
BRANCH   9  14
ATOM     14  N   UNL A   1      33.750  19.266  24.587  1.00  0.00    -0.321 N 
ATOM     15  O   UNL A   1      32.145  17.704  25.302  1.00  0.00    -0.268 OA
ATOM     16  C   UNL A   1      33.279  18.035  24.991  1.00  0.00     0.270 C 
ATOM     17  H   UNL A   1      34.705  19.322  24.355  1.00  0.00     0.170 HD
BRANCH  16  18
ATOM     18  C   UNL A   1      34.322  16.948  24.996  1.00  0.00     0.225 C 
ATOM     19  N   UNL A   1      34.000  15.710  25.201  1.00  0.00    -0.092 NA
BRANCH  19  20
ATOM     20  O   UNL A   1      35.168  14.936  25.131  1.00  0.00    -0.411 OA
ATOM     21  H   UNL A   1      35.361  14.449  24.356  1.00  0.00     0.330 HD
ENDBRANCH  19  20
ENDBRANCH  16  18
ENDBRANCH   9  14
ENDBRANCH   6   8
ENDBRANCH   5   6
ENDBRANCH   4   5
ENDBRANCH   3   4
ENDBRANCH   2   3
ENDBRANCH   1   2
BRANCH   1  22
ATOM     22  C   UNL A   1      34.986  23.562  23.572  1.00  0.00     0.188 C 
BRANCH  22  23
ATOM     23  O   UNL A   1      35.692  22.725  24.467  1.00  0.00    -0.376 OA
BRANCH  23  24
ATOM     24  C   UNL A   1      37.018  22.369  24.117  1.00  0.00     0.202 C 
BRANCH  24  25
ATOM     25  C   UNL A   1      37.699  21.195  24.843  1.00  0.00     0.261 C 
BRANCH  25  26
ATOM     26  O   UNL A   1      38.187  21.442  26.171  1.00  0.00    -0.460 OA
BRANCH  26  27
ATOM     27  C   UNL A   1      39.523  21.353  26.360  1.00  0.00     0.338 C 
ATOM     28  O   UNL A   1      40.246  20.441  26.003  1.00  0.00    -0.246 OA
BRANCH  27  29
ATOM     29  C   UNL A   1      39.997  22.641  26.919  1.00  0.00     0.060 A 
ATOM     30  C   UNL A   1      39.414  23.828  26.458  1.00  0.00     0.016 A 
ATOM     31  C   UNL A   1      41.019  22.682  27.873  1.00  0.00     0.016 A 
ATOM     32  C   UNL A   1      39.885  25.062  26.916  1.00  0.00     0.010 A 
ATOM     33  C   UNL A   1      41.498  23.921  28.321  1.00  0.00     0.010 A 
ATOM     34  C   UNL A   1      40.960  25.118  27.815  1.00  0.00    -0.014 A 
BRANCH  34  35
ATOM     35  C   UNL A   1      41.639  26.421  28.055  1.00  0.00     0.031 A 
ATOM     36  C   UNL A   1      43.035  26.611  27.518  1.00  0.00     0.074 A 
ATOM     37  C   UNL A   1      41.018  27.435  28.685  1.00  0.00     0.049 A 
ATOM     38  N   UNL A   1      43.817  27.658  27.577  1.00  0.00    -0.248 NA
ATOM     39  C   UNL A   1      43.624  25.458  26.819  1.00  0.00     0.031 C 
ATOM     40  C   UNL A   1      39.658  27.390  29.220  1.00  0.00     0.029 A 
ATOM     41  N   UNL A   1      41.451  28.706  28.975  1.00  0.00    -0.354 N 
ATOM     42  C   UNL A   1      44.989  27.292  26.921  1.00  0.00     0.074 A 
ATOM     43  C   UNL A   1      44.829  25.912  26.516  1.00  0.00     0.031 C 
ATOM     44  C   UNL A   1      39.370  28.581  29.777  1.00  0.00     0.029 A 
ATOM     45  C   UNL A   1      40.531  29.462  29.663  1.00  0.00     0.049 A 
ATOM     46  H   UNL A   1      42.340  29.043  28.716  1.00  0.00     0.167 HD
ATOM     47  C   UNL A   1      46.092  28.040  26.667  1.00  0.00     0.034 A 
ATOM     48  C   UNL A   1      40.623  30.716  30.156  1.00  0.00     0.034 A 
ATOM     49  C   UNL A   1      46.250  29.408  27.094  1.00  0.00     0.049 A 
ATOM     50  C   UNL A   1      41.892  31.506  29.927  1.00  0.00     0.074 A 
ATOM     51  C   UNL A   1      47.325  30.257  26.892  1.00  0.00     0.029 A 
ATOM     52  N   UNL A   1      45.313  30.129  27.825  1.00  0.00    -0.354 N 
ATOM     53  N   UNL A   1      42.985  31.154  29.290  1.00  0.00    -0.248 NA
ATOM     54  C   UNL A   1      41.926  32.871  30.470  1.00  0.00     0.031 C 
ATOM     55  C   UNL A   1      47.069  31.461  27.557  1.00  0.00     0.029 A 
ATOM     56  C   UNL A   1      45.797  31.399  28.103  1.00  0.00     0.049 A 
ATOM     57  H   UNL A   1      44.433  29.788  28.104  1.00  0.00     0.167 HD
ATOM     58  C   UNL A   1      43.821  32.271  29.323  1.00  0.00     0.074 A 
ATOM     59  C   UNL A   1      43.095  33.308  30.027  1.00  0.00     0.031 C 
ATOM     60  C   UNL A   1      45.070  32.427  28.813  1.00  0.00     0.034 A 
BRANCH  47  61
ATOM     61  C   UNL A   1      47.229  27.364  25.936  1.00  0.00     0.023 A 
ATOM     62  C   UNL A   1      48.240  26.667  26.619  1.00  0.00     0.031 A 
ATOM     63  C   UNL A   1      47.324  27.454  24.535  1.00  0.00     0.131 A 
ATOM     64  C   UNL A   1      49.337  26.152  25.913  1.00  0.00     0.055 A 
ATOM     65  C   UNL A   1      48.376  26.868  23.829  1.00  0.00     0.041 A 
ATOM     66  F   UNL A   1      46.403  28.128  23.829  1.00  0.00    -0.206 F 
ATOM     67  C   UNL A   1      49.400  26.225  24.519  1.00  0.00     0.022 A 
BRANCH  64  68
ATOM     68  S   UNL A   1      50.756  25.519  26.853  1.00  0.00     0.124 S 
ATOM     69  O   UNL A   1      51.089  26.668  27.693  1.00  0.00    -0.237 OA
ATOM     70  O   UNL A   1      50.189  24.367  27.541  1.00  0.00    -0.237 OA
ATOM     71  O   UNL A   1      51.741  25.207  25.818  1.00  0.00    -0.744 OA
ENDBRANCH  64  68
ENDBRANCH  47  61
BRANCH  48  72
ATOM     72  C   UNL A   1      39.499  31.308  30.942  1.00  0.00     0.023 A 
ATOM     73  C   UNL A   1      39.496  31.284  32.346  1.00  0.00     0.031 A 
ATOM     74  C   UNL A   1      38.373  31.844  30.291  1.00  0.00     0.131 A 
ATOM     75  C   UNL A   1      38.370  31.736  33.052  1.00  0.00     0.055 A 
ATOM     76  C   UNL A   1      37.280  32.345  30.999  1.00  0.00     0.041 A 
ATOM     77  F   UNL A   1      38.321  31.889  28.950  1.00  0.00    -0.206 F 
ATOM     78  C   UNL A   1      37.267  32.280  32.389  1.00  0.00     0.022 A 
BRANCH  75  79
ATOM     79  S   UNL A   1      38.326  31.518  34.853  1.00  0.00     0.124 S 
ATOM     80  O   UNL A   1      37.092  32.212  35.206  1.00  0.00    -0.237 OA
ATOM     81  O   UNL A   1      38.302  30.064  34.982  1.00  0.00    -0.237 OA
ATOM     82  O   UNL A   1      39.557  32.161  35.305  1.00  0.00    -0.744 OA
ENDBRANCH  75  79
ENDBRANCH  48  72
BRANCH  60  83
ATOM     83  C   UNL A   1      45.704  33.795  28.946  1.00  0.00     0.023 A 
ATOM     84  C   UNL A   1      46.478  34.153  30.062  1.00  0.00     0.031 A 
ATOM     85  C   UNL A   1      45.500  34.766  27.948  1.00  0.00     0.131 A 
ATOM     86  C   UNL A   1      46.955  35.468  30.193  1.00  0.00     0.055 A 
ATOM     87  C   UNL A   1      46.037  36.050  28.048  1.00  0.00     0.041 A 
ATOM     88  F   UNL A   1      44.768  34.484  26.858  1.00  0.00    -0.206 F 
ATOM     89  C   UNL A   1      46.753  36.413  29.184  1.00  0.00     0.022 A 
BRANCH  86  90
ATOM     90  S   UNL A   1      47.731  35.963  31.756  1.00  0.00     0.124 S 
ATOM     91  O   UNL A   1      46.580  36.395  32.543  1.00  0.00    -0.237 OA
ATOM     92  O   UNL A   1      48.373  34.727  32.190  1.00  0.00    -0.237 OA
ATOM     93  O   UNL A   1      48.648  37.031  31.361  1.00  0.00    -0.744 OA
ENDBRANCH  86  90
ENDBRANCH  60  83
ENDBRANCH  34  35
ENDBRANCH  27  29
ENDBRANCH  26  27
ENDBRANCH  25  26
ENDBRANCH  24  25
ENDBRANCH  23  24
ENDBRANCH  22  23
ENDBRANCH   1  22
TORSDOF 23
ENDMDL
MODEL 2
REMARK VINA RESULT:     -10.0      2.737      4.039
REMARK SMILES O=C(/C=N/O)Nc1cccc(C(=O)OCCOCCOCCOC(=O)c2ccc(-c3c4nc(c(-c5cc(S(=O)(=O)[O-])ccc5F)c5ccc([nH]5)c(-c5cc(S(=O)(=O)[O-])ccc5F)c5nc(c(-c6cc(S(=O)(=O)[O-])ccc6F)c6ccc3[nH]6)C=C5)C=C4)cc2)c1
REMARK SMILES IDX 18 1 17 2 16 3 15 4 14 5 12 6 13 7 11 8 7 9 8 10 89 11 9 12
REMARK SMILES IDX 10 13 6 14 1 15 2 16 3 18 4 19 5 20 19 22 20 23 21 24 22 25
REMARK SMILES IDX 23 26 24 27 25 28 26 29 27 30 88 31 28 32 87 33 29 34 30 35
REMARK SMILES IDX 31 36 81 37 32 38 86 39 80 40 82 41 33 42 85 43 79 44 78 45
REMARK SMILES IDX 34 47 66 48 46 49 65 50 47 51 50 52 64 53 83 54 48 55 49 56
REMARK SMILES IDX 63 58 84 59 51 60 35 61 36 62 44 63 37 64 43 65 45 66 42 67
REMARK SMILES IDX 38 68 39 69 40 70 41 71 67 72 68 73 76 74 69 75 75 76 77 77
REMARK SMILES IDX 74 78 70 79 71 80 72 81 73 82 52 83 53 84 61 85 54 86 60 87
REMARK SMILES IDX 62 88 59 89 55 90 56 91 57 92 58 93
REMARK H PARENT 6 17 5 21 82 46 50 57
REMARK Flexibility Score: inf
ROOT
ATOM      1  C   UNL A   1      40.649  21.679  27.293  1.00  0.00     0.188 C 
ENDROOT
BRANCH   1   2
ATOM      2  O   UNL A   1      39.547  22.528  26.983  1.00  0.00    -0.376 OA
BRANCH   2   3
ATOM      3  C   UNL A   1      38.658  22.174  25.931  1.00  0.00     0.202 C 
BRANCH   3   4
ATOM      4  C   UNL A   1      37.351  22.961  25.761  1.00  0.00     0.261 C 
BRANCH   4   5
ATOM      5  O   UNL A   1      36.176  22.146  25.636  1.00  0.00    -0.460 OA
BRANCH   5   6
ATOM      6  C   UNL A   1      35.120  22.722  24.998  1.00  0.00     0.338 C 
ATOM      7  O   UNL A   1      35.005  23.880  24.666  1.00  0.00    -0.246 OA
BRANCH   6   8
ATOM      8  C   UNL A   1      34.173  21.655  24.591  1.00  0.00     0.062 A 
ATOM      9  C   UNL A   1      33.495  19.331  24.542  1.00  0.00     0.042 A 
ATOM     10  C   UNL A   1      32.456  19.672  23.665  1.00  0.00     0.026 A 
ATOM     11  C   UNL A   1      34.369  20.328  24.983  1.00  0.00     0.041 A 
ATOM     12  C   UNL A   1      32.255  21.002  23.283  1.00  0.00     0.003 A 
ATOM     13  C   UNL A   1      33.102  21.999  23.760  1.00  0.00     0.016 A 
BRANCH   9  14
ATOM     14  N   UNL A   1      33.602  17.985  24.942  1.00  0.00    -0.321 N 
ATOM     15  O   UNL A   1      33.998  16.872  22.910  1.00  0.00    -0.268 OA
ATOM     16  C   UNL A   1      33.824  16.902  24.118  1.00  0.00     0.270 C 
ATOM     17  H   UNL A   1      33.508  17.799  25.904  1.00  0.00     0.170 HD
BRANCH  16  18
ATOM     18  C   UNL A   1      33.905  15.584  24.843  1.00  0.00     0.225 C 
ATOM     19  N   UNL A   1      32.841  14.884  25.081  1.00  0.00    -0.092 NA
BRANCH  19  20
ATOM     20  O   UNL A   1      33.229  13.712  25.748  1.00  0.00    -0.411 OA
ATOM     21  H   UNL A   1      34.030  13.691  26.233  1.00  0.00     0.330 HD
ENDBRANCH  19  20
ENDBRANCH  16  18
ENDBRANCH   9  14
ENDBRANCH   6   8
ENDBRANCH   5   6
ENDBRANCH   4   5
ENDBRANCH   3   4
ENDBRANCH   2   3
ENDBRANCH   1   2
BRANCH   1  22
ATOM     22  C   UNL A   1      41.305  20.832  26.180  1.00  0.00     0.188 C 
BRANCH  22  23
ATOM     23  O   UNL A   1      41.327  19.447  26.465  1.00  0.00    -0.376 OA
BRANCH  23  24
ATOM     24  C   UNL A   1      42.594  18.841  26.652  1.00  0.00     0.202 C 
BRANCH  24  25
ATOM     25  C   UNL A   1      43.490  18.578  25.429  1.00  0.00     0.261 C 
BRANCH  25  26
ATOM     26  O   UNL A   1      44.698  19.346  25.325  1.00  0.00    -0.460 OA
BRANCH  26  27
ATOM     27  C   UNL A   1      44.731  20.313  24.380  1.00  0.00     0.338 C 
ATOM     28  O   UNL A   1      44.758  20.148  23.174  1.00  0.00    -0.246 OA
BRANCH  27  29
ATOM     29  C   UNL A   1      44.545  21.621  25.052  1.00  0.00     0.060 A 
ATOM     30  C   UNL A   1      44.084  22.706  24.295  1.00  0.00     0.016 A 
ATOM     31  C   UNL A   1      44.840  21.785  26.409  1.00  0.00     0.016 A 
ATOM     32  C   UNL A   1      43.962  23.967  24.884  1.00  0.00     0.010 A 
ATOM     33  C   UNL A   1      44.729  23.054  26.994  1.00  0.00     0.010 A 
ATOM     34  C   UNL A   1      44.327  24.160  26.224  1.00  0.00    -0.014 A 
BRANCH  34  35
ATOM     35  C   UNL A   1      44.479  25.547  26.744  1.00  0.00     0.031 A 
ATOM     36  C   UNL A   1      45.832  26.204  26.645  1.00  0.00     0.074 A 
ATOM     37  C   UNL A   1      43.433  26.233  27.242  1.00  0.00     0.049 A 
ATOM     38  N   UNL A   1      46.204  27.406  27.002  1.00  0.00    -0.248 NA
ATOM     39  C   UNL A   1      46.909  25.389  26.061  1.00  0.00     0.031 C 
ATOM     40  C   UNL A   1      42.069  25.723  27.360  1.00  0.00     0.029 A 
ATOM     41  N   UNL A   1      43.358  27.512  27.737  1.00  0.00    -0.354 N 
ATOM     42  C   UNL A   1      47.557  27.494  26.684  1.00  0.00     0.074 A 
ATOM     43  C   UNL A   1      47.946  26.206  26.150  1.00  0.00     0.031 C 
ATOM     44  C   UNL A   1      41.291  26.681  27.897  1.00  0.00     0.029 A 
ATOM     45  C   UNL A   1      42.106  27.860  28.186  1.00  0.00     0.049 A 
ATOM     46  H   UNL A   1      44.131  28.122  27.769  1.00  0.00     0.167 HD
ATOM     47  C   UNL A   1      48.396  28.552  26.813  1.00  0.00     0.034 A 
ATOM     48  C   UNL A   1      41.672  28.995  28.775  1.00  0.00     0.034 A 
ATOM     49  C   UNL A   1      48.003  29.825  27.367  1.00  0.00     0.049 A 
ATOM     50  C   UNL A   1      42.643  30.137  28.978  1.00  0.00     0.074 A 
ATOM     51  C   UNL A   1      48.772  30.963  27.543  1.00  0.00     0.029 A 
ATOM     52  N   UNL A   1      46.735  30.128  27.849  1.00  0.00    -0.354 N 
ATOM     53  N   UNL A   1      43.915  30.212  28.657  1.00  0.00    -0.248 NA
ATOM     54  C   UNL A   1      42.110  31.353  29.606  1.00  0.00     0.031 C 
ATOM     55  C   UNL A   1      47.992  31.925  28.194  1.00  0.00     0.029 A 
ATOM     56  C   UNL A   1      46.710  31.423  28.346  1.00  0.00     0.049 A 
ATOM     57  H   UNL A   1      45.967  29.513  27.838  1.00  0.00     0.167 HD
ATOM     58  C   UNL A   1      44.320  31.499  29.010  1.00  0.00     0.074 A 
ATOM     59  C   UNL A   1      43.154  32.166  29.550  1.00  0.00     0.031 C 
ATOM     60  C   UNL A   1      45.543  32.079  28.891  1.00  0.00     0.034 A 
BRANCH  47  61
ATOM     61  C   UNL A   1      49.832  28.349  26.390  1.00  0.00     0.023 A 
ATOM     62  C   UNL A   1      50.260  28.592  25.073  1.00  0.00     0.031 A 
ATOM     63  C   UNL A   1      50.780  27.866  27.311  1.00  0.00     0.131 A 
ATOM     64  C   UNL A   1      51.574  28.282  24.695  1.00  0.00     0.055 A 
ATOM     65  C   UNL A   1      52.109  27.638  26.948  1.00  0.00     0.041 A 
ATOM     66  F   UNL A   1      50.427  27.592  28.576  1.00  0.00    -0.206 F 
ATOM     67  C   UNL A   1      52.510  27.830  25.629  1.00  0.00     0.022 A 
BRANCH  64  68
ATOM     68  S   UNL A   1      52.005  28.332  22.932  1.00  0.00     0.124 S 
ATOM     69  O   UNL A   1      51.514  29.653  22.546  1.00  0.00    -0.237 OA
ATOM     70  O   UNL A   1      53.453  28.170  22.956  1.00  0.00    -0.237 OA
ATOM     71  O   UNL A   1      51.260  27.209  22.365  1.00  0.00    -0.744 OA
ENDBRANCH  64  68
ENDBRANCH  47  61
BRANCH  48  72
ATOM     72  C   UNL A   1      40.260  29.115  29.246  1.00  0.00     0.023 A 
ATOM     73  C   UNL A   1      39.925  28.948  30.600  1.00  0.00     0.031 A 
ATOM     74  C   UNL A   1      39.214  29.329  28.332  1.00  0.00     0.131 A 
ATOM     75  C   UNL A   1      38.577  28.943  30.992  1.00  0.00     0.055 A 
ATOM     76  C   UNL A   1      37.878  29.381  28.735  1.00  0.00     0.041 A 
ATOM     77  F   UNL A   1      39.476  29.492  27.025  1.00  0.00    -0.206 F 
ATOM     78  C   UNL A   1      37.551  29.173  30.071  1.00  0.00     0.022 A 
BRANCH  75  79
ATOM     79  S   UNL A   1      38.172  28.539  32.715  1.00  0.00     0.124 S 
ATOM     80  O   UNL A   1      38.317  27.088  32.721  1.00  0.00    -0.237 OA
ATOM     81  O   UNL A   1      39.189  29.287  33.448  1.00  0.00    -0.237 OA
ATOM     82  O   UNL A   1      36.806  29.033  32.870  1.00  0.00    -0.744 OA
ENDBRANCH  75  79
ENDBRANCH  48  72
BRANCH  60  83
ATOM     83  C   UNL A   1      45.660  33.531  29.300  1.00  0.00     0.023 A 
ATOM     84  C   UNL A   1      45.267  34.580  28.451  1.00  0.00     0.031 A 
ATOM     85  C   UNL A   1      46.206  33.869  30.553  1.00  0.00     0.131 A 
ATOM     86  C   UNL A   1      45.495  35.913  28.831  1.00  0.00     0.055 A 
ATOM     87  C   UNL A   1      46.363  35.197  30.955  1.00  0.00     0.041 A 
ATOM     88  F   UNL A   1      46.601  32.912  31.408  1.00  0.00    -0.206 F 
ATOM     89  C   UNL A   1      46.025  36.227  30.084  1.00  0.00     0.022 A 
BRANCH  86  90
ATOM     90  S   UNL A   1      45.211  37.227  27.612  1.00  0.00     0.124 S 
ATOM     91  O   UNL A   1      46.394  37.118  26.765  1.00  0.00    -0.237 OA
ATOM     92  O   UNL A   1      43.949  36.818  27.003  1.00  0.00    -0.237 OA
ATOM     93  O   UNL A   1      45.140  38.440  28.426  1.00  0.00    -0.744 OA
ENDBRANCH  86  90
ENDBRANCH  60  83
ENDBRANCH  34  35
ENDBRANCH  27  29
ENDBRANCH  26  27
ENDBRANCH  25  26
ENDBRANCH  24  25
ENDBRANCH  23  24
ENDBRANCH  22  23
ENDBRANCH   1  22
TORSDOF 23
ENDMDL
MODEL 3
REMARK VINA RESULT:      -9.3      3.526      9.169
REMARK SMILES O=C(/C=N/O)Nc1cccc(C(=O)OCCOCCOCCOC(=O)c2ccc(-c3c4nc(c(-c5cc(S(=O)(=O)[O-])ccc5F)c5ccc([nH]5)c(-c5cc(S(=O)(=O)[O-])ccc5F)c5nc(c(-c6cc(S(=O)(=O)[O-])ccc6F)c6ccc3[nH]6)C=C5)C=C4)cc2)c1
REMARK SMILES IDX 18 1 17 2 16 3 15 4 14 5 12 6 13 7 11 8 7 9 8 10 89 11 9 12
REMARK SMILES IDX 10 13 6 14 1 15 2 16 3 18 4 19 5 20 19 22 20 23 21 24 22 25
REMARK SMILES IDX 23 26 24 27 25 28 26 29 27 30 88 31 28 32 87 33 29 34 30 35
REMARK SMILES IDX 31 36 81 37 32 38 86 39 80 40 82 41 33 42 85 43 79 44 78 45
REMARK SMILES IDX 34 47 66 48 46 49 65 50 47 51 50 52 64 53 83 54 48 55 49 56
REMARK SMILES IDX 63 58 84 59 51 60 35 61 36 62 44 63 37 64 43 65 45 66 42 67
REMARK SMILES IDX 38 68 39 69 40 70 41 71 67 72 68 73 76 74 69 75 75 76 77 77
REMARK SMILES IDX 74 78 70 79 71 80 72 81 73 82 52 83 53 84 61 85 54 86 60 87
REMARK SMILES IDX 62 88 59 89 55 90 56 91 57 92 58 93
REMARK H PARENT 6 17 5 21 82 46 50 57
REMARK Flexibility Score: inf
ROOT
ATOM      1  C   UNL A   1      35.006  22.330  24.314  1.00  0.00     0.188 C 
ENDROOT
BRANCH   1   2
ATOM      2  O   UNL A   1      34.425  23.412  25.038  1.00  0.00    -0.376 OA
BRANCH   2   3
ATOM      3  C   UNL A   1      34.872  24.740  24.799  1.00  0.00     0.202 C 
BRANCH   3   4
ATOM      4  C   UNL A   1      33.859  25.892  24.863  1.00  0.00     0.261 C 
BRANCH   4   5
ATOM      5  O   UNL A   1      33.961  26.835  23.786  1.00  0.00    -0.460 OA
BRANCH   5   6
ATOM      6  C   UNL A   1      33.244  26.536  22.666  1.00  0.00     0.338 C 
ATOM      7  O   UNL A   1      33.638  25.969  21.673  1.00  0.00    -0.246 OA
BRANCH   6   8
ATOM      8  C   UNL A   1      31.818  26.855  22.919  1.00  0.00     0.062 A 
ATOM      9  C   UNL A   1      30.031  28.456  23.244  1.00  0.00     0.042 A 
ATOM     10  C   UNL A   1      29.166  27.398  23.556  1.00  0.00     0.026 A 
ATOM     11  C   UNL A   1      31.368  28.178  22.949  1.00  0.00     0.041 A 
ATOM     12  C   UNL A   1      29.614  26.075  23.514  1.00  0.00     0.003 A 
ATOM     13  C   UNL A   1      30.937  25.799  23.177  1.00  0.00     0.016 A 
BRANCH   9  14
ATOM     14  N   UNL A   1      29.499  29.760  23.237  1.00  0.00    -0.321 N 
ATOM     15  O   UNL A   1      28.270  29.807  21.234  1.00  0.00    -0.268 OA
ATOM     16  C   UNL A   1      28.700  30.313  22.259  1.00  0.00     0.270 C 
ATOM     17  H   UNL A   1      29.719  30.333  24.007  1.00  0.00     0.170 HD
BRANCH  16  18
ATOM     18  C   UNL A   1      28.272  31.729  22.541  1.00  0.00     0.225 C 
ATOM     19  N   UNL A   1      29.144  32.667  22.735  1.00  0.00    -0.092 NA
BRANCH  19  20
ATOM     20  O   UNL A   1      28.455  33.869  22.955  1.00  0.00    -0.411 OA
ATOM     21  H   UNL A   1      28.775  34.667  22.586  1.00  0.00     0.330 HD
ENDBRANCH  19  20
ENDBRANCH  16  18
ENDBRANCH   9  14
ENDBRANCH   6   8
ENDBRANCH   5   6
ENDBRANCH   4   5
ENDBRANCH   3   4
ENDBRANCH   2   3
ENDBRANCH   1   2
BRANCH   1  22
ATOM     22  C   UNL A   1      36.185  21.541  24.923  1.00  0.00     0.188 C 
BRANCH  22  23
ATOM     23  O   UNL A   1      37.424  22.217  24.829  1.00  0.00    -0.376 OA
BRANCH  23  24
ATOM     24  C   UNL A   1      38.453  21.815  25.716  1.00  0.00     0.202 C 
BRANCH  24  25
ATOM     25  C   UNL A   1      38.864  20.333  25.770  1.00  0.00     0.261 C 
BRANCH  25  26
ATOM     26  O   UNL A   1      40.230  20.021  25.459  1.00  0.00    -0.460 OA
BRANCH  26  27
ATOM     27  C   UNL A   1      41.081  19.878  26.500  1.00  0.00     0.338 C 
ATOM     28  O   UNL A   1      41.235  18.878  27.178  1.00  0.00    -0.246 OA
BRANCH  27  29
ATOM     29  C   UNL A   1      41.934  21.088  26.569  1.00  0.00     0.060 A 
ATOM     30  C   UNL A   1      42.422  21.495  27.817  1.00  0.00     0.016 A 
ATOM     31  C   UNL A   1      42.235  21.826  25.420  1.00  0.00     0.016 A 
ATOM     32  C   UNL A   1      43.174  22.668  27.924  1.00  0.00     0.010 A 
ATOM     33  C   UNL A   1      42.978  23.009  25.532  1.00  0.00     0.010 A 
ATOM     34  C   UNL A   1      43.418  23.458  26.791  1.00  0.00    -0.014 A 
BRANCH  34  35
ATOM     35  C   UNL A   1      43.949  24.837  26.966  1.00  0.00     0.031 A 
ATOM     36  C   UNL A   1      43.016  25.904  27.480  1.00  0.00     0.074 A 
ATOM     37  C   UNL A   1      45.241  25.131  26.730  1.00  0.00     0.049 A 
ATOM     38  N   UNL A   1      43.251  27.165  27.738  1.00  0.00    -0.248 NA
ATOM     39  C   UNL A   1      41.629  25.485  27.737  1.00  0.00     0.031 C 
ATOM     40  C   UNL A   1      46.251  24.183  26.264  1.00  0.00     0.029 A 
ATOM     41  N   UNL A   1      45.925  26.315  26.857  1.00  0.00    -0.354 N 
ATOM     42  C   UNL A   1      42.043  27.690  28.191  1.00  0.00     0.074 A 
ATOM     43  C   UNL A   1      41.071  26.620  28.125  1.00  0.00     0.031 C 
ATOM     44  C   UNL A   1      47.427  24.825  26.142  1.00  0.00     0.029 A 
ATOM     45  C   UNL A   1      47.249  26.233  26.493  1.00  0.00     0.049 A 
ATOM     46  H   UNL A   1      45.506  27.147  27.177  1.00  0.00     0.167 HD
ATOM     47  C   UNL A   1      41.772  28.943  28.633  1.00  0.00     0.034 A 
ATOM     48  C   UNL A   1      48.202  27.188  26.437  1.00  0.00     0.034 A 
ATOM     49  C   UNL A   1      42.743  30.008  28.674  1.00  0.00     0.049 A 
ATOM     50  C   UNL A   1      47.857  28.598  26.863  1.00  0.00     0.074 A 
ATOM     51  C   UNL A   1      42.575  31.314  29.102  1.00  0.00     0.029 A 
ATOM     52  N   UNL A   1      44.065  29.898  28.259  1.00  0.00    -0.354 N 
ATOM     53  N   UNL A   1      46.717  29.076  27.305  1.00  0.00    -0.248 NA
ATOM     54  C   UNL A   1      48.939  29.590  26.799  1.00  0.00     0.031 C 
ATOM     55  C   UNL A   1      43.769  32.009  28.880  1.00  0.00     0.029 A 
ATOM     56  C   UNL A   1      44.712  31.118  28.396  1.00  0.00     0.049 A 
ATOM     57  H   UNL A   1      44.481  29.075  27.918  1.00  0.00     0.167 HD
ATOM     58  C   UNL A   1      46.958  30.416  27.609  1.00  0.00     0.074 A 
ATOM     59  C   UNL A   1      48.355  30.660  27.315  1.00  0.00     0.031 C 
ATOM     60  C   UNL A   1      46.105  31.356  28.093  1.00  0.00     0.034 A 
BRANCH  47  61
ATOM     61  C   UNL A   1      40.350  29.231  29.056  1.00  0.00     0.023 A 
ATOM     62  C   UNL A   1      39.964  29.231  30.408  1.00  0.00     0.031 A 
ATOM     63  C   UNL A   1      39.357  29.471  28.089  1.00  0.00     0.131 A 
ATOM     64  C   UNL A   1      38.613  29.391  30.751  1.00  0.00     0.055 A 
ATOM     65  C   UNL A   1      38.028  29.711  28.442  1.00  0.00     0.041 A 
ATOM     66  F   UNL A   1      39.659  29.459  26.782  1.00  0.00    -0.206 F 
ATOM     67  C   UNL A   1      37.645  29.656  29.779  1.00  0.00     0.022 A 
BRANCH  64  68
ATOM     68  S   UNL A   1      38.113  29.095  32.471  1.00  0.00     0.124 S 
ATOM     69  O   UNL A   1      36.673  29.336  32.405  1.00  0.00    -0.237 OA
ATOM     70  O   UNL A   1      38.520  27.712  32.684  1.00  0.00    -0.237 OA
ATOM     71  O   UNL A   1      38.870  30.093  33.224  1.00  0.00    -0.744 OA
ENDBRANCH  64  68
ENDBRANCH  47  61
BRANCH  48  72
ATOM     72  C   UNL A   1      49.572  26.867  25.935  1.00  0.00     0.023 A 
ATOM     73  C   UNL A   1      49.981  27.234  24.643  1.00  0.00     0.031 A 
ATOM     74  C   UNL A   1      50.468  26.122  26.722  1.00  0.00     0.131 A 
ATOM     75  C   UNL A   1      51.228  26.810  24.156  1.00  0.00     0.055 A 
ATOM     76  C   UNL A   1      51.730  25.752  26.255  1.00  0.00     0.041 A 
ATOM     77  F   UNL A   1      50.127  25.741  27.964  1.00  0.00    -0.206 F 
ATOM     78  C   UNL A   1      52.112  26.083  24.958  1.00  0.00     0.022 A 
BRANCH  75  79
ATOM     79  S   UNL A   1      51.645  27.143  22.422  1.00  0.00     0.124 S 
ATOM     80  O   UNL A   1      52.693  26.158  22.175  1.00  0.00    -0.237 OA
ATOM     81  O   UNL A   1      50.370  26.902  21.752  1.00  0.00    -0.237 OA
ATOM     82  O   UNL A   1      52.085  28.535  22.437  1.00  0.00    -0.744 OA
ENDBRANCH  75  79
ENDBRANCH  48  72
BRANCH  60  83
ATOM     83  C   UNL A   1      46.683  32.722  28.392  1.00  0.00     0.023 A 
ATOM     84  C   UNL A   1      46.858  33.695  27.392  1.00  0.00     0.031 A 
ATOM     85  C   UNL A   1      47.093  33.043  29.700  1.00  0.00     0.131 A 
ATOM     86  C   UNL A   1      47.498  34.907  27.698  1.00  0.00     0.055 A 
ATOM     87  C   UNL A   1      47.663  34.278  30.012  1.00  0.00     0.041 A 
ATOM     88  F   UNL A   1      46.952  32.156  30.698  1.00  0.00    -0.206 F 
ATOM     89  C   UNL A   1      47.886  35.211  29.005  1.00  0.00     0.022 A 
BRANCH  86  90
ATOM     90  S   UNL A   1      47.934  36.029  26.339  1.00  0.00     0.124 S 
ATOM     91  O   UNL A   1      49.104  36.716  26.877  1.00  0.00    -0.237 OA
ATOM     92  O   UNL A   1      48.187  35.102  25.241  1.00  0.00    -0.237 OA
ATOM     93  O   UNL A   1      46.742  36.861  26.185  1.00  0.00    -0.744 OA
ENDBRANCH  86  90
ENDBRANCH  60  83
ENDBRANCH  34  35
ENDBRANCH  27  29
ENDBRANCH  26  27
ENDBRANCH  25  26
ENDBRANCH  24  25
ENDBRANCH  23  24
ENDBRANCH  22  23
ENDBRANCH   1  22
TORSDOF 23
ENDMDL
