MODEL 1
REMARK VINA RESULT:      -8.8      0.000      0.000
REMARK SMILES C[C@H](C(=O)OCCOCCOCCOC(=O)c1ccc(-c2c3nc(c(-c4cc(S(=O)(=O)[O-])ccc4F)c4ccc([nH]4)c(-c4cc(S(=O)(=O)[O-])ccc4F)c4nc(c(-c5cc(S(=O)(=O)[O-])ccc5F)c5ccc2[nH]5)C=C4)C=C3)cc1)[N@@H+](C)C[C@@H]1CCC[N@H+]1C
REMARK SMILES IDX 9 1 8 2 7 3 6 4 5 5 3 6 4 7 2 8 1 9 80 10 81 11 82 13 83 14
REMARK SMILES IDX 84 15 87 16 85 17 86 18 88 19 10 21 11 22 12 23 13 24 14 25
REMARK SMILES IDX 15 26 16 27 17 28 18 29 79 30 19 31 78 32 20 33 21 34 22 35
REMARK SMILES IDX 72 36 23 37 77 38 71 39 73 40 24 41 76 42 70 43 69 44 25 46
REMARK SMILES IDX 57 47 37 48 56 49 38 50 41 51 55 52 74 53 39 54 40 55 54 57
REMARK SMILES IDX 75 58 42 59 26 60 27 61 35 62 28 63 34 64 36 65 33 66 29 67
REMARK SMILES IDX 30 68 31 69 32 70 58 71 59 72 67 73 60 74 66 75 68 76 65 77
REMARK SMILES IDX 61 78 62 79 63 80 64 81 43 82 44 83 52 84 45 85 51 86 53 87
REMARK SMILES IDX 50 88 46 89 47 90 48 91 49 92
REMARK H PARENT 80 12 87 20 73 45 41 56
REMARK Flexibility Score: inf
ROOT
ATOM      1  C   UNL A   1      31.413  25.700  25.914  1.00  0.00     0.188 C 
ENDROOT
BRANCH   1   2
ATOM      2  O   UNL A   1      31.374  24.748  26.976  1.00  0.00    -0.376 OA
BRANCH   2   3
ATOM      3  C   UNL A   1      31.741  23.405  26.697  1.00  0.00     0.202 C 
BRANCH   3   4
ATOM      4  C   UNL A   1      33.027  22.919  27.367  1.00  0.00     0.261 C 
BRANCH   4   5
ATOM      5  O   UNL A   1      34.211  23.621  26.932  1.00  0.00    -0.459 OA
BRANCH   5   6
ATOM      6  C   UNL A   1      34.502  23.504  25.608  1.00  0.00     0.364 C 
ATOM      7  O   UNL A   1      34.781  24.459  24.887  1.00  0.00    -0.245 OA
BRANCH   6   8
ATOM      8  C   UNL A   1      34.536  22.063  25.066  1.00  0.00     0.291 C 
ATOM      9  C   UNL A   1      34.012  22.034  23.636  1.00  0.00     0.088 C 
BRANCH   8  10
ATOM     10  N   UNL A   1      35.786  21.305  25.354  1.00  0.00    -0.321 N 
ATOM     11  C   UNL A   1      35.666  19.918  24.915  1.00  0.00     0.333 C 
ATOM     12  H   UNL A   1      35.836  21.350  26.371  1.00  0.00     0.348 HD
BRANCH  10  13
ATOM     13  C   UNL A   1      37.091  21.909  25.022  1.00  0.00     0.328 C 
BRANCH  13  14
ATOM     14  C   UNL A   1      38.040  22.524  26.105  1.00  0.00     0.239 C 
ATOM     15  C   UNL A   1      38.095  24.055  26.150  1.00  0.00     0.077 C 
ATOM     16  N   UNL A   1      39.479  22.233  25.886  1.00  0.00    -0.330 N 
ATOM     17  C   UNL A   1      39.482  24.405  26.694  1.00  0.00     0.068 C 
ATOM     18  C   UNL A   1      40.184  23.075  26.857  1.00  0.00     0.262 C 
ATOM     19  C   UNL A   1      39.827  20.838  26.079  1.00  0.00     0.333 C 
ATOM     20  H   UNL A   1      39.733  22.428  24.917  1.00  0.00     0.348 HD
ENDBRANCH  13  14
ENDBRANCH  10  13
ENDBRANCH   8  10
ENDBRANCH   6   8
ENDBRANCH   5   6
ENDBRANCH   4   5
ENDBRANCH   3   4
ENDBRANCH   2   3
ENDBRANCH   1   2
BRANCH   1  21
ATOM     21  C   UNL A   1      30.902  27.115  26.191  1.00  0.00     0.188 C 
BRANCH  21  22
ATOM     22  O   UNL A   1      31.992  28.034  26.258  1.00  0.00    -0.376 OA
BRANCH  22  23
ATOM     23  C   UNL A   1      31.845  29.047  27.243  1.00  0.00     0.202 C 
BRANCH  23  24
ATOM     24  C   UNL A   1      32.115  30.418  26.626  1.00  0.00     0.261 C 
BRANCH  24  25
ATOM     25  O   UNL A   1      33.515  30.743  26.552  1.00  0.00    -0.460 OA
BRANCH  25  26
ATOM     26  C   UNL A   1      33.971  31.658  27.438  1.00  0.00     0.338 C 
ATOM     27  O   UNL A   1      33.421  32.695  27.758  1.00  0.00    -0.246 OA
BRANCH  26  28
ATOM     28  C   UNL A   1      35.191  31.113  28.074  1.00  0.00     0.060 A 
ATOM     29  C   UNL A   1      35.203  29.786  28.524  1.00  0.00     0.016 A 
ATOM     30  C   UNL A   1      36.315  31.926  28.244  1.00  0.00     0.016 A 
ATOM     31  C   UNL A   1      36.336  29.279  29.169  1.00  0.00     0.010 A 
ATOM     32  C   UNL A   1      37.440  31.421  28.899  1.00  0.00     0.010 A 
ATOM     33  C   UNL A   1      37.450  30.103  29.386  1.00  0.00    -0.014 A 
BRANCH  33  34
ATOM     34  C   UNL A   1      38.577  29.663  30.247  1.00  0.00     0.031 A 
ATOM     35  C   UNL A   1      38.677  30.218  31.642  1.00  0.00     0.074 A 
ATOM     36  C   UNL A   1      39.517  28.818  29.788  1.00  0.00     0.049 A 
ATOM     37  N   UNL A   1      39.647  30.115  32.513  1.00  0.00    -0.248 NA
ATOM     38  C   UNL A   1      37.525  31.005  32.109  1.00  0.00     0.031 C 
ATOM     39  C   UNL A   1      39.509  28.178  28.475  1.00  0.00     0.029 A 
ATOM     40  N   UNL A   1      40.676  28.372  30.374  1.00  0.00    -0.354 N 
ATOM     41  C   UNL A   1      39.226  30.824  33.632  1.00  0.00     0.074 A 
ATOM     42  C   UNL A   1      37.927  31.379  33.313  1.00  0.00     0.031 C 
ATOM     43  C   UNL A   1      40.626  27.439  28.344  1.00  0.00     0.029 A 
ATOM     44  C   UNL A   1      41.446  27.591  29.544  1.00  0.00     0.049 A 
ATOM     45  H   UNL A   1      40.931  28.589  31.300  1.00  0.00     0.167 HD
ATOM     46  C   UNL A   1      39.862  30.994  34.818  1.00  0.00     0.034 A 
ATOM     47  C   UNL A   1      42.689  27.095  29.716  1.00  0.00     0.034 A 
ATOM     48  C   UNL A   1      41.170  30.462  35.112  1.00  0.00     0.049 A 
ATOM     49  C   UNL A   1      43.422  27.372  31.007  1.00  0.00     0.074 A 
ATOM     50  C   UNL A   1      41.920  30.600  36.267  1.00  0.00     0.029 A 
ATOM     51  N   UNL A   1      41.929  29.694  34.238  1.00  0.00    -0.354 N 
ATOM     52  N   UNL A   1      43.032  28.075  32.045  1.00  0.00    -0.248 NA
ATOM     53  C   UNL A   1      44.762  26.786  31.148  1.00  0.00     0.031 C 
ATOM     54  C   UNL A   1      43.152  29.964  36.070  1.00  0.00     0.029 A 
ATOM     55  C   UNL A   1      43.144  29.367  34.819  1.00  0.00     0.049 A 
ATOM     56  H   UNL A   1      41.645  29.421  33.335  1.00  0.00     0.167 HD
ATOM     57  C   UNL A   1      44.069  27.994  32.971  1.00  0.00     0.074 A 
ATOM     58  C   UNL A   1      45.097  27.166  32.373  1.00  0.00     0.031 C 
ATOM     59  C   UNL A   1      44.164  28.550  34.206  1.00  0.00     0.034 A 
BRANCH  46  60
ATOM     60  C   UNL A   1      39.162  31.833  35.857  1.00  0.00     0.023 A 
ATOM     61  C   UNL A   1      38.508  31.248  36.955  1.00  0.00     0.031 A 
ATOM     62  C   UNL A   1      39.112  33.232  35.728  1.00  0.00     0.131 A 
ATOM     63  C   UNL A   1      37.775  32.051  37.842  1.00  0.00     0.055 A 
ATOM     64  C   UNL A   1      38.443  34.033  36.656  1.00  0.00     0.041 A 
ATOM     65  F   UNL A   1      39.697  33.844  34.686  1.00  0.00    -0.206 F 
ATOM     66  C   UNL A   1      37.758  33.442  37.714  1.00  0.00     0.022 A 
BRANCH  63  67
ATOM     67  S   UNL A   1      36.732  31.241  39.086  1.00  0.00     0.124 S 
ATOM     68  O   UNL A   1      37.609  31.247  40.255  1.00  0.00    -0.237 OA
ATOM     69  O   UNL A   1      35.574  32.125  39.151  1.00  0.00    -0.237 OA
ATOM     70  O   UNL A   1      36.478  29.920  38.513  1.00  0.00    -0.744 OA
ENDBRANCH  63  67
ENDBRANCH  46  60
BRANCH  47  71
ATOM     71  C   UNL A   1      43.353  26.335  28.619  1.00  0.00     0.023 A 
ATOM     72  C   UNL A   1      44.226  26.966  27.720  1.00  0.00     0.031 A 
ATOM     73  C   UNL A   1      43.085  24.967  28.431  1.00  0.00     0.131 A 
ATOM     74  C   UNL A   1      44.771  26.240  26.649  1.00  0.00     0.055 A 
ATOM     75  C   UNL A   1      43.667  24.238  27.393  1.00  0.00     0.041 A 
ATOM     76  F   UNL A   1      42.254  24.318  29.262  1.00  0.00    -0.206 F 
ATOM     77  C   UNL A   1      44.509  24.877  26.488  1.00  0.00     0.022 A 
BRANCH  74  78
ATOM     78  S   UNL A   1      45.781  27.119  25.426  1.00  0.00     0.124 S 
ATOM     79  O   UNL A   1      44.782  27.941  24.752  1.00  0.00    -0.237 OA
ATOM     80  O   UNL A   1      46.732  27.833  26.272  1.00  0.00    -0.237 OA
ATOM     81  O   UNL A   1      46.353  26.044  24.619  1.00  0.00    -0.744 OA
ENDBRANCH  74  78
ENDBRANCH  47  71
BRANCH  59  82
ATOM     82  C   UNL A   1      45.403  28.237  35.010  1.00  0.00     0.023 A 
ATOM     83  C   UNL A   1      46.580  28.996  34.888  1.00  0.00     0.031 A 
ATOM     84  C   UNL A   1      45.401  27.157  35.912  1.00  0.00     0.131 A 
ATOM     85  C   UNL A   1      47.722  28.636  35.620  1.00  0.00     0.055 A 
ATOM     86  C   UNL A   1      46.524  26.836  36.675  1.00  0.00     0.041 A 
ATOM     87  F   UNL A   1      44.304  26.399  36.067  1.00  0.00    -0.206 F 
ATOM     88  C   UNL A   1      47.696  27.569  36.523  1.00  0.00     0.022 A 
BRANCH  85  89
ATOM     89  S   UNL A   1      49.270  29.533  35.321  1.00  0.00     0.124 S 
ATOM     90  O   UNL A   1      50.216  28.443  35.103  1.00  0.00    -0.237 OA
ATOM     91  O   UNL A   1      48.944  30.338  34.149  1.00  0.00    -0.237 OA
ATOM     92  O   UNL A   1      49.472  30.291  36.555  1.00  0.00    -0.744 OA
ENDBRANCH  85  89
ENDBRANCH  59  82
ENDBRANCH  33  34
ENDBRANCH  26  28
ENDBRANCH  25  26
ENDBRANCH  24  25
ENDBRANCH  23  24
ENDBRANCH  22  23
ENDBRANCH  21  22
ENDBRANCH   1  21
TORSDOF 23
ENDMDL
MODEL 2
REMARK VINA RESULT:      -8.7      2.457      3.672
REMARK SMILES C[C@H](C(=O)OCCOCCOCCOC(=O)c1ccc(-c2c3nc(c(-c4cc(S(=O)(=O)[O-])ccc4F)c4ccc([nH]4)c(-c4cc(S(=O)(=O)[O-])ccc4F)c4nc(c(-c5cc(S(=O)(=O)[O-])ccc5F)c5ccc2[nH]5)C=C4)C=C3)cc1)[N@@H+](C)C[C@@H]1CCC[N@H+]1C
REMARK SMILES IDX 9 1 8 2 7 3 6 4 5 5 3 6 4 7 2 8 1 9 80 10 81 11 82 13 83 14
REMARK SMILES IDX 84 15 87 16 85 17 86 18 88 19 10 21 11 22 12 23 13 24 14 25
REMARK SMILES IDX 15 26 16 27 17 28 18 29 79 30 19 31 78 32 20 33 21 34 22 35
REMARK SMILES IDX 72 36 23 37 77 38 71 39 73 40 24 41 76 42 70 43 69 44 25 46
REMARK SMILES IDX 57 47 37 48 56 49 38 50 41 51 55 52 74 53 39 54 40 55 54 57
REMARK SMILES IDX 75 58 42 59 26 60 27 61 35 62 28 63 34 64 36 65 33 66 29 67
REMARK SMILES IDX 30 68 31 69 32 70 58 71 59 72 67 73 60 74 66 75 68 76 65 77
REMARK SMILES IDX 61 78 62 79 63 80 64 81 43 82 44 83 52 84 45 85 51 86 53 87
REMARK SMILES IDX 50 88 46 89 47 90 48 91 49 92
REMARK H PARENT 80 12 87 20 73 45 41 56
REMARK Flexibility Score: inf
ROOT
ATOM      1  C   UNL A   1      32.389  29.198  25.159  1.00  0.00     0.188 C 
ENDROOT
BRANCH   1   2
ATOM      2  O   UNL A   1      31.745  27.947  25.395  1.00  0.00    -0.376 OA
BRANCH   2   3
ATOM      3  C   UNL A   1      30.927  27.401  24.371  1.00  0.00     0.202 C 
BRANCH   3   4
ATOM      4  C   UNL A   1      31.497  26.176  23.655  1.00  0.00     0.261 C 
BRANCH   4   5
ATOM      5  O   UNL A   1      31.857  25.097  24.544  1.00  0.00    -0.459 OA
BRANCH   5   6
ATOM      6  C   UNL A   1      33.190  24.843  24.640  1.00  0.00     0.364 C 
ATOM      7  O   UNL A   1      34.056  25.709  24.538  1.00  0.00    -0.245 OA
BRANCH   6   8
ATOM      8  C   UNL A   1      33.561  23.384  24.964  1.00  0.00     0.291 C 
ATOM      9  C   UNL A   1      34.041  23.279  26.406  1.00  0.00     0.088 C 
BRANCH   8  10
ATOM     10  N   UNL A   1      32.589  22.360  24.488  1.00  0.00    -0.321 N 
ATOM     11  C   UNL A   1      32.522  22.345  23.031  1.00  0.00     0.333 C 
ATOM     12  H   UNL A   1      31.710  22.700  24.879  1.00  0.00     0.348 HD
BRANCH  10  13
ATOM     13  C   UNL A   1      32.610  21.010  25.084  1.00  0.00     0.328 C 
BRANCH  13  14
ATOM     14  C   UNL A   1      33.305  19.789  24.393  1.00  0.00     0.239 C 
ATOM     15  C   UNL A   1      32.500  18.485  24.377  1.00  0.00     0.077 C 
ATOM     16  N   UNL A   1      34.528  19.315  25.087  1.00  0.00    -0.330 N 
ATOM     17  C   UNL A   1      33.535  17.358  24.340  1.00  0.00     0.068 C 
ATOM     18  C   UNL A   1      34.875  18.057  24.419  1.00  0.00     0.262 C 
ATOM     19  C   UNL A   1      35.637  20.247  25.016  1.00  0.00     0.333 C 
ATOM     20  H   UNL A   1      34.346  19.209  26.086  1.00  0.00     0.348 HD
ENDBRANCH  13  14
ENDBRANCH  10  13
ENDBRANCH   8  10
ENDBRANCH   6   8
ENDBRANCH   5   6
ENDBRANCH   4   5
ENDBRANCH   3   4
ENDBRANCH   2   3
ENDBRANCH   1   2
BRANCH   1  21
ATOM     21  C   UNL A   1      31.849  30.437  25.875  1.00  0.00     0.188 C 
BRANCH  21  22
ATOM     22  O   UNL A   1      32.456  30.574  27.160  1.00  0.00    -0.376 OA
BRANCH  22  23
ATOM     23  C   UNL A   1      33.372  31.656  27.261  1.00  0.00     0.202 C 
BRANCH  23  24
ATOM     24  C   UNL A   1      32.613  32.962  27.488  1.00  0.00     0.261 C 
BRANCH  24  25
ATOM     25  O   UNL A   1      33.474  34.078  27.777  1.00  0.00    -0.460 OA
BRANCH  25  26
ATOM     26  C   UNL A   1      33.451  34.547  29.046  1.00  0.00     0.338 C 
ATOM     27  O   UNL A   1      32.603  35.266  29.538  1.00  0.00    -0.246 OA
BRANCH  26  28
ATOM     28  C   UNL A   1      34.560  33.910  29.791  1.00  0.00     0.060 A 
ATOM     29  C   UNL A   1      35.886  34.208  29.448  1.00  0.00     0.016 A 
ATOM     30  C   UNL A   1      34.285  33.000  30.814  1.00  0.00     0.016 A 
ATOM     31  C   UNL A   1      36.939  33.574  30.116  1.00  0.00     0.010 A 
ATOM     32  C   UNL A   1      35.337  32.359  31.472  1.00  0.00     0.010 A 
ATOM     33  C   UNL A   1      36.669  32.624  31.111  1.00  0.00    -0.014 A 
BRANCH  33  34
ATOM     34  C   UNL A   1      37.750  31.785  31.687  1.00  0.00     0.031 A 
ATOM     35  C   UNL A   1      38.293  32.141  33.044  1.00  0.00     0.074 A 
ATOM     36  C   UNL A   1      38.269  30.750  31.004  1.00  0.00     0.049 A 
ATOM     37  N   UNL A   1      39.334  31.667  33.677  1.00  0.00    -0.248 NA
ATOM     38  C   UNL A   1      37.559  33.183  33.780  1.00  0.00     0.031 C 
ATOM     39  C   UNL A   1      37.802  30.277  29.703  1.00  0.00     0.029 A 
ATOM     40  N   UNL A   1      39.324  29.923  31.305  1.00  0.00    -0.354 N 
ATOM     41  C   UNL A   1      39.386  32.353  34.885  1.00  0.00     0.074 A 
ATOM     42  C   UNL A   1      38.288  33.298  34.880  1.00  0.00     0.031 C 
ATOM     43  C   UNL A   1      38.584  29.257  29.304  1.00  0.00     0.029 A 
ATOM     44  C   UNL A   1      39.632  29.037  30.299  1.00  0.00     0.049 A 
ATOM     45  H   UNL A   1      39.812  29.959  32.159  1.00  0.00     0.167 HD
ATOM     46  C   UNL A   1      40.265  32.205  35.908  1.00  0.00     0.034 A 
ATOM     47  C   UNL A   1      40.666  28.179  30.176  1.00  0.00     0.034 A 
ATOM     48  C   UNL A   1      41.373  31.282  35.888  1.00  0.00     0.049 A 
ATOM     49  C   UNL A   1      41.689  28.094  31.284  1.00  0.00     0.074 A 
ATOM     50  C   UNL A   1      42.342  31.074  36.855  1.00  0.00     0.029 A 
ATOM     51  N   UNL A   1      41.666  30.415  34.843  1.00  0.00    -0.354 N 
ATOM     52  N   UNL A   1      41.751  28.772  32.406  1.00  0.00    -0.248 NA
ATOM     53  C   UNL A   1      42.780  27.126  31.106  1.00  0.00     0.031 C 
ATOM     54  C   UNL A   1      43.249  30.124  36.370  1.00  0.00     0.029 A 
ATOM     55  C   UNL A   1      42.808  29.686  35.132  1.00  0.00     0.049 A 
ATOM     56  H   UNL A   1      41.138  30.332  34.015  1.00  0.00     0.167 HD
ATOM     57  C   UNL A   1      42.874  28.294  33.078  1.00  0.00     0.074 A 
ATOM     58  C   UNL A   1      43.452  27.263  32.240  1.00  0.00     0.031 C 
ATOM     59  C   UNL A   1      43.380  28.670  34.281  1.00  0.00     0.034 A 
BRANCH  46  60
ATOM     60  C   UNL A   1      40.082  33.105  37.104  1.00  0.00     0.023 A 
ATOM     61  C   UNL A   1      39.325  32.701  38.218  1.00  0.00     0.031 A 
ATOM     62  C   UNL A   1      40.635  34.397  37.116  1.00  0.00     0.131 A 
ATOM     63  C   UNL A   1      39.085  33.604  39.265  1.00  0.00     0.055 A 
ATOM     64  C   UNL A   1      40.455  35.266  38.194  1.00  0.00     0.041 A 
ATOM     65  F   UNL A   1      41.346  34.846  36.069  1.00  0.00    -0.206 F 
ATOM     66  C   UNL A   1      39.665  34.875  39.272  1.00  0.00     0.022 A 
BRANCH  63  67
ATOM     67  S   UNL A   1      37.893  33.142  40.552  1.00  0.00     0.124 S 
ATOM     68  O   UNL A   1      36.732  32.755  39.753  1.00  0.00    -0.237 OA
ATOM     69  O   UNL A   1      38.581  32.059  41.246  1.00  0.00    -0.237 OA
ATOM     70  O   UNL A   1      37.728  34.372  41.324  1.00  0.00    -0.744 OA
ENDBRANCH  63  67
ENDBRANCH  46  60
BRANCH  47  71
ATOM     71  C   UNL A   1      40.829  27.371  28.934  1.00  0.00     0.023 A 
ATOM     72  C   UNL A   1      41.822  27.677  27.991  1.00  0.00     0.031 A 
ATOM     73  C   UNL A   1      39.958  26.302  28.655  1.00  0.00     0.131 A 
ATOM     74  C   UNL A   1      41.896  26.948  26.794  1.00  0.00     0.055 A 
ATOM     75  C   UNL A   1      40.067  25.549  27.485  1.00  0.00     0.041 A 
ATOM     76  F   UNL A   1      38.990  25.972  29.525  1.00  0.00    -0.206 F 
ATOM     77  C   UNL A   1      41.034  25.877  26.541  1.00  0.00     0.022 A 
BRANCH  74  78
ATOM     78  S   UNL A   1      43.097  27.461  25.535  1.00  0.00     0.124 S 
ATOM     79  O   UNL A   1      43.561  26.175  25.027  1.00  0.00    -0.237 OA
ATOM     80  O   UNL A   1      42.269  28.247  24.627  1.00  0.00    -0.237 OA
ATOM     81  O   UNL A   1      44.083  28.226  26.296  1.00  0.00    -0.744 OA
ENDBRANCH  74  78
ENDBRANCH  47  71
BRANCH  59  82
ATOM     82  C   UNL A   1      44.593  27.923  34.782  1.00  0.00     0.023 A 
ATOM     83  C   UNL A   1      44.487  26.671  35.412  1.00  0.00     0.031 A 
ATOM     84  C   UNL A   1      45.876  28.479  34.624  1.00  0.00     0.131 A 
ATOM     85  C   UNL A   1      45.638  26.038  35.905  1.00  0.00     0.055 A 
ATOM     86  C   UNL A   1      47.022  27.820  35.070  1.00  0.00     0.041 A 
ATOM     87  F   UNL A   1      46.034  29.672  34.029  1.00  0.00    -0.206 F 
ATOM     88  C   UNL A   1      46.906  26.598  35.724  1.00  0.00     0.022 A 
BRANCH  85  89
ATOM     89  S   UNL A   1      45.453  24.503  36.855  1.00  0.00     0.124 S 
ATOM     90  O   UNL A   1      46.769  24.367  37.472  1.00  0.00    -0.237 OA
ATOM     91  O   UNL A   1      44.355  24.826  37.760  1.00  0.00    -0.237 OA
ATOM     92  O   UNL A   1      45.139  23.503  35.836  1.00  0.00    -0.744 OA
ENDBRANCH  85  89
ENDBRANCH  59  82
ENDBRANCH  33  34
ENDBRANCH  26  28
ENDBRANCH  25  26
ENDBRANCH  24  25
ENDBRANCH  23  24
ENDBRANCH  22  23
ENDBRANCH  21  22
ENDBRANCH   1  21
TORSDOF 23
ENDMDL
MODEL 3
REMARK VINA RESULT:      -8.5      4.647      8.080
REMARK SMILES C[C@H](C(=O)OCCOCCOCCOC(=O)c1ccc(-c2c3nc(c(-c4cc(S(=O)(=O)[O-])ccc4F)c4ccc([nH]4)c(-c4cc(S(=O)(=O)[O-])ccc4F)c4nc(c(-c5cc(S(=O)(=O)[O-])ccc5F)c5ccc2[nH]5)C=C4)C=C3)cc1)[N@@H+](C)C[C@@H]1CCC[N@H+]1C
REMARK SMILES IDX 9 1 8 2 7 3 6 4 5 5 3 6 4 7 2 8 1 9 80 10 81 11 82 13 83 14
REMARK SMILES IDX 84 15 87 16 85 17 86 18 88 19 10 21 11 22 12 23 13 24 14 25
REMARK SMILES IDX 15 26 16 27 17 28 18 29 79 30 19 31 78 32 20 33 21 34 22 35
REMARK SMILES IDX 72 36 23 37 77 38 71 39 73 40 24 41 76 42 70 43 69 44 25 46
REMARK SMILES IDX 57 47 37 48 56 49 38 50 41 51 55 52 74 53 39 54 40 55 54 57
REMARK SMILES IDX 75 58 42 59 26 60 27 61 35 62 28 63 34 64 36 65 33 66 29 67
REMARK SMILES IDX 30 68 31 69 32 70 58 71 59 72 67 73 60 74 66 75 68 76 65 77
REMARK SMILES IDX 61 78 62 79 63 80 64 81 43 82 44 83 52 84 45 85 51 86 53 87
REMARK SMILES IDX 50 88 46 89 47 90 48 91 49 92
REMARK H PARENT 80 12 87 20 73 45 41 56
REMARK Flexibility Score: inf
ROOT
ATOM      1  C   UNL A   1      35.043  22.265  24.412  1.00  0.00     0.188 C 
ENDROOT
BRANCH   1   2
ATOM      2  O   UNL A   1      33.928  22.774  25.144  1.00  0.00    -0.376 OA
BRANCH   2   3
ATOM      3  C   UNL A   1      33.726  22.323  26.475  1.00  0.00     0.202 C 
BRANCH   3   4
ATOM      4  C   UNL A   1      32.454  22.828  27.157  1.00  0.00     0.261 C 
BRANCH   4   5
ATOM      5  O   UNL A   1      31.267  22.694  26.347  1.00  0.00    -0.459 OA
BRANCH   5   6
ATOM      6  C   UNL A   1      30.565  23.841  26.150  1.00  0.00     0.364 C 
ATOM      7  O   UNL A   1      29.705  24.254  26.926  1.00  0.00    -0.245 OA
BRANCH   6   8
ATOM      8  C   UNL A   1      30.968  24.656  24.906  1.00  0.00     0.291 C 
ATOM      9  C   UNL A   1      30.772  23.816  23.651  1.00  0.00     0.088 C 
BRANCH   8  10
ATOM     10  N   UNL A   1      30.470  26.059  24.877  1.00  0.00    -0.321 N 
ATOM     11  C   UNL A   1      31.467  26.976  25.421  1.00  0.00     0.333 C 
ATOM     12  H   UNL A   1      29.660  26.014  25.494  1.00  0.00     0.348 HD
BRANCH  10  13
ATOM     13  C   UNL A   1      29.815  26.570  23.657  1.00  0.00     0.328 C 
BRANCH  13  14
ATOM     14  C   UNL A   1      29.402  28.070  23.480  1.00  0.00     0.239 C 
ATOM     15  C   UNL A   1      27.928  28.320  23.145  1.00  0.00     0.077 C 
ATOM     16  N   UNL A   1      30.037  28.740  22.318  1.00  0.00    -0.330 N 
ATOM     17  C   UNL A   1      27.898  29.633  22.359  1.00  0.00     0.068 C 
ATOM     18  C   UNL A   1      29.350  30.031  22.209  1.00  0.00     0.262 C 
ATOM     19  C   UNL A   1      31.465  28.939  22.469  1.00  0.00     0.333 C 
ATOM     20  H   UNL A   1      29.945  28.158  21.484  1.00  0.00     0.348 HD
ENDBRANCH  13  14
ENDBRANCH  10  13
ENDBRANCH   8  10
ENDBRANCH   6   8
ENDBRANCH   5   6
ENDBRANCH   4   5
ENDBRANCH   3   4
ENDBRANCH   2   3
ENDBRANCH   1   2
BRANCH   1  21
ATOM     21  C   UNL A   1      35.494  20.829  24.688  1.00  0.00     0.188 C 
BRANCH  21  22
ATOM     22  O   UNL A   1      36.869  20.806  25.072  1.00  0.00    -0.376 OA
BRANCH  22  23
ATOM     23  C   UNL A   1      37.464  19.516  25.034  1.00  0.00     0.202 C 
BRANCH  23  24
ATOM     24  C   UNL A   1      38.985  19.646  24.971  1.00  0.00     0.261 C 
BRANCH  24  25
ATOM     25  O   UNL A   1      39.609  19.672  26.267  1.00  0.00    -0.460 OA
BRANCH  25  26
ATOM     26  C   UNL A   1      40.957  19.789  26.286  1.00  0.00     0.338 C 
ATOM     27  O   UNL A   1      41.763  18.955  25.923  1.00  0.00    -0.246 OA
BRANCH  26  28
ATOM     28  C   UNL A   1      41.291  21.175  26.686  1.00  0.00     0.060 A 
ATOM     29  C   UNL A   1      41.110  22.222  25.773  1.00  0.00     0.016 A 
ATOM     30  C   UNL A   1      41.804  21.431  27.960  1.00  0.00     0.016 A 
ATOM     31  C   UNL A   1      41.468  23.527  26.128  1.00  0.00     0.010 A 
ATOM     32  C   UNL A   1      42.171  22.732  28.308  1.00  0.00     0.010 A 
ATOM     33  C   UNL A   1      42.028  23.784  27.387  1.00  0.00    -0.014 A 
BRANCH  33  34
ATOM     34  C   UNL A   1      42.610  25.110  27.714  1.00  0.00     0.031 A 
ATOM     35  C   UNL A   1      41.732  26.139  28.374  1.00  0.00     0.074 A 
ATOM     36  C   UNL A   1      43.881  25.412  27.397  1.00  0.00     0.049 A 
ATOM     37  N   UNL A   1      41.960  27.406  28.604  1.00  0.00    -0.248 NA
ATOM     38  C   UNL A   1      40.413  25.669  28.826  1.00  0.00     0.031 C 
ATOM     39  C   UNL A   1      44.844  24.491  26.798  1.00  0.00     0.029 A 
ATOM     40  N   UNL A   1      44.573  26.593  27.517  1.00  0.00    -0.354 N 
ATOM     41  C   UNL A   1      40.814  27.888  29.226  1.00  0.00     0.074 A 
ATOM     42  C   UNL A   1      39.882  26.782  29.306  1.00  0.00     0.031 C 
ATOM     43  C   UNL A   1      45.997  25.149  26.577  1.00  0.00     0.029 A 
ATOM     44  C   UNL A   1      45.837  26.546  26.978  1.00  0.00     0.049 A 
ATOM     45  H   UNL A   1      44.200  27.396  27.947  1.00  0.00     0.167 HD
ATOM     46  C   UNL A   1      40.563  29.137  29.692  1.00  0.00     0.034 A 
ATOM     47  C   UNL A   1      46.744  27.527  26.788  1.00  0.00     0.034 A 
ATOM     48  C   UNL A   1      41.488  30.238  29.580  1.00  0.00     0.049 A 
ATOM     49  C   UNL A   1      46.411  28.934  27.229  1.00  0.00     0.074 A 
ATOM     50  C   UNL A   1      41.324  31.550  29.987  1.00  0.00     0.029 A 
ATOM     51  N   UNL A   1      42.752  30.157  29.008  1.00  0.00    -0.354 N 
ATOM     52  N   UNL A   1      45.311  29.389  27.782  1.00  0.00    -0.248 NA
ATOM     53  C   UNL A   1      47.446  29.956  27.020  1.00  0.00     0.031 C 
ATOM     54  C   UNL A   1      42.463  32.273  29.613  1.00  0.00     0.029 A 
ATOM     55  C   UNL A   1      43.369  31.398  29.036  1.00  0.00     0.049 A 
ATOM     56  H   UNL A   1      43.151  29.337  28.636  1.00  0.00     0.167 HD
ATOM     57  C   UNL A   1      45.532  30.745  28.009  1.00  0.00     0.074 A 
ATOM     58  C   UNL A   1      46.874  31.031  27.542  1.00  0.00     0.031 C 
ATOM     59  C   UNL A   1      44.703  31.671  28.556  1.00  0.00     0.034 A 
BRANCH  46  60
ATOM     60  C   UNL A   1      39.212  29.377  30.317  1.00  0.00     0.023 A 
ATOM     61  C   UNL A   1      38.217  30.118  29.655  1.00  0.00     0.031 A 
ATOM     62  C   UNL A   1      38.927  28.896  31.607  1.00  0.00     0.131 A 
ATOM     63  C   UNL A   1      37.013  30.415  30.310  1.00  0.00     0.055 A 
ATOM     64  C   UNL A   1      37.697  29.131  32.225  1.00  0.00     0.041 A 
ATOM     65  F   UNL A   1      39.847  28.204  32.297  1.00  0.00    -0.206 F 
ATOM     66  C   UNL A   1      36.736  29.906  31.581  1.00  0.00     0.022 A 
BRANCH  63  67
ATOM     67  S   UNL A   1      35.869  31.588  29.533  1.00  0.00     0.124 S 
ATOM     68  O   UNL A   1      35.175  30.732  28.573  1.00  0.00    -0.237 OA
ATOM     69  O   UNL A   1      35.074  32.052  30.665  1.00  0.00    -0.237 OA
ATOM     70  O   UNL A   1      36.753  32.589  28.940  1.00  0.00    -0.744 OA
ENDBRANCH  63  67
ENDBRANCH  46  60
BRANCH  47  71
ATOM     71  C   UNL A   1      48.032  27.238  26.097  1.00  0.00     0.023 A 
ATOM     72  C   UNL A   1      48.186  27.459  24.720  1.00  0.00     0.031 A 
ATOM     73  C   UNL A   1      49.118  26.692  26.805  1.00  0.00     0.131 A 
ATOM     74  C   UNL A   1      49.385  27.099  24.085  1.00  0.00     0.055 A 
ATOM     75  C   UNL A   1      50.325  26.380  26.178  1.00  0.00     0.041 A 
ATOM     76  F   UNL A   1      49.020  26.459  28.124  1.00  0.00    -0.206 F 
ATOM     77  C   UNL A   1      50.460  26.574  24.806  1.00  0.00     0.022 A 
BRANCH  74  78
ATOM     78  S   UNL A   1      49.498  27.265  22.282  1.00  0.00     0.124 S 
ATOM     79  O   UNL A   1      48.749  26.098  21.829  1.00  0.00    -0.237 OA
ATOM     80  O   UNL A   1      48.865  28.560  22.055  1.00  0.00    -0.237 OA
ATOM     81  O   UNL A   1      50.936  27.223  22.025  1.00  0.00    -0.744 OA
ENDBRANCH  74  78
ENDBRANCH  47  71
BRANCH  59  82
ATOM     82  C   UNL A   1      45.247  33.069  28.725  1.00  0.00     0.023 A 
ATOM     83  C   UNL A   1      45.984  33.447  29.861  1.00  0.00     0.031 A 
ATOM     84  C   UNL A   1      45.020  34.037  27.730  1.00  0.00     0.131 A 
ATOM     85  C   UNL A   1      46.427  34.772  29.996  1.00  0.00     0.055 A 
ATOM     86  C   UNL A   1      45.509  35.339  27.846  1.00  0.00     0.041 A 
ATOM     87  F   UNL A   1      44.323  33.729  26.625  1.00  0.00    -0.206 F 
ATOM     88  C   UNL A   1      46.207  35.716  28.989  1.00  0.00     0.022 A 
BRANCH  85  89
ATOM     89  S   UNL A   1      47.233  35.270  31.543  1.00  0.00     0.124 S 
ATOM     90  O   UNL A   1      48.550  34.655  31.412  1.00  0.00    -0.237 OA
ATOM     91  O   UNL A   1      47.199  36.726  31.460  1.00  0.00    -0.237 OA
ATOM     92  O   UNL A   1      46.379  34.690  32.578  1.00  0.00    -0.744 OA
ENDBRANCH  85  89
ENDBRANCH  59  82
ENDBRANCH  33  34
ENDBRANCH  26  28
ENDBRANCH  25  26
ENDBRANCH  24  25
ENDBRANCH  23  24
ENDBRANCH  22  23
ENDBRANCH  21  22
ENDBRANCH   1  21
TORSDOF 23
ENDMDL
