MODEL 1
REMARK VINA RESULT:      -9.5      0.000      0.000
REMARK SMILES CC(C)c1nc(N2C[C@H](C)OC(C)(C)C2)sc1C(=O)OCCOCCOCCOC(=O)c1ccc(-c2c3nc(c(-c4cc(S(=O)(=O)[O-])ccc4F)c4ccc([nH]4)c(-c4cc(S(=O)(=O)[O-])ccc4F)c4nc(c(-c5cc(S(=O)(=O)[O-])ccc5F)c5ccc2[nH]5)C=C4)C=C3)cc1
REMARK SMILES IDX 25 1 24 2 23 3 22 4 21 5 20 6 18 7 19 8 17 9 4 10 5 11 6 12
REMARK SMILES IDX 16 13 2 14 1 15 3 16 7 17 8 18 15 19 9 20 12 21 11 22 10 23
REMARK SMILES IDX 13 24 14 25 26 26 27 27 28 28 29 29 30 30 31 31 32 32 33 33
REMARK SMILES IDX 94 34 34 35 93 36 35 37 36 38 37 39 87 40 38 41 92 42 86 43
REMARK SMILES IDX 88 44 39 45 91 46 85 47 84 48 40 50 72 51 52 52 71 53 53 54
REMARK SMILES IDX 56 55 70 56 89 57 54 58 55 59 69 61 90 62 57 63 41 64 42 65
REMARK SMILES IDX 50 66 43 67 49 68 51 69 48 70 44 71 45 72 46 73 47 74 73 75
REMARK SMILES IDX 74 76 82 77 75 78 81 79 83 80 80 81 76 82 77 83 78 84 79 85
REMARK SMILES IDX 58 86 59 87 67 88 60 89 66 90 68 91 65 92 61 93 62 94 63 95
REMARK SMILES IDX 64 96
REMARK H PARENT 88 49 56 60
REMARK Flexibility Score: inf
ROOT
ATOM      1  C   UNL A   1      33.731  20.217  25.365  1.00  0.00     0.188 C 
ENDROOT
BRANCH   1   2
ATOM      2  C   UNL A   1      33.187  21.583  24.906  1.00  0.00     0.188 C 
BRANCH   2   3
ATOM      3  O   UNL A   1      32.583  22.453  25.859  1.00  0.00    -0.376 OA
BRANCH   3   4
ATOM      4  C   UNL A   1      31.294  22.992  25.598  1.00  0.00     0.202 C 
BRANCH   4   5
ATOM      5  C   UNL A   1      30.557  23.610  26.786  1.00  0.00     0.261 C 
BRANCH   5   6
ATOM      6  O   UNL A   1      31.088  24.899  27.134  1.00  0.00    -0.459 OA
BRANCH   6   7
ATOM      7  C   UNL A   1      30.882  25.894  26.225  1.00  0.00     0.350 C 
ATOM      8  O   UNL A   1      29.817  26.085  25.650  1.00  0.00    -0.245 OA
BRANCH   7   9
ATOM      9  C   UNL A   1      32.056  26.727  26.111  1.00  0.00     0.137 A 
ATOM     10  C   UNL A   1      33.162  26.689  25.273  1.00  0.00     0.071 A 
ATOM     11  N   UNL A   1      34.045  27.748  25.455  1.00  0.00    -0.224 NA
ATOM     12  C   UNL A   1      33.685  28.504  26.464  1.00  0.00     0.186 A 
ATOM     13  S   UNL A   1      32.222  28.032  27.220  1.00  0.00    -0.089 S 
BRANCH  10  14
ATOM     14  C   UNL A   1      33.484  25.705  24.175  1.00  0.00     0.034 C 
ATOM     15  C   UNL A   1      33.623  26.416  22.828  1.00  0.00     0.014 C 
ATOM     16  C   UNL A   1      34.754  24.895  24.475  1.00  0.00     0.014 C 
ENDBRANCH  10  14
BRANCH  12  17
ATOM     17  N   UNL A   1      34.363  29.606  26.835  1.00  0.00    -0.343 N 
ATOM     18  C   UNL A   1      33.755  30.926  26.907  1.00  0.00     0.150 C 
ATOM     19  C   UNL A   1      35.806  29.556  27.007  1.00  0.00     0.153 C 
ATOM     20  C   UNL A   1      34.180  31.591  28.236  1.00  0.00     0.135 C 
ATOM     21  C   UNL A   1      36.218  30.284  28.310  1.00  0.00     0.081 C 
ATOM     22  O   UNL A   1      35.615  31.595  28.400  1.00  0.00    -0.369 OA
ATOM     23  C   UNL A   1      33.712  33.039  28.304  1.00  0.00     0.040 C 
ATOM     24  C   UNL A   1      35.877  29.444  29.550  1.00  0.00     0.044 C 
ATOM     25  C   UNL A   1      37.733  30.526  28.283  1.00  0.00     0.044 C 
ENDBRANCH  12  17
ENDBRANCH   7   9
ENDBRANCH   6   7
ENDBRANCH   5   6
ENDBRANCH   4   5
ENDBRANCH   3   4
ENDBRANCH   2   3
ENDBRANCH   1   2
BRANCH   1  26
ATOM     26  O   UNL A   1      35.046  19.930  24.909  1.00  0.00    -0.376 OA
BRANCH  26  27
ATOM     27  C   UNL A   1      35.917  21.049  24.810  1.00  0.00     0.202 C 
BRANCH  27  28
ATOM     28  C   UNL A   1      37.391  20.679  24.997  1.00  0.00     0.261 C 
BRANCH  28  29
ATOM     29  O   UNL A   1      38.233  21.762  25.422  1.00  0.00    -0.460 OA
BRANCH  29  30
ATOM     30  C   UNL A   1      39.350  21.432  26.112  1.00  0.00     0.338 C 
ATOM     31  O   UNL A   1      39.921  20.357  26.106  1.00  0.00    -0.246 OA
BRANCH  30  32
ATOM     32  C   UNL A   1      39.865  22.661  26.749  1.00  0.00     0.060 A 
ATOM     33  C   UNL A   1      39.340  23.900  26.361  1.00  0.00     0.016 A 
ATOM     34  C   UNL A   1      40.859  22.586  27.729  1.00  0.00     0.016 A 
ATOM     35  C   UNL A   1      39.829  25.072  26.942  1.00  0.00     0.010 A 
ATOM     36  C   UNL A   1      41.356  23.761  28.297  1.00  0.00     0.010 A 
ATOM     37  C   UNL A   1      40.861  25.012  27.890  1.00  0.00    -0.014 A 
BRANCH  37  38
ATOM     38  C   UNL A   1      41.545  26.252  28.335  1.00  0.00     0.031 A 
ATOM     39  C   UNL A   1      42.965  26.485  27.895  1.00  0.00     0.074 A 
ATOM     40  C   UNL A   1      40.926  27.147  29.126  1.00  0.00     0.049 A 
ATOM     41  N   UNL A   1      43.781  27.460  28.198  1.00  0.00    -0.248 NA
ATOM     42  C   UNL A   1      43.540  25.473  26.995  1.00  0.00     0.031 C 
ATOM     43  C   UNL A   1      39.546  27.049  29.596  1.00  0.00     0.029 A 
ATOM     44  N   UNL A   1      41.390  28.314  29.682  1.00  0.00    -0.354 N 
ATOM     45  C   UNL A   1      44.966  27.185  27.524  1.00  0.00     0.074 A 
ATOM     46  C   UNL A   1      44.770  25.930  26.826  1.00  0.00     0.031 C 
ATOM     47  C   UNL A   1      39.279  28.107  30.384  1.00  0.00     0.029 A 
ATOM     48  C   UNL A   1      40.476  28.938  30.499  1.00  0.00     0.049 A 
ATOM     49  H   UNL A   1      42.291  28.671  29.511  1.00  0.00     0.167 HD
ATOM     50  C   UNL A   1      46.109  27.912  27.484  1.00  0.00     0.034 A 
ATOM     51  C   UNL A   1      40.603  30.038  31.270  1.00  0.00     0.034 A 
ATOM     52  C   UNL A   1      46.305  29.145  28.204  1.00  0.00     0.049 A 
ATOM     53  C   UNL A   1      41.919  30.783  31.283  1.00  0.00     0.074 A 
ATOM     54  C   UNL A   1      47.418  29.968  28.220  1.00  0.00     0.029 A 
ATOM     55  N   UNL A   1      45.371  29.725  29.053  1.00  0.00    -0.354 N 
ATOM     56  N   UNL A   1      43.024  30.526  30.620  1.00  0.00    -0.248 NA
ATOM     57  C   UNL A   1      42.001  31.971  32.146  1.00  0.00     0.031 C 
ATOM     58  C   UNL A   1      47.183  31.007  29.127  1.00  0.00     0.029 A 
ATOM     59  C   UNL A   1      45.896  30.875  29.623  1.00  0.00     0.049 A 
ATOM     60  H   UNL A   1      44.469  29.372  29.225  1.00  0.00     0.167 HD
ATOM     61  C   UNL A   1      43.916  31.539  30.962  1.00  0.00     0.074 A 
ATOM     62  C   UNL A   1      43.221  32.414  31.882  1.00  0.00     0.031 C 
ATOM     63  C   UNL A   1      45.194  31.735  30.547  1.00  0.00     0.034 A 
BRANCH  50  64
ATOM     64  C   UNL A   1      47.249  27.353  26.670  1.00  0.00     0.023 A 
ATOM     65  C   UNL A   1      47.462  27.739  25.335  1.00  0.00     0.031 A 
ATOM     66  C   UNL A   1      48.112  26.392  27.225  1.00  0.00     0.131 A 
ATOM     67  C   UNL A   1      48.467  27.118  24.580  1.00  0.00     0.055 A 
ATOM     68  C   UNL A   1      49.157  25.831  26.490  1.00  0.00     0.041 A 
ATOM     69  F   UNL A   1      47.941  25.968  28.488  1.00  0.00    -0.206 F 
ATOM     70  C   UNL A   1      49.330  26.182  25.155  1.00  0.00     0.022 A 
BRANCH  67  71
ATOM     71  S   UNL A   1      48.540  27.448  22.798  1.00  0.00     0.124 S 
ATOM     72  O   UNL A   1      49.812  28.158  22.680  1.00  0.00    -0.237 OA
ATOM     73  O   UNL A   1      48.501  26.108  22.226  1.00  0.00    -0.237 OA
ATOM     74  O   UNL A   1      47.354  28.267  22.553  1.00  0.00    -0.744 OA
ENDBRANCH  67  71
ENDBRANCH  50  64
BRANCH  51  75
ATOM     75  C   UNL A   1      39.478  30.493  32.136  1.00  0.00     0.023 A 
ATOM     76  C   UNL A   1      38.564  31.462  31.692  1.00  0.00     0.031 A 
ATOM     77  C   UNL A   1      39.346  30.017  33.453  1.00  0.00     0.131 A 
ATOM     78  C   UNL A   1      37.589  31.960  32.571  1.00  0.00     0.055 A 
ATOM     79  C   UNL A   1      38.344  30.479  34.308  1.00  0.00     0.041 A 
ATOM     80  F   UNL A   1      40.197  29.095  33.930  1.00  0.00    -0.206 F 
ATOM     81  C   UNL A   1      37.465  31.467  33.873  1.00  0.00     0.022 A 
BRANCH  78  82
ATOM     82  S   UNL A   1      36.538  33.331  32.018  1.00  0.00     0.124 S 
ATOM     83  O   UNL A   1      36.895  33.429  30.608  1.00  0.00    -0.237 OA
ATOM     84  O   UNL A   1      35.200  32.823  32.308  1.00  0.00    -0.237 OA
ATOM     85  O   UNL A   1      36.971  34.450  32.852  1.00  0.00    -0.744 OA
ENDBRANCH  78  82
ENDBRANCH  51  75
BRANCH  63  86
ATOM     86  C   UNL A   1      45.900  32.973  31.045  1.00  0.00     0.023 A 
ATOM     87  C   UNL A   1      46.672  32.966  32.221  1.00  0.00     0.031 A 
ATOM     88  C   UNL A   1      45.792  34.180  30.331  1.00  0.00     0.131 A 
ATOM     89  C   UNL A   1      47.266  34.155  32.673  1.00  0.00     0.055 A 
ATOM     90  C   UNL A   1      46.430  35.346  30.756  1.00  0.00     0.041 A 
ATOM     91  F   UNL A   1      45.068  34.243  29.202  1.00  0.00    -0.206 F 
ATOM     92  C   UNL A   1      47.163  35.341  31.940  1.00  0.00     0.022 A 
BRANCH  89  93
ATOM     93  S   UNL A   1      48.116  34.153  34.275  1.00  0.00     0.124 S 
ATOM     94  O   UNL A   1      46.999  34.147  35.213  1.00  0.00    -0.237 OA
ATOM     95  O   UNL A   1      48.902  32.925  34.211  1.00  0.00    -0.237 OA
ATOM     96  O   UNL A   1      48.898  35.388  34.251  1.00  0.00    -0.744 OA
ENDBRANCH  89  93
ENDBRANCH  63  86
ENDBRANCH  37  38
ENDBRANCH  30  32
ENDBRANCH  29  30
ENDBRANCH  28  29
ENDBRANCH  27  28
ENDBRANCH  26  27
ENDBRANCH   1  26
TORSDOF 22
ENDMDL
MODEL 2
REMARK VINA RESULT:      -9.5      2.921      8.172
REMARK SMILES CC(C)c1nc(N2C[C@H](C)OC(C)(C)C2)sc1C(=O)OCCOCCOCCOC(=O)c1ccc(-c2c3nc(c(-c4cc(S(=O)(=O)[O-])ccc4F)c4ccc([nH]4)c(-c4cc(S(=O)(=O)[O-])ccc4F)c4nc(c(-c5cc(S(=O)(=O)[O-])ccc5F)c5ccc2[nH]5)C=C4)C=C3)cc1
REMARK SMILES IDX 25 1 24 2 23 3 22 4 21 5 20 6 18 7 19 8 17 9 4 10 5 11 6 12
REMARK SMILES IDX 16 13 2 14 1 15 3 16 7 17 8 18 15 19 9 20 12 21 11 22 10 23
REMARK SMILES IDX 13 24 14 25 26 26 27 27 28 28 29 29 30 30 31 31 32 32 33 33
REMARK SMILES IDX 94 34 34 35 93 36 35 37 36 38 37 39 87 40 38 41 92 42 86 43
REMARK SMILES IDX 88 44 39 45 91 46 85 47 84 48 40 50 72 51 52 52 71 53 53 54
REMARK SMILES IDX 56 55 70 56 89 57 54 58 55 59 69 61 90 62 57 63 41 64 42 65
REMARK SMILES IDX 50 66 43 67 49 68 51 69 48 70 44 71 45 72 46 73 47 74 73 75
REMARK SMILES IDX 74 76 82 77 75 78 81 79 83 80 80 81 76 82 77 83 78 84 79 85
REMARK SMILES IDX 58 86 59 87 67 88 60 89 66 90 68 91 65 92 61 93 62 94 63 95
REMARK SMILES IDX 64 96
REMARK H PARENT 88 49 56 60
REMARK Flexibility Score: inf
ROOT
ATOM      1  C   UNL A   1      37.118  22.154  24.406  1.00  0.00     0.188 C 
ENDROOT
BRANCH   1   2
ATOM      2  C   UNL A   1      35.799  22.415  25.157  1.00  0.00     0.188 C 
BRANCH   2   3
ATOM      3  O   UNL A   1      35.837  22.783  26.533  1.00  0.00    -0.376 OA
BRANCH   3   4
ATOM      4  C   UNL A   1      34.620  22.933  27.253  1.00  0.00     0.202 C 
BRANCH   4   5
ATOM      5  C   UNL A   1      33.562  21.851  27.042  1.00  0.00     0.261 C 
BRANCH   5   6
ATOM      6  O   UNL A   1      32.231  22.364  27.206  1.00  0.00    -0.459 OA
BRANCH   6   7
ATOM      7  C   UNL A   1      31.469  22.418  26.076  1.00  0.00     0.350 C 
ATOM      8  O   UNL A   1      30.614  21.589  25.787  1.00  0.00    -0.245 OA
BRANCH   7   9
ATOM      9  C   UNL A   1      31.754  23.622  25.331  1.00  0.00     0.137 A 
ATOM     10  C   UNL A   1      32.105  23.851  24.007  1.00  0.00     0.071 A 
ATOM     11  N   UNL A   1      32.218  25.198  23.679  1.00  0.00    -0.224 NA
ATOM     12  C   UNL A   1      32.065  25.963  24.733  1.00  0.00     0.186 A 
ATOM     13  S   UNL A   1      31.708  25.117  26.180  1.00  0.00    -0.089 S 
BRANCH  10  14
ATOM     14  C   UNL A   1      32.312  22.851  22.896  1.00  0.00     0.034 C 
ATOM     15  C   UNL A   1      33.226  23.423  21.812  1.00  0.00     0.014 C 
ATOM     16  C   UNL A   1      32.878  21.520  23.411  1.00  0.00     0.014 C 
ENDBRANCH  10  14
BRANCH  12  17
ATOM     17  N   UNL A   1      32.109  27.307  24.678  1.00  0.00    -0.343 N 
ATOM     18  C   UNL A   1      31.295  28.092  23.762  1.00  0.00     0.150 C 
ATOM     19  C   UNL A   1      33.125  28.038  25.418  1.00  0.00     0.153 C 
ATOM     20  C   UNL A   1      30.672  29.271  24.544  1.00  0.00     0.135 C 
ATOM     21  C   UNL A   1      32.493  29.253  26.142  1.00  0.00     0.081 C 
ATOM     22  O   UNL A   1      31.675  30.038  25.246  1.00  0.00    -0.369 OA
ATOM     23  C   UNL A   1      29.939  30.226  23.612  1.00  0.00     0.040 C 
ATOM     24  C   UNL A   1      31.683  28.811  27.370  1.00  0.00     0.044 C 
ATOM     25  C   UNL A   1      33.615  30.190  26.606  1.00  0.00     0.044 C 
ENDBRANCH  12  17
ENDBRANCH   7   9
ENDBRANCH   6   7
ENDBRANCH   5   6
ENDBRANCH   4   5
ENDBRANCH   3   4
ENDBRANCH   2   3
ENDBRANCH   1   2
BRANCH   1  26
ATOM     26  O   UNL A   1      38.060  21.377  25.134  1.00  0.00    -0.376 OA
BRANCH  26  27
ATOM     27  C   UNL A   1      37.965  19.971  24.950  1.00  0.00     0.202 C 
BRANCH  27  28
ATOM     28  C   UNL A   1      39.158  19.209  25.533  1.00  0.00     0.261 C 
BRANCH  28  29
ATOM     29  O   UNL A   1      40.074  20.017  26.290  1.00  0.00    -0.460 OA
BRANCH  29  30
ATOM     30  C   UNL A   1      41.392  19.753  26.134  1.00  0.00     0.338 C 
ATOM     31  O   UNL A   1      41.887  18.724  25.712  1.00  0.00    -0.246 OA
BRANCH  30  32
ATOM     32  C   UNL A   1      42.137  21.000  26.405  1.00  0.00     0.060 A 
ATOM     33  C   UNL A   1      42.429  21.342  27.731  1.00  0.00     0.016 A 
ATOM     34  C   UNL A   1      42.547  21.821  25.352  1.00  0.00     0.016 A 
ATOM     35  C   UNL A   1      43.116  22.527  28.006  1.00  0.00     0.010 A 
ATOM     36  C   UNL A   1      43.221  23.012  25.631  1.00  0.00     0.010 A 
ATOM     37  C   UNL A   1      43.489  23.384  26.960  1.00  0.00    -0.014 A 
BRANCH  37  38
ATOM     38  C   UNL A   1      44.006  24.744  27.252  1.00  0.00     0.031 A 
ATOM     39  C   UNL A   1      43.044  25.780  27.768  1.00  0.00     0.074 A 
ATOM     40  C   UNL A   1      45.297  25.061  27.049  1.00  0.00     0.049 A 
ATOM     41  N   UNL A   1      43.248  27.042  28.042  1.00  0.00    -0.248 NA
ATOM     42  C   UNL A   1      41.665  25.326  28.001  1.00  0.00     0.031 C 
ATOM     43  C   UNL A   1      46.331  24.141  26.579  1.00  0.00     0.029 A 
ATOM     44  N   UNL A   1      45.956  26.256  27.205  1.00  0.00    -0.354 N 
ATOM     45  C   UNL A   1      42.025  27.535  28.484  1.00  0.00     0.074 A 
ATOM     46  C   UNL A   1      41.078  26.442  28.405  1.00  0.00     0.031 C 
ATOM     47  C   UNL A   1      47.492  24.811  26.471  1.00  0.00     0.029 A 
ATOM     48  C   UNL A   1      47.279  26.211  26.832  1.00  0.00     0.049 A 
ATOM     49  H   UNL A   1      45.522  27.069  27.553  1.00  0.00     0.167 HD
ATOM     50  C   UNL A   1      41.720  28.782  28.920  1.00  0.00     0.034 A 
ATOM     51  C   UNL A   1      48.201  27.194  26.766  1.00  0.00     0.034 A 
ATOM     52  C   UNL A   1      42.661  29.871  28.969  1.00  0.00     0.049 A 
ATOM     53  C   UNL A   1      47.814  28.599  27.170  1.00  0.00     0.074 A 
ATOM     54  C   UNL A   1      42.459  31.168  29.409  1.00  0.00     0.029 A 
ATOM     55  N   UNL A   1      43.982  29.799  28.546  1.00  0.00    -0.354 N 
ATOM     56  N   UNL A   1      46.660  29.046  27.610  1.00  0.00    -0.248 NA
ATOM     57  C   UNL A   1      48.857  29.629  27.072  1.00  0.00     0.031 C 
ATOM     58  C   UNL A   1      43.635  31.895  29.190  1.00  0.00     0.029 A 
ATOM     59  C   UNL A   1      44.595  31.035  28.682  1.00  0.00     0.049 A 
ATOM     60  H   UNL A   1      44.420  28.988  28.199  1.00  0.00     0.167 HD
ATOM     61  C   UNL A   1      46.852  30.401  27.872  1.00  0.00     0.074 A 
ATOM     62  C   UNL A   1      48.232  30.695  27.549  1.00  0.00     0.031 C 
ATOM     63  C   UNL A   1      45.971  31.318  28.347  1.00  0.00     0.034 A 
BRANCH  50  64
ATOM     64  C   UNL A   1      40.290  29.034  29.328  1.00  0.00     0.023 A 
ATOM     65  C   UNL A   1      39.892  29.009  30.677  1.00  0.00     0.031 A 
ATOM     66  C   UNL A   1      39.304  29.265  28.353  1.00  0.00     0.131 A 
ATOM     67  C   UNL A   1      38.535  29.142  31.007  1.00  0.00     0.055 A 
ATOM     68  C   UNL A   1      37.967  29.470  28.694  1.00  0.00     0.041 A 
ATOM     69  F   UNL A   1      39.623  29.275  27.048  1.00  0.00    -0.206 F 
ATOM     70  C   UNL A   1      37.573  29.395  30.027  1.00  0.00     0.022 A 
BRANCH  67  71
ATOM     71  S   UNL A   1      38.029  28.843  32.722  1.00  0.00     0.124 S 
ATOM     72  O   UNL A   1      38.074  27.384  32.795  1.00  0.00    -0.237 OA
ATOM     73  O   UNL A   1      39.051  29.551  33.482  1.00  0.00    -0.237 OA
ATOM     74  O   UNL A   1      36.688  29.421  32.790  1.00  0.00    -0.744 OA
ENDBRANCH  67  71
ENDBRANCH  50  64
BRANCH  51  75
ATOM     75  C   UNL A   1      49.575  26.914  26.258  1.00  0.00     0.023 A 
ATOM     76  C   UNL A   1      49.947  27.249  24.946  1.00  0.00     0.031 A 
ATOM     77  C   UNL A   1      50.513  26.236  27.057  1.00  0.00     0.131 A 
ATOM     78  C   UNL A   1      51.205  26.864  24.457  1.00  0.00     0.055 A 
ATOM     79  C   UNL A   1      51.782  25.899  26.581  1.00  0.00     0.041 A 
ATOM     80  F   UNL A   1      50.206  25.886  28.316  1.00  0.00    -0.206 F 
ATOM     81  C   UNL A   1      52.129  26.202  25.268  1.00  0.00     0.022 A 
BRANCH  78  82
ATOM     82  S   UNL A   1      51.585  27.163  22.708  1.00  0.00     0.124 S 
ATOM     83  O   UNL A   1      52.723  26.275  22.495  1.00  0.00    -0.237 OA
ATOM     84  O   UNL A   1      50.338  26.775  22.056  1.00  0.00    -0.237 OA
ATOM     85  O   UNL A   1      51.891  28.591  22.664  1.00  0.00    -0.744 OA
ENDBRANCH  78  82
ENDBRANCH  51  75
BRANCH  63  86
ATOM     86  C   UNL A   1      46.492  32.713  28.593  1.00  0.00     0.023 A 
ATOM     87  C   UNL A   1      46.588  33.664  27.562  1.00  0.00     0.031 A 
ATOM     88  C   UNL A   1      46.903  33.093  29.884  1.00  0.00     0.131 A 
ATOM     89  C   UNL A   1      47.128  34.932  27.828  1.00  0.00     0.055 A 
ATOM     90  C   UNL A   1      47.389  34.372  30.154  1.00  0.00     0.041 A 
ATOM     91  F   UNL A   1      46.833  32.225  30.905  1.00  0.00    -0.206 F 
ATOM     92  C   UNL A   1      47.515  35.297  29.121  1.00  0.00     0.022 A 
BRANCH  89  93
ATOM     93  S   UNL A   1      47.392  36.078  26.447  1.00  0.00     0.124 S 
ATOM     94  O   UNL A   1      47.974  35.205  25.434  1.00  0.00    -0.237 OA
ATOM     95  O   UNL A   1      46.041  36.557  26.176  1.00  0.00    -0.237 OA
ATOM     96  O   UNL A   1      48.303  37.079  27.000  1.00  0.00    -0.744 OA
ENDBRANCH  89  93
ENDBRANCH  63  86
ENDBRANCH  37  38
ENDBRANCH  30  32
ENDBRANCH  29  30
ENDBRANCH  28  29
ENDBRANCH  27  28
ENDBRANCH  26  27
ENDBRANCH   1  26
TORSDOF 22
ENDMDL
MODEL 3
REMARK VINA RESULT:      -9.2      1.845      2.154
REMARK SMILES CC(C)c1nc(N2C[C@H](C)OC(C)(C)C2)sc1C(=O)OCCOCCOCCOC(=O)c1ccc(-c2c3nc(c(-c4cc(S(=O)(=O)[O-])ccc4F)c4ccc([nH]4)c(-c4cc(S(=O)(=O)[O-])ccc4F)c4nc(c(-c5cc(S(=O)(=O)[O-])ccc5F)c5ccc2[nH]5)C=C4)C=C3)cc1
REMARK SMILES IDX 25 1 24 2 23 3 22 4 21 5 20 6 18 7 19 8 17 9 4 10 5 11 6 12
REMARK SMILES IDX 16 13 2 14 1 15 3 16 7 17 8 18 15 19 9 20 12 21 11 22 10 23
REMARK SMILES IDX 13 24 14 25 26 26 27 27 28 28 29 29 30 30 31 31 32 32 33 33
REMARK SMILES IDX 94 34 34 35 93 36 35 37 36 38 37 39 87 40 38 41 92 42 86 43
REMARK SMILES IDX 88 44 39 45 91 46 85 47 84 48 40 50 72 51 52 52 71 53 53 54
REMARK SMILES IDX 56 55 70 56 89 57 54 58 55 59 69 61 90 62 57 63 41 64 42 65
REMARK SMILES IDX 50 66 43 67 49 68 51 69 48 70 44 71 45 72 46 73 47 74 73 75
REMARK SMILES IDX 74 76 82 77 75 78 81 79 83 80 80 81 76 82 77 83 78 84 79 85
REMARK SMILES IDX 58 86 59 87 67 88 60 89 66 90 68 91 65 92 61 93 62 94 63 95
REMARK SMILES IDX 64 96
REMARK H PARENT 88 49 56 60
REMARK Flexibility Score: inf
ROOT
ATOM      1  C   UNL A   1      33.815  20.582  25.735  1.00  0.00     0.188 C 
ENDROOT
BRANCH   1   2
ATOM      2  C   UNL A   1      32.951  21.636  25.018  1.00  0.00     0.188 C 
BRANCH   2   3
ATOM      3  O   UNL A   1      32.937  22.977  25.500  1.00  0.00    -0.376 OA
BRANCH   3   4
ATOM      4  C   UNL A   1      31.765  23.766  25.345  1.00  0.00     0.202 C 
BRANCH   4   5
ATOM      5  C   UNL A   1      31.110  24.277  26.628  1.00  0.00     0.261 C 
BRANCH   5   6
ATOM      6  O   UNL A   1      31.558  25.599  26.968  1.00  0.00    -0.459 OA
BRANCH   6   7
ATOM      7  C   UNL A   1      31.228  26.586  26.087  1.00  0.00     0.350 C 
ATOM      8  O   UNL A   1      30.149  26.654  25.509  1.00  0.00    -0.245 OA
BRANCH   7   9
ATOM      9  C   UNL A   1      32.283  27.569  26.008  1.00  0.00     0.137 A 
ATOM     10  C   UNL A   1      33.083  28.011  24.963  1.00  0.00     0.071 A 
ATOM     11  N   UNL A   1      33.943  29.047  25.311  1.00  0.00    -0.224 NA
ATOM     12  C   UNL A   1      33.881  29.312  26.594  1.00  0.00     0.186 A 
ATOM     13  S   UNL A   1      32.732  28.379  27.458  1.00  0.00    -0.089 S 
BRANCH  10  14
ATOM     14  C   UNL A   1      33.091  27.564  23.522  1.00  0.00     0.034 C 
ATOM     15  C   UNL A   1      33.947  28.498  22.666  1.00  0.00     0.014 C 
ATOM     16  C   UNL A   1      33.578  26.116  23.366  1.00  0.00     0.014 C 
ENDBRANCH  10  14
BRANCH  12  17
ATOM     17  N   UNL A   1      34.601  30.287  27.179  1.00  0.00    -0.343 N 
ATOM     18  C   UNL A   1      34.040  31.580  27.544  1.00  0.00     0.150 C 
ATOM     19  C   UNL A   1      36.043  30.156  27.308  1.00  0.00     0.153 C 
ATOM     20  C   UNL A   1      34.504  31.930  28.976  1.00  0.00     0.135 C 
ATOM     21  C   UNL A   1      36.496  30.574  28.729  1.00  0.00     0.081 C 
ATOM     22  O   UNL A   1      35.940  31.854  29.109  1.00  0.00    -0.369 OA
ATOM     23  C   UNL A   1      34.087  33.344  29.360  1.00  0.00     0.040 C 
ATOM     24  C   UNL A   1      36.141  29.499  29.766  1.00  0.00     0.044 C 
ATOM     25  C   UNL A   1      38.018  30.769  28.725  1.00  0.00     0.044 C 
ENDBRANCH  12  17
ENDBRANCH   7   9
ENDBRANCH   6   7
ENDBRANCH   5   6
ENDBRANCH   4   5
ENDBRANCH   3   4
ENDBRANCH   2   3
ENDBRANCH   1   2
BRANCH   1  26
ATOM     26  O   UNL A   1      34.999  20.225  25.034  1.00  0.00    -0.376 OA
BRANCH  26  27
ATOM     27  C   UNL A   1      35.871  21.302  24.717  1.00  0.00     0.202 C 
BRANCH  27  28
ATOM     28  C   UNL A   1      37.338  20.996  25.029  1.00  0.00     0.261 C 
BRANCH  28  29
ATOM     29  O   UNL A   1      38.026  22.029  25.751  1.00  0.00    -0.460 OA
BRANCH  29  30
ATOM     30  C   UNL A   1      39.244  21.716  26.252  1.00  0.00     0.338 C 
ATOM     31  O   UNL A   1      39.852  20.673  26.096  1.00  0.00    -0.246 OA
BRANCH  30  32
ATOM     32  C   UNL A   1      39.796  22.930  26.887  1.00  0.00     0.060 A 
ATOM     33  C   UNL A   1      39.292  24.182  26.513  1.00  0.00     0.016 A 
ATOM     34  C   UNL A   1      40.803  22.829  27.850  1.00  0.00     0.016 A 
ATOM     35  C   UNL A   1      39.816  25.341  27.091  1.00  0.00     0.010 A 
ATOM     36  C   UNL A   1      41.335  23.989  28.415  1.00  0.00     0.010 A 
ATOM     37  C   UNL A   1      40.861  25.253  28.022  1.00  0.00    -0.014 A 
BRANCH  37  38
ATOM     38  C   UNL A   1      41.579  26.476  28.462  1.00  0.00     0.031 A 
ATOM     39  C   UNL A   1      42.988  26.692  27.980  1.00  0.00     0.074 A 
ATOM     40  C   UNL A   1      41.001  27.369  29.285  1.00  0.00     0.049 A 
ATOM     41  N   UNL A   1      43.828  27.650  28.269  1.00  0.00    -0.248 NA
ATOM     42  C   UNL A   1      43.517  25.685  27.048  1.00  0.00     0.031 C 
ATOM     43  C   UNL A   1      39.635  27.286  29.798  1.00  0.00     0.029 A 
ATOM     44  N   UNL A   1      41.500  28.521  29.842  1.00  0.00    -0.354 N 
ATOM     45  C   UNL A   1      44.987  27.366  27.553  1.00  0.00     0.074 A 
ATOM     46  C   UNL A   1      44.749  26.125  26.845  1.00  0.00     0.031 C 
ATOM     47  C   UNL A   1      39.410  28.336  30.608  1.00  0.00     0.029 A 
ATOM     48  C   UNL A   1      40.624  29.147  30.696  1.00  0.00     0.049 A 
ATOM     49  H   UNL A   1      42.402  28.866  29.647  1.00  0.00     0.167 HD
ATOM     50  C   UNL A   1      46.139  28.076  27.487  1.00  0.00     0.034 A 
ATOM     51  C   UNL A   1      40.793  30.234  31.478  1.00  0.00     0.034 A 
ATOM     52  C   UNL A   1      46.378  29.295  28.217  1.00  0.00     0.049 A 
ATOM     53  C   UNL A   1      42.121  30.958  31.459  1.00  0.00     0.074 A 
ATOM     54  C   UNL A   1      47.504  30.100  28.208  1.00  0.00     0.029 A 
ATOM     55  N   UNL A   1      45.482  29.878  29.103  1.00  0.00    -0.354 N 
ATOM     56  N   UNL A   1      43.199  30.693  30.757  1.00  0.00    -0.248 NA
ATOM     57  C   UNL A   1      42.250  32.132  32.335  1.00  0.00     0.031 C 
ATOM     58  C   UNL A   1      47.316  31.130  29.137  1.00  0.00     0.029 A 
ATOM     59  C   UNL A   1      46.044  31.011  29.672  1.00  0.00     0.049 A 
ATOM     60  H   UNL A   1      44.580  29.536  29.300  1.00  0.00     0.167 HD
ATOM     61  C   UNL A   1      44.119  31.687  31.084  1.00  0.00     0.074 A 
ATOM     62  C   UNL A   1      43.468  32.560  32.038  1.00  0.00     0.031 C 
ATOM     63  C   UNL A   1      45.385  31.869  30.630  1.00  0.00     0.034 A 
BRANCH  50  64
ATOM     64  C   UNL A   1      47.244  27.511  26.629  1.00  0.00     0.023 A 
ATOM     65  C   UNL A   1      48.238  26.673  27.164  1.00  0.00     0.031 A 
ATOM     66  C   UNL A   1      47.324  27.844  25.265  1.00  0.00     0.131 A 
ATOM     67  C   UNL A   1      49.307  26.255  26.358  1.00  0.00     0.055 A 
ATOM     68  C   UNL A   1      48.350  27.363  24.451  1.00  0.00     0.041 A 
ATOM     69  F   UNL A   1      46.415  28.659  24.707  1.00  0.00    -0.206 F 
ATOM     70  C   UNL A   1      49.358  26.575  24.999  1.00  0.00     0.022 A 
BRANCH  67  71
ATOM     71  S   UNL A   1      50.701  25.400  27.143  1.00  0.00     0.124 S 
ATOM     72  O   UNL A   1      51.594  25.184  26.008  1.00  0.00    -0.237 OA
ATOM     73  O   UNL A   1      51.150  26.372  28.132  1.00  0.00    -0.237 OA
ATOM     74  O   UNL A   1      50.095  24.187  27.689  1.00  0.00    -0.744 OA
ENDBRANCH  67  71
ENDBRANCH  50  64
BRANCH  51  75
ATOM     75  C   UNL A   1      39.704  30.694  32.386  1.00  0.00     0.023 A 
ATOM     76  C   UNL A   1      38.950  31.843  32.095  1.00  0.00     0.031 A 
ATOM     77  C   UNL A   1      39.452  30.031  33.600  1.00  0.00     0.131 A 
ATOM     78  C   UNL A   1      38.015  32.321  33.027  1.00  0.00     0.055 A 
ATOM     79  C   UNL A   1      38.485  30.482  34.502  1.00  0.00     0.041 A 
ATOM     80  F   UNL A   1      40.148  28.931  33.931  1.00  0.00    -0.206 F 
ATOM     81  C   UNL A   1      37.770  31.642  34.223  1.00  0.00     0.022 A 
BRANCH  78  82
ATOM     82  S   UNL A   1      37.186  33.900  32.694  1.00  0.00     0.124 S 
ATOM     83  O   UNL A   1      35.843  33.643  33.202  1.00  0.00    -0.237 OA
ATOM     84  O   UNL A   1      37.996  34.837  33.466  1.00  0.00    -0.237 OA
ATOM     85  O   UNL A   1      37.288  34.039  31.243  1.00  0.00    -0.744 OA
ENDBRANCH  78  82
ENDBRANCH  51  75
BRANCH  63  86
ATOM     86  C   UNL A   1      46.127  33.088  31.122  1.00  0.00     0.023 A 
ATOM     87  C   UNL A   1      46.050  34.324  30.458  1.00  0.00     0.031 A 
ATOM     88  C   UNL A   1      46.930  33.005  32.275  1.00  0.00     0.131 A 
ATOM     89  C   UNL A   1      46.800  35.416  30.923  1.00  0.00     0.055 A 
ATOM     90  C   UNL A   1      47.631  34.108  32.764  1.00  0.00     0.041 A 
ATOM     91  F   UNL A   1      47.040  31.849  32.948  1.00  0.00    -0.206 F 
ATOM     92  C   UNL A   1      47.578  35.320  32.080  1.00  0.00     0.022 A 
BRANCH  89  93
ATOM     93  S   UNL A   1      46.808  36.948  29.952  1.00  0.00     0.124 S 
ATOM     94  O   UNL A   1      45.612  37.625  30.441  1.00  0.00    -0.237 OA
ATOM     95  O   UNL A   1      48.082  37.552  30.333  1.00  0.00    -0.237 OA
ATOM     96  O   UNL A   1      46.735  36.481  28.570  1.00  0.00    -0.744 OA
ENDBRANCH  89  93
ENDBRANCH  63  86
ENDBRANCH  37  38
ENDBRANCH  30  32
ENDBRANCH  29  30
ENDBRANCH  28  29
ENDBRANCH  27  28
ENDBRANCH  26  27
ENDBRANCH   1  26
TORSDOF 22
ENDMDL
