MODEL 1
REMARK VINA RESULT:     -10.5      0.000      0.000
REMARK SMILES Cc1cc(C(=O)N[C@H](C(=O)OCCOCCOCCOC(=O)c2ccc(-c3c4nc(c(-c5cc(S(=O)(=O)[O-])ccc5F)c5ccc([nH]5)c(-c5cc(S(=O)(=O)[O-])ccc5F)c5nc(c(-c6cc(S(=O)(=O)[O-])ccc6F)c6ccc3[nH]6)C=C5)C=C4)cc2)C(C)C)c(C)s1
REMARK SMILES IDX 16 1 15 2 14 3 13 4 12 5 11 6 9 7 10 8 8 9 7 10 5 11 6 12
REMARK SMILES IDX 4 14 1 15 2 16 3 17 91 18 89 19 90 20 86 21 87 22 88 23
REMARK SMILES IDX 17 24 18 25 19 26 20 27 21 28 22 29 23 30 24 31 85 32 25 33
REMARK SMILES IDX 84 34 26 35 27 36 28 37 78 38 29 39 83 40 77 41 79 42 30 43
REMARK SMILES IDX 82 44 76 45 75 46 31 48 63 49 43 50 62 51 44 52 47 53 61 54
REMARK SMILES IDX 80 55 45 56 46 57 60 59 81 60 48 61 32 62 33 63 41 64 34 65
REMARK SMILES IDX 40 66 42 67 39 68 35 69 36 70 37 71 38 72 64 73 65 74 73 75
REMARK SMILES IDX 66 76 72 77 74 78 71 79 67 80 68 81 69 82 70 83 49 84 50 85
REMARK SMILES IDX 58 86 51 87 57 88 59 89 56 90 52 91 53 92 54 93 55 94
REMARK H PARENT 7 13 79 47 47 58
REMARK Flexibility Score: inf
ROOT
ATOM      1  C   UNL A   1      29.425  28.979  23.267  1.00  0.00     0.188 C 
ENDROOT
BRANCH   1   2
ATOM      2  C   UNL A   1      30.112  27.598  23.194  1.00  0.00     0.188 C 
BRANCH   2   3
ATOM      3  O   UNL A   1      30.796  27.357  21.976  1.00  0.00    -0.376 OA
BRANCH   3   4
ATOM      4  C   UNL A   1      32.042  26.686  22.080  1.00  0.00     0.202 C 
BRANCH   4   5
ATOM      5  C   UNL A   1      32.399  26.081  23.449  1.00  0.00     0.261 C 
BRANCH   5   6
ATOM      6  O   UNL A   1      33.795  25.994  23.802  1.00  0.00    -0.462 OA
BRANCH   6   7
ATOM      7  C   UNL A   1      34.403  24.779  23.677  1.00  0.00     0.328 C 
ATOM      8  O   UNL A   1      34.282  24.090  22.677  1.00  0.00    -0.250 OA
BRANCH   7   9
ATOM      9  C   UNL A   1      35.152  24.412  24.994  1.00  0.00     0.195 C 
BRANCH   9  10
ATOM     10  N   UNL A   1      34.121  24.165  25.998  1.00  0.00    -0.338 N 
ATOM     11  C   UNL A   1      33.272  23.120  26.256  1.00  0.00     0.253 C 
ATOM     12  O   UNL A   1      32.540  23.311  27.231  1.00  0.00    -0.269 OA
ATOM     13  H   UNL A   1      34.012  24.914  26.628  1.00  0.00     0.164 HD
BRANCH  11  14
ATOM     14  C   UNL A   1      33.190  21.891  25.435  1.00  0.00     0.053 A 
ATOM     15  C   UNL A   1      34.362  18.394  24.466  1.00  0.00     0.056 C 
ATOM     16  C   UNL A   1      33.669  19.708  24.602  1.00  0.00     0.003 A 
ATOM     17  C   UNL A   1      33.943  20.675  25.533  1.00  0.00     0.029 A 
ATOM     18  S   UNL A   1      32.414  20.206  23.588  1.00  0.00    -0.145 S 
ATOM     19  C   UNL A   1      32.289  21.739  24.377  1.00  0.00     0.014 A 
ATOM     20  C   UNL A   1      31.264  22.682  23.835  1.00  0.00     0.057 C 
ENDBRANCH  11  14
ENDBRANCH   9  10
BRANCH   9  21
ATOM     21  C   UNL A   1      36.282  23.341  25.053  1.00  0.00     0.017 C 
ATOM     22  C   UNL A   1      36.754  22.805  23.702  1.00  0.00     0.010 C 
ATOM     23  C   UNL A   1      37.499  23.841  25.849  1.00  0.00     0.010 C 
ENDBRANCH   9  21
ENDBRANCH   7   9
ENDBRANCH   6   7
ENDBRANCH   5   6
ENDBRANCH   4   5
ENDBRANCH   3   4
ENDBRANCH   2   3
ENDBRANCH   1   2
BRANCH   1  24
ATOM     24  O   UNL A   1      30.065  30.056  23.930  1.00  0.00    -0.376 OA
BRANCH  24  25
ATOM     25  C   UNL A   1      31.150  29.770  24.801  1.00  0.00     0.202 C 
BRANCH  25  26
ATOM     26  C   UNL A   1      31.532  30.745  25.936  1.00  0.00     0.261 C 
BRANCH  26  27
ATOM     27  O   UNL A   1      32.736  30.464  26.674  1.00  0.00    -0.460 OA
BRANCH  27  28
ATOM     28  C   UNL A   1      33.342  31.533  27.248  1.00  0.00     0.338 C 
ATOM     29  O   UNL A   1      32.802  32.592  27.548  1.00  0.00    -0.246 OA
BRANCH  28  30
ATOM     30  C   UNL A   1      34.715  31.186  27.694  1.00  0.00     0.060 A 
ATOM     31  C   UNL A   1      34.998  29.840  27.978  1.00  0.00     0.016 A 
ATOM     32  C   UNL A   1      35.696  32.158  27.902  1.00  0.00     0.016 A 
ATOM     33  C   UNL A   1      36.233  29.466  28.506  1.00  0.00     0.010 A 
ATOM     34  C   UNL A   1      36.926  31.786  28.471  1.00  0.00     0.010 A 
ATOM     35  C   UNL A   1      37.183  30.444  28.818  1.00  0.00    -0.014 A 
BRANCH  35  36
ATOM     36  C   UNL A   1      38.295  30.084  29.740  1.00  0.00     0.031 A 
ATOM     37  C   UNL A   1      39.324  29.092  29.253  1.00  0.00     0.074 A 
ATOM     38  C   UNL A   1      38.451  30.674  30.940  1.00  0.00     0.049 A 
ATOM     39  N   UNL A   1      40.385  28.622  29.857  1.00  0.00    -0.248 NA
ATOM     40  C   UNL A   1      39.122  28.562  27.896  1.00  0.00     0.031 C 
ATOM     41  C   UNL A   1      37.571  31.695  31.501  1.00  0.00     0.029 A 
ATOM     42  N   UNL A   1      39.415  30.495  31.903  1.00  0.00    -0.354 N 
ATOM     43  C   UNL A   1      40.975  27.740  28.956  1.00  0.00     0.074 A 
ATOM     44  C   UNL A   1      40.127  27.709  27.784  1.00  0.00     0.031 C 
ATOM     45  C   UNL A   1      38.031  32.049  32.715  1.00  0.00     0.029 A 
ATOM     46  C   UNL A   1      39.218  31.255  33.034  1.00  0.00     0.049 A 
ATOM     47  H   UNL A   1      40.177  29.880  31.794  1.00  0.00     0.167 HD
ATOM     48  C   UNL A   1      42.122  27.030  29.086  1.00  0.00     0.034 A 
ATOM     49  C   UNL A   1      39.904  31.289  34.196  1.00  0.00     0.034 A 
ATOM     50  C   UNL A   1      42.955  27.055  30.264  1.00  0.00     0.049 A 
ATOM     51  C   UNL A   1      41.124  30.408  34.360  1.00  0.00     0.074 A 
ATOM     52  C   UNL A   1      44.138  26.375  30.496  1.00  0.00     0.029 A 
ATOM     53  N   UNL A   1      42.687  27.786  31.414  1.00  0.00    -0.354 N 
ATOM     54  N   UNL A   1      41.674  29.581  33.498  1.00  0.00    -0.248 NA
ATOM     55  C   UNL A   1      41.824  30.477  35.650  1.00  0.00     0.031 C 
ATOM     56  C   UNL A   1      44.537  26.627  31.814  1.00  0.00     0.029 A 
ATOM     57  C   UNL A   1      43.660  27.542  32.372  1.00  0.00     0.049 A 
ATOM     58  H   UNL A   1      41.917  28.388  31.532  1.00  0.00     0.167 HD
ATOM     59  C   UNL A   1      42.803  29.064  34.134  1.00  0.00     0.074 A 
ATOM     60  C   UNL A   1      42.865  29.688  35.438  1.00  0.00     0.031 C 
ATOM     61  C   UNL A   1      43.709  28.158  33.679  1.00  0.00     0.034 A 
BRANCH  48  62
ATOM     62  C   UNL A   1      42.505  26.120  27.942  1.00  0.00     0.023 A 
ATOM     63  C   UNL A   1      41.936  24.844  27.784  1.00  0.00     0.031 A 
ATOM     64  C   UNL A   1      43.483  26.521  27.014  1.00  0.00     0.131 A 
ATOM     65  C   UNL A   1      42.402  23.989  26.773  1.00  0.00     0.055 A 
ATOM     66  C   UNL A   1      43.879  25.700  25.958  1.00  0.00     0.041 A 
ATOM     67  F   UNL A   1      44.083  27.717  27.127  1.00  0.00    -0.206 F 
ATOM     68  C   UNL A   1      43.349  24.418  25.841  1.00  0.00     0.022 A 
BRANCH  65  69
ATOM     69  S   UNL A   1      41.867  22.255  26.789  1.00  0.00     0.124 S 
ATOM     70  O   UNL A   1      42.181  21.838  25.425  1.00  0.00    -0.237 OA
ATOM     71  O   UNL A   1      42.698  21.680  27.841  1.00  0.00    -0.237 OA
ATOM     72  O   UNL A   1      40.441  22.339  27.095  1.00  0.00    -0.744 OA
ENDBRANCH  65  69
ENDBRANCH  48  62
BRANCH  49  73
ATOM     73  C   UNL A   1      39.443  32.148  35.329  1.00  0.00     0.023 A 
ATOM     74  C   UNL A   1      38.756  31.605  36.427  1.00  0.00     0.031 A 
ATOM     75  C   UNL A   1      39.613  33.545  35.287  1.00  0.00     0.131 A 
ATOM     76  C   UNL A   1      38.218  32.454  37.408  1.00  0.00     0.055 A 
ATOM     77  C   UNL A   1      39.130  34.379  36.296  1.00  0.00     0.041 A 
ATOM     78  F   UNL A   1      40.253  34.120  34.258  1.00  0.00    -0.206 F 
ATOM     79  C   UNL A   1      38.413  33.836  37.358  1.00  0.00     0.022 A 
BRANCH  76  80
ATOM     80  S   UNL A   1      37.165  31.735  38.700  1.00  0.00     0.124 S 
ATOM     81  O   UNL A   1      38.014  31.865  39.879  1.00  0.00    -0.237 OA
ATOM     82  O   UNL A   1      35.994  32.606  38.653  1.00  0.00    -0.237 OA
ATOM     83  O   UNL A   1      36.942  30.369  38.235  1.00  0.00    -0.744 OA
ENDBRANCH  76  80
ENDBRANCH  49  73
BRANCH  61  84
ATOM     84  C   UNL A   1      44.874  27.828  34.586  1.00  0.00     0.023 A 
ATOM     85  C   UNL A   1      44.843  26.735  35.471  1.00  0.00     0.031 A 
ATOM     86  C   UNL A   1      46.024  28.639  34.587  1.00  0.00     0.131 A 
ATOM     87  C   UNL A   1      45.901  26.530  36.371  1.00  0.00     0.055 A 
ATOM     88  C   UNL A   1      47.108  28.383  35.429  1.00  0.00     0.041 A 
ATOM     89  F   UNL A   1      46.114  29.700  33.769  1.00  0.00    -0.206 F 
ATOM     90  C   UNL A   1      47.042  27.336  36.341  1.00  0.00     0.022 A 
BRANCH  87  91
ATOM     91  S   UNL A   1      45.707  25.279  37.671  1.00  0.00     0.124 S 
ATOM     92  O   UNL A   1      44.469  24.618  37.271  1.00  0.00    -0.237 OA
ATOM     93  O   UNL A   1      46.926  24.491  37.529  1.00  0.00    -0.237 OA
ATOM     94  O   UNL A   1      45.619  26.070  38.898  1.00  0.00    -0.744 OA
ENDBRANCH  87  91
ENDBRANCH  61  84
ENDBRANCH  35  36
ENDBRANCH  28  30
ENDBRANCH  27  28
ENDBRANCH  26  27
ENDBRANCH  25  26
ENDBRANCH  24  25
ENDBRANCH   1  24
TORSDOF 23
ENDMDL
MODEL 2
REMARK VINA RESULT:     -10.0      1.934      7.682
REMARK SMILES Cc1cc(C(=O)N[C@H](C(=O)OCCOCCOCCOC(=O)c2ccc(-c3c4nc(c(-c5cc(S(=O)(=O)[O-])ccc5F)c5ccc([nH]5)c(-c5cc(S(=O)(=O)[O-])ccc5F)c5nc(c(-c6cc(S(=O)(=O)[O-])ccc6F)c6ccc3[nH]6)C=C5)C=C4)cc2)C(C)C)c(C)s1
REMARK SMILES IDX 16 1 15 2 14 3 13 4 12 5 11 6 9 7 10 8 8 9 7 10 5 11 6 12
REMARK SMILES IDX 4 14 1 15 2 16 3 17 91 18 89 19 90 20 86 21 87 22 88 23
REMARK SMILES IDX 17 24 18 25 19 26 20 27 21 28 22 29 23 30 24 31 85 32 25 33
REMARK SMILES IDX 84 34 26 35 27 36 28 37 78 38 29 39 83 40 77 41 79 42 30 43
REMARK SMILES IDX 82 44 76 45 75 46 31 48 63 49 43 50 62 51 44 52 47 53 61 54
REMARK SMILES IDX 80 55 45 56 46 57 60 59 81 60 48 61 32 62 33 63 41 64 34 65
REMARK SMILES IDX 40 66 42 67 39 68 35 69 36 70 37 71 38 72 64 73 65 74 73 75
REMARK SMILES IDX 66 76 72 77 74 78 71 79 67 80 68 81 69 82 70 83 49 84 50 85
REMARK SMILES IDX 58 86 51 87 57 88 59 89 56 90 52 91 53 92 54 93 55 94
REMARK H PARENT 7 13 79 47 47 58
REMARK Flexibility Score: inf
ROOT
ATOM      1  C   UNL A   1      30.504  28.795  23.957  1.00  0.00     0.188 C 
ENDROOT
BRANCH   1   2
ATOM      2  C   UNL A   1      31.457  27.856  23.186  1.00  0.00     0.188 C 
BRANCH   2   3
ATOM      3  O   UNL A   1      32.522  28.524  22.532  1.00  0.00    -0.376 OA
BRANCH   3   4
ATOM      4  C   UNL A   1      33.584  27.705  22.068  1.00  0.00     0.202 C 
BRANCH   4   5
ATOM      5  C   UNL A   1      33.498  26.201  22.383  1.00  0.00     0.261 C 
BRANCH   5   6
ATOM      6  O   UNL A   1      34.083  25.738  23.617  1.00  0.00    -0.462 OA
BRANCH   6   7
ATOM      7  C   UNL A   1      34.501  24.440  23.669  1.00  0.00     0.328 C 
ATOM      8  O   UNL A   1      34.185  23.619  22.823  1.00  0.00    -0.250 OA
BRANCH   7   9
ATOM      9  C   UNL A   1      35.320  24.189  24.971  1.00  0.00     0.195 C 
BRANCH   9  10
ATOM     10  N   UNL A   1      34.345  23.967  26.035  1.00  0.00    -0.338 N 
ATOM     11  C   UNL A   1      33.495  22.939  26.351  1.00  0.00     0.253 C 
ATOM     12  O   UNL A   1      32.823  23.150  27.364  1.00  0.00    -0.269 OA
ATOM     13  H   UNL A   1      34.283  24.723  26.662  1.00  0.00     0.164 HD
BRANCH  11  14
ATOM     14  C   UNL A   1      33.348  21.704  25.548  1.00  0.00     0.053 A 
ATOM     15  C   UNL A   1      34.501  18.246  24.430  1.00  0.00     0.056 C 
ATOM     16  C   UNL A   1      33.787  19.535  24.658  1.00  0.00     0.003 A 
ATOM     17  C   UNL A   1      34.149  20.515  25.544  1.00  0.00     0.029 A 
ATOM     18  S   UNL A   1      32.391  19.985  23.822  1.00  0.00    -0.145 S 
ATOM     19  C   UNL A   1      32.319  21.516  24.621  1.00  0.00     0.014 A 
ATOM     20  C   UNL A   1      31.198  22.420  24.221  1.00  0.00     0.057 C 
ENDBRANCH  11  14
ENDBRANCH   9  10
BRANCH   9  21
ATOM     21  C   UNL A   1      36.496  23.169  25.047  1.00  0.00     0.017 C 
ATOM     22  C   UNL A   1      37.031  22.678  23.702  1.00  0.00     0.010 C 
ATOM     23  C   UNL A   1      37.665  23.708  25.887  1.00  0.00     0.010 C 
ENDBRANCH   9  21
ENDBRANCH   7   9
ENDBRANCH   6   7
ENDBRANCH   5   6
ENDBRANCH   4   5
ENDBRANCH   3   4
ENDBRANCH   2   3
ENDBRANCH   1   2
BRANCH   1  24
ATOM     24  O   UNL A   1      31.016  29.946  24.608  1.00  0.00    -0.376 OA
BRANCH  24  25
ATOM     25  C   UNL A   1      31.926  29.771  25.684  1.00  0.00     0.202 C 
BRANCH  25  26
ATOM     26  C   UNL A   1      32.393  30.975  26.529  1.00  0.00     0.261 C 
BRANCH  26  27
ATOM     27  O   UNL A   1      33.227  30.700  27.671  1.00  0.00    -0.460 OA
BRANCH  27  28
ATOM     28  C   UNL A   1      34.108  31.674  28.010  1.00  0.00     0.338 C 
ATOM     29  O   UNL A   1      33.823  32.816  28.353  1.00  0.00    -0.246 OA
BRANCH  28  30
ATOM     30  C   UNL A   1      35.480  31.123  28.143  1.00  0.00     0.060 A 
ATOM     31  C   UNL A   1      35.638  29.727  28.117  1.00  0.00     0.016 A 
ATOM     32  C   UNL A   1      36.591  31.941  28.362  1.00  0.00     0.016 A 
ATOM     33  C   UNL A   1      36.884  29.145  28.348  1.00  0.00     0.010 A 
ATOM     34  C   UNL A   1      37.838  31.352  28.634  1.00  0.00     0.010 A 
ATOM     35  C   UNL A   1      37.980  29.951  28.673  1.00  0.00    -0.014 A 
BRANCH  35  36
ATOM     36  C   UNL A   1      39.165  29.312  29.309  1.00  0.00     0.031 A 
ATOM     37  C   UNL A   1      39.584  29.801  30.675  1.00  0.00     0.074 A 
ATOM     38  C   UNL A   1      39.808  28.273  28.745  1.00  0.00     0.049 A 
ATOM     39  N   UNL A   1      40.570  29.406  31.439  1.00  0.00    -0.248 NA
ATOM     40  C   UNL A   1      38.773  30.882  31.253  1.00  0.00     0.031 C 
ATOM     41  C   UNL A   1      39.465  27.660  27.465  1.00  0.00     0.029 A 
ATOM     42  N   UNL A   1      40.888  27.546  29.186  1.00  0.00    -0.354 N 
ATOM     43  C   UNL A   1      40.500  30.193  32.586  1.00  0.00     0.074 A 
ATOM     44  C   UNL A   1      39.402  31.116  32.394  1.00  0.00     0.031 C 
ATOM     45  C   UNL A   1      40.323  26.653  27.219  1.00  0.00     0.029 A 
ATOM     46  C   UNL A   1      41.299  26.571  28.306  1.00  0.00     0.049 A 
ATOM     47  H   UNL A   1      41.328  27.709  30.053  1.00  0.00     0.167 HD
ATOM     48  C   UNL A   1      41.270  30.145  33.700  1.00  0.00     0.034 A 
ATOM     49  C   UNL A   1      42.351  25.727  28.363  1.00  0.00     0.034 A 
ATOM     50  C   UNL A   1      42.372  29.232  33.877  1.00  0.00     0.049 A 
ATOM     51  C   UNL A   1      43.262  25.762  29.572  1.00  0.00     0.074 A 
ATOM     52  C   UNL A   1      43.214  29.101  34.969  1.00  0.00     0.029 A 
ATOM     53  N   UNL A   1      42.799  28.305  32.936  1.00  0.00    -0.354 N 
ATOM     54  N   UNL A   1      43.182  26.508  30.651  1.00  0.00    -0.248 NA
ATOM     55  C   UNL A   1      44.397  24.830  29.574  1.00  0.00     0.031 C 
ATOM     56  C   UNL A   1      44.198  28.157  34.652  1.00  0.00     0.029 A 
ATOM     57  C   UNL A   1      43.914  27.626  33.405  1.00  0.00     0.049 A 
ATOM     58  H   UNL A   1      42.371  28.152  32.062  1.00  0.00     0.167 HD
ATOM     59  C   UNL A   1      44.235  26.106  31.472  1.00  0.00     0.074 A 
ATOM     60  C   UNL A   1      44.919  25.039  30.772  1.00  0.00     0.031 C 
ATOM     61  C   UNL A   1      44.602  26.572  32.695  1.00  0.00     0.034 A 
BRANCH  48  62
ATOM     62  C   UNL A   1      40.977  31.155  34.786  1.00  0.00     0.023 A 
ATOM     63  C   UNL A   1      39.834  31.062  35.600  1.00  0.00     0.031 A 
ATOM     64  C   UNL A   1      41.838  32.248  34.987  1.00  0.00     0.131 A 
ATOM     65  C   UNL A   1      39.545  32.081  36.520  1.00  0.00     0.055 A 
ATOM     66  C   UNL A   1      41.590  33.213  35.965  1.00  0.00     0.041 A 
ATOM     67  F   UNL A   1      42.932  32.407  34.224  1.00  0.00    -0.206 F 
ATOM     68  C   UNL A   1      40.428  33.142  36.728  1.00  0.00     0.022 A 
BRANCH  65  69
ATOM     69  S   UNL A   1      37.919  32.084  37.327  1.00  0.00     0.124 S 
ATOM     70  O   UNL A   1      37.109  32.811  36.353  1.00  0.00    -0.237 OA
ATOM     71  O   UNL A   1      37.633  30.661  37.463  1.00  0.00    -0.237 OA
ATOM     72  O   UNL A   1      38.161  32.796  38.580  1.00  0.00    -0.744 OA
ENDBRANCH  65  69
ENDBRANCH  48  62
BRANCH  49  73
ATOM     73  C   UNL A   1      42.646  24.799  27.230  1.00  0.00     0.023 A 
ATOM     74  C   UNL A   1      42.119  23.498  27.192  1.00  0.00     0.031 A 
ATOM     75  C   UNL A   1      43.534  25.176  26.204  1.00  0.00     0.131 A 
ATOM     76  C   UNL A   1      42.523  22.606  26.185  1.00  0.00     0.055 A 
ATOM     77  C   UNL A   1      43.884  24.306  25.171  1.00  0.00     0.041 A 
ATOM     78  F   UNL A   1      44.076  26.404  26.193  1.00  0.00    -0.206 F 
ATOM     79  C   UNL A   1      43.389  23.005  25.166  1.00  0.00     0.022 A 
BRANCH  76  80
ATOM     80  S   UNL A   1      41.980  20.876  26.285  1.00  0.00     0.124 S 
ATOM     81  O   UNL A   1      42.364  20.524  27.647  1.00  0.00    -0.237 OA
ATOM     82  O   UNL A   1      40.547  20.996  26.032  1.00  0.00    -0.237 OA
ATOM     83  O   UNL A   1      42.744  20.219  25.228  1.00  0.00    -0.744 OA
ENDBRANCH  76  80
ENDBRANCH  49  73
BRANCH  61  84
ATOM     84  C   UNL A   1      45.770  25.891  33.374  1.00  0.00     0.023 A 
ATOM     85  C   UNL A   1      47.103  26.234  33.084  1.00  0.00     0.031 A 
ATOM     86  C   UNL A   1      45.547  24.860  34.306  1.00  0.00     0.131 A 
ATOM     87  C   UNL A   1      48.156  25.503  33.657  1.00  0.00     0.055 A 
ATOM     88  C   UNL A   1      46.599  24.190  34.932  1.00  0.00     0.041 A 
ATOM     89  F   UNL A   1      44.298  24.483  34.624  1.00  0.00    -0.206 F 
ATOM     90  C   UNL A   1      47.913  24.497  34.595  1.00  0.00     0.022 A 
BRANCH  87  91
ATOM     91  S   UNL A   1      49.844  25.796  33.058  1.00  0.00     0.124 S 
ATOM     92  O   UNL A   1      50.224  26.994  33.799  1.00  0.00    -0.237 OA
ATOM     93  O   UNL A   1      50.528  24.565  33.439  1.00  0.00    -0.237 OA
ATOM     94  O   UNL A   1      49.669  25.987  31.618  1.00  0.00    -0.744 OA
ENDBRANCH  87  91
ENDBRANCH  61  84
ENDBRANCH  35  36
ENDBRANCH  28  30
ENDBRANCH  27  28
ENDBRANCH  26  27
ENDBRANCH  25  26
ENDBRANCH  24  25
ENDBRANCH   1  24
TORSDOF 23
ENDMDL
MODEL 3
REMARK VINA RESULT:     -10.0      1.600      2.000
REMARK SMILES Cc1cc(C(=O)N[C@H](C(=O)OCCOCCOCCOC(=O)c2ccc(-c3c4nc(c(-c5cc(S(=O)(=O)[O-])ccc5F)c5ccc([nH]5)c(-c5cc(S(=O)(=O)[O-])ccc5F)c5nc(c(-c6cc(S(=O)(=O)[O-])ccc6F)c6ccc3[nH]6)C=C5)C=C4)cc2)C(C)C)c(C)s1
REMARK SMILES IDX 16 1 15 2 14 3 13 4 12 5 11 6 9 7 10 8 8 9 7 10 5 11 6 12
REMARK SMILES IDX 4 14 1 15 2 16 3 17 91 18 89 19 90 20 86 21 87 22 88 23
REMARK SMILES IDX 17 24 18 25 19 26 20 27 21 28 22 29 23 30 24 31 85 32 25 33
REMARK SMILES IDX 84 34 26 35 27 36 28 37 78 38 29 39 83 40 77 41 79 42 30 43
REMARK SMILES IDX 82 44 76 45 75 46 31 48 63 49 43 50 62 51 44 52 47 53 61 54
REMARK SMILES IDX 80 55 45 56 46 57 60 59 81 60 48 61 32 62 33 63 41 64 34 65
REMARK SMILES IDX 40 66 42 67 39 68 35 69 36 70 37 71 38 72 64 73 65 74 73 75
REMARK SMILES IDX 66 76 72 77 74 78 71 79 67 80 68 81 69 82 70 83 49 84 50 85
REMARK SMILES IDX 58 86 51 87 57 88 59 89 56 90 52 91 53 92 54 93 55 94
REMARK H PARENT 7 13 79 47 47 58
REMARK Flexibility Score: inf
ROOT
ATOM      1  C   UNL A   1      31.872  28.925  24.987  1.00  0.00     0.188 C 
ENDROOT
BRANCH   1   2
ATOM      2  C   UNL A   1      30.760  27.944  24.556  1.00  0.00     0.188 C 
BRANCH   2   3
ATOM      3  O   UNL A   1      31.239  26.675  24.144  1.00  0.00    -0.376 OA
BRANCH   3   4
ATOM      4  C   UNL A   1      31.174  26.402  22.753  1.00  0.00     0.202 C 
BRANCH   4   5
ATOM      5  C   UNL A   1      32.458  26.628  21.934  1.00  0.00     0.261 C 
BRANCH   5   6
ATOM      6  O   UNL A   1      33.707  26.193  22.510  1.00  0.00    -0.462 OA
BRANCH   6   7
ATOM      7  C   UNL A   1      33.861  24.859  22.750  1.00  0.00     0.328 C 
ATOM      8  O   UNL A   1      33.578  24.010  21.920  1.00  0.00    -0.250 OA
BRANCH   7   9
ATOM      9  C   UNL A   1      34.342  24.627  24.215  1.00  0.00     0.195 C 
BRANCH   9  10
ATOM     10  N   UNL A   1      33.136  24.545  25.035  1.00  0.00    -0.338 N 
ATOM     11  C   UNL A   1      32.359  23.511  25.488  1.00  0.00     0.253 C 
ATOM     12  O   UNL A   1      31.405  23.879  26.180  1.00  0.00    -0.269 OA
ATOM     13  H   UNL A   1      32.810  25.427  25.326  1.00  0.00     0.164 HD
BRANCH  11  14
ATOM     14  C   UNL A   1      32.592  22.087  25.158  1.00  0.00     0.053 A 
ATOM     15  C   UNL A   1      32.202  19.036  22.904  1.00  0.00     0.056 C 
ATOM     16  C   UNL A   1      32.541  20.016  23.976  1.00  0.00     0.003 A 
ATOM     17  C   UNL A   1      32.217  21.347  23.989  1.00  0.00     0.029 A 
ATOM     18  S   UNL A   1      33.393  19.605  25.375  1.00  0.00    -0.145 S 
ATOM     19  C   UNL A   1      33.270  21.209  26.007  1.00  0.00     0.014 A 
ATOM     20  C   UNL A   1      33.884  21.441  27.351  1.00  0.00     0.057 C 
ENDBRANCH  11  14
ENDBRANCH   9  10
BRANCH   9  21
ATOM     21  C   UNL A   1      35.376  23.527  24.601  1.00  0.00     0.017 C 
ATOM     22  C   UNL A   1      36.171  22.933  23.439  1.00  0.00     0.010 C 
ATOM     23  C   UNL A   1      36.354  24.019  25.680  1.00  0.00     0.010 C 
ENDBRANCH   9  21
ENDBRANCH   7   9
ENDBRANCH   6   7
ENDBRANCH   5   6
ENDBRANCH   4   5
ENDBRANCH   3   4
ENDBRANCH   2   3
ENDBRANCH   1   2
BRANCH   1  24
ATOM     24  O   UNL A   1      31.563  30.289  25.220  1.00  0.00    -0.376 OA
BRANCH  24  25
ATOM     25  C   UNL A   1      31.774  30.823  26.518  1.00  0.00     0.202 C 
BRANCH  25  26
ATOM     26  C   UNL A   1      31.785  32.348  26.755  1.00  0.00     0.261 C 
BRANCH  26  27
ATOM     27  O   UNL A   1      32.359  32.824  27.987  1.00  0.00    -0.460 OA
BRANCH  27  28
ATOM     28  C   UNL A   1      33.434  33.644  27.862  1.00  0.00     0.338 C 
ATOM     29  O   UNL A   1      33.398  34.856  27.685  1.00  0.00    -0.246 OA
BRANCH  28  30
ATOM     30  C   UNL A   1      34.688  32.925  28.200  1.00  0.00     0.060 A 
ATOM     31  C   UNL A   1      34.587  31.618  28.704  1.00  0.00     0.016 A 
ATOM     32  C   UNL A   1      35.941  33.532  28.098  1.00  0.00     0.016 A 
ATOM     33  C   UNL A   1      35.719  30.933  29.144  1.00  0.00     0.010 A 
ATOM     34  C   UNL A   1      37.076  32.856  28.577  1.00  0.00     0.010 A 
ATOM     35  C   UNL A   1      36.964  31.572  29.145  1.00  0.00    -0.014 A 
BRANCH  35  36
ATOM     36  C   UNL A   1      38.054  30.997  29.980  1.00  0.00     0.031 A 
ATOM     37  C   UNL A   1      38.947  29.951  29.357  1.00  0.00     0.074 A 
ATOM     38  C   UNL A   1      38.312  31.440  31.225  1.00  0.00     0.049 A 
ATOM     39  N   UNL A   1      39.964  29.307  29.868  1.00  0.00    -0.248 NA
ATOM     40  C   UNL A   1      38.645  29.589  27.964  1.00  0.00     0.031 C 
ATOM     41  C   UNL A   1      37.573  32.491  31.920  1.00  0.00     0.029 A 
ATOM     42  N   UNL A   1      39.278  31.058  32.126  1.00  0.00    -0.354 N 
ATOM     43  C   UNL A   1      40.422  28.462  28.861  1.00  0.00     0.074 A 
ATOM     44  C   UNL A   1      39.541  28.645  27.727  1.00  0.00     0.031 C 
ATOM     45  C   UNL A   1      38.108  32.666  33.142  1.00  0.00     0.029 A 
ATOM     46  C   UNL A   1      39.204  31.716  33.332  1.00  0.00     0.049 A 
ATOM     47  H   UNL A   1      39.960  30.376  31.925  1.00  0.00     0.167 HD
ATOM     48  C   UNL A   1      41.483  27.618  28.873  1.00  0.00     0.034 A 
ATOM     49  C   UNL A   1      39.924  31.554  34.463  1.00  0.00     0.034 A 
ATOM     50  C   UNL A   1      42.347  27.430  30.012  1.00  0.00     0.049 A 
ATOM     51  C   UNL A   1      41.039  30.531  34.489  1.00  0.00     0.074 A 
ATOM     52  C   UNL A   1      43.451  26.602  30.128  1.00  0.00     0.029 A 
ATOM     53  N   UNL A   1      42.200  28.065  31.238  1.00  0.00    -0.354 N 
ATOM     54  N   UNL A   1      41.464  29.740  33.529  1.00  0.00    -0.248 NA
ATOM     55  C   UNL A   1      41.780  30.389  35.749  1.00  0.00     0.031 C 
ATOM     56  C   UNL A   1      43.916  26.672  31.446  1.00  0.00     0.029 A 
ATOM     57  C   UNL A   1      43.167  27.617  32.127  1.00  0.00     0.049 A 
ATOM     58  H   UNL A   1      41.509  28.734  31.446  1.00  0.00     0.167 HD
ATOM     59  C   UNL A   1      42.544  29.037  34.063  1.00  0.00     0.074 A 
ATOM     60  C   UNL A   1      42.716  29.514  35.418  1.00  0.00     0.031 C 
ATOM     61  C   UNL A   1      43.325  28.087  33.484  1.00  0.00     0.034 A 
BRANCH  48  62
ATOM     62  C   UNL A   1      41.724  26.792  27.630  1.00  0.00     0.023 A 
ATOM     63  C   UNL A   1      41.332  25.444  27.545  1.00  0.00     0.031 A 
ATOM     64  C   UNL A   1      42.388  27.353  26.525  1.00  0.00     0.131 A 
ATOM     65  C   UNL A   1      41.675  24.685  26.416  1.00  0.00     0.055 A 
ATOM     66  C   UNL A   1      42.649  26.616  25.369  1.00  0.00     0.041 A 
ATOM     67  F   UNL A   1      42.811  28.627  26.556  1.00  0.00    -0.206 F 
ATOM     68  C   UNL A   1      42.306  25.268  25.315  1.00  0.00     0.022 A 
BRANCH  65  69
ATOM     69  S   UNL A   1      41.426  22.888  26.472  1.00  0.00     0.124 S 
ATOM     70  O   UNL A   1      41.845  22.576  27.837  1.00  0.00    -0.237 OA
ATOM     71  O   UNL A   1      40.001  22.759  26.194  1.00  0.00    -0.237 OA
ATOM     72  O   UNL A   1      42.315  22.388  25.425  1.00  0.00    -0.744 OA
ENDBRANCH  65  69
ENDBRANCH  48  62
BRANCH  49  73
ATOM     73  C   UNL A   1      39.599  32.339  35.693  1.00  0.00     0.023 A 
ATOM     74  C   UNL A   1      38.717  31.843  36.666  1.00  0.00     0.031 A 
ATOM     75  C   UNL A   1      40.106  33.640  35.870  1.00  0.00     0.131 A 
ATOM     76  C   UNL A   1      38.328  32.659  37.741  1.00  0.00     0.055 A 
ATOM     77  C   UNL A   1      39.764  34.424  36.972  1.00  0.00     0.041 A 
ATOM     78  F   UNL A   1      40.946  34.170  34.967  1.00  0.00    -0.206 F 
ATOM     79  C   UNL A   1      38.857  33.940  37.909  1.00  0.00     0.022 A 
BRANCH  76  80
ATOM     80  S   UNL A   1      37.034  32.060  38.865  1.00  0.00     0.124 S 
ATOM     81  O   UNL A   1      37.066  30.623  38.615  1.00  0.00    -0.237 OA
ATOM     82  O   UNL A   1      37.537  32.497  40.163  1.00  0.00    -0.237 OA
ATOM     83  O   UNL A   1      35.834  32.750  38.399  1.00  0.00    -0.744 OA
ENDBRANCH  76  80
ENDBRANCH  49  73
BRANCH  61  84
ATOM     84  C   UNL A   1      44.471  27.538  34.306  1.00  0.00     0.023 A 
ATOM     85  C   UNL A   1      45.622  28.299  34.581  1.00  0.00     0.031 A 
ATOM     86  C   UNL A   1      44.423  26.221  34.800  1.00  0.00     0.131 A 
ATOM     87  C   UNL A   1      46.706  27.713  35.254  1.00  0.00     0.055 A 
ATOM     88  C   UNL A   1      45.472  25.670  35.538  1.00  0.00     0.041 A 
ATOM     89  F   UNL A   1      43.354  25.442  34.569  1.00  0.00    -0.206 F 
ATOM     90  C   UNL A   1      46.630  26.410  35.753  1.00  0.00     0.022 A 
BRANCH  87  91
ATOM     91  S   UNL A   1      48.267  28.632  35.354  1.00  0.00     0.124 S 
ATOM     92  O   UNL A   1      48.965  27.927  36.424  1.00  0.00    -0.237 OA
ATOM     93  O   UNL A   1      48.816  28.462  34.014  1.00  0.00    -0.237 OA
ATOM     94  O   UNL A   1      47.844  29.993  35.682  1.00  0.00    -0.744 OA
ENDBRANCH  87  91
ENDBRANCH  61  84
ENDBRANCH  35  36
ENDBRANCH  28  30
ENDBRANCH  27  28
ENDBRANCH  26  27
ENDBRANCH  25  26
ENDBRANCH  24  25
ENDBRANCH   1  24
TORSDOF 23
ENDMDL
