MODEL 1
REMARK VINA RESULT:     -10.4      0.000      0.000
REMARK SMILES O=C(Cc1cccn1-c1ccccc1F)OCCOCCOCCOC(=O)c1ccc(-c2c3nc(c(-c4cc(S(=O)(=O)[O-])ccc4F)c4ccc([nH]4)c(-c4cc(S(=O)(=O)[O-])ccc4F)c4nc(c(-c5cc(S(=O)(=O)[O-])ccc5F)c5ccc2[nH]5)C=C4)C=C3)cc1
REMARK SMILES IDX 21 1 20 2 19 3 18 4 17 5 16 6 2 7 1 8 3 9 4 10 5 11 8 12
REMARK SMILES IDX 6 13 7 14 9 15 10 16 14 17 11 18 13 19 15 20 12 21 22 22
REMARK SMILES IDX 23 23 24 24 25 25 26 26 27 27 28 28 29 29 90 30 30 31 89 32
REMARK SMILES IDX 31 33 32 34 33 35 83 36 34 37 88 38 82 39 84 40 35 41 87 42
REMARK SMILES IDX 81 43 80 44 36 46 68 47 48 48 67 49 49 50 52 51 66 52 85 53
REMARK SMILES IDX 50 54 51 55 65 57 86 58 53 59 37 60 38 61 46 62 39 63 45 64
REMARK SMILES IDX 47 65 44 66 40 67 41 68 42 69 43 70 69 71 70 72 78 73 71 74
REMARK SMILES IDX 77 75 79 76 76 77 72 78 73 79 74 80 75 81 54 82 55 83 63 84
REMARK SMILES IDX 56 85 62 86 64 87 61 88 57 89 58 90 59 91 60 92
REMARK H PARENT 84 45 52 56
REMARK Flexibility Score: inf
ROOT
ATOM      1  C   UNL A   1      33.317  29.132  24.858  1.00  0.00     0.188 C 
ENDROOT
BRANCH   1   2
ATOM      2  C   UNL A   1      32.625  28.563  23.603  1.00  0.00     0.188 C 
BRANCH   2   3
ATOM      3  O   UNL A   1      33.472  28.202  22.531  1.00  0.00    -0.376 OA
BRANCH   3   4
ATOM      4  C   UNL A   1      33.377  26.897  21.984  1.00  0.00     0.202 C 
BRANCH   4   5
ATOM      5  C   UNL A   1      33.481  25.712  22.946  1.00  0.00     0.261 C 
BRANCH   5   6
ATOM      6  O   UNL A   1      33.927  24.456  22.396  1.00  0.00    -0.463 OA
BRANCH   6   7
ATOM      7  C   UNL A   1      33.624  23.242  22.912  1.00  0.00     0.311 C 
ATOM      8  O   UNL A   1      32.451  22.893  23.010  1.00  0.00    -0.252 OA
BRANCH   7   9
ATOM      9  C   UNL A   1      34.753  22.460  23.539  1.00  0.00     0.177 C 
BRANCH   9  10
ATOM     10  C   UNL A   1      34.631  22.343  25.025  1.00  0.00     0.034 A 
ATOM     11  C   UNL A   1      34.682  23.347  25.979  1.00  0.00     0.024 A 
ATOM     12  N   UNL A   1      34.247  21.171  25.669  1.00  0.00    -0.318 N 
ATOM     13  C   UNL A   1      34.312  22.794  27.221  1.00  0.00     0.020 A 
ATOM     14  C   UNL A   1      34.020  21.470  26.998  1.00  0.00     0.091 A 
BRANCH  12  15
ATOM     15  C   UNL A   1      33.940  19.930  25.062  1.00  0.00     0.081 A 
ATOM     16  C   UNL A   1      32.617  19.661  24.696  1.00  0.00     0.030 A 
ATOM     17  C   UNL A   1      34.950  19.025  24.737  1.00  0.00     0.147 A 
ATOM     18  C   UNL A   1      32.335  18.522  23.936  1.00  0.00     0.002 A 
ATOM     19  C   UNL A   1      34.668  17.889  23.987  1.00  0.00     0.041 A 
ATOM     20  F   UNL A   1      36.209  19.222  25.144  1.00  0.00    -0.205 F 
ATOM     21  C   UNL A   1      33.360  17.645  23.571  1.00  0.00     0.003 A 
ENDBRANCH  12  15
ENDBRANCH   9  10
ENDBRANCH   7   9
ENDBRANCH   6   7
ENDBRANCH   5   6
ENDBRANCH   4   5
ENDBRANCH   3   4
ENDBRANCH   2   3
ENDBRANCH   1   2
BRANCH   1  22
ATOM     22  O   UNL A   1      32.693  30.056  25.741  1.00  0.00    -0.376 OA
BRANCH  22  23
ATOM     23  C   UNL A   1      33.044  30.188  27.109  1.00  0.00     0.202 C 
BRANCH  23  24
ATOM     24  C   UNL A   1      33.879  31.375  27.576  1.00  0.00     0.261 C 
BRANCH  24  25
ATOM     25  O   UNL A   1      34.342  31.255  28.914  1.00  0.00    -0.460 OA
BRANCH  25  26
ATOM     26  C   UNL A   1      35.663  31.494  29.024  1.00  0.00     0.338 C 
ATOM     27  O   UNL A   1      36.209  32.570  29.188  1.00  0.00    -0.246 OA
BRANCH  26  28
ATOM     28  C   UNL A   1      36.429  30.265  28.805  1.00  0.00     0.060 A 
ATOM     29  C   UNL A   1      36.768  29.562  29.965  1.00  0.00     0.016 A 
ATOM     30  C   UNL A   1      37.130  30.128  27.604  1.00  0.00     0.016 A 
ATOM     31  C   UNL A   1      37.988  28.933  30.007  1.00  0.00     0.010 A 
ATOM     32  C   UNL A   1      38.369  29.528  27.658  1.00  0.00     0.010 A 
ATOM     33  C   UNL A   1      38.818  29.027  28.886  1.00  0.00    -0.014 A 
BRANCH  33  34
ATOM     34  C   UNL A   1      40.213  28.608  29.036  1.00  0.00     0.031 A 
ATOM     35  C   UNL A   1      41.097  29.750  29.504  1.00  0.00     0.074 A 
ATOM     36  C   UNL A   1      40.470  27.307  28.701  1.00  0.00     0.049 A 
ATOM     37  N   UNL A   1      42.372  29.924  29.357  1.00  0.00    -0.248 NA
ATOM     38  C   UNL A   1      40.455  30.926  30.158  1.00  0.00     0.031 C 
ATOM     39  C   UNL A   1      39.459  26.335  28.211  1.00  0.00     0.029 A 
ATOM     40  N   UNL A   1      41.610  26.535  28.692  1.00  0.00    -0.354 N 
ATOM     41  C   UNL A   1      42.708  31.078  30.084  1.00  0.00     0.074 A 
ATOM     42  C   UNL A   1      41.481  31.731  30.422  1.00  0.00     0.031 C 
ATOM     43  C   UNL A   1      40.034  25.153  27.899  1.00  0.00     0.029 A 
ATOM     44  C   UNL A   1      41.454  25.222  28.180  1.00  0.00     0.049 A 
ATOM     45  H   UNL A   1      42.474  26.872  29.019  1.00  0.00     0.167 HD
ATOM     46  C   UNL A   1      43.972  31.363  30.499  1.00  0.00     0.034 A 
ATOM     47  C   UNL A   1      42.405  24.263  27.971  1.00  0.00     0.034 A 
ATOM     48  C   UNL A   1      44.896  30.379  30.045  1.00  0.00     0.049 A 
ATOM     49  C   UNL A   1      43.651  24.819  28.533  1.00  0.00     0.074 A 
ATOM     50  C   UNL A   1      45.450  30.102  28.823  1.00  0.00     0.029 A 
ATOM     51  N   UNL A   1      45.145  29.321  30.887  1.00  0.00    -0.354 N 
ATOM     52  N   UNL A   1      43.892  24.990  29.798  1.00  0.00    -0.248 NA
ATOM     53  C   UNL A   1      44.683  25.298  27.607  1.00  0.00     0.031 C 
ATOM     54  C   UNL A   1      45.691  28.710  28.848  1.00  0.00     0.029 A 
ATOM     55  C   UNL A   1      45.342  28.206  30.105  1.00  0.00     0.049 A 
ATOM     56  H   UNL A   1      45.178  29.356  31.870  1.00  0.00     0.167 HD
ATOM     57  C   UNL A   1      44.950  25.866  29.800  1.00  0.00     0.074 A 
ATOM     58  C   UNL A   1      45.549  25.791  28.486  1.00  0.00     0.031 C 
ATOM     59  C   UNL A   1      44.960  26.919  30.655  1.00  0.00     0.034 A 
BRANCH  46  60
ATOM     60  C   UNL A   1      44.454  32.394  31.470  1.00  0.00     0.023 A 
ATOM     61  C   UNL A   1      44.077  32.226  32.820  1.00  0.00     0.031 A 
ATOM     62  C   UNL A   1      45.012  33.633  31.117  1.00  0.00     0.131 A 
ATOM     63  C   UNL A   1      44.193  33.273  33.741  1.00  0.00     0.055 A 
ATOM     64  C   UNL A   1      45.176  34.662  32.052  1.00  0.00     0.041 A 
ATOM     65  F   UNL A   1      45.338  33.919  29.848  1.00  0.00    -0.206 F 
ATOM     66  C   UNL A   1      44.744  34.495  33.366  1.00  0.00     0.022 A 
BRANCH  63  67
ATOM     67  S   UNL A   1      43.488  33.044  35.397  1.00  0.00     0.124 S 
ATOM     68  O   UNL A   1      42.159  32.522  35.103  1.00  0.00    -0.237 OA
ATOM     69  O   UNL A   1      44.427  32.098  35.995  1.00  0.00    -0.237 OA
ATOM     70  O   UNL A   1      43.517  34.388  35.967  1.00  0.00    -0.744 OA
ENDBRANCH  63  67
ENDBRANCH  46  60
BRANCH  47  71
ATOM     71  C   UNL A   1      42.511  22.913  27.286  1.00  0.00     0.023 A 
ATOM     72  C   UNL A   1      43.505  22.528  26.371  1.00  0.00     0.031 A 
ATOM     73  C   UNL A   1      41.596  21.877  27.648  1.00  0.00     0.131 A 
ATOM     74  C   UNL A   1      43.592  21.180  25.929  1.00  0.00     0.055 A 
ATOM     75  C   UNL A   1      41.729  20.540  27.268  1.00  0.00     0.041 A 
ATOM     76  F   UNL A   1      40.525  22.114  28.419  1.00  0.00    -0.206 F 
ATOM     77  C   UNL A   1      42.744  20.181  26.411  1.00  0.00     0.022 A 
BRANCH  74  78
ATOM     78  S   UNL A   1      44.833  20.647  24.712  1.00  0.00     0.124 S 
ATOM     79  O   UNL A   1      44.496  21.476  23.558  1.00  0.00    -0.237 OA
ATOM     80  O   UNL A   1      46.102  20.954  25.364  1.00  0.00    -0.237 OA
ATOM     81  O   UNL A   1      44.541  19.223  24.563  1.00  0.00    -0.744 OA
ENDBRANCH  74  78
ENDBRANCH  47  71
BRANCH  59  82
ATOM     82  C   UNL A   1      44.137  26.708  31.913  1.00  0.00     0.023 A 
ATOM     83  C   UNL A   1      43.082  27.579  32.232  1.00  0.00     0.031 A 
ATOM     84  C   UNL A   1      44.439  25.717  32.863  1.00  0.00     0.131 A 
ATOM     85  C   UNL A   1      42.382  27.437  33.447  1.00  0.00     0.055 A 
ATOM     86  C   UNL A   1      43.737  25.562  34.063  1.00  0.00     0.041 A 
ATOM     87  F   UNL A   1      45.446  24.872  32.661  1.00  0.00    -0.206 F 
ATOM     88  C   UNL A   1      42.698  26.429  34.361  1.00  0.00     0.022 A 
BRANCH  85  89
ATOM     89  S   UNL A   1      41.010  28.563  33.820  1.00  0.00     0.124 S 
ATOM     90  O   UNL A   1      41.447  29.809  33.200  1.00  0.00    -0.237 OA
ATOM     91  O   UNL A   1      39.874  27.900  33.188  1.00  0.00    -0.237 OA
ATOM     92  O   UNL A   1      40.972  28.580  35.283  1.00  0.00    -0.744 OA
ENDBRANCH  85  89
ENDBRANCH  59  82
ENDBRANCH  33  34
ENDBRANCH  26  28
ENDBRANCH  25  26
ENDBRANCH  24  25
ENDBRANCH  23  24
ENDBRANCH  22  23
ENDBRANCH   1  22
TORSDOF 22
ENDMDL
MODEL 2
REMARK VINA RESULT:     -10.4      5.105      7.911
REMARK SMILES O=C(Cc1cccn1-c1ccccc1F)OCCOCCOCCOC(=O)c1ccc(-c2c3nc(c(-c4cc(S(=O)(=O)[O-])ccc4F)c4ccc([nH]4)c(-c4cc(S(=O)(=O)[O-])ccc4F)c4nc(c(-c5cc(S(=O)(=O)[O-])ccc5F)c5ccc2[nH]5)C=C4)C=C3)cc1
REMARK SMILES IDX 21 1 20 2 19 3 18 4 17 5 16 6 2 7 1 8 3 9 4 10 5 11 8 12
REMARK SMILES IDX 6 13 7 14 9 15 10 16 14 17 11 18 13 19 15 20 12 21 22 22
REMARK SMILES IDX 23 23 24 24 25 25 26 26 27 27 28 28 29 29 90 30 30 31 89 32
REMARK SMILES IDX 31 33 32 34 33 35 83 36 34 37 88 38 82 39 84 40 35 41 87 42
REMARK SMILES IDX 81 43 80 44 36 46 68 47 48 48 67 49 49 50 52 51 66 52 85 53
REMARK SMILES IDX 50 54 51 55 65 57 86 58 53 59 37 60 38 61 46 62 39 63 45 64
REMARK SMILES IDX 47 65 44 66 40 67 41 68 42 69 43 70 69 71 70 72 78 73 71 74
REMARK SMILES IDX 77 75 79 76 76 77 72 78 73 79 74 80 75 81 54 82 55 83 63 84
REMARK SMILES IDX 56 85 62 86 64 87 61 88 57 89 58 90 59 91 60 92
REMARK H PARENT 84 45 52 56
REMARK Flexibility Score: inf
ROOT
ATOM      1  C   UNL A   1      31.762  28.405  26.287  1.00  0.00     0.188 C 
ENDROOT
BRANCH   1   2
ATOM      2  C   UNL A   1      31.859  28.707  24.778  1.00  0.00     0.188 C 
BRANCH   2   3
ATOM      3  O   UNL A   1      32.570  27.768  23.996  1.00  0.00    -0.376 OA
BRANCH   3   4
ATOM      4  C   UNL A   1      32.357  27.733  22.594  1.00  0.00     0.202 C 
BRANCH   4   5
ATOM      5  C   UNL A   1      33.159  26.718  21.776  1.00  0.00     0.261 C 
BRANCH   5   6
ATOM      6  O   UNL A   1      32.741  25.341  21.847  1.00  0.00    -0.463 OA
BRANCH   6   7
ATOM      7  C   UNL A   1      33.551  24.310  22.183  1.00  0.00     0.311 C 
ATOM      8  O   UNL A   1      33.418  23.221  21.632  1.00  0.00    -0.252 OA
BRANCH   7   9
ATOM      9  C   UNL A   1      34.446  24.501  23.383  1.00  0.00     0.177 C 
BRANCH   9  10
ATOM     10  C   UNL A   1      35.211  23.270  23.748  1.00  0.00     0.034 A 
ATOM     11  C   UNL A   1      36.502  22.914  23.386  1.00  0.00     0.024 A 
ATOM     12  N   UNL A   1      34.775  22.355  24.701  1.00  0.00    -0.318 N 
ATOM     13  C   UNL A   1      36.871  21.777  24.133  1.00  0.00     0.020 A 
ATOM     14  C   UNL A   1      35.810  21.474  24.951  1.00  0.00     0.091 A 
BRANCH  12  15
ATOM     15  C   UNL A   1      33.572  22.410  25.443  1.00  0.00     0.081 A 
ATOM     16  C   UNL A   1      33.566  23.059  26.682  1.00  0.00     0.030 A 
ATOM     17  C   UNL A   1      32.381  21.917  24.910  1.00  0.00     0.147 A 
ATOM     18  C   UNL A   1      32.350  23.276  27.335  1.00  0.00     0.002 A 
ATOM     19  C   UNL A   1      31.172  22.128  25.563  1.00  0.00     0.041 A 
ATOM     20  F   UNL A   1      32.373  21.224  23.765  1.00  0.00    -0.205 F 
ATOM     21  C   UNL A   1      31.155  22.824  26.771  1.00  0.00     0.003 A 
ENDBRANCH  12  15
ENDBRANCH   9  10
ENDBRANCH   7   9
ENDBRANCH   6   7
ENDBRANCH   5   6
ENDBRANCH   4   5
ENDBRANCH   3   4
ENDBRANCH   2   3
ENDBRANCH   1   2
BRANCH   1  22
ATOM     22  O   UNL A   1      32.023  29.374  27.294  1.00  0.00    -0.376 OA
BRANCH  22  23
ATOM     23  C   UNL A   1      32.314  30.733  27.014  1.00  0.00     0.202 C 
BRANCH  23  24
ATOM     24  C   UNL A   1      33.731  31.267  27.187  1.00  0.00     0.261 C 
BRANCH  24  25
ATOM     25  O   UNL A   1      34.102  31.473  28.542  1.00  0.00    -0.460 OA
BRANCH  25  26
ATOM     26  C   UNL A   1      34.053  32.771  28.898  1.00  0.00     0.338 C 
ATOM     27  O   UNL A   1      33.709  33.714  28.208  1.00  0.00    -0.246 OA
BRANCH  26  28
ATOM     28  C   UNL A   1      34.591  32.957  30.247  1.00  0.00     0.060 A 
ATOM     29  C   UNL A   1      34.834  34.285  30.612  1.00  0.00     0.016 A 
ATOM     30  C   UNL A   1      35.229  31.874  30.859  1.00  0.00     0.016 A 
ATOM     31  C   UNL A   1      35.929  34.550  31.397  1.00  0.00     0.010 A 
ATOM     32  C   UNL A   1      36.347  32.143  31.616  1.00  0.00     0.010 A 
ATOM     33  C   UNL A   1      36.735  33.478  31.790  1.00  0.00    -0.014 A 
BRANCH  33  34
ATOM     34  C   UNL A   1      38.041  33.787  32.375  1.00  0.00     0.031 A 
ATOM     35  C   UNL A   1      37.952  33.990  33.877  1.00  0.00     0.074 A 
ATOM     36  C   UNL A   1      39.074  33.872  31.483  1.00  0.00     0.049 A 
ATOM     37  N   UNL A   1      38.727  34.659  34.670  1.00  0.00    -0.248 NA
ATOM     38  C   UNL A   1      36.770  33.441  34.601  1.00  0.00     0.031 C 
ATOM     39  C   UNL A   1      38.953  33.679  30.015  1.00  0.00     0.029 A 
ATOM     40  N   UNL A   1      40.419  34.137  31.608  1.00  0.00    -0.354 N 
ATOM     41  C   UNL A   1      38.271  34.421  35.977  1.00  0.00     0.074 A 
ATOM     42  C   UNL A   1      36.987  33.800  35.864  1.00  0.00     0.031 C 
ATOM     43  C   UNL A   1      40.135  33.896  29.398  1.00  0.00     0.029 A 
ATOM     44  C   UNL A   1      41.141  34.215  30.390  1.00  0.00     0.049 A 
ATOM     45  H   UNL A   1      40.849  34.264  32.484  1.00  0.00     0.167 HD
ATOM     46  C   UNL A   1      39.034  34.613  37.086  1.00  0.00     0.034 A 
ATOM     47  C   UNL A   1      42.454  34.541  30.190  1.00  0.00     0.034 A 
ATOM     48  C   UNL A   1      40.313  35.139  36.745  1.00  0.00     0.049 A 
ATOM     49  C   UNL A   1      43.038  34.660  31.540  1.00  0.00     0.074 A 
ATOM     50  C   UNL A   1      40.743  36.374  36.338  1.00  0.00     0.029 A 
ATOM     51  N   UNL A   1      41.325  34.233  36.532  1.00  0.00    -0.354 N 
ATOM     52  N   UNL A   1      43.255  33.670  32.353  1.00  0.00    -0.248 NA
ATOM     53  C   UNL A   1      43.331  36.000  32.059  1.00  0.00     0.031 C 
ATOM     54  C   UNL A   1      41.873  36.111  35.532  1.00  0.00     0.029 A 
ATOM     55  C   UNL A   1      42.130  34.736  35.536  1.00  0.00     0.049 A 
ATOM     56  H   UNL A   1      41.451  33.380  37.007  1.00  0.00     0.167 HD
ATOM     57  C   UNL A   1      43.414  34.292  33.568  1.00  0.00     0.074 A 
ATOM     58  C   UNL A   1      43.726  35.675  33.285  1.00  0.00     0.031 C 
ATOM     59  C   UNL A   1      42.809  33.788  34.672  1.00  0.00     0.034 A 
BRANCH  46  60
ATOM     60  C   UNL A   1      38.797  34.185  38.500  1.00  0.00     0.023 A 
ATOM     61  C   UNL A   1      38.249  32.899  38.696  1.00  0.00     0.031 A 
ATOM     62  C   UNL A   1      38.823  35.039  39.614  1.00  0.00     0.131 A 
ATOM     63  C   UNL A   1      37.696  32.526  39.926  1.00  0.00     0.055 A 
ATOM     64  C   UNL A   1      38.317  34.645  40.859  1.00  0.00     0.041 A 
ATOM     65  F   UNL A   1      39.258  36.304  39.518  1.00  0.00    -0.206 F 
ATOM     66  C   UNL A   1      37.728  33.393  41.014  1.00  0.00     0.022 A 
BRANCH  63  67
ATOM     67  S   UNL A   1      36.822  30.940  40.029  1.00  0.00     0.124 S 
ATOM     68  O   UNL A   1      37.625  30.202  40.998  1.00  0.00    -0.237 OA
ATOM     69  O   UNL A   1      35.498  31.354  40.483  1.00  0.00    -0.237 OA
ATOM     70  O   UNL A   1      36.877  30.432  38.661  1.00  0.00    -0.744 OA
ENDBRANCH  63  67
ENDBRANCH  46  60
BRANCH  47  71
ATOM     71  C   UNL A   1      43.367  34.866  29.023  1.00  0.00     0.023 A 
ATOM     72  C   UNL A   1      44.276  33.984  28.415  1.00  0.00     0.031 A 
ATOM     73  C   UNL A   1      43.256  36.141  28.388  1.00  0.00     0.131 A 
ATOM     74  C   UNL A   1      44.952  34.356  27.222  1.00  0.00     0.055 A 
ATOM     75  C   UNL A   1      43.866  36.475  27.178  1.00  0.00     0.041 A 
ATOM     76  F   UNL A   1      42.519  37.132  28.912  1.00  0.00    -0.206 F 
ATOM     77  C   UNL A   1      44.712  35.571  26.578  1.00  0.00     0.022 A 
BRANCH  74  78
ATOM     78  S   UNL A   1      46.170  33.264  26.428  1.00  0.00     0.124 S 
ATOM     79  O   UNL A   1      46.945  32.798  27.574  1.00  0.00    -0.237 OA
ATOM     80  O   UNL A   1      45.345  32.258  25.769  1.00  0.00    -0.237 OA
ATOM     81  O   UNL A   1      46.874  34.176  25.529  1.00  0.00    -0.744 OA
ENDBRANCH  74  78
ENDBRANCH  47  71
BRANCH  59  82
ATOM     82  C   UNL A   1      42.525  32.298  34.604  1.00  0.00     0.023 A 
ATOM     83  C   UNL A   1      41.294  31.827  34.118  1.00  0.00     0.031 A 
ATOM     84  C   UNL A   1      43.412  31.330  35.106  1.00  0.00     0.131 A 
ATOM     85  C   UNL A   1      40.997  30.449  34.145  1.00  0.00     0.055 A 
ATOM     86  C   UNL A   1      43.128  29.961  35.120  1.00  0.00     0.041 A 
ATOM     87  F   UNL A   1      44.585  31.691  35.620  1.00  0.00    -0.206 F 
ATOM     88  C   UNL A   1      41.910  29.512  34.636  1.00  0.00     0.022 A 
BRANCH  85  89
ATOM     89  S   UNL A   1      39.409  29.868  33.490  1.00  0.00     0.124 S 
ATOM     90  O   UNL A   1      39.336  30.540  32.198  1.00  0.00    -0.237 OA
ATOM     91  O   UNL A   1      39.593  28.421  33.448  1.00  0.00    -0.237 OA
ATOM     92  O   UNL A   1      38.441  30.333  34.484  1.00  0.00    -0.744 OA
ENDBRANCH  85  89
ENDBRANCH  59  82
ENDBRANCH  33  34
ENDBRANCH  26  28
ENDBRANCH  25  26
ENDBRANCH  24  25
ENDBRANCH  23  24
ENDBRANCH  22  23
ENDBRANCH   1  22
TORSDOF 22
ENDMDL
MODEL 3
REMARK VINA RESULT:     -10.2      2.763      8.264
REMARK SMILES O=C(Cc1cccn1-c1ccccc1F)OCCOCCOCCOC(=O)c1ccc(-c2c3nc(c(-c4cc(S(=O)(=O)[O-])ccc4F)c4ccc([nH]4)c(-c4cc(S(=O)(=O)[O-])ccc4F)c4nc(c(-c5cc(S(=O)(=O)[O-])ccc5F)c5ccc2[nH]5)C=C4)C=C3)cc1
REMARK SMILES IDX 21 1 20 2 19 3 18 4 17 5 16 6 2 7 1 8 3 9 4 10 5 11 8 12
REMARK SMILES IDX 6 13 7 14 9 15 10 16 14 17 11 18 13 19 15 20 12 21 22 22
REMARK SMILES IDX 23 23 24 24 25 25 26 26 27 27 28 28 29 29 90 30 30 31 89 32
REMARK SMILES IDX 31 33 32 34 33 35 83 36 34 37 88 38 82 39 84 40 35 41 87 42
REMARK SMILES IDX 81 43 80 44 36 46 68 47 48 48 67 49 49 50 52 51 66 52 85 53
REMARK SMILES IDX 50 54 51 55 65 57 86 58 53 59 37 60 38 61 46 62 39 63 45 64
REMARK SMILES IDX 47 65 44 66 40 67 41 68 42 69 43 70 69 71 70 72 78 73 71 74
REMARK SMILES IDX 77 75 79 76 76 77 72 78 73 79 74 80 75 81 54 82 55 83 63 84
REMARK SMILES IDX 56 85 62 86 64 87 61 88 57 89 58 90 59 91 60 92
REMARK H PARENT 84 45 52 56
REMARK Flexibility Score: inf
ROOT
ATOM      1  C   UNL A   1      33.522  28.954  25.554  1.00  0.00     0.188 C 
ENDROOT
BRANCH   1   2
ATOM      2  C   UNL A   1      33.660  29.018  24.019  1.00  0.00     0.188 C 
BRANCH   2   3
ATOM      3  O   UNL A   1      32.807  28.167  23.279  1.00  0.00    -0.376 OA
BRANCH   3   4
ATOM      4  C   UNL A   1      32.166  27.088  23.939  1.00  0.00     0.202 C 
BRANCH   4   5
ATOM      5  C   UNL A   1      31.390  26.087  23.080  1.00  0.00     0.261 C 
BRANCH   5   6
ATOM      6  O   UNL A   1      31.956  24.770  22.933  1.00  0.00    -0.463 OA
BRANCH   6   7
ATOM      7  C   UNL A   1      33.137  24.506  22.326  1.00  0.00     0.311 C 
ATOM      8  O   UNL A   1      33.614  25.315  21.536  1.00  0.00    -0.252 OA
BRANCH   7   9
ATOM      9  C   UNL A   1      33.704  23.118  22.499  1.00  0.00     0.177 C 
BRANCH   9  10
ATOM     10  C   UNL A   1      34.783  23.048  23.532  1.00  0.00     0.034 A 
ATOM     11  C   UNL A   1      36.154  23.159  23.359  1.00  0.00     0.024 A 
ATOM     12  N   UNL A   1      34.531  23.046  24.900  1.00  0.00    -0.318 N 
ATOM     13  C   UNL A   1      36.753  23.241  24.632  1.00  0.00     0.020 A 
ATOM     14  C   UNL A   1      35.737  23.202  25.555  1.00  0.00     0.091 A 
BRANCH  12  15
ATOM     15  C   UNL A   1      33.265  23.083  25.530  1.00  0.00     0.081 A 
ATOM     16  C   UNL A   1      32.868  24.251  26.192  1.00  0.00     0.030 A 
ATOM     17  C   UNL A   1      32.377  22.014  25.412  1.00  0.00     0.147 A 
ATOM     18  C   UNL A   1      31.555  24.360  26.657  1.00  0.00     0.002 A 
ATOM     19  C   UNL A   1      31.073  22.122  25.881  1.00  0.00     0.041 A 
ATOM     20  F   UNL A   1      32.758  20.860  24.853  1.00  0.00    -0.205 F 
ATOM     21  C   UNL A   1      30.656  23.305  26.491  1.00  0.00     0.003 A 
ENDBRANCH  12  15
ENDBRANCH   9  10
ENDBRANCH   7   9
ENDBRANCH   6   7
ENDBRANCH   5   6
ENDBRANCH   4   5
ENDBRANCH   3   4
ENDBRANCH   2   3
ENDBRANCH   1   2
BRANCH   1  22
ATOM     22  O   UNL A   1      34.361  29.682  26.443  1.00  0.00    -0.376 OA
BRANCH  22  23
ATOM     23  C   UNL A   1      33.869  30.602  27.403  1.00  0.00     0.202 C 
BRANCH  23  24
ATOM     24  C   UNL A   1      34.796  31.648  28.012  1.00  0.00     0.261 C 
BRANCH  24  25
ATOM     25  O   UNL A   1      36.176  31.364  27.827  1.00  0.00    -0.460 OA
BRANCH  25  26
ATOM     26  C   UNL A   1      36.740  30.819  28.923  1.00  0.00     0.338 C 
ATOM     27  O   UNL A   1      36.736  31.266  30.055  1.00  0.00    -0.246 OA
BRANCH  26  28
ATOM     28  C   UNL A   1      37.497  29.617  28.569  1.00  0.00     0.060 A 
ATOM     29  C   UNL A   1      37.482  28.601  29.530  1.00  0.00     0.016 A 
ATOM     30  C   UNL A   1      38.498  29.727  27.599  1.00  0.00     0.016 A 
ATOM     31  C   UNL A   1      38.623  27.857  29.703  1.00  0.00     0.010 A 
ATOM     32  C   UNL A   1      39.654  29.006  27.796  1.00  0.00     0.010 A 
ATOM     33  C   UNL A   1      39.732  28.154  28.905  1.00  0.00    -0.014 A 
BRANCH  33  34
ATOM     34  C   UNL A   1      41.018  27.564  29.282  1.00  0.00     0.031 A 
ATOM     35  C   UNL A   1      41.361  26.362  28.420  1.00  0.00     0.074 A 
ATOM     36  C   UNL A   1      41.647  28.163  30.338  1.00  0.00     0.049 A 
ATOM     37  N   UNL A   1      42.133  25.354  28.674  1.00  0.00    -0.248 NA
ATOM     38  C   UNL A   1      40.671  26.206  27.108  1.00  0.00     0.031 C 
ATOM     39  C   UNL A   1      41.121  29.327  31.097  1.00  0.00     0.029 A 
ATOM     40  N   UNL A   1      42.833  27.929  30.996  1.00  0.00    -0.354 N 
ATOM     41  C   UNL A   1      42.202  24.591  27.497  1.00  0.00     0.074 A 
ATOM     42  C   UNL A   1      41.173  25.071  26.628  1.00  0.00     0.031 C 
ATOM     43  C   UNL A   1      41.937  29.644  32.127  1.00  0.00     0.029 A 
ATOM     44  C   UNL A   1      43.078  28.751  32.125  1.00  0.00     0.049 A 
ATOM     45  H   UNL A   1      43.468  27.237  30.701  1.00  0.00     0.167 HD
ATOM     46  C   UNL A   1      43.196  23.699  27.237  1.00  0.00     0.034 A 
ATOM     47  C   UNL A   1      44.115  28.702  33.014  1.00  0.00     0.034 A 
ATOM     48  C   UNL A   1      44.101  23.605  28.332  1.00  0.00     0.049 A 
ATOM     49  C   UNL A   1      45.043  27.687  32.477  1.00  0.00     0.074 A 
ATOM     50  C   UNL A   1      44.022  23.026  29.570  1.00  0.00     0.029 A 
ATOM     51  N   UNL A   1      45.201  24.431  28.305  1.00  0.00    -0.354 N 
ATOM     52  N   UNL A   1      45.772  27.827  31.411  1.00  0.00    -0.248 NA
ATOM     53  C   UNL A   1      45.106  26.379  33.138  1.00  0.00     0.031 C 
ATOM     54  C   UNL A   1      44.862  23.815  30.388  1.00  0.00     0.029 A 
ATOM     55  C   UNL A   1      45.474  24.798  29.603  1.00  0.00     0.049 A 
ATOM     56  H   UNL A   1      45.701  24.708  27.504  1.00  0.00     0.167 HD
ATOM     57  C   UNL A   1      46.133  26.537  31.107  1.00  0.00     0.074 A 
ATOM     58  C   UNL A   1      45.945  25.761  32.313  1.00  0.00     0.031 C 
ATOM     59  C   UNL A   1      46.075  26.100  29.824  1.00  0.00     0.034 A 
BRANCH  46  60
ATOM     60  C   UNL A   1      43.550  23.003  25.961  1.00  0.00     0.023 A 
ATOM     61  C   UNL A   1      43.549  21.591  25.982  1.00  0.00     0.031 A 
ATOM     62  C   UNL A   1      44.131  23.619  24.842  1.00  0.00     0.131 A 
ATOM     63  C   UNL A   1      44.162  20.850  24.965  1.00  0.00     0.055 A 
ATOM     64  C   UNL A   1      44.698  22.875  23.800  1.00  0.00     0.041 A 
ATOM     65  F   UNL A   1      44.246  24.952  24.757  1.00  0.00    -0.206 F 
ATOM     66  C   UNL A   1      44.738  21.485  23.869  1.00  0.00     0.022 A 
BRANCH  63  67
ATOM     67  S   UNL A   1      44.304  19.054  25.177  1.00  0.00     0.124 S 
ATOM     68  O   UNL A   1      43.215  18.760  26.101  1.00  0.00    -0.237 OA
ATOM     69  O   UNL A   1      44.128  18.574  23.810  1.00  0.00    -0.237 OA
ATOM     70  O   UNL A   1      45.648  18.882  25.724  1.00  0.00    -0.744 OA
ENDBRANCH  63  67
ENDBRANCH  46  60
BRANCH  47  71
ATOM     71  C   UNL A   1      44.481  29.320  34.351  1.00  0.00     0.023 A 
ATOM     72  C   UNL A   1      45.241  30.486  34.541  1.00  0.00     0.031 A 
ATOM     73  C   UNL A   1      43.944  28.753  35.548  1.00  0.00     0.131 A 
ATOM     74  C   UNL A   1      45.372  31.057  35.836  1.00  0.00     0.055 A 
ATOM     75  C   UNL A   1      44.015  29.356  36.805  1.00  0.00     0.041 A 
ATOM     76  F   UNL A   1      43.295  27.580  35.548  1.00  0.00    -0.206 F 
ATOM     77  C   UNL A   1      44.723  30.526  36.953  1.00  0.00     0.022 A 
BRANCH  74  78
ATOM     78  S   UNL A   1      46.382  32.538  36.135  1.00  0.00     0.124 S 
ATOM     79  O   UNL A   1      45.368  33.587  36.188  1.00  0.00    -0.237 OA
ATOM     80  O   UNL A   1      47.055  32.241  37.395  1.00  0.00    -0.237 OA
ATOM     81  O   UNL A   1      47.251  32.571  34.960  1.00  0.00    -0.744 OA
ENDBRANCH  74  78
ENDBRANCH  47  71
BRANCH  59  82
ATOM     82  C   UNL A   1      46.205  27.199  28.785  1.00  0.00     0.023 A 
ATOM     83  C   UNL A   1      45.097  27.988  28.436  1.00  0.00     0.031 A 
ATOM     84  C   UNL A   1      47.385  27.418  28.052  1.00  0.00     0.131 A 
ATOM     85  C   UNL A   1      45.198  28.942  27.403  1.00  0.00     0.055 A 
ATOM     86  C   UNL A   1      47.494  28.374  27.038  1.00  0.00     0.041 A 
ATOM     87  F   UNL A   1      48.473  26.689  28.290  1.00  0.00    -0.206 F 
ATOM     88  C   UNL A   1      46.392  29.145  26.707  1.00  0.00     0.022 A 
BRANCH  85  89
ATOM     89  S   UNL A   1      43.756  29.962  26.991  1.00  0.00     0.124 S 
ATOM     90  O   UNL A   1      43.121  30.151  28.291  1.00  0.00    -0.237 OA
ATOM     91  O   UNL A   1      44.366  31.150  26.400  1.00  0.00    -0.237 OA
ATOM     92  O   UNL A   1      43.006  29.128  26.052  1.00  0.00    -0.744 OA
ENDBRANCH  85  89
ENDBRANCH  59  82
ENDBRANCH  33  34
ENDBRANCH  26  28
ENDBRANCH  25  26
ENDBRANCH  24  25
ENDBRANCH  23  24
ENDBRANCH  22  23
ENDBRANCH   1  22
TORSDOF 22
ENDMDL
