MODEL 1
REMARK VINA RESULT:      -9.7      0.000      0.000
REMARK SMILES CCn1nc(C)c(Br)c1C[C@H](C(=O)OCCOCCOCCOC(=O)c1ccc(-c2c3nc(c(-c4cc(S(=O)(=O)[O-])ccc4F)c4ccc([nH]4)c(-c4cc(S(=O)(=O)[O-])ccc4F)c4nc(c(-c5cc(S(=O)(=O)[O-])ccc5F)c5ccc2[nH]5)C=C4)C=C3)cc1)c1ccc(F)cc1
REMARK SMILES IDX 18 1 17 2 16 3 15 4 14 5 12 6 13 7 11 8 10 9 9 10 3 11 4 12
REMARK SMILES IDX 5 13 7 14 6 15 8 16 2 17 1 18 89 19 90 20 95 21 91 22 94 23
REMARK SMILES IDX 92 24 93 25 19 26 20 27 21 28 22 29 23 30 24 31 25 32 26 33
REMARK SMILES IDX 27 34 88 35 28 36 87 37 29 38 30 39 31 40 81 41 32 42 86 43
REMARK SMILES IDX 80 44 82 45 33 46 85 47 79 48 78 49 34 51 66 52 46 53 65 54
REMARK SMILES IDX 47 55 50 56 64 57 83 58 48 59 49 60 63 62 84 63 51 64 35 65
REMARK SMILES IDX 36 66 44 67 37 68 43 69 45 70 42 71 38 72 39 73 40 74 41 75
REMARK SMILES IDX 67 76 68 77 76 78 69 79 75 80 77 81 74 82 70 83 71 84 72 85
REMARK SMILES IDX 73 86 52 87 53 88 61 89 54 90 60 91 62 92 59 93 55 94 56 95
REMARK SMILES IDX 57 96 58 97
REMARK H PARENT 82 50 50 61
REMARK Flexibility Score: inf
ROOT
ATOM      1  C   UNL A   1      39.231  22.625  26.574  1.00  0.00     0.188 C 
ENDROOT
BRANCH   1   2
ATOM      2  O   UNL A   1      38.654  21.975  25.456  1.00  0.00    -0.376 OA
BRANCH   2   3
ATOM      3  C   UNL A   1      37.306  21.542  25.538  1.00  0.00     0.202 C 
BRANCH   3   4
ATOM      4  C   UNL A   1      36.191  22.489  26.051  1.00  0.00     0.261 C 
BRANCH   4   5
ATOM      5  O   UNL A   1      34.917  22.526  25.353  1.00  0.00    -0.463 OA
BRANCH   5   6
ATOM      6  C   UNL A   1      33.875  21.904  25.965  1.00  0.00     0.313 C 
ATOM      7  O   UNL A   1      33.806  21.845  27.191  1.00  0.00    -0.252 OA
BRANCH   6   8
ATOM      8  C   UNL A   1      32.908  21.114  25.042  1.00  0.00     0.135 C 
BRANCH   8   9
ATOM      9  C   UNL A   1      32.203  22.195  24.142  1.00  0.00     0.077 C 
BRANCH   9  10
ATOM     10  C   UNL A   1      31.765  23.495  24.777  1.00  0.00     0.054 A 
ATOM     11  N   UNL A   1      30.698  23.542  25.657  1.00  0.00    -0.268 N 
ATOM     12  N   UNL A   1      30.150  24.764  25.764  1.00  0.00    -0.177 NA
ATOM     13  C   UNL A   1      31.047  25.567  25.176  1.00  0.00     0.074 A 
ATOM     14  C   UNL A   1      32.167  24.817  24.742  1.00  0.00     0.062 A 
ATOM     15  C   UNL A   1      30.761  27.017  25.026  1.00  0.00     0.070 C 
ATOM     16  Br  UNL A   1      33.768  25.601  24.192  1.00  0.00    -0.047 Br
BRANCH  11  17
ATOM     17  C   UNL A   1      30.102  22.432  26.375  1.00  0.00     0.141 C 
ATOM     18  C   UNL A   1      29.243  22.933  27.525  1.00  0.00     0.029 C 
ENDBRANCH  11  17
ENDBRANCH   9  10
ENDBRANCH   8   9
BRANCH   8  19
ATOM     19  C   UNL A   1      33.325  19.769  24.373  1.00  0.00    -0.033 A 
ATOM     20  C   UNL A   1      32.576  19.198  23.320  1.00  0.00     0.007 A 
ATOM     21  C   UNL A   1      34.470  19.035  24.740  1.00  0.00     0.007 A 
ATOM     22  C   UNL A   1      32.855  17.903  22.828  1.00  0.00     0.039 A 
ATOM     23  C   UNL A   1      34.762  17.754  24.258  1.00  0.00     0.039 A 
ATOM     24  C   UNL A   1      33.929  17.181  23.326  1.00  0.00     0.123 A 
ATOM     25  F   UNL A   1      34.169  15.933  22.904  1.00  0.00    -0.207 F 
ENDBRANCH   8  19
ENDBRANCH   6   8
ENDBRANCH   5   6
ENDBRANCH   4   5
ENDBRANCH   3   4
ENDBRANCH   2   3
ENDBRANCH   1   2
BRANCH   1  26
ATOM     26  C   UNL A   1      40.658  22.302  27.008  1.00  0.00     0.188 C 
BRANCH  26  27
ATOM     27  O   UNL A   1      41.334  21.299  26.281  1.00  0.00    -0.376 OA
BRANCH  27  28
ATOM     28  C   UNL A   1      42.713  21.382  25.981  1.00  0.00     0.202 C 
BRANCH  28  29
ATOM     29  C   UNL A   1      43.416  22.727  26.068  1.00  0.00     0.261 C 
BRANCH  29  30
ATOM     30  O   UNL A   1      42.782  23.746  25.329  1.00  0.00    -0.460 OA
BRANCH  30  31
ATOM     31  C   UNL A   1      43.281  24.992  25.484  1.00  0.00     0.338 C 
ATOM     32  O   UNL A   1      44.184  25.512  24.864  1.00  0.00    -0.246 OA
BRANCH  31  33
ATOM     33  C   UNL A   1      42.500  25.610  26.561  1.00  0.00     0.060 A 
ATOM     34  C   UNL A   1      41.545  26.561  26.203  1.00  0.00     0.016 A 
ATOM     35  C   UNL A   1      43.038  25.514  27.849  1.00  0.00     0.016 A 
ATOM     36  C   UNL A   1      41.373  27.629  27.051  1.00  0.00     0.010 A 
ATOM     37  C   UNL A   1      42.950  26.617  28.636  1.00  0.00     0.010 A 
ATOM     38  C   UNL A   1      42.188  27.694  28.182  1.00  0.00    -0.014 A 
BRANCH  38  39
ATOM     39  C   UNL A   1      42.196  28.882  29.001  1.00  0.00     0.031 A 
ATOM     40  C   UNL A   1      43.291  29.791  28.595  1.00  0.00     0.074 A 
ATOM     41  C   UNL A   1      41.164  29.131  29.833  1.00  0.00     0.049 A 
ATOM     42  N   UNL A   1      44.345  30.114  29.268  1.00  0.00    -0.248 NA
ATOM     43  C   UNL A   1      43.371  30.171  27.165  1.00  0.00     0.031 C 
ATOM     44  C   UNL A   1      39.941  28.334  30.002  1.00  0.00     0.029 A 
ATOM     45  N   UNL A   1      40.911  30.215  30.609  1.00  0.00    -0.354 N 
ATOM     46  C   UNL A   1      45.035  30.985  28.432  1.00  0.00     0.074 A 
ATOM     47  C   UNL A   1      44.595  30.687  27.106  1.00  0.00     0.031 C 
ATOM     48  C   UNL A   1      39.001  29.082  30.623  1.00  0.00     0.029 A 
ATOM     49  C   UNL A   1      39.573  30.371  30.974  1.00  0.00     0.049 A 
ATOM     50  H   UNL A   1      41.617  30.841  30.892  1.00  0.00     0.167 HD
ATOM     51  C   UNL A   1      45.558  32.140  28.927  1.00  0.00     0.034 A 
ATOM     52  C   UNL A   1      38.978  31.513  31.428  1.00  0.00     0.034 A 
ATOM     53  C   UNL A   1      45.758  32.019  30.360  1.00  0.00     0.049 A 
ATOM     54  C   UNL A   1      40.076  32.431  31.838  1.00  0.00     0.074 A 
ATOM     55  C   UNL A   1      46.415  31.097  31.154  1.00  0.00     0.029 A 
ATOM     56  N   UNL A   1      44.890  32.683  31.203  1.00  0.00    -0.354 N 
ATOM     57  N   UNL A   1      40.863  32.201  32.853  1.00  0.00    -0.248 NA
ATOM     58  C   UNL A   1      40.630  33.312  30.818  1.00  0.00     0.031 C 
ATOM     59  C   UNL A   1      45.574  30.919  32.291  1.00  0.00     0.029 A 
ATOM     60  C   UNL A   1      44.510  31.816  32.199  1.00  0.00     0.049 A 
ATOM     61  H   UNL A   1      44.596  33.618  31.107  1.00  0.00     0.167 HD
ATOM     62  C   UNL A   1      42.135  32.530  32.408  1.00  0.00     0.074 A 
ATOM     63  C   UNL A   1      41.918  33.285  31.172  1.00  0.00     0.031 C 
ATOM     64  C   UNL A   1      43.241  31.900  32.903  1.00  0.00     0.034 A 
BRANCH  51  65
ATOM     65  C   UNL A   1      45.444  33.480  28.212  1.00  0.00     0.023 A 
ATOM     66  C   UNL A   1      46.652  34.159  27.987  1.00  0.00     0.031 A 
ATOM     67  C   UNL A   1      44.273  34.251  27.995  1.00  0.00     0.131 A 
ATOM     68  C   UNL A   1      46.671  35.541  27.737  1.00  0.00     0.055 A 
ATOM     69  C   UNL A   1      44.297  35.615  27.689  1.00  0.00     0.041 A 
ATOM     70  F   UNL A   1      43.031  33.774  28.116  1.00  0.00    -0.206 F 
ATOM     71  C   UNL A   1      45.502  36.279  27.599  1.00  0.00     0.022 A 
BRANCH  68  72
ATOM     72  S   UNL A   1      48.271  36.379  27.780  1.00  0.00     0.124 S 
ATOM     73  O   UNL A   1      48.282  36.896  29.143  1.00  0.00    -0.237 OA
ATOM     74  O   UNL A   1      49.186  35.279  27.497  1.00  0.00    -0.237 OA
ATOM     75  O   UNL A   1      48.152  37.382  26.725  1.00  0.00    -0.744 OA
ENDBRANCH  68  72
ENDBRANCH  51  65
BRANCH  52  76
ATOM     76  C   UNL A   1      37.574  31.984  31.206  1.00  0.00     0.023 A 
ATOM     77  C   UNL A   1      37.023  32.180  29.917  1.00  0.00     0.031 A 
ATOM     78  C   UNL A   1      36.661  32.021  32.285  1.00  0.00     0.131 A 
ATOM     79  C   UNL A   1      35.631  32.398  29.755  1.00  0.00     0.055 A 
ATOM     80  C   UNL A   1      35.292  32.241  32.120  1.00  0.00     0.041 A 
ATOM     81  F   UNL A   1      37.054  31.755  33.541  1.00  0.00    -0.206 F 
ATOM     82  C   UNL A   1      34.767  32.420  30.851  1.00  0.00     0.022 A 
BRANCH  79  83
ATOM     83  S   UNL A   1      34.890  32.566  28.094  1.00  0.00     0.124 S 
ATOM     84  O   UNL A   1      33.575  33.122  28.393  1.00  0.00    -0.237 OA
ATOM     85  O   UNL A   1      35.830  33.447  27.414  1.00  0.00    -0.237 OA
ATOM     86  O   UNL A   1      34.871  31.191  27.588  1.00  0.00    -0.744 OA
ENDBRANCH  79  83
ENDBRANCH  52  76
BRANCH  64  87
ATOM     87  C   UNL A   1      43.103  31.084  34.177  1.00  0.00     0.023 A 
ATOM     88  C   UNL A   1      42.762  29.712  34.246  1.00  0.00     0.031 A 
ATOM     89  C   UNL A   1      43.429  31.731  35.383  1.00  0.00     0.131 A 
ATOM     90  C   UNL A   1      42.741  29.052  35.492  1.00  0.00     0.055 A 
ATOM     91  C   UNL A   1      43.434  31.068  36.608  1.00  0.00     0.041 A 
ATOM     92  F   UNL A   1      43.782  33.027  35.387  1.00  0.00    -0.206 F 
ATOM     93  C   UNL A   1      43.080  29.727  36.668  1.00  0.00     0.022 A 
BRANCH  90  94
ATOM     94  S   UNL A   1      42.229  27.307  35.625  1.00  0.00     0.124 S 
ATOM     95  O   UNL A   1      41.979  27.128  37.049  1.00  0.00    -0.237 OA
ATOM     96  O   UNL A   1      41.055  27.259  34.758  1.00  0.00    -0.237 OA
ATOM     97  O   UNL A   1      43.391  26.575  35.113  1.00  0.00    -0.744 OA
ENDBRANCH  90  94
ENDBRANCH  64  87
ENDBRANCH  38  39
ENDBRANCH  31  33
ENDBRANCH  30  31
ENDBRANCH  29  30
ENDBRANCH  28  29
ENDBRANCH  27  28
ENDBRANCH  26  27
ENDBRANCH   1  26
TORSDOF 24
ENDMDL
MODEL 2
REMARK VINA RESULT:      -9.6      3.280      7.580
REMARK SMILES CCn1nc(C)c(Br)c1C[C@H](C(=O)OCCOCCOCCOC(=O)c1ccc(-c2c3nc(c(-c4cc(S(=O)(=O)[O-])ccc4F)c4ccc([nH]4)c(-c4cc(S(=O)(=O)[O-])ccc4F)c4nc(c(-c5cc(S(=O)(=O)[O-])ccc5F)c5ccc2[nH]5)C=C4)C=C3)cc1)c1ccc(F)cc1
REMARK SMILES IDX 18 1 17 2 16 3 15 4 14 5 12 6 13 7 11 8 10 9 9 10 3 11 4 12
REMARK SMILES IDX 5 13 7 14 6 15 8 16 2 17 1 18 89 19 90 20 95 21 91 22 94 23
REMARK SMILES IDX 92 24 93 25 19 26 20 27 21 28 22 29 23 30 24 31 25 32 26 33
REMARK SMILES IDX 27 34 88 35 28 36 87 37 29 38 30 39 31 40 81 41 32 42 86 43
REMARK SMILES IDX 80 44 82 45 33 46 85 47 79 48 78 49 34 51 66 52 46 53 65 54
REMARK SMILES IDX 47 55 50 56 64 57 83 58 48 59 49 60 63 62 84 63 51 64 35 65
REMARK SMILES IDX 36 66 44 67 37 68 43 69 45 70 42 71 38 72 39 73 40 74 41 75
REMARK SMILES IDX 67 76 68 77 76 78 69 79 75 80 77 81 74 82 70 83 71 84 72 85
REMARK SMILES IDX 73 86 52 87 53 88 61 89 54 90 60 91 62 92 59 93 55 94 56 95
REMARK SMILES IDX 57 96 58 97
REMARK H PARENT 82 50 50 61
REMARK Flexibility Score: inf
ROOT
ATOM      1  C   UNL A   1      39.871  21.172  26.106  1.00  0.00     0.188 C 
ENDROOT
BRANCH   1   2
ATOM      2  O   UNL A   1      38.496  21.297  25.787  1.00  0.00    -0.376 OA
BRANCH   2   3
ATOM      3  C   UNL A   1      37.937  22.595  25.672  1.00  0.00     0.202 C 
BRANCH   3   4
ATOM      4  C   UNL A   1      36.422  22.792  25.409  1.00  0.00     0.261 C 
BRANCH   4   5
ATOM      5  O   UNL A   1      35.569  21.623  25.271  1.00  0.00    -0.463 OA
BRANCH   5   6
ATOM      6  C   UNL A   1      34.402  21.642  25.966  1.00  0.00     0.313 C 
ATOM      7  O   UNL A   1      34.352  22.103  27.106  1.00  0.00    -0.252 OA
BRANCH   6   8
ATOM      8  C   UNL A   1      33.209  20.880  25.328  1.00  0.00     0.135 C 
BRANCH   8   9
ATOM      9  C   UNL A   1      32.716  21.784  24.138  1.00  0.00     0.077 C 
BRANCH   9  10
ATOM     10  C   UNL A   1      32.148  23.149  24.450  1.00  0.00     0.054 A 
ATOM     11  N   UNL A   1      32.359  24.225  23.607  1.00  0.00    -0.268 N 
ATOM     12  N   UNL A   1      32.213  25.414  24.214  1.00  0.00    -0.177 NA
ATOM     13  C   UNL A   1      31.621  25.107  25.375  1.00  0.00     0.074 A 
ATOM     14  C   UNL A   1      31.378  23.714  25.448  1.00  0.00     0.062 A 
ATOM     15  C   UNL A   1      31.355  26.170  26.379  1.00  0.00     0.070 C 
ATOM     16  Br  UNL A   1      30.274  22.938  26.737  1.00  0.00    -0.047 Br
BRANCH  11  17
ATOM     17  C   UNL A   1      32.779  24.185  22.218  1.00  0.00     0.141 C 
ATOM     18  C   UNL A   1      33.245  25.557  21.756  1.00  0.00     0.029 C 
ENDBRANCH  11  17
ENDBRANCH   9  10
ENDBRANCH   8   9
BRANCH   8  19
ATOM     19  C   UNL A   1      33.245  19.337  25.105  1.00  0.00    -0.033 A 
ATOM     20  C   UNL A   1      33.725  18.771  23.903  1.00  0.00     0.007 A 
ATOM     21  C   UNL A   1      32.830  18.398  26.069  1.00  0.00     0.007 A 
ATOM     22  C   UNL A   1      33.603  17.388  23.634  1.00  0.00     0.039 A 
ATOM     23  C   UNL A   1      32.708  17.026  25.818  1.00  0.00     0.039 A 
ATOM     24  C   UNL A   1      33.066  16.534  24.585  1.00  0.00     0.123 A 
ATOM     25  F   UNL A   1      32.897  15.233  24.318  1.00  0.00    -0.207 F 
ENDBRANCH   8  19
ENDBRANCH   6   8
ENDBRANCH   5   6
ENDBRANCH   4   5
ENDBRANCH   3   4
ENDBRANCH   2   3
ENDBRANCH   1   2
BRANCH   1  26
ATOM     26  C   UNL A   1      40.451  19.823  26.522  1.00  0.00     0.188 C 
BRANCH  26  27
ATOM     27  O   UNL A   1      41.365  19.220  25.632  1.00  0.00    -0.376 OA
BRANCH  27  28
ATOM     28  C   UNL A   1      42.605  18.695  26.063  1.00  0.00     0.202 C 
BRANCH  28  29
ATOM     29  C   UNL A   1      43.873  19.062  25.311  1.00  0.00     0.261 C 
BRANCH  29  30
ATOM     30  O   UNL A   1      43.734  20.199  24.488  1.00  0.00    -0.460 OA
BRANCH  30  31
ATOM     31  C   UNL A   1      44.741  21.099  24.541  1.00  0.00     0.338 C 
ATOM     32  O   UNL A   1      45.927  20.896  24.391  1.00  0.00    -0.246 OA
BRANCH  31  33
ATOM     33  C   UNL A   1      44.110  22.395  24.813  1.00  0.00     0.060 A 
ATOM     34  C   UNL A   1      44.882  23.541  24.621  1.00  0.00     0.016 A 
ATOM     35  C   UNL A   1      42.965  22.371  25.615  1.00  0.00     0.016 A 
ATOM     36  C   UNL A   1      44.692  24.581  25.498  1.00  0.00     0.010 A 
ATOM     37  C   UNL A   1      42.847  23.350  26.548  1.00  0.00     0.010 A 
ATOM     38  C   UNL A   1      43.768  24.397  26.528  1.00  0.00    -0.014 A 
BRANCH  38  39
ATOM     39  C   UNL A   1      43.668  25.366  27.592  1.00  0.00     0.031 A 
ATOM     40  C   UNL A   1      42.467  26.214  27.418  1.00  0.00     0.074 A 
ATOM     41  C   UNL A   1      44.479  25.272  28.666  1.00  0.00     0.049 A 
ATOM     42  N   UNL A   1      42.418  27.476  27.150  1.00  0.00    -0.248 NA
ATOM     43  C   UNL A   1      41.165  25.528  27.245  1.00  0.00     0.031 C 
ATOM     44  C   UNL A   1      45.483  24.233  28.937  1.00  0.00     0.029 A 
ATOM     45  N   UNL A   1      44.496  25.996  29.813  1.00  0.00    -0.354 N 
ATOM     46  C   UNL A   1      41.058  27.765  27.094  1.00  0.00     0.074 A 
ATOM     47  C   UNL A   1      40.407  26.527  26.803  1.00  0.00     0.031 C 
ATOM     48  C   UNL A   1      45.814  24.262  30.248  1.00  0.00     0.029 A 
ATOM     49  C   UNL A   1      45.121  25.366  30.890  1.00  0.00     0.049 A 
ATOM     50  H   UNL A   1      44.099  26.895  29.880  1.00  0.00     0.167 HD
ATOM     51  C   UNL A   1      40.567  28.872  27.712  1.00  0.00     0.034 A 
ATOM     52  C   UNL A   1      44.982  25.679  32.213  1.00  0.00     0.034 A 
ATOM     53  C   UNL A   1      41.625  29.852  27.890  1.00  0.00     0.049 A 
ATOM     54  C   UNL A   1      44.374  27.037  32.267  1.00  0.00     0.074 A 
ATOM     55  C   UNL A   1      42.532  30.439  27.026  1.00  0.00     0.029 A 
ATOM     56  N   UNL A   1      42.144  30.035  29.154  1.00  0.00    -0.354 N 
ATOM     57  N   UNL A   1      44.992  28.117  31.872  1.00  0.00    -0.248 NA
ATOM     58  C   UNL A   1      42.920  27.123  32.255  1.00  0.00     0.031 C 
ATOM     59  C   UNL A   1      43.755  30.500  27.756  1.00  0.00     0.029 A 
ATOM     60  C   UNL A   1      43.515  30.059  29.058  1.00  0.00     0.049 A 
ATOM     61  H   UNL A   1      41.622  30.133  29.984  1.00  0.00     0.167 HD
ATOM     62  C   UNL A   1      44.044  28.838  31.161  1.00  0.00     0.074 A 
ATOM     63  C   UNL A   1      42.764  28.214  31.498  1.00  0.00     0.031 C 
ATOM     64  C   UNL A   1      44.409  29.660  30.132  1.00  0.00     0.034 A 
BRANCH  51  65
ATOM     65  C   UNL A   1      39.290  28.866  28.542  1.00  0.00     0.023 A 
ATOM     66  C   UNL A   1      38.457  29.987  28.394  1.00  0.00     0.031 A 
ATOM     67  C   UNL A   1      38.971  28.023  29.638  1.00  0.00     0.131 A 
ATOM     68  C   UNL A   1      37.501  30.314  29.370  1.00  0.00     0.055 A 
ATOM     69  C   UNL A   1      37.979  28.324  30.575  1.00  0.00     0.041 A 
ATOM     70  F   UNL A   1      39.619  26.889  29.921  1.00  0.00    -0.206 F 
ATOM     71  C   UNL A   1      37.264  29.497  30.468  1.00  0.00     0.022 A 
BRANCH  68  72
ATOM     72  S   UNL A   1      36.706  31.931  29.255  1.00  0.00     0.124 S 
ATOM     73  O   UNL A   1      36.678  32.130  27.811  1.00  0.00    -0.237 OA
ATOM     74  O   UNL A   1      35.423  31.674  29.899  1.00  0.00    -0.237 OA
ATOM     75  O   UNL A   1      37.614  32.804  29.995  1.00  0.00    -0.744 OA
ENDBRANCH  68  72
ENDBRANCH  51  65
BRANCH  52  76
ATOM     76  C   UNL A   1      45.012  24.762  33.395  1.00  0.00     0.023 A 
ATOM     77  C   UNL A   1      45.604  25.118  34.631  1.00  0.00     0.031 A 
ATOM     78  C   UNL A   1      44.228  23.584  33.397  1.00  0.00     0.131 A 
ATOM     79  C   UNL A   1      45.402  24.316  35.784  1.00  0.00     0.055 A 
ATOM     80  C   UNL A   1      44.037  22.796  34.535  1.00  0.00     0.041 A 
ATOM     81  F   UNL A   1      43.543  23.201  32.309  1.00  0.00    -0.206 F 
ATOM     82  C   UNL A   1      44.613  23.165  35.738  1.00  0.00     0.022 A 
BRANCH  79  83
ATOM     83  S   UNL A   1      46.086  24.806  37.404  1.00  0.00     0.124 S 
ATOM     84  O   UNL A   1      46.398  26.216  37.198  1.00  0.00    -0.237 OA
ATOM     85  O   UNL A   1      44.989  24.509  38.316  1.00  0.00    -0.237 OA
ATOM     86  O   UNL A   1      47.256  23.938  37.558  1.00  0.00    -0.744 OA
ENDBRANCH  79  83
ENDBRANCH  52  76
BRANCH  64  87
ATOM     87  C   UNL A   1      45.872  30.041  29.991  1.00  0.00     0.023 A 
ATOM     88  C   UNL A   1      46.790  29.469  29.078  1.00  0.00     0.031 A 
ATOM     89  C   UNL A   1      46.326  31.117  30.777  1.00  0.00     0.131 A 
ATOM     90  C   UNL A   1      48.107  29.968  28.996  1.00  0.00     0.055 A 
ATOM     91  C   UNL A   1      47.619  31.624  30.673  1.00  0.00     0.041 A 
ATOM     92  F   UNL A   1      45.500  31.719  31.649  1.00  0.00    -0.206 F 
ATOM     93  C   UNL A   1      48.518  31.045  29.788  1.00  0.00     0.022 A 
BRANCH  90  94
ATOM     94  S   UNL A   1      49.336  29.203  27.888  1.00  0.00     0.124 S 
ATOM     95  O   UNL A   1      49.207  27.778  28.160  1.00  0.00    -0.237 OA
ATOM     96  O   UNL A   1      48.888  29.646  26.571  1.00  0.00    -0.237 OA
ATOM     97  O   UNL A   1      50.601  29.796  28.328  1.00  0.00    -0.744 OA
ENDBRANCH  90  94
ENDBRANCH  64  87
ENDBRANCH  38  39
ENDBRANCH  31  33
ENDBRANCH  30  31
ENDBRANCH  29  30
ENDBRANCH  28  29
ENDBRANCH  27  28
ENDBRANCH  26  27
ENDBRANCH   1  26
TORSDOF 24
ENDMDL
MODEL 3
REMARK VINA RESULT:      -9.4      3.385      7.367
REMARK SMILES CCn1nc(C)c(Br)c1C[C@H](C(=O)OCCOCCOCCOC(=O)c1ccc(-c2c3nc(c(-c4cc(S(=O)(=O)[O-])ccc4F)c4ccc([nH]4)c(-c4cc(S(=O)(=O)[O-])ccc4F)c4nc(c(-c5cc(S(=O)(=O)[O-])ccc5F)c5ccc2[nH]5)C=C4)C=C3)cc1)c1ccc(F)cc1
REMARK SMILES IDX 18 1 17 2 16 3 15 4 14 5 12 6 13 7 11 8 10 9 9 10 3 11 4 12
REMARK SMILES IDX 5 13 7 14 6 15 8 16 2 17 1 18 89 19 90 20 95 21 91 22 94 23
REMARK SMILES IDX 92 24 93 25 19 26 20 27 21 28 22 29 23 30 24 31 25 32 26 33
REMARK SMILES IDX 27 34 88 35 28 36 87 37 29 38 30 39 31 40 81 41 32 42 86 43
REMARK SMILES IDX 80 44 82 45 33 46 85 47 79 48 78 49 34 51 66 52 46 53 65 54
REMARK SMILES IDX 47 55 50 56 64 57 83 58 48 59 49 60 63 62 84 63 51 64 35 65
REMARK SMILES IDX 36 66 44 67 37 68 43 69 45 70 42 71 38 72 39 73 40 74 41 75
REMARK SMILES IDX 67 76 68 77 76 78 69 79 75 80 77 81 74 82 70 83 71 84 72 85
REMARK SMILES IDX 73 86 52 87 53 88 61 89 54 90 60 91 62 92 59 93 55 94 56 95
REMARK SMILES IDX 57 96 58 97
REMARK H PARENT 82 50 50 61
REMARK Flexibility Score: inf
ROOT
ATOM      1  C   UNL A   1      39.734  21.221  26.085  1.00  0.00     0.188 C 
ENDROOT
BRANCH   1   2
ATOM      2  O   UNL A   1      38.450  21.437  25.528  1.00  0.00    -0.376 OA
BRANCH   2   3
ATOM      3  C   UNL A   1      37.924  22.753  25.513  1.00  0.00     0.202 C 
BRANCH   3   4
ATOM      4  C   UNL A   1      36.542  23.056  24.879  1.00  0.00     0.261 C 
BRANCH   4   5
ATOM      5  O   UNL A   1      35.562  21.987  24.776  1.00  0.00    -0.463 OA
BRANCH   5   6
ATOM      6  C   UNL A   1      34.332  22.245  25.294  1.00  0.00     0.313 C 
ATOM      7  O   UNL A   1      34.195  23.011  26.246  1.00  0.00    -0.252 OA
BRANCH   6   8
ATOM      8  C   UNL A   1      33.164  21.376  24.755  1.00  0.00     0.135 C 
BRANCH   8   9
ATOM      9  C   UNL A   1      32.360  22.307  23.774  1.00  0.00     0.077 C 
BRANCH   9  10
ATOM     10  C   UNL A   1      31.927  23.671  24.258  1.00  0.00     0.054 A 
ATOM     11  N   UNL A   1      30.867  23.819  25.135  1.00  0.00    -0.268 N 
ATOM     12  N   UNL A   1      30.319  25.045  25.106  1.00  0.00    -0.177 NA
ATOM     13  C   UNL A   1      31.210  25.775  24.422  1.00  0.00     0.074 A 
ATOM     14  C   UNL A   1      32.326  24.980  24.067  1.00  0.00     0.062 A 
ATOM     15  C   UNL A   1      30.921  27.198  24.108  1.00  0.00     0.070 C 
ATOM     16  Br  UNL A   1      33.922  25.695  23.417  1.00  0.00    -0.047 Br
BRANCH  11  17
ATOM     17  C   UNL A   1      30.278  22.799  25.982  1.00  0.00     0.141 C 
ATOM     18  C   UNL A   1      31.037  22.684  27.295  1.00  0.00     0.029 C 
ENDBRANCH  11  17
ENDBRANCH   9  10
ENDBRANCH   8   9
BRANCH   8  19
ATOM     19  C   UNL A   1      33.370  19.887  24.343  1.00  0.00    -0.033 A 
ATOM     20  C   UNL A   1      34.460  19.126  24.823  1.00  0.00     0.007 A 
ATOM     21  C   UNL A   1      32.496  19.182  23.492  1.00  0.00     0.007 A 
ATOM     22  C   UNL A   1      34.742  17.835  24.321  1.00  0.00     0.039 A 
ATOM     23  C   UNL A   1      32.759  17.902  22.991  1.00  0.00     0.039 A 
ATOM     24  C   UNL A   1      33.903  17.248  23.385  1.00  0.00     0.123 A 
ATOM     25  F   UNL A   1      34.191  16.048  22.866  1.00  0.00    -0.207 F 
ENDBRANCH   8  19
ENDBRANCH   6   8
ENDBRANCH   5   6
ENDBRANCH   4   5
ENDBRANCH   3   4
ENDBRANCH   2   3
ENDBRANCH   1   2
BRANCH   1  26
ATOM     26  C   UNL A   1      40.204  19.810  26.429  1.00  0.00     0.188 C 
BRANCH  26  27
ATOM     27  O   UNL A   1      41.199  19.249  25.600  1.00  0.00    -0.376 OA
BRANCH  27  28
ATOM     28  C   UNL A   1      42.344  18.607  26.122  1.00  0.00     0.202 C 
BRANCH  28  29
ATOM     29  C   UNL A   1      43.706  18.899  25.516  1.00  0.00     0.261 C 
BRANCH  29  30
ATOM     30  O   UNL A   1      43.774  20.138  24.846  1.00  0.00    -0.460 OA
BRANCH  30  31
ATOM     31  C   UNL A   1      44.612  21.057  25.376  1.00  0.00     0.338 C 
ATOM     32  O   UNL A   1      45.812  20.970  25.524  1.00  0.00    -0.246 OA
BRANCH  31  33
ATOM     33  C   UNL A   1      43.774  22.205  25.740  1.00  0.00     0.060 A 
ATOM     34  C   UNL A   1      44.072  23.434  25.151  1.00  0.00     0.016 A 
ATOM     35  C   UNL A   1      43.034  22.083  26.921  1.00  0.00     0.016 A 
ATOM     36  C   UNL A   1      43.910  24.557  25.925  1.00  0.00     0.010 A 
ATOM     37  C   UNL A   1      42.974  23.176  27.724  1.00  0.00     0.010 A 
ATOM     38  C   UNL A   1      43.494  24.378  27.245  1.00  0.00    -0.014 A 
BRANCH  38  39
ATOM     39  C   UNL A   1      43.497  25.491  28.163  1.00  0.00     0.031 A 
ATOM     40  C   UNL A   1      42.379  26.417  27.869  1.00  0.00     0.074 A 
ATOM     41  C   UNL A   1      44.308  25.471  29.240  1.00  0.00     0.049 A 
ATOM     42  N   UNL A   1      42.447  27.628  27.427  1.00  0.00    -0.248 NA
ATOM     43  C   UNL A   1      41.017  25.840  27.791  1.00  0.00     0.031 C 
ATOM     44  C   UNL A   1      45.212  24.390  29.657  1.00  0.00     0.029 A 
ATOM     45  N   UNL A   1      44.406  26.343  30.275  1.00  0.00    -0.354 N 
ATOM     46  C   UNL A   1      41.120  28.034  27.328  1.00  0.00     0.074 A 
ATOM     47  C   UNL A   1      40.352  26.835  27.212  1.00  0.00     0.031 C 
ATOM     48  C   UNL A   1      45.559  24.570  30.951  1.00  0.00     0.029 A 
ATOM     49  C   UNL A   1      44.981  25.814  31.431  1.00  0.00     0.049 A 
ATOM     50  H   UNL A   1      44.096  27.277  30.214  1.00  0.00     0.167 HD
ATOM     51  C   UNL A   1      40.743  29.258  27.784  1.00  0.00     0.034 A 
ATOM     52  C   UNL A   1      44.887  26.320  32.696  1.00  0.00     0.034 A 
ATOM     53  C   UNL A   1      41.889  30.148  27.825  1.00  0.00     0.049 A 
ATOM     54  C   UNL A   1      44.411  27.724  32.558  1.00  0.00     0.074 A 
ATOM     55  C   UNL A   1      42.838  30.520  26.890  1.00  0.00     0.029 A 
ATOM     56  N   UNL A   1      42.438  30.456  29.053  1.00  0.00    -0.354 N 
ATOM     57  N   UNL A   1      45.123  28.674  32.018  1.00  0.00    -0.248 NA
ATOM     58  C   UNL A   1      42.970  27.945  32.532  1.00  0.00     0.031 C 
ATOM     59  C   UNL A   1      44.069  30.566  27.606  1.00  0.00     0.029 A 
ATOM     60  C   UNL A   1      43.804  30.336  28.957  1.00  0.00     0.049 A 
ATOM     61  H   UNL A   1      41.937  30.718  29.859  1.00  0.00     0.167 HD
ATOM     62  C   UNL A   1      44.239  29.375  31.210  1.00  0.00     0.074 A 
ATOM     63  C   UNL A   1      42.910  28.929  31.630  1.00  0.00     0.031 C 
ATOM     64  C   UNL A   1      44.669  30.007  30.077  1.00  0.00     0.034 A 
BRANCH  51  65
ATOM     65  C   UNL A   1      39.480  29.490  28.604  1.00  0.00     0.023 A 
ATOM     66  C   UNL A   1      39.592  29.251  29.983  1.00  0.00     0.031 A 
ATOM     67  C   UNL A   1      38.152  29.642  28.129  1.00  0.00     0.131 A 
ATOM     68  C   UNL A   1      38.456  29.015  30.774  1.00  0.00     0.055 A 
ATOM     69  C   UNL A   1      37.023  29.462  28.933  1.00  0.00     0.041 A 
ATOM     70  F   UNL A   1      37.839  29.914  26.858  1.00  0.00    -0.206 F 
ATOM     71  C   UNL A   1      37.170  29.105  30.256  1.00  0.00     0.022 A 
BRANCH  68  72
ATOM     72  S   UNL A   1      38.715  28.406  32.454  1.00  0.00     0.124 S 
ATOM     73  O   UNL A   1      39.155  27.040  32.194  1.00  0.00    -0.237 OA
ATOM     74  O   UNL A   1      39.730  29.330  32.948  1.00  0.00    -0.237 OA
ATOM     75  O   UNL A   1      37.396  28.539  33.066  1.00  0.00    -0.744 OA
ENDBRANCH  68  72
ENDBRANCH  51  65
BRANCH  52  76
ATOM     76  C   UNL A   1      44.843  25.578  33.996  1.00  0.00     0.023 A 
ATOM     77  C   UNL A   1      45.386  26.096  35.196  1.00  0.00     0.031 A 
ATOM     78  C   UNL A   1      44.035  24.425  34.125  1.00  0.00     0.131 A 
ATOM     79  C   UNL A   1      45.115  25.468  36.439  1.00  0.00     0.055 A 
ATOM     80  C   UNL A   1      43.776  23.808  35.352  1.00  0.00     0.041 A 
ATOM     81  F   UNL A   1      43.392  23.902  33.070  1.00  0.00    -0.206 F 
ATOM     82  C   UNL A   1      44.305  24.333  36.517  1.00  0.00     0.022 A 
BRANCH  79  83
ATOM     83  S   UNL A   1      45.736  26.171  38.006  1.00  0.00     0.124 S 
ATOM     84  O   UNL A   1      44.702  25.777  38.956  1.00  0.00    -0.237 OA
ATOM     85  O   UNL A   1      47.035  25.527  38.152  1.00  0.00    -0.237 OA
ATOM     86  O   UNL A   1      45.798  27.609  37.734  1.00  0.00    -0.744 OA
ENDBRANCH  79  83
ENDBRANCH  52  76
BRANCH  64  87
ATOM     87  C   UNL A   1      46.160  30.224  29.888  1.00  0.00     0.023 A 
ATOM     88  C   UNL A   1      46.989  29.515  28.987  1.00  0.00     0.031 A 
ATOM     89  C   UNL A   1      46.743  31.284  30.607  1.00  0.00     0.131 A 
ATOM     90  C   UNL A   1      48.348  29.867  28.852  1.00  0.00     0.055 A 
ATOM     91  C   UNL A   1      48.079  31.646  30.452  1.00  0.00     0.041 A 
ATOM     92  F   UNL A   1      46.007  32.012  31.463  1.00  0.00    -0.206 F 
ATOM     93  C   UNL A   1      48.890  30.932  29.580  1.00  0.00     0.022 A 
BRANCH  90  94
ATOM     94  S   UNL A   1      49.462  28.923  27.761  1.00  0.00     0.124 S 
ATOM     95  O   UNL A   1      48.671  27.759  27.382  1.00  0.00    -0.237 OA
ATOM     96  O   UNL A   1      49.741  29.881  26.695  1.00  0.00    -0.237 OA
ATOM     97  O   UNL A   1      50.608  28.626  28.624  1.00  0.00    -0.744 OA
ENDBRANCH  90  94
ENDBRANCH  64  87
ENDBRANCH  38  39
ENDBRANCH  31  33
ENDBRANCH  30  31
ENDBRANCH  29  30
ENDBRANCH  28  29
ENDBRANCH  27  28
ENDBRANCH  26  27
ENDBRANCH   1  26
TORSDOF 24
ENDMDL
