MODEL 1
REMARK VINA RESULT:     -10.2      0.000      0.000
REMARK SMILES O=C(OCCOCCOCCOC(=O)c1csc(-c2cnc3ccccc3c2)c1)c1ccc(-c2c3nc(c(-c4cc(S(=O)(=O)[O-])ccc4F)c4ccc([nH]4)c(-c4cc(S(=O)(=O)[O-])ccc4F)c4nc(c(-c5cc(S(=O)(=O)[O-])ccc5F)c5ccc2[nH]5)C=C4)C=C3)cc1
REMARK SMILES IDX 7 1 6 2 5 3 4 4 3 5 2 6 1 7 30 8 31 9 92 10 32 11 91 12
REMARK SMILES IDX 33 13 34 14 35 15 85 16 36 17 90 18 84 19 86 20 37 21 89 22
REMARK SMILES IDX 83 23 82 24 38 26 70 27 50 28 69 29 51 30 54 31 68 32 87 33
REMARK SMILES IDX 52 34 53 35 67 37 88 38 55 39 39 40 40 41 48 42 41 43 47 44
REMARK SMILES IDX 49 45 46 46 42 47 43 48 44 49 45 50 71 51 72 52 80 53 73 54
REMARK SMILES IDX 79 55 81 56 78 57 74 58 75 59 76 60 77 61 56 62 57 63 65 64
REMARK SMILES IDX 58 65 64 66 66 67 63 68 59 69 60 70 61 71 62 72 8 73 9 74
REMARK SMILES IDX 10 75 11 76 12 77 13 78 14 79 15 80 16 81 29 82 17 83 18 84
REMARK SMILES IDX 19 85 20 86 28 87 21 88 27 89 22 90 26 91 23 92 25 93 24 94
REMARK H PARENT 86 25 54 36
REMARK Flexibility Score: inf
ROOT
ATOM      1  C   UNL A   1      33.726  22.926  23.585  1.00  0.00     0.188 C 
ENDROOT
BRANCH   1   2
ATOM      2  O   UNL A   1      35.150  22.928  23.623  1.00  0.00    -0.376 OA
BRANCH   2   3
ATOM      3  C   UNL A   1      35.709  21.969  24.537  1.00  0.00     0.202 C 
BRANCH   3   4
ATOM      4  C   UNL A   1      37.256  21.861  24.619  1.00  0.00     0.261 C 
BRANCH   4   5
ATOM      5  O   UNL A   1      37.804  21.868  25.958  1.00  0.00    -0.460 OA
BRANCH   5   6
ATOM      6  C   UNL A   1      39.071  21.942  26.422  1.00  0.00     0.338 C 
ATOM      7  O   UNL A   1      39.670  20.899  26.676  1.00  0.00    -0.246 OA
BRANCH   6   8
ATOM      8  C   UNL A   1      39.737  23.235  26.744  1.00  0.00     0.060 A 
ATOM      9  C   UNL A   1      39.397  24.447  26.153  1.00  0.00     0.016 A 
ATOM     10  C   UNL A   1      40.691  23.253  27.776  1.00  0.00     0.016 A 
ATOM     11  C   UNL A   1      40.044  25.629  26.487  1.00  0.00     0.010 A 
ATOM     12  C   UNL A   1      41.308  24.449  28.163  1.00  0.00     0.010 A 
ATOM     13  C   UNL A   1      41.007  25.640  27.494  1.00  0.00    -0.014 A 
BRANCH  13  14
ATOM     14  C   UNL A   1      41.739  26.899  27.751  1.00  0.00     0.031 A 
ATOM     15  C   UNL A   1      43.097  27.079  27.142  1.00  0.00     0.074 A 
ATOM     16  C   UNL A   1      41.136  27.903  28.415  1.00  0.00     0.049 A 
ATOM     17  N   UNL A   1      43.922  28.086  27.243  1.00  0.00    -0.248 NA
ATOM     18  C   UNL A   1      43.582  25.985  26.283  1.00  0.00     0.031 C 
ATOM     19  C   UNL A   1      39.769  27.864  28.939  1.00  0.00     0.029 A 
ATOM     20  N   UNL A   1      41.581  29.156  28.746  1.00  0.00    -0.354 N 
ATOM     21  C   UNL A   1      45.025  27.747  26.468  1.00  0.00     0.074 A 
ATOM     22  C   UNL A   1      44.773  26.432  25.920  1.00  0.00     0.031 C 
ATOM     23  C   UNL A   1      39.489  29.041  29.521  1.00  0.00     0.029 A 
ATOM     24  C   UNL A   1      40.675  29.885  29.484  1.00  0.00     0.049 A 
ATOM     25  H   UNL A   1      42.464  29.503  28.480  1.00  0.00     0.167 HD
ATOM     26  C   UNL A   1      46.144  28.474  26.240  1.00  0.00     0.034 A 
ATOM     27  C   UNL A   1      40.809  31.075  30.101  1.00  0.00     0.034 A 
ATOM     28  C   UNL A   1      46.375  29.772  26.819  1.00  0.00     0.049 A 
ATOM     29  C   UNL A   1      42.122  31.800  29.951  1.00  0.00     0.074 A 
ATOM     30  C   UNL A   1      47.487  30.586  26.704  1.00  0.00     0.029 A 
ATOM     31  N   UNL A   1      45.474  30.441  27.640  1.00  0.00    -0.354 N 
ATOM     32  N   UNL A   1      43.176  31.453  29.246  1.00  0.00    -0.248 NA
ATOM     33  C   UNL A   1      42.266  33.069  30.671  1.00  0.00     0.031 C 
ATOM     34  C   UNL A   1      47.283  31.715  27.506  1.00  0.00     0.029 A 
ATOM     35  C   UNL A   1      46.018  31.640  28.067  1.00  0.00     0.049 A 
ATOM     36  H   UNL A   1      44.579  30.110  27.882  1.00  0.00     0.167 HD
ATOM     37  C   UNL A   1      44.102  32.475  29.424  1.00  0.00     0.074 A 
ATOM     38  C   UNL A   1      43.470  33.458  30.281  1.00  0.00     0.031 C 
ATOM     39  C   UNL A   1      45.361  32.594  28.930  1.00  0.00     0.034 A 
BRANCH  26  40
ATOM     40  C   UNL A   1      47.217  27.829  25.402  1.00  0.00     0.023 A 
ATOM     41  C   UNL A   1      47.378  28.132  24.038  1.00  0.00     0.031 A 
ATOM     42  C   UNL A   1      48.049  26.846  25.964  1.00  0.00     0.131 A 
ATOM     43  C   UNL A   1      48.307  27.412  23.269  1.00  0.00     0.055 A 
ATOM     44  C   UNL A   1      49.016  26.181  25.209  1.00  0.00     0.041 A 
ATOM     45  F   UNL A   1      47.917  26.497  27.253  1.00  0.00    -0.206 F 
ATOM     46  C   UNL A   1      49.142  26.455  23.850  1.00  0.00     0.022 A 
BRANCH  43  47
ATOM     47  S   UNL A   1      48.326  27.658  21.471  1.00  0.00     0.124 S 
ATOM     48  O   UNL A   1      48.557  26.298  20.990  1.00  0.00    -0.237 OA
ATOM     49  O   UNL A   1      47.001  28.210  21.211  1.00  0.00    -0.237 OA
ATOM     50  O   UNL A   1      49.438  28.584  21.263  1.00  0.00    -0.744 OA
ENDBRANCH  43  47
ENDBRANCH  26  40
BRANCH  27  51
ATOM     51  C   UNL A   1      39.728  31.607  30.984  1.00  0.00     0.023 A 
ATOM     52  C   UNL A   1      39.663  31.286  32.349  1.00  0.00     0.031 A 
ATOM     53  C   UNL A   1      38.689  32.395  30.448  1.00  0.00     0.131 A 
ATOM     54  C   UNL A   1      38.565  31.707  33.117  1.00  0.00     0.055 A 
ATOM     55  C   UNL A   1      37.632  32.861  31.229  1.00  0.00     0.041 A 
ATOM     56  F   UNL A   1      38.688  32.724  29.146  1.00  0.00    -0.206 F 
ATOM     57  C   UNL A   1      37.556  32.503  32.570  1.00  0.00     0.022 A 
BRANCH  54  58
ATOM     58  S   UNL A   1      38.411  31.103  34.822  1.00  0.00     0.124 S 
ATOM     59  O   UNL A   1      37.995  29.721  34.613  1.00  0.00    -0.237 OA
ATOM     60  O   UNL A   1      39.765  31.295  35.331  1.00  0.00    -0.237 OA
ATOM     61  O   UNL A   1      37.397  31.980  35.404  1.00  0.00    -0.744 OA
ENDBRANCH  54  58
ENDBRANCH  27  51
BRANCH  39  62
ATOM     62  C   UNL A   1      46.104  33.853  29.287  1.00  0.00     0.023 A 
ATOM     63  C   UNL A   1      46.055  34.990  28.463  1.00  0.00     0.031 A 
ATOM     64  C   UNL A   1      46.887  33.905  30.452  1.00  0.00     0.131 A 
ATOM     65  C   UNL A   1      46.824  36.115  28.787  1.00  0.00     0.055 A 
ATOM     66  C   UNL A   1      47.603  35.049  30.801  1.00  0.00     0.041 A 
ATOM     67  F   UNL A   1      46.967  32.842  31.269  1.00  0.00    -0.206 F 
ATOM     68  C   UNL A   1      47.584  36.158  29.960  1.00  0.00     0.022 A 
BRANCH  65  69
ATOM     69  S   UNL A   1      46.887  37.491  27.609  1.00  0.00     0.124 S 
ATOM     70  O   UNL A   1      46.618  38.639  28.471  1.00  0.00    -0.237 OA
ATOM     71  O   UNL A   1      48.245  37.393  27.085  1.00  0.00    -0.237 OA
ATOM     72  O   UNL A   1      45.829  37.173  26.653  1.00  0.00    -0.744 OA
ENDBRANCH  65  69
ENDBRANCH  39  62
ENDBRANCH  13  14
ENDBRANCH   6   8
ENDBRANCH   5   6
ENDBRANCH   4   5
ENDBRANCH   3   4
ENDBRANCH   2   3
ENDBRANCH   1   2
BRANCH   1  73
ATOM     73  C   UNL A   1      33.009  24.222  23.179  1.00  0.00     0.188 C 
BRANCH  73  74
ATOM     74  O   UNL A   1      33.070  25.395  23.967  1.00  0.00    -0.376 OA
BRANCH  74  75
ATOM     75  C   UNL A   1      33.231  25.293  25.368  1.00  0.00     0.202 C 
BRANCH  75  76
ATOM     76  C   UNL A   1      33.973  26.400  26.126  1.00  0.00     0.261 C 
BRANCH  76  77
ATOM     77  O   UNL A   1      33.198  27.561  26.449  1.00  0.00    -0.460 OA
BRANCH  77  78
ATOM     78  C   UNL A   1      33.637  28.711  25.870  1.00  0.00     0.339 C 
ATOM     79  O   UNL A   1      33.707  28.897  24.653  1.00  0.00    -0.246 OA
BRANCH  78  80
ATOM     80  C   UNL A   1      34.110  29.697  26.830  1.00  0.00     0.071 A 
ATOM     81  C   UNL A   1      35.429  29.702  27.244  1.00  0.00     0.081 A 
ATOM     82  C   UNL A   1      33.381  30.778  27.443  1.00  0.00     0.036 A 
ATOM     83  S   UNL A   1      35.797  30.998  28.280  1.00  0.00    -0.143 S 
ATOM     84  C   UNL A   1      34.202  31.624  28.173  1.00  0.00     0.037 A 
BRANCH  84  85
ATOM     85  C   UNL A   1      33.919  32.924  28.788  1.00  0.00     0.011 A 
ATOM     86  C   UNL A   1      33.190  33.919  28.155  1.00  0.00     0.121 A 
ATOM     87  C   UNL A   1      34.396  33.215  30.069  1.00  0.00     0.021 A 
ATOM     88  N   UNL A   1      32.916  35.134  28.702  1.00  0.00    -0.256 NA
ATOM     89  C   UNL A   1      34.121  34.446  30.674  1.00  0.00     0.001 A 
ATOM     90  C   UNL A   1      33.364  35.386  29.948  1.00  0.00     0.070 A 
ATOM     91  C   UNL A   1      34.579  34.738  31.971  1.00  0.00     0.010 A 
ATOM     92  C   UNL A   1      33.086  36.602  30.563  1.00  0.00     0.029 A 
ATOM     93  C   UNL A   1      34.287  35.964  32.560  1.00  0.00     0.001 A 
ATOM     94  C   UNL A   1      33.537  36.899  31.855  1.00  0.00     0.002 A 
ENDBRANCH  84  85
ENDBRANCH  78  80
ENDBRANCH  77  78
ENDBRANCH  76  77
ENDBRANCH  75  76
ENDBRANCH  74  75
ENDBRANCH  73  74
ENDBRANCH   1  73
TORSDOF 21
ENDMDL
MODEL 2
REMARK VINA RESULT:     -10.2      3.055      5.038
REMARK SMILES O=C(OCCOCCOCCOC(=O)c1csc(-c2cnc3ccccc3c2)c1)c1ccc(-c2c3nc(c(-c4cc(S(=O)(=O)[O-])ccc4F)c4ccc([nH]4)c(-c4cc(S(=O)(=O)[O-])ccc4F)c4nc(c(-c5cc(S(=O)(=O)[O-])ccc5F)c5ccc2[nH]5)C=C4)C=C3)cc1
REMARK SMILES IDX 7 1 6 2 5 3 4 4 3 5 2 6 1 7 30 8 31 9 92 10 32 11 91 12
REMARK SMILES IDX 33 13 34 14 35 15 85 16 36 17 90 18 84 19 86 20 37 21 89 22
REMARK SMILES IDX 83 23 82 24 38 26 70 27 50 28 69 29 51 30 54 31 68 32 87 33
REMARK SMILES IDX 52 34 53 35 67 37 88 38 55 39 39 40 40 41 48 42 41 43 47 44
REMARK SMILES IDX 49 45 46 46 42 47 43 48 44 49 45 50 71 51 72 52 80 53 73 54
REMARK SMILES IDX 79 55 81 56 78 57 74 58 75 59 76 60 77 61 56 62 57 63 65 64
REMARK SMILES IDX 58 65 64 66 66 67 63 68 59 69 60 70 61 71 62 72 8 73 9 74
REMARK SMILES IDX 10 75 11 76 12 77 13 78 14 79 15 80 16 81 29 82 17 83 18 84
REMARK SMILES IDX 19 85 20 86 28 87 21 88 27 89 22 90 26 91 23 92 25 93 24 94
REMARK H PARENT 86 25 54 36
REMARK Flexibility Score: inf
ROOT
ATOM      1  C   UNL A   1      37.365  23.016  25.566  1.00  0.00     0.188 C 
ENDROOT
BRANCH   1   2
ATOM      2  O   UNL A   1      38.159  21.979  25.000  1.00  0.00    -0.376 OA
BRANCH   2   3
ATOM      3  C   UNL A   1      38.792  21.133  25.975  1.00  0.00     0.202 C 
BRANCH   3   4
ATOM      4  C   UNL A   1      39.148  19.681  25.556  1.00  0.00     0.261 C 
BRANCH   4   5
ATOM      5  O   UNL A   1      40.555  19.348  25.622  1.00  0.00    -0.460 OA
BRANCH   5   6
ATOM      6  C   UNL A   1      41.552  19.768  26.431  1.00  0.00     0.338 C 
ATOM      7  O   UNL A   1      42.209  18.931  27.045  1.00  0.00    -0.246 OA
BRANCH   6   8
ATOM      8  C   UNL A   1      41.819  21.209  26.698  1.00  0.00     0.060 A 
ATOM      9  C   UNL A   1      41.823  22.190  25.712  1.00  0.00     0.016 A 
ATOM     10  C   UNL A   1      41.975  21.621  28.033  1.00  0.00     0.016 A 
ATOM     11  C   UNL A   1      42.075  23.522  26.009  1.00  0.00     0.010 A 
ATOM     12  C   UNL A   1      42.171  22.971  28.351  1.00  0.00     0.010 A 
ATOM     13  C   UNL A   1      42.253  23.925  27.331  1.00  0.00    -0.014 A 
BRANCH  13  14
ATOM     14  C   UNL A   1      42.614  25.334  27.594  1.00  0.00     0.031 A 
ATOM     15  C   UNL A   1      43.955  25.830  27.139  1.00  0.00     0.074 A 
ATOM     16  C   UNL A   1      41.703  26.175  28.117  1.00  0.00     0.049 A 
ATOM     17  N   UNL A   1      44.487  27.015  27.273  1.00  0.00    -0.248 NA
ATOM     18  C   UNL A   1      44.800  24.867  26.414  1.00  0.00     0.031 C 
ATOM     19  C   UNL A   1      40.331  25.810  28.478  1.00  0.00     0.029 A 
ATOM     20  N   UNL A   1      41.780  27.509  28.419  1.00  0.00    -0.354 N 
ATOM     21  C   UNL A   1      45.730  26.940  26.657  1.00  0.00     0.074 A 
ATOM     22  C   UNL A   1      45.882  25.587  26.167  1.00  0.00     0.031 C 
ATOM     23  C   UNL A   1      39.698  26.896  28.948  1.00  0.00     0.029 A 
ATOM     24  C   UNL A   1      40.635  28.010  28.998  1.00  0.00     0.049 A 
ATOM     25  H   UNL A   1      42.577  28.058  28.239  1.00  0.00     0.167 HD
ATOM     26  C   UNL A   1      46.657  27.916  26.518  1.00  0.00     0.034 A 
ATOM     27  C   UNL A   1      40.391  29.214  29.551  1.00  0.00     0.034 A 
ATOM     28  C   UNL A   1      46.486  29.249  27.038  1.00  0.00     0.049 A 
ATOM     29  C   UNL A   1      41.495  30.240  29.512  1.00  0.00     0.074 A 
ATOM     30  C   UNL A   1      47.369  30.312  27.004  1.00  0.00     0.029 A 
ATOM     31  N   UNL A   1      45.349  29.695  27.703  1.00  0.00    -0.354 N 
ATOM     32  N   UNL A   1      42.684  30.147  28.959  1.00  0.00    -0.248 NA
ATOM     33  C   UNL A   1      41.228  31.527  30.163  1.00  0.00     0.031 C 
ATOM     34  C   UNL A   1      46.792  31.378  27.704  1.00  0.00     0.029 A 
ATOM     35  C   UNL A   1      45.522  31.005  28.116  1.00  0.00     0.049 A 
ATOM     36  H   UNL A   1      44.539  29.158  27.858  1.00  0.00     0.167 HD
ATOM     37  C   UNL A   1      43.300  31.374  29.181  1.00  0.00     0.074 A 
ATOM     38  C   UNL A   1      42.341  32.194  29.894  1.00  0.00     0.031 C 
ATOM     39  C   UNL A   1      44.545  31.790  28.833  1.00  0.00     0.034 A 
BRANCH  26  40
ATOM     40  C   UNL A   1      47.955  27.537  25.855  1.00  0.00     0.023 A 
ATOM     41  C   UNL A   1      48.170  27.723  24.477  1.00  0.00     0.031 A 
ATOM     42  C   UNL A   1      48.969  26.915  26.604  1.00  0.00     0.131 A 
ATOM     43  C   UNL A   1      49.344  27.236  23.882  1.00  0.00     0.055 A 
ATOM     44  C   UNL A   1      50.163  26.492  26.018  1.00  0.00     0.041 A 
ATOM     45  F   UNL A   1      48.804  26.684  27.916  1.00  0.00    -0.206 F 
ATOM     46  C   UNL A   1      50.351  26.642  24.647  1.00  0.00     0.022 A 
BRANCH  43  47
ATOM     47  S   UNL A   1      49.487  27.279  22.074  1.00  0.00     0.124 S 
ATOM     48  O   UNL A   1      48.816  28.537  21.754  1.00  0.00    -0.237 OA
ATOM     49  O   UNL A   1      50.932  27.257  21.868  1.00  0.00    -0.237 OA
ATOM     50  O   UNL A   1      48.779  26.075  21.645  1.00  0.00    -0.744 OA
ENDBRANCH  43  47
ENDBRANCH  26  40
BRANCH  27  51
ATOM     51  C   UNL A   1      39.107  29.485  30.264  1.00  0.00     0.023 A 
ATOM     52  C   UNL A   1      38.099  30.278  29.695  1.00  0.00     0.031 A 
ATOM     53  C   UNL A   1      38.901  29.005  31.573  1.00  0.00     0.131 A 
ATOM     54  C   UNL A   1      36.959  30.609  30.446  1.00  0.00     0.055 A 
ATOM     55  C   UNL A   1      37.740  29.287  32.293  1.00  0.00     0.041 A 
ATOM     56  F   UNL A   1      39.835  28.253  32.177  1.00  0.00    -0.206 F 
ATOM     57  C   UNL A   1      36.766  30.108  31.736  1.00  0.00     0.022 A 
BRANCH  54  58
ATOM     58  S   UNL A   1      35.776  31.801  29.757  1.00  0.00     0.124 S 
ATOM     59  O   UNL A   1      36.662  32.849  29.262  1.00  0.00    -0.237 OA
ATOM     60  O   UNL A   1      35.101  31.000  28.742  1.00  0.00    -0.237 OA
ATOM     61  O   UNL A   1      34.954  32.169  30.908  1.00  0.00    -0.744 OA
ENDBRANCH  54  58
ENDBRANCH  27  51
BRANCH  39  62
ATOM     62  C   UNL A   1      44.903  33.206  29.195  1.00  0.00     0.023 A 
ATOM     63  C   UNL A   1      44.751  34.257  28.276  1.00  0.00     0.031 A 
ATOM     64  C   UNL A   1      45.424  33.499  30.467  1.00  0.00     0.131 A 
ATOM     65  C   UNL A   1      45.171  35.548  28.623  1.00  0.00     0.055 A 
ATOM     66  C   UNL A   1      45.785  34.797  30.827  1.00  0.00     0.041 A 
ATOM     67  F   UNL A   1      45.590  32.527  31.378  1.00  0.00    -0.206 F 
ATOM     68  C   UNL A   1      45.671  35.828  29.899  1.00  0.00     0.022 A 
BRANCH  65  69
ATOM     69  S   UNL A   1      45.137  36.842  27.354  1.00  0.00     0.124 S 
ATOM     70  O   UNL A   1      43.730  36.848  26.967  1.00  0.00    -0.237 OA
ATOM     71  O   UNL A   1      45.600  38.014  28.090  1.00  0.00    -0.237 OA
ATOM     72  O   UNL A   1      46.059  36.346  26.335  1.00  0.00    -0.744 OA
ENDBRANCH  65  69
ENDBRANCH  39  62
ENDBRANCH  13  14
ENDBRANCH   6   8
ENDBRANCH   5   6
ENDBRANCH   4   5
ENDBRANCH   3   4
ENDBRANCH   2   3
ENDBRANCH   1   2
BRANCH   1  73
ATOM     73  C   UNL A   1      35.962  22.659  26.080  1.00  0.00     0.188 C 
BRANCH  73  74
ATOM     74  O   UNL A   1      35.529  21.320  26.218  1.00  0.00    -0.376 OA
BRANCH  74  75
ATOM     75  C   UNL A   1      34.782  20.713  25.183  1.00  0.00     0.202 C 
BRANCH  75  76
ATOM     76  C   UNL A   1      34.260  21.570  24.024  1.00  0.00     0.261 C 
BRANCH  76  77
ATOM     77  O   UNL A   1      32.907  21.320  23.624  1.00  0.00    -0.460 OA
BRANCH  77  78
ATOM     78  C   UNL A   1      31.993  21.438  24.626  1.00  0.00     0.339 C 
ATOM     79  O   UNL A   1      31.509  20.487  25.244  1.00  0.00    -0.246 OA
BRANCH  78  80
ATOM     80  C   UNL A   1      31.558  22.809  24.852  1.00  0.00     0.071 A 
ATOM     81  C   UNL A   1      31.618  23.367  26.115  1.00  0.00     0.081 A 
ATOM     82  C   UNL A   1      31.071  23.768  23.894  1.00  0.00     0.036 A 
ATOM     83  S   UNL A   1      31.168  25.006  26.139  1.00  0.00    -0.143 S 
ATOM     84  C   UNL A   1      30.918  25.033  24.441  1.00  0.00     0.037 A 
BRANCH  84  85
ATOM     85  C   UNL A   1      30.637  26.318  23.796  1.00  0.00     0.011 A 
ATOM     86  C   UNL A   1      31.612  27.086  23.179  1.00  0.00     0.121 A 
ATOM     87  C   UNL A   1      29.337  26.831  23.788  1.00  0.00     0.021 A 
ATOM     88  N   UNL A   1      31.378  28.283  22.576  1.00  0.00    -0.256 NA
ATOM     89  C   UNL A   1      29.051  28.050  23.162  1.00  0.00     0.001 A 
ATOM     90  C   UNL A   1      30.113  28.749  22.558  1.00  0.00     0.070 A 
ATOM     91  C   UNL A   1      27.742  28.562  23.131  1.00  0.00     0.010 A 
ATOM     92  C   UNL A   1      29.817  29.954  21.929  1.00  0.00     0.029 A 
ATOM     93  C   UNL A   1      27.475  29.771  22.496  1.00  0.00     0.001 A 
ATOM     94  C   UNL A   1      28.515  30.469  21.891  1.00  0.00     0.002 A 
ENDBRANCH  84  85
ENDBRANCH  78  80
ENDBRANCH  77  78
ENDBRANCH  76  77
ENDBRANCH  75  76
ENDBRANCH  74  75
ENDBRANCH  73  74
ENDBRANCH   1  73
TORSDOF 21
ENDMDL
MODEL 3
REMARK VINA RESULT:      -9.9      3.279      5.065
REMARK SMILES O=C(OCCOCCOCCOC(=O)c1csc(-c2cnc3ccccc3c2)c1)c1ccc(-c2c3nc(c(-c4cc(S(=O)(=O)[O-])ccc4F)c4ccc([nH]4)c(-c4cc(S(=O)(=O)[O-])ccc4F)c4nc(c(-c5cc(S(=O)(=O)[O-])ccc5F)c5ccc2[nH]5)C=C4)C=C3)cc1
REMARK SMILES IDX 7 1 6 2 5 3 4 4 3 5 2 6 1 7 30 8 31 9 92 10 32 11 91 12
REMARK SMILES IDX 33 13 34 14 35 15 85 16 36 17 90 18 84 19 86 20 37 21 89 22
REMARK SMILES IDX 83 23 82 24 38 26 70 27 50 28 69 29 51 30 54 31 68 32 87 33
REMARK SMILES IDX 52 34 53 35 67 37 88 38 55 39 39 40 40 41 48 42 41 43 47 44
REMARK SMILES IDX 49 45 46 46 42 47 43 48 44 49 45 50 71 51 72 52 80 53 73 54
REMARK SMILES IDX 79 55 81 56 78 57 74 58 75 59 76 60 77 61 56 62 57 63 65 64
REMARK SMILES IDX 58 65 64 66 66 67 63 68 59 69 60 70 61 71 62 72 8 73 9 74
REMARK SMILES IDX 10 75 11 76 12 77 13 78 14 79 15 80 16 81 29 82 17 83 18 84
REMARK SMILES IDX 19 85 20 86 28 87 21 88 27 89 22 90 26 91 23 92 25 93 24 94
REMARK H PARENT 86 25 54 36
REMARK Flexibility Score: inf
ROOT
ATOM      1  C   UNL A   1      37.160  21.049  24.655  1.00  0.00     0.188 C 
ENDROOT
BRANCH   1   2
ATOM      2  O   UNL A   1      38.093  21.844  25.381  1.00  0.00    -0.376 OA
BRANCH   2   3
ATOM      3  C   UNL A   1      39.065  21.078  26.112  1.00  0.00     0.202 C 
BRANCH   3   4
ATOM      4  C   UNL A   1      39.449  19.677  25.563  1.00  0.00     0.261 C 
BRANCH   4   5
ATOM      5  O   UNL A   1      40.711  19.154  26.038  1.00  0.00    -0.460 OA
BRANCH   5   6
ATOM      6  C   UNL A   1      41.951  19.687  26.103  1.00  0.00     0.338 C 
ATOM      7  O   UNL A   1      42.922  18.943  25.987  1.00  0.00    -0.246 OA
BRANCH   6   8
ATOM      8  C   UNL A   1      42.195  21.122  26.419  1.00  0.00     0.060 A 
ATOM      9  C   UNL A   1      42.219  22.131  25.462  1.00  0.00     0.016 A 
ATOM     10  C   UNL A   1      42.304  21.496  27.769  1.00  0.00     0.016 A 
ATOM     11  C   UNL A   1      42.448  23.457  25.805  1.00  0.00     0.010 A 
ATOM     12  C   UNL A   1      42.475  22.839  28.132  1.00  0.00     0.010 A 
ATOM     13  C   UNL A   1      42.580  23.822  27.143  1.00  0.00    -0.014 A 
BRANCH  13  14
ATOM     14  C   UNL A   1      42.917  25.226  27.457  1.00  0.00     0.031 A 
ATOM     15  C   UNL A   1      44.254  25.758  27.032  1.00  0.00     0.074 A 
ATOM     16  C   UNL A   1      41.989  26.036  28.000  1.00  0.00     0.049 A 
ATOM     17  N   UNL A   1      44.767  26.945  27.211  1.00  0.00    -0.248 NA
ATOM     18  C   UNL A   1      45.120  24.833  26.282  1.00  0.00     0.031 C 
ATOM     19  C   UNL A   1      40.619  25.639  28.335  1.00  0.00     0.029 A 
ATOM     20  N   UNL A   1      42.043  27.360  28.348  1.00  0.00    -0.354 N 
ATOM     21  C   UNL A   1      46.017  26.909  26.605  1.00  0.00     0.074 A 
ATOM     22  C   UNL A   1      46.193  25.576  26.070  1.00  0.00     0.031 C 
ATOM     23  C   UNL A   1      39.966  26.699  28.836  1.00  0.00     0.029 A 
ATOM     24  C   UNL A   1      40.886  27.824  28.933  1.00  0.00     0.049 A 
ATOM     25  H   UNL A   1      42.834  27.927  28.194  1.00  0.00     0.167 HD
ATOM     26  C   UNL A   1      46.930  27.904  26.507  1.00  0.00     0.034 A 
ATOM     27  C   UNL A   1      40.620  29.005  29.525  1.00  0.00     0.034 A 
ATOM     28  C   UNL A   1      46.735  29.215  27.072  1.00  0.00     0.049 A 
ATOM     29  C   UNL A   1      41.708  30.047  29.531  1.00  0.00     0.074 A 
ATOM     30  C   UNL A   1      47.603  30.291  27.082  1.00  0.00     0.029 A 
ATOM     31  N   UNL A   1      45.586  29.621  27.741  1.00  0.00    -0.354 N 
ATOM     32  N   UNL A   1      42.903  29.991  28.987  1.00  0.00    -0.248 NA
ATOM     33  C   UNL A   1      41.416  31.306  30.224  1.00  0.00     0.031 C 
ATOM     34  C   UNL A   1      47.004  31.324  27.813  1.00  0.00     0.029 A 
ATOM     35  C   UNL A   1      45.736  30.919  28.200  1.00  0.00     0.049 A 
ATOM     36  H   UNL A   1      44.782  29.067  27.870  1.00  0.00     0.167 HD
ATOM     37  C   UNL A   1      43.499  31.218  29.256  1.00  0.00     0.074 A 
ATOM     38  C   UNL A   1      42.521  31.999  29.988  1.00  0.00     0.031 C 
ATOM     39  C   UNL A   1      44.740  31.664  28.934  1.00  0.00     0.034 A 
BRANCH  26  40
ATOM     40  C   UNL A   1      48.240  27.566  25.844  1.00  0.00     0.023 A 
ATOM     41  C   UNL A   1      48.433  27.716  24.459  1.00  0.00     0.031 A 
ATOM     42  C   UNL A   1      49.289  27.020  26.602  1.00  0.00     0.131 A 
ATOM     43  C   UNL A   1      49.625  27.268  23.868  1.00  0.00     0.055 A 
ATOM     44  C   UNL A   1      50.498  26.637  26.018  1.00  0.00     0.041 A 
ATOM     45  F   UNL A   1      49.147  26.825  27.923  1.00  0.00    -0.206 F 
ATOM     46  C   UNL A   1      50.666  26.749  24.642  1.00  0.00     0.022 A 
BRANCH  43  47
ATOM     47  S   UNL A   1      49.750  27.257  22.058  1.00  0.00     0.124 S 
ATOM     48  O   UNL A   1      51.143  26.866  21.860  1.00  0.00    -0.237 OA
ATOM     49  O   UNL A   1      48.749  26.267  21.675  1.00  0.00    -0.237 OA
ATOM     50  O   UNL A   1      49.437  28.636  21.685  1.00  0.00    -0.744 OA
ENDBRANCH  43  47
ENDBRANCH  26  40
BRANCH  27  51
ATOM     51  C   UNL A   1      39.326  29.232  30.235  1.00  0.00     0.023 A 
ATOM     52  C   UNL A   1      38.337  30.082  29.716  1.00  0.00     0.031 A 
ATOM     53  C   UNL A   1      39.090  28.649  31.497  1.00  0.00     0.131 A 
ATOM     54  C   UNL A   1      37.187  30.364  30.471  1.00  0.00     0.055 A 
ATOM     55  C   UNL A   1      37.918  28.884  32.216  1.00  0.00     0.041 A 
ATOM     56  F   UNL A   1      40.004  27.837  32.052  1.00  0.00    -0.206 F 
ATOM     57  C   UNL A   1      36.964  29.761  31.712  1.00  0.00     0.022 A 
BRANCH  54  58
ATOM     58  S   UNL A   1      36.030  31.624  29.862  1.00  0.00     0.124 S 
ATOM     59  O   UNL A   1      35.503  30.989  28.659  1.00  0.00    -0.237 OA
ATOM     60  O   UNL A   1      35.103  31.746  30.982  1.00  0.00    -0.237 OA
ATOM     61  O   UNL A   1      36.885  32.787  29.631  1.00  0.00    -0.744 OA
ENDBRANCH  54  58
ENDBRANCH  27  51
BRANCH  39  62
ATOM     62  C   UNL A   1      45.075  33.072  29.349  1.00  0.00     0.023 A 
ATOM     63  C   UNL A   1      45.690  33.344  30.582  1.00  0.00     0.031 A 
ATOM     64  C   UNL A   1      44.752  34.151  28.509  1.00  0.00     0.131 A 
ATOM     65  C   UNL A   1      45.912  34.673  30.967  1.00  0.00     0.055 A 
ATOM     66  C   UNL A   1      45.030  35.468  28.872  1.00  0.00     0.041 A 
ATOM     67  F   UNL A   1      44.160  33.940  27.322  1.00  0.00    -0.206 F 
ATOM     68  C   UNL A   1      45.602  35.736  30.113  1.00  0.00     0.022 A 
BRANCH  65  69
ATOM     69  S   UNL A   1      46.533  34.999  32.638  1.00  0.00     0.124 S 
ATOM     70  O   UNL A   1      47.341  36.197  32.432  1.00  0.00    -0.237 OA
ATOM     71  O   UNL A   1      45.301  35.185  33.399  1.00  0.00    -0.237 OA
ATOM     72  O   UNL A   1      47.286  33.791  32.966  1.00  0.00    -0.744 OA
ENDBRANCH  65  69
ENDBRANCH  39  62
ENDBRANCH  13  14
ENDBRANCH   6   8
ENDBRANCH   5   6
ENDBRANCH   4   5
ENDBRANCH   3   4
ENDBRANCH   2   3
ENDBRANCH   1   2
BRANCH   1  73
ATOM     73  C   UNL A   1      35.665  21.222  24.964  1.00  0.00     0.188 C 
BRANCH  73  74
ATOM     74  O   UNL A   1      34.734  20.173  24.790  1.00  0.00    -0.376 OA
BRANCH  74  75
ATOM     75  C   UNL A   1      33.552  20.146  25.565  1.00  0.00     0.202 C 
BRANCH  75  76
ATOM     76  C   UNL A   1      32.191  20.283  24.873  1.00  0.00     0.261 C 
BRANCH  76  77
ATOM     77  O   UNL A   1      31.775  21.621  24.576  1.00  0.00    -0.460 OA
BRANCH  77  78
ATOM     78  C   UNL A   1      32.038  22.024  23.303  1.00  0.00     0.339 C 
ATOM     79  O   UNL A   1      32.162  21.261  22.342  1.00  0.00    -0.246 OA
BRANCH  78  80
ATOM     80  C   UNL A   1      32.250  23.458  23.183  1.00  0.00     0.071 A 
ATOM     81  C   UNL A   1      33.304  23.955  22.440  1.00  0.00     0.081 A 
ATOM     82  C   UNL A   1      31.458  24.533  23.725  1.00  0.00     0.036 A 
ATOM     83  S   UNL A   1      33.306  25.652  22.341  1.00  0.00    -0.143 S 
ATOM     84  C   UNL A   1      31.862  25.775  23.259  1.00  0.00     0.037 A 
BRANCH  84  85
ATOM     85  C   UNL A   1      31.232  27.091  23.398  1.00  0.00     0.011 A 
ATOM     86  C   UNL A   1      31.921  28.223  23.807  1.00  0.00     0.121 A 
ATOM     87  C   UNL A   1      29.871  27.253  23.121  1.00  0.00     0.021 A 
ATOM     88  N   UNL A   1      31.360  29.454  23.946  1.00  0.00    -0.256 NA
ATOM     89  C   UNL A   1      29.260  28.506  23.234  1.00  0.00     0.001 A 
ATOM     90  C   UNL A   1      30.052  29.594  23.650  1.00  0.00     0.070 A 
ATOM     91  C   UNL A   1      27.898  28.681  22.936  1.00  0.00     0.010 A 
ATOM     92  C   UNL A   1      29.438  30.838  23.749  1.00  0.00     0.029 A 
ATOM     93  C   UNL A   1      27.310  29.938  23.045  1.00  0.00     0.001 A 
ATOM     94  C   UNL A   1      28.082  31.020  23.451  1.00  0.00     0.002 A 
ENDBRANCH  84  85
ENDBRANCH  78  80
ENDBRANCH  77  78
ENDBRANCH  76  77
ENDBRANCH  75  76
ENDBRANCH  74  75
ENDBRANCH  73  74
ENDBRANCH   1  73
TORSDOF 21
ENDMDL
