MODEL 1
REMARK VINA RESULT:     -11.5      0.000      0.000
REMARK SMILES Cc1ccc(-c2cnnc(-n3nc(C)c4c3NC(=O)C[C@@H]4c3ccc(C(=O)OCCOCCOCCOC(=O)c4ccc(-c5c6nc(c(-c7cc(S(=O)(=O)[O-])ccc7F)c7ccc([nH]7)c(-c7cc(S(=O)(=O)[O-])ccc7F)c7nc(c(-c8cc(S(=O)(=O)[O-])ccc8F)c8ccc5[nH]8)C=C7)C=C6)cc4)cc3)n2)cc1
REMARK SMILES IDX 32 1 31 2 30 3 29 4 28 5 26 6 27 7 25 8 22 9 23 10 104 11
REMARK SMILES IDX 24 12 103 13 21 14 11 15 12 16 16 17 13 18 15 19 17 20 14 21
REMARK SMILES IDX 18 22 20 24 19 25 10 26 6 27 7 28 105 29 8 30 9 31 5 32 1 33
REMARK SMILES IDX 2 34 3 35 107 36 4 37 106 38 33 39 34 40 35 41 36 42 37 43
REMARK SMILES IDX 38 44 39 45 40 46 41 47 102 48 42 49 101 50 43 51 44 52
REMARK SMILES IDX 45 53 95 54 46 55 100 56 94 57 96 58 47 59 99 60 93 61 92 62
REMARK SMILES IDX 48 64 80 65 60 66 79 67 61 68 64 69 78 70 97 71 62 72 63 73
REMARK SMILES IDX 77 75 98 76 65 77 49 78 50 79 58 80 51 81 57 82 59 83 56 84
REMARK SMILES IDX 52 85 53 86 54 87 55 88 81 89 82 90 90 91 83 92 89 93 91 94
REMARK SMILES IDX 88 95 84 96 85 97 86 98 87 99 66 100 67 101 75 102 68 103
REMARK SMILES IDX 74 104 76 105 73 106 69 107 70 108 71 109 72 110
REMARK H PARENT 17 23 96 63 64 74
REMARK Flexibility Score: inf
ROOT
ATOM      1  C   UNL A   1      31.802  30.638  26.411  1.00  0.00     0.188 C 
ENDROOT
BRANCH   1   2
ATOM      2  O   UNL A   1      31.061  30.471  25.192  1.00  0.00    -0.376 OA
BRANCH   2   3
ATOM      3  C   UNL A   1      30.176  31.480  24.664  1.00  0.00     0.202 C 
BRANCH   3   4
ATOM      4  C   UNL A   1      28.959  31.118  23.659  1.00  0.00     0.261 C 
BRANCH   4   5
ATOM      5  O   UNL A   1      28.568  29.678  23.252  1.00  0.00    -0.460 OA
BRANCH   5   6
ATOM      6  C   UNL A   1      29.653  29.018  22.748  1.00  0.00     0.338 C 
ATOM      7  O   UNL A   1      29.934  29.534  21.680  1.00  0.00    -0.246 OA
BRANCH   6   8
ATOM      8  C   UNL A   1      30.451  27.477  23.289  1.00  0.00     0.060 A 
ATOM      9  C   UNL A   1      31.176  24.721  24.090  1.00  0.00    -0.040 A 
ATOM     10  C   UNL A   1      30.286  25.379  24.850  1.00  0.00     0.005 A 
ATOM     11  C   UNL A   1      31.626  25.379  22.887  1.00  0.00     0.005 A 
ATOM     12  C   UNL A   1      29.996  26.663  24.452  1.00  0.00     0.016 A 
ATOM     13  C   UNL A   1      31.310  26.739  22.509  1.00  0.00     0.016 A 
BRANCH   9  14
ATOM     14  C   UNL A   1      31.716  23.502  24.806  1.00  0.00     0.064 C 
ATOM     15  N   UNL A   1      35.237  23.526  24.253  1.00  0.00    -0.180 N 
ATOM     16  N   UNL A   1      35.116  24.830  24.641  1.00  0.00    -0.168 NA
ATOM     17  C   UNL A   1      33.986  23.035  23.917  1.00  0.00     0.143 A 
ATOM     18  C   UNL A   1      33.906  24.862  25.204  1.00  0.00     0.066 A 
ATOM     19  C   UNL A   1      33.156  23.736  24.757  1.00  0.00     0.026 A 
ATOM     20  N   UNL A   1      33.458  22.164  22.973  1.00  0.00    -0.310 N 
ATOM     21  C   UNL A   1      33.455  26.087  25.917  1.00  0.00     0.069 C 
ATOM     22  C   UNL A   1      32.042  21.871  22.994  1.00  0.00     0.226 C 
ATOM     23  H   UNL A   1      34.042  21.752  22.297  1.00  0.00     0.171 HD
ATOM     24  C   UNL A   1      31.303  22.143  24.269  1.00  0.00     0.113 C 
ATOM     25  O   UNL A   1      31.577  21.305  22.018  1.00  0.00    -0.275 OA
BRANCH  15  26
ATOM     26  C   UNL A   1      36.285  22.760  24.820  1.00  0.00     0.272 A 
ATOM     27  C   UNL A   1      38.320  22.503  25.756  1.00  0.00     0.095 A 
ATOM     28  C   UNL A   1      38.229  21.136  25.557  1.00  0.00     0.164 A 
ATOM     29  N   UNL A   1      37.367  23.366  25.330  1.00  0.00    -0.208 NA
ATOM     30  N   UNL A   1      37.150  20.588  24.990  1.00  0.00    -0.153 NA
ATOM     31  N   UNL A   1      36.150  21.412  24.661  1.00  0.00    -0.109 NA
BRANCH  27  32
ATOM     32  C   UNL A   1      39.386  23.075  26.574  1.00  0.00     0.002 A 
ATOM     33  C   UNL A   1      42.385  24.774  29.165  1.00  0.00     0.044 C 
ATOM     34  C   UNL A   1      41.330  24.186  28.279  1.00  0.00    -0.051 A 
ATOM     35  C   UNL A   1      41.457  22.869  27.824  1.00  0.00     0.004 A 
ATOM     36  C   UNL A   1      40.228  24.946  27.883  1.00  0.00     0.004 A 
ATOM     37  C   UNL A   1      40.494  22.318  26.978  1.00  0.00     0.011 A 
ATOM     38  C   UNL A   1      39.269  24.396  27.036  1.00  0.00     0.011 A 
ENDBRANCH  27  32
ENDBRANCH  15  26
ENDBRANCH   9  14
ENDBRANCH   6   8
ENDBRANCH   5   6
ENDBRANCH   4   5
ENDBRANCH   3   4
ENDBRANCH   2   3
ENDBRANCH   1   2
BRANCH   1  39
ATOM     39  C   UNL A   1      32.525  29.489  27.113  1.00  0.00     0.188 C 
BRANCH  39  40
ATOM     40  O   UNL A   1      33.911  29.764  27.276  1.00  0.00    -0.376 OA
BRANCH  40  41
ATOM     41  C   UNL A   1      34.199  31.091  27.676  1.00  0.00     0.202 C 
BRANCH  41  42
ATOM     42  C   UNL A   1      35.682  31.313  28.028  1.00  0.00     0.261 C 
BRANCH  42  43
ATOM     43  O   UNL A   1      35.795  32.135  29.214  1.00  0.00    -0.460 OA
BRANCH  43  44
ATOM     44  C   UNL A   1      36.052  33.493  29.063  1.00  0.00     0.338 C 
ATOM     45  O   UNL A   1      35.428  34.223  28.348  1.00  0.00    -0.246 OA
BRANCH  44  46
ATOM     46  C   UNL A   1      37.276  33.835  29.898  1.00  0.00     0.060 A 
ATOM     47  C   UNL A   1      38.462  34.458  29.467  1.00  0.00     0.016 A 
ATOM     48  C   UNL A   1      37.406  33.087  31.002  1.00  0.00     0.016 A 
ATOM     49  C   UNL A   1      39.795  34.002  29.908  1.00  0.00     0.010 A 
ATOM     50  C   UNL A   1      38.651  32.483  31.076  1.00  0.00     0.010 A 
ATOM     51  C   UNL A   1      39.982  32.824  30.627  1.00  0.00    -0.014 A 
BRANCH  51  52
ATOM     52  C   UNL A   1      41.471  31.850  30.706  1.00  0.00     0.031 A 
ATOM     53  C   UNL A   1      42.120  30.381  29.854  1.00  0.00     0.074 A 
ATOM     54  C   UNL A   1      42.421  32.307  31.541  1.00  0.00     0.049 A 
ATOM     55  N   UNL A   1      42.807  29.425  30.467  1.00  0.00    -0.248 NA
ATOM     56  C   UNL A   1      41.769  29.686  28.502  1.00  0.00     0.031 C 
ATOM     57  C   UNL A   1      43.839  31.970  31.513  1.00  0.00     0.029 A 
ATOM     58  N   UNL A   1      42.291  33.160  32.624  1.00  0.00    -0.354 N 
ATOM     59  C   UNL A   1      43.041  28.424  29.486  1.00  0.00     0.074 A 
ATOM     60  C   UNL A   1      41.904  28.385  28.695  1.00  0.00     0.031 C 
ATOM     61  C   UNL A   1      44.409  32.412  32.643  1.00  0.00     0.029 A 
ATOM     62  C   UNL A   1      43.343  32.868  33.505  1.00  0.00     0.049 A 
ATOM     63  H   UNL A   1      41.593  33.842  32.751  1.00  0.00     0.167 HD
ATOM     64  C   UNL A   1      44.279  28.033  29.052  1.00  0.00     0.034 A 
ATOM     65  C   UNL A   1      43.037  32.377  34.741  1.00  0.00     0.034 A 
ATOM     66  C   UNL A   1      45.198  28.367  30.095  1.00  0.00     0.049 A 
ATOM     67  C   UNL A   1      43.543  30.950  34.930  1.00  0.00     0.074 A 
ATOM     68  C   UNL A   1      46.197  29.280  30.326  1.00  0.00     0.029 A 
ATOM     69  N   UNL A   1      44.831  27.875  31.314  1.00  0.00    -0.354 N 
ATOM     70  N   UNL A   1      44.178  30.253  34.019  1.00  0.00    -0.248 NA
ATOM     71  C   UNL A   1      43.367  30.179  36.154  1.00  0.00     0.031 C 
ATOM     72  C   UNL A   1      46.333  29.376  31.757  1.00  0.00     0.029 A 
ATOM     73  C   UNL A   1      45.471  28.467  32.351  1.00  0.00     0.049 A 
ATOM     74  H   UNL A   1      44.164  27.160  31.430  1.00  0.00     0.167 HD
ATOM     75  C   UNL A   1      44.430  28.975  34.460  1.00  0.00     0.074 A 
ATOM     76  C   UNL A   1      43.885  28.986  35.810  1.00  0.00     0.031 C 
ATOM     77  C   UNL A   1      45.025  28.021  33.663  1.00  0.00     0.034 A 
BRANCH  64  78
ATOM     78  C   UNL A   1      44.674  27.445  27.676  1.00  0.00     0.023 A 
ATOM     79  C   UNL A   1      44.789  26.042  27.592  1.00  0.00     0.031 A 
ATOM     80  C   UNL A   1      45.035  28.118  26.470  1.00  0.00     0.131 A 
ATOM     81  C   UNL A   1      45.243  25.388  26.422  1.00  0.00     0.055 A 
ATOM     82  C   UNL A   1      45.438  27.462  25.290  1.00  0.00     0.041 A 
ATOM     83  F   UNL A   1      45.084  29.448  26.347  1.00  0.00    -0.206 F 
ATOM     84  C   UNL A   1      45.556  26.088  25.263  1.00  0.00     0.022 A 
BRANCH  81  85
ATOM     85  S   UNL A   1      45.466  23.591  26.451  1.00  0.00     0.124 S 
ATOM     86  O   UNL A   1      44.353  23.139  25.624  1.00  0.00    -0.237 OA
ATOM     87  O   UNL A   1      46.802  23.439  25.888  1.00  0.00    -0.237 OA
ATOM     88  O   UNL A   1      45.354  23.259  27.872  1.00  0.00    -0.744 OA
ENDBRANCH  81  85
ENDBRANCH  64  78
BRANCH  65  89
ATOM     89  C   UNL A   1      41.801  33.064  35.278  1.00  0.00     0.023 A 
ATOM     90  C   UNL A   1      40.564  32.445  34.930  1.00  0.00     0.031 A 
ATOM     91  C   UNL A   1      41.805  33.866  36.429  1.00  0.00     0.131 A 
ATOM     92  C   UNL A   1      39.481  32.446  35.825  1.00  0.00     0.055 A 
ATOM     93  C   UNL A   1      40.667  33.971  37.255  1.00  0.00     0.041 A 
ATOM     94  F   UNL A   1      42.943  34.419  36.874  1.00  0.00    -0.206 F 
ATOM     95  C   UNL A   1      39.519  33.218  36.983  1.00  0.00     0.022 A 
BRANCH  92  96
ATOM     96  S   UNL A   1      38.214  31.136  35.661  1.00  0.00     0.124 S 
ATOM     97  O   UNL A   1      37.870  30.871  37.051  1.00  0.00    -0.237 OA
ATOM     98  O   UNL A   1      37.185  31.787  34.851  1.00  0.00    -0.237 OA
ATOM     99  O   UNL A   1      38.930  30.066  34.971  1.00  0.00    -0.744 OA
ENDBRANCH  92  96
ENDBRANCH  65  89
BRANCH  77 100
ATOM    100  C   UNL A   1      45.114  26.515  33.976  1.00  0.00     0.023 A 
ATOM    101  C   UNL A   1      46.345  25.883  34.105  1.00  0.00     0.031 A 
ATOM    102  C   UNL A   1      43.990  25.642  34.145  1.00  0.00     0.131 A 
ATOM    103  C   UNL A   1      46.440  24.535  34.501  1.00  0.00     0.055 A 
ATOM    104  C   UNL A   1      44.084  24.286  34.464  1.00  0.00     0.041 A 
ATOM    105  F   UNL A   1      42.715  26.039  34.057  1.00  0.00    -0.206 F 
ATOM    106  C   UNL A   1      45.322  23.725  34.671  1.00  0.00     0.022 A 
BRANCH 103 107
ATOM    107  S   UNL A   1      48.084  23.885  34.848  1.00  0.00     0.124 S 
ATOM    108  O   UNL A   1      48.805  24.193  33.618  1.00  0.00    -0.237 OA
ATOM    109  O   UNL A   1      48.463  24.669  36.021  1.00  0.00    -0.237 OA
ATOM    110  O   UNL A   1      47.845  22.465  35.097  1.00  0.00    -0.744 OA
ENDBRANCH 103 107
ENDBRANCH  77 100
ENDBRANCH  51  52
ENDBRANCH  44  46
ENDBRANCH  43  44
ENDBRANCH  42  43
ENDBRANCH  41  42
ENDBRANCH  40  41
ENDBRANCH  39  40
ENDBRANCH   1  39
TORSDOF 23
ENDMDL
MODEL 2
REMARK VINA RESULT:     -10.9      4.902      7.614
REMARK SMILES Cc1ccc(-c2cnnc(-n3nc(C)c4c3NC(=O)C[C@@H]4c3ccc(C(=O)OCCOCCOCCOC(=O)c4ccc(-c5c6nc(c(-c7cc(S(=O)(=O)[O-])ccc7F)c7ccc([nH]7)c(-c7cc(S(=O)(=O)[O-])ccc7F)c7nc(c(-c8cc(S(=O)(=O)[O-])ccc8F)c8ccc5[nH]8)C=C7)C=C6)cc4)cc3)n2)cc1
REMARK SMILES IDX 32 1 31 2 30 3 29 4 28 5 26 6 27 7 25 8 22 9 23 10 104 11
REMARK SMILES IDX 24 12 103 13 21 14 11 15 12 16 16 17 13 18 15 19 17 20 14 21
REMARK SMILES IDX 18 22 20 24 19 25 10 26 6 27 7 28 105 29 8 30 9 31 5 32 1 33
REMARK SMILES IDX 2 34 3 35 107 36 4 37 106 38 33 39 34 40 35 41 36 42 37 43
REMARK SMILES IDX 38 44 39 45 40 46 41 47 102 48 42 49 101 50 43 51 44 52
REMARK SMILES IDX 45 53 95 54 46 55 100 56 94 57 96 58 47 59 99 60 93 61 92 62
REMARK SMILES IDX 48 64 80 65 60 66 79 67 61 68 64 69 78 70 97 71 62 72 63 73
REMARK SMILES IDX 77 75 98 76 65 77 49 78 50 79 58 80 51 81 57 82 59 83 56 84
REMARK SMILES IDX 52 85 53 86 54 87 55 88 81 89 82 90 90 91 83 92 89 93 91 94
REMARK SMILES IDX 88 95 84 96 85 97 86 98 87 99 66 100 67 101 75 102 68 103
REMARK SMILES IDX 74 104 76 105 73 106 69 107 70 108 71 109 72 110
REMARK H PARENT 17 23 96 63 64 74
REMARK Flexibility Score: inf
ROOT
ATOM      1  C   UNL A   1      32.910  36.120  30.229  1.00  0.00     0.188 C 
ENDROOT
BRANCH   1   2
ATOM      2  O   UNL A   1      32.526  34.956  29.481  1.00  0.00    -0.376 OA
BRANCH   2   3
ATOM      3  C   UNL A   1      33.446  34.207  28.661  1.00  0.00     0.202 C 
BRANCH   3   4
ATOM      4  C   UNL A   1      34.653  33.334  29.295  1.00  0.00     0.261 C 
BRANCH   4   5
ATOM      5  O   UNL A   1      35.271  32.088  28.618  1.00  0.00    -0.460 OA
BRANCH   5   6
ATOM      6  C   UNL A   1      36.228  31.537  29.424  1.00  0.00     0.338 C 
ATOM      7  O   UNL A   1      36.274  32.200  30.446  1.00  0.00    -0.246 OA
BRANCH   6   8
ATOM      8  C   UNL A   1      37.471  30.260  29.072  1.00  0.00     0.060 A 
ATOM      9  C   UNL A   1      39.053  27.783  28.710  1.00  0.00    -0.040 A 
ATOM     10  C   UNL A   1      38.698  28.121  29.961  1.00  0.00     0.005 A 
ATOM     11  C   UNL A   1      38.543  28.604  27.638  1.00  0.00     0.005 A 
ATOM     12  C   UNL A   1      37.983  29.290  30.081  1.00  0.00     0.016 A 
ATOM     13  C   UNL A   1      37.805  29.837  27.807  1.00  0.00     0.016 A 
BRANCH   9  14
ATOM     14  C   UNL A   1      40.140  26.731  28.713  1.00  0.00     0.064 C 
ATOM     15  N   UNL A   1      42.247  27.500  25.944  1.00  0.00    -0.180 N 
ATOM     16  N   UNL A   1      42.197  28.758  26.473  1.00  0.00    -0.168 NA
ATOM     17  C   UNL A   1      41.220  26.741  26.478  1.00  0.00     0.143 A 
ATOM     18  C   UNL A   1      41.720  28.543  27.702  1.00  0.00     0.066 A 
ATOM     19  C   UNL A   1      41.084  27.269  27.738  1.00  0.00     0.026 A 
ATOM     20  N   UNL A   1      40.354  25.749  26.035  1.00  0.00    -0.310 N 
ATOM     21  C   UNL A   1      41.673  29.662  28.681  1.00  0.00     0.069 C 
ATOM     22  C   UNL A   1      39.419  25.158  26.966  1.00  0.00     0.226 C 
ATOM     23  H   UNL A   1      40.377  25.454  25.096  1.00  0.00     0.171 HD
ATOM     24  C   UNL A   1      39.721  25.301  28.426  1.00  0.00     0.113 C 
ATOM     25  O   UNL A   1      38.522  24.476  26.495  1.00  0.00    -0.275 OA
BRANCH  15  26
ATOM     26  C   UNL A   1      43.512  26.995  25.553  1.00  0.00     0.272 A 
ATOM     27  C   UNL A   1      45.069  25.374  25.363  1.00  0.00     0.095 A 
ATOM     28  C   UNL A   1      46.012  26.333  25.028  1.00  0.00     0.164 A 
ATOM     29  N   UNL A   1      43.795  25.693  25.700  1.00  0.00    -0.208 NA
ATOM     30  N   UNL A   1      45.688  27.627  24.952  1.00  0.00    -0.153 NA
ATOM     31  N   UNL A   1      44.409  27.950  25.174  1.00  0.00    -0.109 NA
BRANCH  27  32
ATOM     32  C   UNL A   1      45.361  23.951  25.225  1.00  0.00     0.002 A 
ATOM     33  C   UNL A   1      46.025  19.723  24.703  1.00  0.00     0.044 C 
ATOM     34  C   UNL A   1      45.777  21.190  24.876  1.00  0.00    -0.051 A 
ATOM     35  C   UNL A   1      46.598  22.117  24.225  1.00  0.00     0.004 A 
ATOM     36  C   UNL A   1      44.745  21.644  25.699  1.00  0.00     0.004 A 
ATOM     37  C   UNL A   1      46.393  23.486  24.398  1.00  0.00     0.011 A 
ATOM     38  C   UNL A   1      44.543  23.011  25.874  1.00  0.00     0.011 A 
ENDBRANCH  27  32
ENDBRANCH  15  26
ENDBRANCH   9  14
ENDBRANCH   6   8
ENDBRANCH   5   6
ENDBRANCH   4   5
ENDBRANCH   3   4
ENDBRANCH   2   3
ENDBRANCH   1   2
BRANCH   1  39
ATOM     39  C   UNL A   1      33.362  36.064  31.687  1.00  0.00     0.188 C 
BRANCH  39  40
ATOM     40  O   UNL A   1      32.829  34.929  32.358  1.00  0.00    -0.376 OA
BRANCH  40  41
ATOM     41  C   UNL A   1      33.799  34.111  32.984  1.00  0.00     0.202 C 
BRANCH  41  42
ATOM     42  C   UNL A   1      35.233  34.660  32.856  1.00  0.00     0.261 C 
BRANCH  42  43
ATOM     43  O   UNL A   1      36.098  34.025  33.827  1.00  0.00    -0.460 OA
BRANCH  43  44
ATOM     44  C   UNL A   1      37.349  33.579  33.415  1.00  0.00     0.338 C 
ATOM     45  O   UNL A   1      38.057  34.165  32.648  1.00  0.00    -0.246 OA
BRANCH  44  46
ATOM     46  C   UNL A   1      37.597  32.221  34.054  1.00  0.00     0.060 A 
ATOM     47  C   UNL A   1      37.781  31.936  35.419  1.00  0.00     0.016 A 
ATOM     48  C   UNL A   1      38.122  31.315  33.217  1.00  0.00     0.016 A 
ATOM     49  C   UNL A   1      38.810  30.989  35.894  1.00  0.00     0.010 A 
ATOM     50  C   UNL A   1      39.281  30.750  33.725  1.00  0.00     0.010 A 
ATOM     51  C   UNL A   1      39.780  30.455  35.049  1.00  0.00    -0.014 A 
BRANCH  51  52
ATOM     52  C   UNL A   1      41.376  29.825  35.526  1.00  0.00     0.031 A 
ATOM     53  C   UNL A   1      42.054  28.209  36.007  1.00  0.00     0.074 A 
ATOM     54  C   UNL A   1      42.390  30.708  35.470  1.00  0.00     0.049 A 
ATOM     55  N   UNL A   1      42.962  28.053  36.963  1.00  0.00    -0.248 NA
ATOM     56  C   UNL A   1      41.565  26.741  35.807  1.00  0.00     0.031 C 
ATOM     57  C   UNL A   1      43.812  30.395  35.408  1.00  0.00     0.029 A 
ATOM     58  N   UNL A   1      42.342  32.091  35.490  1.00  0.00    -0.354 N 
ATOM     59  C   UNL A   1      43.149  26.651  37.096  1.00  0.00     0.074 A 
ATOM     60  C   UNL A   1      41.905  26.074  36.897  1.00  0.00     0.031 C 
ATOM     61  C   UNL A   1      44.510  31.519  35.621  1.00  0.00     0.029 A 
ATOM     62  C   UNL A   1      43.563  32.537  36.016  1.00  0.00     0.049 A 
ATOM     63  H   UNL A   1      41.592  32.655  35.191  1.00  0.00     0.167 HD
ATOM     64  C   UNL A   1      44.331  25.998  36.870  1.00  0.00     0.034 A 
ATOM     65  C   UNL A   1      43.551  33.213  37.201  1.00  0.00     0.034 A 
ATOM     66  C   UNL A   1      45.368  26.967  37.041  1.00  0.00     0.049 A 
ATOM     67  C   UNL A   1      44.269  32.442  38.306  1.00  0.00     0.074 A 
ATOM     68  C   UNL A   1      46.260  27.660  36.259  1.00  0.00     0.029 A 
ATOM     69  N   UNL A   1      45.293  27.633  38.229  1.00  0.00    -0.354 N 
ATOM     70  N   UNL A   1      44.820  31.262  38.160  1.00  0.00    -0.248 NA
ATOM     71  C   UNL A   1      44.419  32.928  39.672  1.00  0.00     0.031 C 
ATOM     72  C   UNL A   1      46.635  28.828  37.014  1.00  0.00     0.029 A 
ATOM     73  C   UNL A   1      46.023  28.775  38.257  1.00  0.00     0.049 A 
ATOM     74  H   UNL A   1      44.759  27.315  38.994  1.00  0.00     0.167 HD
ATOM     75  C   UNL A   1      45.315  30.795  39.354  1.00  0.00     0.074 A 
ATOM     76  C   UNL A   1      45.023  31.886  40.273  1.00  0.00     0.031 C 
ATOM     77  C   UNL A   1      45.882  29.545  39.483  1.00  0.00     0.034 A 
BRANCH  64  78
ATOM     78  C   UNL A   1      44.550  24.536  36.414  1.00  0.00     0.023 A 
ATOM     79  C   UNL A   1      45.352  23.722  37.241  1.00  0.00     0.031 A 
ATOM     80  C   UNL A   1      44.131  23.886  35.213  1.00  0.00     0.131 A 
ATOM     81  C   UNL A   1      45.712  22.401  36.883  1.00  0.00     0.055 A 
ATOM     82  C   UNL A   1      44.448  22.553  34.884  1.00  0.00     0.041 A 
ATOM     83  F   UNL A   1      43.436  24.491  34.244  1.00  0.00    -0.206 F 
ATOM     84  C   UNL A   1      45.255  21.804  35.715  1.00  0.00     0.022 A 
BRANCH  81  85
ATOM     85  S   UNL A   1      46.842  21.479  37.958  1.00  0.00     0.124 S 
ATOM     86  O   UNL A   1      45.972  21.136  39.078  1.00  0.00    -0.237 OA
ATOM     87  O   UNL A   1      47.258  20.381  37.095  1.00  0.00    -0.237 OA
ATOM     88  O   UNL A   1      47.889  22.454  38.266  1.00  0.00    -0.744 OA
ENDBRANCH  81  85
ENDBRANCH  64  78
BRANCH  65  89
ATOM     89  C   UNL A   1      42.350  34.130  37.261  1.00  0.00     0.023 A 
ATOM     90  C   UNL A   1      41.198  33.580  37.896  1.00  0.00     0.031 A 
ATOM     91  C   UNL A   1      42.447  35.529  37.232  1.00  0.00     0.131 A 
ATOM     92  C   UNL A   1      40.338  34.389  38.657  1.00  0.00     0.055 A 
ATOM     93  C   UNL A   1      41.503  36.345  37.887  1.00  0.00     0.041 A 
ATOM     94  F   UNL A   1      43.536  36.129  36.727  1.00  0.00    -0.206 F 
ATOM     95  C   UNL A   1      40.476  35.775  38.647  1.00  0.00     0.022 A 
BRANCH  92  96
ATOM     96  S   UNL A   1      39.316  33.598  39.953  1.00  0.00     0.124 S 
ATOM     97  O   UNL A   1      39.992  32.319  40.132  1.00  0.00    -0.237 OA
ATOM     98  O   UNL A   1      39.418  34.545  41.062  1.00  0.00    -0.237 OA
ATOM     99  O   UNL A   1      37.992  33.534  39.339  1.00  0.00    -0.744 OA
ENDBRANCH  92  96
ENDBRANCH  65  89
BRANCH  77 100
ATOM    100  C   UNL A   1      46.226  28.846  40.813  1.00  0.00     0.023 A 
ATOM    101  C   UNL A   1      47.497  28.333  41.042  1.00  0.00     0.031 A 
ATOM    102  C   UNL A   1      45.311  28.646  41.898  1.00  0.00     0.131 A 
ATOM    103  C   UNL A   1      47.855  27.793  42.293  1.00  0.00     0.055 A 
ATOM    104  C   UNL A   1      45.647  28.042  43.112  1.00  0.00     0.041 A 
ATOM    105  F   UNL A   1      44.037  29.055  41.888  1.00  0.00    -0.206 F 
ATOM    106  C   UNL A   1      46.940  27.632  43.328  1.00  0.00     0.022 A 
BRANCH 103 107
ATOM    107  S   UNL A   1      49.586  27.361  42.545  1.00  0.00     0.124 S 
ATOM    108  O   UNL A   1      50.280  28.479  41.915  1.00  0.00    -0.237 OA
ATOM    109  O   UNL A   1      49.661  27.306  44.003  1.00  0.00    -0.237 OA
ATOM    110  O   UNL A   1      49.720  26.075  41.864  1.00  0.00    -0.744 OA
ENDBRANCH 103 107
ENDBRANCH  77 100
ENDBRANCH  51  52
ENDBRANCH  44  46
ENDBRANCH  43  44
ENDBRANCH  42  43
ENDBRANCH  41  42
ENDBRANCH  40  41
ENDBRANCH  39  40
ENDBRANCH   1  39
TORSDOF 23
ENDMDL
MODEL 3
REMARK VINA RESULT:     -10.9      3.165      4.272
REMARK SMILES Cc1ccc(-c2cnnc(-n3nc(C)c4c3NC(=O)C[C@@H]4c3ccc(C(=O)OCCOCCOCCOC(=O)c4ccc(-c5c6nc(c(-c7cc(S(=O)(=O)[O-])ccc7F)c7ccc([nH]7)c(-c7cc(S(=O)(=O)[O-])ccc7F)c7nc(c(-c8cc(S(=O)(=O)[O-])ccc8F)c8ccc5[nH]8)C=C7)C=C6)cc4)cc3)n2)cc1
REMARK SMILES IDX 32 1 31 2 30 3 29 4 28 5 26 6 27 7 25 8 22 9 23 10 104 11
REMARK SMILES IDX 24 12 103 13 21 14 11 15 12 16 16 17 13 18 15 19 17 20 14 21
REMARK SMILES IDX 18 22 20 24 19 25 10 26 6 27 7 28 105 29 8 30 9 31 5 32 1 33
REMARK SMILES IDX 2 34 3 35 107 36 4 37 106 38 33 39 34 40 35 41 36 42 37 43
REMARK SMILES IDX 38 44 39 45 40 46 41 47 102 48 42 49 101 50 43 51 44 52
REMARK SMILES IDX 45 53 95 54 46 55 100 56 94 57 96 58 47 59 99 60 93 61 92 62
REMARK SMILES IDX 48 64 80 65 60 66 79 67 61 68 64 69 78 70 97 71 62 72 63 73
REMARK SMILES IDX 77 75 98 76 65 77 49 78 50 79 58 80 51 81 57 82 59 83 56 84
REMARK SMILES IDX 52 85 53 86 54 87 55 88 81 89 82 90 90 91 83 92 89 93 91 94
REMARK SMILES IDX 88 95 84 96 85 97 86 98 87 99 66 100 67 101 75 102 68 103
REMARK SMILES IDX 74 104 76 105 73 106 69 107 70 108 71 109 72 110
REMARK H PARENT 17 23 96 63 64 74
REMARK Flexibility Score: inf
ROOT
ATOM      1  C   UNL A   1      32.036  30.213  25.793  1.00  0.00     0.188 C 
ENDROOT
BRANCH   1   2
ATOM      2  O   UNL A   1      31.272  29.224  25.084  1.00  0.00    -0.376 OA
BRANCH   2   3
ATOM      3  C   UNL A   1      30.783  29.420  23.741  1.00  0.00     0.202 C 
BRANCH   3   4
ATOM      4  C   UNL A   1      29.568  28.542  23.130  1.00  0.00     0.261 C 
BRANCH   4   5
ATOM      5  O   UNL A   1      29.530  26.995  23.127  1.00  0.00    -0.460 OA
BRANCH   5   6
ATOM      6  C   UNL A   1      30.769  26.492  22.846  1.00  0.00     0.338 C 
ATOM      7  O   UNL A   1      31.050  26.822  21.706  1.00  0.00    -0.246 OA
BRANCH   6   8
ATOM      8  C   UNL A   1      31.795  25.307  23.764  1.00  0.00     0.060 A 
ATOM      9  C   UNL A   1      32.913  23.173  25.485  1.00  0.00    -0.040 A 
ATOM     10  C   UNL A   1      32.268  24.186  26.086  1.00  0.00     0.005 A 
ATOM     11  C   UNL A   1      32.917  23.159  24.042  1.00  0.00     0.005 A 
ATOM     12  C   UNL A   1      31.785  25.164  25.248  1.00  0.00     0.016 A 
ATOM     13  C   UNL A   1      32.409  24.216  23.194  1.00  0.00     0.016 A 
BRANCH   9  14
ATOM     14  C   UNL A   1      33.730  22.376  26.479  1.00  0.00     0.064 C 
ATOM     15  N   UNL A   1      36.884  21.812  24.920  1.00  0.00    -0.180 N 
ATOM     16  N   UNL A   1      36.809  23.153  24.672  1.00  0.00    -0.168 NA
ATOM     17  C   UNL A   1      35.626  21.341  25.257  1.00  0.00     0.143 A 
ATOM     18  C   UNL A   1      35.840  23.554  25.499  1.00  0.00     0.066 A 
ATOM     19  C   UNL A   1      35.062  22.425  25.884  1.00  0.00     0.026 A 
ATOM     20  N   UNL A   1      34.883  20.188  25.042  1.00  0.00    -0.310 N 
ATOM     21  C   UNL A   1      35.561  25.006  25.660  1.00  0.00     0.069 C 
ATOM     22  C   UNL A   1      33.569  20.071  25.634  1.00  0.00     0.226 C 
ATOM     23  H   UNL A   1      35.249  19.458  24.493  1.00  0.00     0.171 HD
ATOM     24  C   UNL A   1      33.257  20.968  26.793  1.00  0.00     0.113 C 
ATOM     25  O   UNL A   1      32.856  19.166  25.231  1.00  0.00    -0.275 OA
BRANCH  15  26
ATOM     26  C   UNL A   1      38.106  21.297  25.422  1.00  0.00     0.272 A 
ATOM     27  C   UNL A   1      40.184  21.500  26.273  1.00  0.00     0.095 A 
ATOM     28  C   UNL A   1      40.403  20.153  26.033  1.00  0.00     0.164 A 
ATOM     29  N   UNL A   1      39.039  22.127  25.910  1.00  0.00    -0.208 NA
ATOM     30  N   UNL A   1      39.456  19.383  25.490  1.00  0.00    -0.153 NA
ATOM     31  N   UNL A   1      38.278  19.959  25.225  1.00  0.00    -0.109 NA
BRANCH  27  32
ATOM     32  C   UNL A   1      41.123  22.285  27.068  1.00  0.00     0.002 A 
ATOM     33  C   UNL A   1      43.720  24.680  29.540  1.00  0.00     0.044 C 
ATOM     34  C   UNL A   1      42.803  23.856  28.690  1.00  0.00    -0.051 A 
ATOM     35  C   UNL A   1      42.866  22.459  28.749  1.00  0.00     0.004 A 
ATOM     36  C   UNL A   1      41.896  24.466  27.822  1.00  0.00     0.004 A 
ATOM     37  C   UNL A   1      42.035  21.680  27.944  1.00  0.00     0.011 A 
ATOM     38  C   UNL A   1      41.069  23.687  27.017  1.00  0.00     0.011 A 
ENDBRANCH  27  32
ENDBRANCH  15  26
ENDBRANCH   9  14
ENDBRANCH   6   8
ENDBRANCH   5   6
ENDBRANCH   4   5
ENDBRANCH   3   4
ENDBRANCH   2   3
ENDBRANCH   1   2
BRANCH   1  39
ATOM     39  C   UNL A   1      32.827  29.905  27.063  1.00  0.00     0.188 C 
BRANCH  39  40
ATOM     40  O   UNL A   1      33.796  28.888  26.842  1.00  0.00    -0.376 OA
BRANCH  40  41
ATOM     41  C   UNL A   1      35.133  29.301  27.053  1.00  0.00     0.202 C 
BRANCH  41  42
ATOM     42  C   UNL A   1      35.347  30.012  28.402  1.00  0.00     0.261 C 
BRANCH  42  43
ATOM     43  O   UNL A   1      36.761  30.190  28.654  1.00  0.00    -0.460 OA
BRANCH  43  44
ATOM     44  C   UNL A   1      37.373  29.396  29.617  1.00  0.00     0.338 C 
ATOM     45  O   UNL A   1      37.135  29.452  30.789  1.00  0.00    -0.246 OA
BRANCH  44  46
ATOM     46  C   UNL A   1      38.410  28.528  28.920  1.00  0.00     0.060 A 
ATOM     47  C   UNL A   1      39.178  27.492  29.483  1.00  0.00     0.016 A 
ATOM     48  C   UNL A   1      38.942  29.091  27.827  1.00  0.00     0.016 A 
ATOM     49  C   UNL A   1      40.614  27.324  29.181  1.00  0.00     0.010 A 
ATOM     50  C   UNL A   1      40.327  29.114  27.879  1.00  0.00     0.010 A 
ATOM     51  C   UNL A   1      41.343  28.275  28.472  1.00  0.00    -0.014 A 
BRANCH  51  52
ATOM     52  C   UNL A   1      43.105  28.533  28.540  1.00  0.00     0.031 A 
ATOM     53  C   UNL A   1      44.563  27.821  27.722  1.00  0.00     0.074 A 
ATOM     54  C   UNL A   1      43.515  29.542  29.329  1.00  0.00     0.049 A 
ATOM     55  N   UNL A   1      45.711  27.588  28.347  1.00  0.00    -0.248 NA
ATOM     56  C   UNL A   1      44.760  27.005  26.407  1.00  0.00     0.031 C 
ATOM     57  C   UNL A   1      44.801  30.224  29.270  1.00  0.00     0.029 A 
ATOM     58  N   UNL A   1      42.853  30.146  30.384  1.00  0.00    -0.354 N 
ATOM     59  C   UNL A   1      46.549  26.946  27.396  1.00  0.00     0.074 A 
ATOM     60  C   UNL A   1      45.722  26.128  26.642  1.00  0.00     0.031 C 
ATOM     61  C   UNL A   1      44.936  30.985  30.365  1.00  0.00     0.029 A 
ATOM     62  C   UNL A   1      43.834  30.663  31.242  1.00  0.00     0.049 A 
ATOM     63  H   UNL A   1      41.878  30.202  30.508  1.00  0.00     0.167 HD
ATOM     64  C   UNL A   1      47.736  27.450  26.938  1.00  0.00     0.034 A 
ATOM     65  C   UNL A   1      43.929  30.152  32.504  1.00  0.00     0.034 A 
ATOM     66  C   UNL A   1      48.204  28.356  27.940  1.00  0.00     0.049 A 
ATOM     67  C   UNL A   1      45.252  29.425  32.728  1.00  0.00     0.074 A 
ATOM     68  C   UNL A   1      48.349  29.711  28.107  1.00  0.00     0.029 A 
ATOM     69  N   UNL A   1      48.253  27.802  29.187  1.00  0.00    -0.354 N 
ATOM     70  N   UNL A   1      46.189  29.280  31.824  1.00  0.00    -0.248 NA
ATOM     71  C   UNL A   1      45.628  28.789  33.984  1.00  0.00     0.031 C 
ATOM     72  C   UNL A   1      48.387  29.940  29.529  1.00  0.00     0.029 A 
ATOM     73  C   UNL A   1      48.341  28.718  30.182  1.00  0.00     0.049 A 
ATOM     74  H   UNL A   1      48.226  26.831  29.348  1.00  0.00     0.167 HD
ATOM     75  C   UNL A   1      47.223  28.510  32.302  1.00  0.00     0.074 A 
ATOM     76  C   UNL A   1      46.806  28.221  33.666  1.00  0.00     0.031 C 
ATOM     77  C   UNL A   1      48.301  28.151  31.521  1.00  0.00     0.034 A 
BRANCH  64  78
ATOM     78  C   UNL A   1      48.422  27.205  25.573  1.00  0.00     0.023 A 
ATOM     79  C   UNL A   1      49.796  26.888  25.597  1.00  0.00     0.031 A 
ATOM     80  C   UNL A   1      47.893  27.338  24.253  1.00  0.00     0.131 A 
ATOM     81  C   UNL A   1      50.561  26.745  24.415  1.00  0.00     0.055 A 
ATOM     82  C   UNL A   1      48.645  27.143  23.077  1.00  0.00     0.041 A 
ATOM     83  F   UNL A   1      46.638  27.717  23.990  1.00  0.00    -0.206 F 
ATOM     84  C   UNL A   1      49.992  26.856  23.152  1.00  0.00     0.022 A 
BRANCH  81  85
ATOM     85  S   UNL A   1      52.343  26.452  24.554  1.00  0.00     0.124 S 
ATOM     86  O   UNL A   1      52.781  27.633  25.289  1.00  0.00    -0.237 OA
ATOM     87  O   UNL A   1      52.390  25.183  25.270  1.00  0.00    -0.237 OA
ATOM     88  O   UNL A   1      52.787  26.392  23.161  1.00  0.00    -0.744 OA
ENDBRANCH  81  85
ENDBRANCH  64  78
BRANCH  65  89
ATOM     89  C   UNL A   1      42.547  29.875  33.054  1.00  0.00     0.023 A 
ATOM     90  C   UNL A   1      42.371  28.583  33.629  1.00  0.00     0.031 A 
ATOM     91  C   UNL A   1      41.675  30.884  33.489  1.00  0.00     0.131 A 
ATOM     92  C   UNL A   1      41.533  28.397  34.742  1.00  0.00     0.055 A 
ATOM     93  C   UNL A   1      40.739  30.654  34.518  1.00  0.00     0.041 A 
ATOM     94  F   UNL A   1      41.822  32.147  33.060  1.00  0.00    -0.206 F 
ATOM     95  C   UNL A   1      40.704  29.424  35.184  1.00  0.00     0.022 A 
BRANCH  92  96
ATOM     96  S   UNL A   1      41.836  26.956  35.829  1.00  0.00     0.124 S 
ATOM     97  O   UNL A   1      41.185  27.368  37.066  1.00  0.00    -0.237 OA
ATOM     98  O   UNL A   1      41.200  25.863  35.096  1.00  0.00    -0.237 OA
ATOM     99  O   UNL A   1      43.294  26.876  35.877  1.00  0.00    -0.744 OA
ENDBRANCH  92  96
ENDBRANCH  65  89
BRANCH  77 100
ATOM    100  C   UNL A   1      49.363  27.095  31.885  1.00  0.00     0.023 A 
ATOM    101  C   UNL A   1      50.719  27.383  31.786  1.00  0.00     0.031 A 
ATOM    102  C   UNL A   1      49.081  25.762  32.329  1.00  0.00     0.131 A 
ATOM    103  C   UNL A   1      51.697  26.467  32.221  1.00  0.00     0.055 A 
ATOM    104  C   UNL A   1      50.053  24.827  32.690  1.00  0.00     0.041 A 
ATOM    105  F   UNL A   1      47.845  25.274  32.490  1.00  0.00    -0.206 F 
ATOM    106  C   UNL A   1      51.379  25.187  32.662  1.00  0.00     0.022 A 
BRANCH 103 107
ATOM    107  S   UNL A   1      53.408  27.031  32.250  1.00  0.00     0.124 S 
ATOM    108  O   UNL A   1      53.341  28.180  33.145  1.00  0.00    -0.237 OA
ATOM    109  O   UNL A   1      54.092  25.852  32.777  1.00  0.00    -0.237 OA
ATOM    110  O   UNL A   1      53.689  27.341  30.850  1.00  0.00    -0.744 OA
ENDBRANCH 103 107
ENDBRANCH  77 100
ENDBRANCH  51  52
ENDBRANCH  44  46
ENDBRANCH  43  44
ENDBRANCH  42  43
ENDBRANCH  41  42
ENDBRANCH  40  41
ENDBRANCH  39  40
ENDBRANCH   1  39
TORSDOF 23
ENDMDL
