MODEL 1
REMARK VINA RESULT:     -11.4      0.000      0.000
REMARK SMILES CC1(C)[C@H](C(=O)OCCOCCOCCOC(=O)c2ccc(-c3c4nc(c(-c5cc(S(=O)(=O)[O-])ccc5F)c5ccc([nH]5)c(-c5cc(S(=O)(=O)[O-])ccc5F)c5nc(c(-c6cc(S(=O)(=O)[O-])ccc6F)c6ccc3[nH]6)C=C5)C=C4)cc2)[C@@H]1C(=O)Nc1ccc(NC(=O)C2CCC2)cc1
REMARK SMILES IDX 11 1 10 2 9 3 8 4 7 5 5 6 6 7 4 8 1 9 2 10 3 11 82 12 83 13
REMARK SMILES IDX 84 14 85 15 86 17 87 18 98 19 88 20 97 21 89 22 90 23 91 24
REMARK SMILES IDX 92 26 93 27 94 28 96 29 95 30 12 31 13 32 14 33 15 34 16 35
REMARK SMILES IDX 17 36 18 37 19 38 20 39 81 40 21 41 80 42 22 43 23 44 24 45
REMARK SMILES IDX 74 46 25 47 79 48 73 49 75 50 26 51 78 52 72 53 71 54 27 56
REMARK SMILES IDX 59 57 39 58 58 59 40 60 43 61 57 62 76 63 41 64 42 65 56 67
REMARK SMILES IDX 77 68 44 69 28 70 29 71 37 72 30 73 36 74 38 75 35 76 31 77
REMARK SMILES IDX 32 78 33 79 34 80 60 81 61 82 69 83 62 84 68 85 70 86 67 87
REMARK SMILES IDX 63 88 64 89 65 90 66 91 45 92 46 93 54 94 47 95 53 96 55 97
REMARK SMILES IDX 52 98 48 99 49 100 50 101 51 102
REMARK H PARENT 85 16 90 25 75 55 43 66
REMARK Flexibility Score: inf
ROOT
ATOM      1  C   UNL A   1      35.975  21.835  26.108  1.00  0.00     0.188 C 
ENDROOT
BRANCH   1   2
ATOM      2  O   UNL A   1      36.607  23.044  25.711  1.00  0.00    -0.376 OA
BRANCH   2   3
ATOM      3  C   UNL A   1      35.904  23.863  24.790  1.00  0.00     0.202 C 
BRANCH   3   4
ATOM      4  C   UNL A   1      35.212  25.084  25.410  1.00  0.00     0.261 C 
BRANCH   4   5
ATOM      5  O   UNL A   1      34.345  25.927  24.614  1.00  0.00    -0.463 OA
BRANCH   5   6
ATOM      6  C   UNL A   1      33.393  26.710  25.172  1.00  0.00     0.310 C 
ATOM      7  O   UNL A   1      33.519  27.372  26.180  1.00  0.00    -0.252 OA
BRANCH   6   8
ATOM      8  C   UNL A   1      32.143  26.849  24.392  1.00  0.00     0.118 C 
ATOM      9  C   UNL A   1      30.534  28.497  23.295  1.00  0.00     0.013 C 
ATOM     10  C   UNL A   1      31.867  27.783  23.238  1.00  0.00    -0.009 C 
ATOM     11  C   UNL A   1      32.957  28.651  22.649  1.00  0.00     0.013 C 
ATOM     12  C   UNL A   1      31.875  26.250  23.037  1.00  0.00     0.100 C 
BRANCH  12  13
ATOM     13  C   UNL A   1      32.841  25.649  22.087  1.00  0.00     0.228 C 
ATOM     14  O   UNL A   1      33.448  26.384  21.309  1.00  0.00    -0.274 OA
ATOM     15  N   UNL A   1      33.092  24.302  22.040  1.00  0.00    -0.326 N 
ATOM     16  H   UNL A   1      33.679  24.011  21.305  1.00  0.00     0.169 HD
BRANCH  15  17
ATOM     17  C   UNL A   1      32.641  23.283  22.877  1.00  0.00     0.041 A 
ATOM     18  C   UNL A   1      32.384  22.073  22.249  1.00  0.00     0.028 A 
ATOM     19  C   UNL A   1      32.538  23.369  24.261  1.00  0.00     0.028 A 
ATOM     20  C   UNL A   1      32.224  20.915  23.006  1.00  0.00     0.028 A 
ATOM     21  C   UNL A   1      32.274  22.204  25.009  1.00  0.00     0.028 A 
ATOM     22  C   UNL A   1      32.190  20.943  24.386  1.00  0.00     0.041 A 
BRANCH  22  23
ATOM     23  N   UNL A   1      32.144  19.812  25.214  1.00  0.00    -0.326 N 
ATOM     24  C   UNL A   1      32.724  18.563  25.273  1.00  0.00     0.227 C 
ATOM     25  H   UNL A   1      31.522  19.948  25.965  1.00  0.00     0.169 HD
ATOM     26  O   UNL A   1      32.358  17.897  26.265  1.00  0.00    -0.274 OA
BRANCH  24  27
ATOM     27  C   UNL A   1      33.775  17.939  24.334  1.00  0.00     0.079 C 
ATOM     28  C   UNL A   1      34.091  16.436  24.689  1.00  0.00     0.013 C 
ATOM     29  C   UNL A   1      33.580  17.402  22.894  1.00  0.00     0.013 C 
ATOM     30  C   UNL A   1      34.508  16.232  23.231  1.00  0.00     0.002 C 
ENDBRANCH  24  27
ENDBRANCH  22  23
ENDBRANCH  15  17
ENDBRANCH  12  13
ENDBRANCH   6   8
ENDBRANCH   5   6
ENDBRANCH   4   5
ENDBRANCH   3   4
ENDBRANCH   2   3
ENDBRANCH   1   2
BRANCH   1  31
ATOM     31  C   UNL A   1      35.905  20.770  25.000  1.00  0.00     0.188 C 
BRANCH  31  32
ATOM     32  O   UNL A   1      36.884  19.737  24.951  1.00  0.00    -0.376 OA
BRANCH  32  33
ATOM     33  C   UNL A   1      38.255  20.099  24.927  1.00  0.00     0.202 C 
BRANCH  33  34
ATOM     34  C   UNL A   1      39.257  19.164  25.616  1.00  0.00     0.261 C 
BRANCH  34  35
ATOM     35  O   UNL A   1      39.936  19.742  26.742  1.00  0.00    -0.460 OA
BRANCH  35  36
ATOM     36  C   UNL A   1      41.136  20.314  26.466  1.00  0.00     0.338 C 
ATOM     37  O   UNL A   1      42.016  19.854  25.758  1.00  0.00    -0.246 OA
BRANCH  36  38
ATOM     38  C   UNL A   1      41.154  21.704  26.982  1.00  0.00     0.060 A 
ATOM     39  C   UNL A   1      40.324  22.653  26.365  1.00  0.00     0.016 A 
ATOM     40  C   UNL A   1      41.996  22.084  28.028  1.00  0.00     0.016 A 
ATOM     41  C   UNL A   1      40.358  23.990  26.764  1.00  0.00     0.010 A 
ATOM     42  C   UNL A   1      42.060  23.431  28.400  1.00  0.00     0.010 A 
ATOM     43  C   UNL A   1      41.273  24.394  27.742  1.00  0.00    -0.014 A 
BRANCH  43  44
ATOM     44  C   UNL A   1      41.627  25.830  27.867  1.00  0.00     0.031 A 
ATOM     45  C   UNL A   1      42.969  26.256  27.330  1.00  0.00     0.074 A 
ATOM     46  C   UNL A   1      40.809  26.727  28.444  1.00  0.00     0.049 A 
ATOM     47  N   UNL A   1      43.592  27.398  27.451  1.00  0.00    -0.248 NA
ATOM     48  C   UNL A   1      43.707  25.243  26.558  1.00  0.00     0.031 C 
ATOM     49  C   UNL A   1      39.458  26.454  28.926  1.00  0.00     0.029 A 
ATOM     50  N   UNL A   1      41.012  28.053  28.735  1.00  0.00    -0.354 N 
ATOM     51  C   UNL A   1      44.804  27.235  26.785  1.00  0.00     0.074 A 
ATOM     52  C   UNL A   1      44.831  25.880  26.281  1.00  0.00     0.031 C 
ATOM     53  C   UNL A   1      38.963  27.574  29.485  1.00  0.00     0.029 A 
ATOM     54  C   UNL A   1      39.980  28.625  29.442  1.00  0.00     0.049 A 
ATOM     55  H   UNL A   1      41.819  28.547  28.464  1.00  0.00     0.167 HD
ATOM     56  C   UNL A   1      45.804  28.133  26.615  1.00  0.00     0.034 A 
ATOM     57  C   UNL A   1      39.891  29.840  30.025  1.00  0.00     0.034 A 
ATOM     58  C   UNL A   1      45.772  29.471  27.148  1.00  0.00     0.049 A 
ATOM     59  C   UNL A   1      41.063  30.793  29.919  1.00  0.00     0.074 A 
ATOM     60  C   UNL A   1      46.734  30.460  27.058  1.00  0.00     0.029 A 
ATOM     61  N   UNL A   1      44.723  30.002  27.888  1.00  0.00    -0.354 N 
ATOM     62  N   UNL A   1      42.216  30.622  29.312  1.00  0.00    -0.248 NA
ATOM     63  C   UNL A   1      40.922  32.099  30.578  1.00  0.00     0.031 C 
ATOM     64  C   UNL A   1      46.297  31.563  27.796  1.00  0.00     0.029 A 
ATOM     65  C   UNL A   1      45.026  31.295  28.281  1.00  0.00     0.049 A 
ATOM     66  H   UNL A   1      43.886  29.529  28.102  1.00  0.00     0.167 HD
ATOM     67  C   UNL A   1      42.917  31.816  29.484  1.00  0.00     0.074 A 
ATOM     68  C   UNL A   1      42.059  32.694  30.251  1.00  0.00     0.031 C 
ATOM     69  C   UNL A   1      44.152  32.159  29.038  1.00  0.00     0.034 A 
BRANCH  56  70
ATOM     70  C   UNL A   1      47.035  27.658  25.886  1.00  0.00     0.023 A 
ATOM     71  C   UNL A   1      47.259  27.964  24.532  1.00  0.00     0.031 A 
ATOM     72  C   UNL A   1      47.973  26.840  26.541  1.00  0.00     0.131 A 
ATOM     73  C   UNL A   1      48.350  27.394  23.858  1.00  0.00     0.055 A 
ATOM     74  C   UNL A   1      49.100  26.343  25.886  1.00  0.00     0.041 A 
ATOM     75  F   UNL A   1      47.795  26.491  27.826  1.00  0.00    -0.206 F 
ATOM     76  C   UNL A   1      49.285  26.606  24.533  1.00  0.00     0.022 A 
BRANCH  73  77
ATOM     77  S   UNL A   1      48.447  27.577  22.057  1.00  0.00     0.124 S 
ATOM     78  O   UNL A   1      49.586  28.481  21.913  1.00  0.00    -0.237 OA
ATOM     79  O   UNL A   1      48.661  26.205  21.611  1.00  0.00    -0.237 OA
ATOM     80  O   UNL A   1      47.154  28.155  21.700  1.00  0.00    -0.744 OA
ENDBRANCH  73  77
ENDBRANCH  56  70
BRANCH  57  81
ATOM     81  C   UNL A   1      38.685  30.217  30.818  1.00  0.00     0.023 A 
ATOM     82  C   UNL A   1      37.631  30.942  30.241  1.00  0.00     0.031 A 
ATOM     83  C   UNL A   1      38.600  29.913  32.190  1.00  0.00     0.131 A 
ATOM     84  C   UNL A   1      36.560  31.379  31.040  1.00  0.00     0.055 A 
ATOM     85  C   UNL A   1      37.510  30.303  32.967  1.00  0.00     0.041 A 
ATOM     86  F   UNL A   1      39.584  29.226  32.795  1.00  0.00    -0.206 F 
ATOM     87  C   UNL A   1      36.487  31.052  32.396  1.00  0.00     0.022 A 
BRANCH  84  88
ATOM     88  S   UNL A   1      35.304  32.456  30.297  1.00  0.00     0.124 S 
ATOM     89  O   UNL A   1      34.861  31.656  29.160  1.00  0.00    -0.237 OA
ATOM     90  O   UNL A   1      34.348  32.603  31.390  1.00  0.00    -0.237 OA
ATOM     91  O   UNL A   1      36.049  33.666  29.957  1.00  0.00    -0.744 OA
ENDBRANCH  84  88
ENDBRANCH  57  81
BRANCH  69  92
ATOM     92  C   UNL A   1      44.620  33.571  29.298  1.00  0.00     0.023 A 
ATOM     93  C   UNL A   1      44.369  34.621  28.400  1.00  0.00     0.031 A 
ATOM     94  C   UNL A   1      45.310  33.867  30.489  1.00  0.00     0.131 A 
ATOM     95  C   UNL A   1      44.838  35.912  28.689  1.00  0.00     0.055 A 
ATOM     96  C   UNL A   1      45.728  35.161  30.795  1.00  0.00     0.041 A 
ATOM     97  F   UNL A   1      45.575  32.899  31.382  1.00  0.00    -0.206 F 
ATOM     98  C   UNL A   1      45.501  36.192  29.887  1.00  0.00     0.022 A 
BRANCH  95  99
ATOM     99  S   UNL A   1      44.628  37.218  27.447  1.00  0.00     0.124 S 
ATOM    100  O   UNL A   1      44.687  38.426  28.264  1.00  0.00    -0.237 OA
ATOM    101  O   UNL A   1      45.763  36.992  26.559  1.00  0.00    -0.237 OA
ATOM    102  O   UNL A   1      43.320  36.929  26.863  1.00  0.00    -0.744 OA
ENDBRANCH  95  99
ENDBRANCH  69  92
ENDBRANCH  43  44
ENDBRANCH  36  38
ENDBRANCH  35  36
ENDBRANCH  34  35
ENDBRANCH  33  34
ENDBRANCH  32  33
ENDBRANCH  31  32
ENDBRANCH   1  31
TORSDOF 24
ENDMDL
MODEL 2
REMARK VINA RESULT:     -11.1      3.260      9.244
REMARK SMILES CC1(C)[C@H](C(=O)OCCOCCOCCOC(=O)c2ccc(-c3c4nc(c(-c5cc(S(=O)(=O)[O-])ccc5F)c5ccc([nH]5)c(-c5cc(S(=O)(=O)[O-])ccc5F)c5nc(c(-c6cc(S(=O)(=O)[O-])ccc6F)c6ccc3[nH]6)C=C5)C=C4)cc2)[C@@H]1C(=O)Nc1ccc(NC(=O)C2CCC2)cc1
REMARK SMILES IDX 11 1 10 2 9 3 8 4 7 5 5 6 6 7 4 8 1 9 2 10 3 11 82 12 83 13
REMARK SMILES IDX 84 14 85 15 86 17 87 18 98 19 88 20 97 21 89 22 90 23 91 24
REMARK SMILES IDX 92 26 93 27 94 28 96 29 95 30 12 31 13 32 14 33 15 34 16 35
REMARK SMILES IDX 17 36 18 37 19 38 20 39 81 40 21 41 80 42 22 43 23 44 24 45
REMARK SMILES IDX 74 46 25 47 79 48 73 49 75 50 26 51 78 52 72 53 71 54 27 56
REMARK SMILES IDX 59 57 39 58 58 59 40 60 43 61 57 62 76 63 41 64 42 65 56 67
REMARK SMILES IDX 77 68 44 69 28 70 29 71 37 72 30 73 36 74 38 75 35 76 31 77
REMARK SMILES IDX 32 78 33 79 34 80 60 81 61 82 69 83 62 84 68 85 70 86 67 87
REMARK SMILES IDX 63 88 64 89 65 90 66 91 45 92 46 93 54 94 47 95 53 96 55 97
REMARK SMILES IDX 52 98 48 99 49 100 50 101 51 102
REMARK H PARENT 85 16 90 25 75 55 43 66
REMARK Flexibility Score: inf
ROOT
ATOM      1  C   UNL A   1      35.731  23.212  25.588  1.00  0.00     0.188 C 
ENDROOT
BRANCH   1   2
ATOM      2  O   UNL A   1      35.409  24.592  25.695  1.00  0.00    -0.376 OA
BRANCH   2   3
ATOM      3  C   UNL A   1      34.116  24.983  25.262  1.00  0.00     0.202 C 
BRANCH   3   4
ATOM      4  C   UNL A   1      33.187  23.826  24.873  1.00  0.00     0.261 C 
BRANCH   4   5
ATOM      5  O   UNL A   1      31.750  24.001  24.860  1.00  0.00    -0.463 OA
BRANCH   5   6
ATOM      6  C   UNL A   1      31.089  24.450  23.769  1.00  0.00     0.310 C 
ATOM      7  O   UNL A   1      30.434  23.773  23.006  1.00  0.00    -0.252 OA
BRANCH   6   8
ATOM      8  C   UNL A   1      31.079  25.919  23.588  1.00  0.00     0.118 C 
ATOM      9  C   UNL A   1      29.817  27.895  22.584  1.00  0.00     0.013 C 
ATOM     10  C   UNL A   1      29.901  26.859  23.683  1.00  0.00    -0.009 C 
ATOM     11  C   UNL A   1      28.536  26.370  24.115  1.00  0.00     0.013 C 
ATOM     12  C   UNL A   1      31.072  26.945  24.690  1.00  0.00     0.100 C 
BRANCH  12  13
ATOM     13  C   UNL A   1      30.800  26.747  26.133  1.00  0.00     0.228 C 
ATOM     14  O   UNL A   1      30.019  25.862  26.478  1.00  0.00    -0.274 OA
ATOM     15  N   UNL A   1      31.391  27.510  27.109  1.00  0.00    -0.326 N 
ATOM     16  H   UNL A   1      31.061  27.350  28.022  1.00  0.00     0.169 HD
BRANCH  15  17
ATOM     17  C   UNL A   1      32.388  28.477  26.999  1.00  0.00     0.041 A 
ATOM     18  C   UNL A   1      31.937  29.789  26.957  1.00  0.00     0.028 A 
ATOM     19  C   UNL A   1      33.756  28.227  27.034  1.00  0.00     0.028 A 
ATOM     20  C   UNL A   1      32.830  30.839  27.153  1.00  0.00     0.028 A 
ATOM     21  C   UNL A   1      34.655  29.308  27.130  1.00  0.00     0.028 A 
ATOM     22  C   UNL A   1      34.190  30.630  27.267  1.00  0.00     0.041 A 
BRANCH  22  23
ATOM     23  N   UNL A   1      35.134  31.622  27.575  1.00  0.00    -0.326 N 
ATOM     24  C   UNL A   1      35.419  32.474  28.620  1.00  0.00     0.227 C 
ATOM     25  H   UNL A   1      35.773  31.744  26.835  1.00  0.00     0.169 HD
ATOM     26  O   UNL A   1      36.426  33.185  28.413  1.00  0.00    -0.274 OA
BRANCH  24  27
ATOM     27  C   UNL A   1      34.712  32.604  29.982  1.00  0.00     0.079 C 
ATOM     28  C   UNL A   1      35.619  32.139  31.185  1.00  0.00     0.013 C 
ATOM     29  C   UNL A   1      34.495  33.879  30.835  1.00  0.00     0.013 C 
ATOM     30  C   UNL A   1      34.803  33.061  32.092  1.00  0.00     0.002 C 
ENDBRANCH  24  27
ENDBRANCH  22  23
ENDBRANCH  15  17
ENDBRANCH  12  13
ENDBRANCH   6   8
ENDBRANCH   5   6
ENDBRANCH   4   5
ENDBRANCH   3   4
ENDBRANCH   2   3
ENDBRANCH   1   2
BRANCH   1  31
ATOM     31  C   UNL A   1      37.211  22.935  25.270  1.00  0.00     0.188 C 
BRANCH  31  32
ATOM     32  O   UNL A   1      37.560  21.837  24.434  1.00  0.00    -0.376 OA
BRANCH  32  33
ATOM     33  C   UNL A   1      37.465  20.524  24.960  1.00  0.00     0.202 C 
BRANCH  33  34
ATOM     34  C   UNL A   1      38.766  19.807  25.343  1.00  0.00     0.261 C 
BRANCH  34  35
ATOM     35  O   UNL A   1      39.728  20.635  26.015  1.00  0.00    -0.460 OA
BRANCH  35  36
ATOM     36  C   UNL A   1      40.971  20.102  26.132  1.00  0.00     0.338 C 
ATOM     37  O   UNL A   1      41.296  18.952  25.892  1.00  0.00    -0.246 OA
BRANCH  36  38
ATOM     38  C   UNL A   1      41.952  21.183  26.398  1.00  0.00     0.060 A 
ATOM     39  C   UNL A   1      42.302  21.449  27.732  1.00  0.00     0.016 A 
ATOM     40  C   UNL A   1      42.492  21.950  25.366  1.00  0.00     0.016 A 
ATOM     41  C   UNL A   1      43.163  22.502  28.042  1.00  0.00     0.010 A 
ATOM     42  C   UNL A   1      43.322  23.032  25.679  1.00  0.00     0.010 A 
ATOM     43  C   UNL A   1      43.626  23.336  27.019  1.00  0.00    -0.014 A 
BRANCH  43  44
ATOM     44  C   UNL A   1      44.165  24.678  27.353  1.00  0.00     0.031 A 
ATOM     45  C   UNL A   1      43.189  25.702  27.871  1.00  0.00     0.074 A 
ATOM     46  C   UNL A   1      45.462  24.994  27.195  1.00  0.00     0.049 A 
ATOM     47  N   UNL A   1      43.354  26.980  28.085  1.00  0.00    -0.248 NA
ATOM     48  C   UNL A   1      41.838  25.206  28.181  1.00  0.00     0.031 C 
ATOM     49  C   UNL A   1      46.515  24.071  26.779  1.00  0.00     0.029 A 
ATOM     50  N   UNL A   1      46.107  26.197  27.351  1.00  0.00    -0.354 N 
ATOM     51  C   UNL A   1      42.122  27.445  28.538  1.00  0.00     0.074 A 
ATOM     52  C   UNL A   1      41.220  26.315  28.549  1.00  0.00     0.031 C 
ATOM     53  C   UNL A   1      47.673  24.750  26.682  1.00  0.00     0.029 A 
ATOM     54  C   UNL A   1      47.432  26.163  26.981  1.00  0.00     0.049 A 
ATOM     55  H   UNL A   1      45.664  27.005  27.695  1.00  0.00     0.167 HD
ATOM     56  C   UNL A   1      41.775  28.702  28.905  1.00  0.00     0.034 A 
ATOM     57  C   UNL A   1      48.327  27.165  26.855  1.00  0.00     0.034 A 
ATOM     58  C   UNL A   1      42.679  29.823  28.861  1.00  0.00     0.049 A 
ATOM     59  C   UNL A   1      47.892  28.582  27.164  1.00  0.00     0.074 A 
ATOM     60  C   UNL A   1      42.434  31.144  29.189  1.00  0.00     0.029 A 
ATOM     61  N   UNL A   1      44.004  29.754  28.449  1.00  0.00    -0.354 N 
ATOM     62  N   UNL A   1      46.720  29.018  27.564  1.00  0.00    -0.248 NA
ATOM     63  C   UNL A   1      48.900  29.638  27.002  1.00  0.00     0.031 C 
ATOM     64  C   UNL A   1      43.588  31.884  28.912  1.00  0.00     0.029 A 
ATOM     65  C   UNL A   1      44.580  31.012  28.489  1.00  0.00     0.049 A 
ATOM     66  H   UNL A   1      44.466  28.931  28.168  1.00  0.00     0.167 HD
ATOM     67  C   UNL A   1      46.865  30.394  27.741  1.00  0.00     0.074 A 
ATOM     68  C   UNL A   1      48.236  30.713  27.402  1.00  0.00     0.031 C 
ATOM     69  C   UNL A   1      45.953  31.309  28.156  1.00  0.00     0.034 A 
BRANCH  56  70
ATOM     70  C   UNL A   1      40.340  28.927  29.309  1.00  0.00     0.023 A 
ATOM     71  C   UNL A   1      39.939  28.916  30.657  1.00  0.00     0.031 A 
ATOM     72  C   UNL A   1      39.348  29.100  28.328  1.00  0.00     0.131 A 
ATOM     73  C   UNL A   1      38.577  28.999  30.981  1.00  0.00     0.055 A 
ATOM     74  C   UNL A   1      38.004  29.263  28.661  1.00  0.00     0.041 A 
ATOM     75  F   UNL A   1      39.668  29.090  27.024  1.00  0.00    -0.206 F 
ATOM     76  C   UNL A   1      37.609  29.198  29.994  1.00  0.00     0.022 A 
BRANCH  73  77
ATOM     77  S   UNL A   1      38.074  28.695  32.697  1.00  0.00     0.124 S 
ATOM     78  O   UNL A   1      39.058  29.483  33.437  1.00  0.00    -0.237 OA
ATOM     79  O   UNL A   1      36.706  29.198  32.719  1.00  0.00    -0.237 OA
ATOM     80  O   UNL A   1      38.210  27.247  32.843  1.00  0.00    -0.744 OA
ENDBRANCH  73  77
ENDBRANCH  56  70
BRANCH  57  81
ATOM     81  C   UNL A   1      49.707  26.894  26.355  1.00  0.00     0.023 A 
ATOM     82  C   UNL A   1      50.784  26.730  27.240  1.00  0.00     0.031 A 
ATOM     83  C   UNL A   1      49.980  26.862  24.974  1.00  0.00     0.131 A 
ATOM     84  C   UNL A   1      52.088  26.587  26.739  1.00  0.00     0.055 A 
ATOM     85  C   UNL A   1      51.270  26.667  24.480  1.00  0.00     0.041 A 
ATOM     86  F   UNL A   1      48.988  27.020  24.083  1.00  0.00    -0.206 F 
ATOM     87  C   UNL A   1      52.337  26.542  25.365  1.00  0.00     0.022 A 
BRANCH  84  88
ATOM     88  S   UNL A   1      53.472  26.548  27.912  1.00  0.00     0.124 S 
ATOM     89  O   UNL A   1      54.250  25.419  27.415  1.00  0.00    -0.237 OA
ATOM     90  O   UNL A   1      54.063  27.868  27.725  1.00  0.00    -0.237 OA
ATOM     91  O   UNL A   1      52.819  26.337  29.202  1.00  0.00    -0.744 OA
ENDBRANCH  84  88
ENDBRANCH  57  81
BRANCH  69  92
ATOM     92  C   UNL A   1      46.426  32.730  28.345  1.00  0.00     0.023 A 
ATOM     93  C   UNL A   1      46.956  33.188  29.563  1.00  0.00     0.031 A 
ATOM     94  C   UNL A   1      46.366  33.633  27.267  1.00  0.00     0.131 A 
ATOM     95  C   UNL A   1      47.371  34.524  29.684  1.00  0.00     0.055 A 
ATOM     96  C   UNL A   1      46.827  34.944  27.378  1.00  0.00     0.041 A 
ATOM     97  F   UNL A   1      45.868  33.246  26.081  1.00  0.00    -0.206 F 
ATOM     98  C   UNL A   1      47.325  35.399  28.596  1.00  0.00     0.022 A 
BRANCH  95  99
ATOM     99  S   UNL A   1      47.915  35.127  31.307  1.00  0.00     0.124 S 
ATOM    100  O   UNL A   1      49.198  34.451  31.467  1.00  0.00    -0.237 OA
ATOM    101  O   UNL A   1      47.976  36.570  31.099  1.00  0.00    -0.237 OA
ATOM    102  O   UNL A   1      46.860  34.677  32.212  1.00  0.00    -0.744 OA
ENDBRANCH  95  99
ENDBRANCH  69  92
ENDBRANCH  43  44
ENDBRANCH  36  38
ENDBRANCH  35  36
ENDBRANCH  34  35
ENDBRANCH  33  34
ENDBRANCH  32  33
ENDBRANCH  31  32
ENDBRANCH   1  31
TORSDOF 24
ENDMDL
MODEL 3
REMARK VINA RESULT:     -11.1      1.585      4.254
REMARK SMILES CC1(C)[C@H](C(=O)OCCOCCOCCOC(=O)c2ccc(-c3c4nc(c(-c5cc(S(=O)(=O)[O-])ccc5F)c5ccc([nH]5)c(-c5cc(S(=O)(=O)[O-])ccc5F)c5nc(c(-c6cc(S(=O)(=O)[O-])ccc6F)c6ccc3[nH]6)C=C5)C=C4)cc2)[C@@H]1C(=O)Nc1ccc(NC(=O)C2CCC2)cc1
REMARK SMILES IDX 11 1 10 2 9 3 8 4 7 5 5 6 6 7 4 8 1 9 2 10 3 11 82 12 83 13
REMARK SMILES IDX 84 14 85 15 86 17 87 18 98 19 88 20 97 21 89 22 90 23 91 24
REMARK SMILES IDX 92 26 93 27 94 28 96 29 95 30 12 31 13 32 14 33 15 34 16 35
REMARK SMILES IDX 17 36 18 37 19 38 20 39 81 40 21 41 80 42 22 43 23 44 24 45
REMARK SMILES IDX 74 46 25 47 79 48 73 49 75 50 26 51 78 52 72 53 71 54 27 56
REMARK SMILES IDX 59 57 39 58 58 59 40 60 43 61 57 62 76 63 41 64 42 65 56 67
REMARK SMILES IDX 77 68 44 69 28 70 29 71 37 72 30 73 36 74 38 75 35 76 31 77
REMARK SMILES IDX 32 78 33 79 34 80 60 81 61 82 69 83 62 84 68 85 70 86 67 87
REMARK SMILES IDX 63 88 64 89 65 90 66 91 45 92 46 93 54 94 47 95 53 96 55 97
REMARK SMILES IDX 52 98 48 99 49 100 50 101 51 102
REMARK H PARENT 85 16 90 25 75 55 43 66
REMARK Flexibility Score: inf
ROOT
ATOM      1  C   UNL A   1      35.317  20.777  24.571  1.00  0.00     0.188 C 
ENDROOT
BRANCH   1   2
ATOM      2  O   UNL A   1      34.554  19.867  25.351  1.00  0.00    -0.376 OA
BRANCH   2   3
ATOM      3  C   UNL A   1      33.872  18.839  24.651  1.00  0.00     0.202 C 
BRANCH   3   4
ATOM      4  C   UNL A   1      32.613  19.293  23.903  1.00  0.00     0.261 C 
BRANCH   4   5
ATOM      5  O   UNL A   1      32.062  20.615  24.113  1.00  0.00    -0.463 OA
BRANCH   5   6
ATOM      6  C   UNL A   1      31.901  21.497  23.100  1.00  0.00     0.310 C 
ATOM      7  O   UNL A   1      32.067  21.264  21.922  1.00  0.00    -0.252 OA
BRANCH   6   8
ATOM      8  C   UNL A   1      31.351  22.817  23.484  1.00  0.00     0.118 C 
ATOM      9  C   UNL A   1      30.773  24.356  25.433  1.00  0.00     0.013 C 
ATOM     10  C   UNL A   1      31.849  23.754  24.557  1.00  0.00    -0.009 C 
ATOM     11  C   UNL A   1      33.120  23.468  25.326  1.00  0.00     0.013 C 
ATOM     12  C   UNL A   1      31.895  24.156  23.064  1.00  0.00     0.100 C 
BRANCH  12  13
ATOM     13  C   UNL A   1      33.203  24.467  22.439  1.00  0.00     0.228 C 
ATOM     14  O   UNL A   1      33.840  23.560  21.906  1.00  0.00    -0.274 OA
ATOM     15  N   UNL A   1      33.734  25.731  22.423  1.00  0.00    -0.326 N 
ATOM     16  H   UNL A   1      34.649  25.797  22.066  1.00  0.00     0.169 HD
BRANCH  15  17
ATOM     17  C   UNL A   1      33.172  26.937  22.838  1.00  0.00     0.041 A 
ATOM     18  C   UNL A   1      31.865  26.853  23.297  1.00  0.00     0.028 A 
ATOM     19  C   UNL A   1      33.846  28.151  22.918  1.00  0.00     0.028 A 
ATOM     20  C   UNL A   1      31.307  27.911  24.011  1.00  0.00     0.028 A 
ATOM     21  C   UNL A   1      33.227  29.245  23.555  1.00  0.00     0.028 A 
ATOM     22  C   UNL A   1      31.971  29.110  24.178  1.00  0.00     0.041 A 
BRANCH  22  23
ATOM     23  N   UNL A   1      31.522  30.174  24.973  1.00  0.00    -0.326 N 
ATOM     24  C   UNL A   1      31.818  30.732  26.199  1.00  0.00     0.227 C 
ATOM     25  H   UNL A   1      30.788  30.660  24.533  1.00  0.00     0.169 HD
ATOM     26  O   UNL A   1      31.118  31.733  26.465  1.00  0.00    -0.274 OA
BRANCH  24  27
ATOM     27  C   UNL A   1      32.909  30.326  27.208  1.00  0.00     0.079 C 
ATOM     28  C   UNL A   1      33.275  28.795  27.124  1.00  0.00     0.013 C 
ATOM     29  C   UNL A   1      34.439  30.544  27.110  1.00  0.00     0.013 C 
ATOM     30  C   UNL A   1      34.652  29.145  27.693  1.00  0.00     0.002 C 
ENDBRANCH  24  27
ENDBRANCH  22  23
ENDBRANCH  15  17
ENDBRANCH  12  13
ENDBRANCH   6   8
ENDBRANCH   5   6
ENDBRANCH   4   5
ENDBRANCH   3   4
ENDBRANCH   2   3
ENDBRANCH   1   2
BRANCH   1  31
ATOM     31  C   UNL A   1      36.332  21.602  25.381  1.00  0.00     0.188 C 
BRANCH  31  32
ATOM     32  O   UNL A   1      37.717  21.277  25.318  1.00  0.00    -0.376 OA
BRANCH  32  33
ATOM     33  C   UNL A   1      38.090  19.936  25.044  1.00  0.00     0.202 C 
BRANCH  33  34
ATOM     34  C   UNL A   1      39.393  19.412  25.662  1.00  0.00     0.261 C 
BRANCH  34  35
ATOM     35  O   UNL A   1      40.440  20.388  25.764  1.00  0.00    -0.460 OA
BRANCH  35  36
ATOM     36  C   UNL A   1      41.048  20.465  26.976  1.00  0.00     0.338 C 
ATOM     37  O   UNL A   1      41.636  19.566  27.553  1.00  0.00    -0.246 OA
BRANCH  36  38
ATOM     38  C   UNL A   1      41.084  21.877  27.425  1.00  0.00     0.060 A 
ATOM     39  C   UNL A   1      40.324  22.820  26.715  1.00  0.00     0.016 A 
ATOM     40  C   UNL A   1      41.877  22.283  28.499  1.00  0.00     0.016 A 
ATOM     41  C   UNL A   1      40.381  24.174  27.050  1.00  0.00     0.010 A 
ATOM     42  C   UNL A   1      41.967  23.644  28.809  1.00  0.00     0.010 A 
ATOM     43  C   UNL A   1      41.252  24.597  28.060  1.00  0.00    -0.014 A 
BRANCH  43  44
ATOM     44  C   UNL A   1      41.648  26.025  28.137  1.00  0.00     0.031 A 
ATOM     45  C   UNL A   1      42.990  26.399  27.563  1.00  0.00     0.074 A 
ATOM     46  C   UNL A   1      40.865  26.961  28.702  1.00  0.00     0.049 A 
ATOM     47  N   UNL A   1      43.646  27.526  27.638  1.00  0.00    -0.248 NA
ATOM     48  C   UNL A   1      43.685  25.344  26.807  1.00  0.00     0.031 C 
ATOM     49  C   UNL A   1      39.517  26.740  29.217  1.00  0.00     0.029 A 
ATOM     50  N   UNL A   1      41.110  28.289  28.951  1.00  0.00    -0.354 N 
ATOM     51  C   UNL A   1      44.839  27.311  26.955  1.00  0.00     0.074 A 
ATOM     52  C   UNL A   1      44.820  25.942  26.490  1.00  0.00     0.031 C 
ATOM     53  C   UNL A   1      39.063  27.888  29.753  1.00  0.00     0.029 A 
ATOM     54  C   UNL A   1      40.108  28.910  29.660  1.00  0.00     0.049 A 
ATOM     55  H   UNL A   1      41.925  28.752  28.650  1.00  0.00     0.167 HD
ATOM     56  C   UNL A   1      45.860  28.175  26.741  1.00  0.00     0.034 A 
ATOM     57  C   UNL A   1      40.064  30.142  30.208  1.00  0.00     0.034 A 
ATOM     58  C   UNL A   1      45.875  29.528  27.235  1.00  0.00     0.049 A 
ATOM     59  C   UNL A   1      41.259  31.059  30.053  1.00  0.00     0.074 A 
ATOM     60  C   UNL A   1      46.862  30.487  27.097  1.00  0.00     0.029 A 
ATOM     61  N   UNL A   1      44.855  30.109  27.978  1.00  0.00    -0.354 N 
ATOM     62  N   UNL A   1      42.394  30.839  29.430  1.00  0.00    -0.248 NA
ATOM     63  C   UNL A   1      41.166  32.387  30.676  1.00  0.00     0.031 C 
ATOM     64  C   UNL A   1      46.469  31.623  27.812  1.00  0.00     0.029 A 
ATOM     65  C   UNL A   1      45.201  31.404  28.327  1.00  0.00     0.049 A 
ATOM     66  H   UNL A   1      44.010  29.666  28.221  1.00  0.00     0.167 HD
ATOM     67  C   UNL A   1      43.131  32.017  29.553  1.00  0.00     0.074 A 
ATOM     68  C   UNL A   1      42.312  32.941  30.310  1.00  0.00     0.031 C 
ATOM     69  C   UNL A   1      44.366  32.314  29.075  1.00  0.00     0.034 A 
BRANCH  56  70
ATOM     70  C   UNL A   1      47.064  27.646  26.003  1.00  0.00     0.023 A 
ATOM     71  C   UNL A   1      47.301  27.956  24.652  1.00  0.00     0.031 A 
ATOM     72  C   UNL A   1      47.958  26.771  26.645  1.00  0.00     0.131 A 
ATOM     73  C   UNL A   1      48.359  27.339  23.969  1.00  0.00     0.055 A 
ATOM     74  C   UNL A   1      49.056  26.223  25.981  1.00  0.00     0.041 A 
ATOM     75  F   UNL A   1      47.764  26.415  27.925  1.00  0.00    -0.206 F 
ATOM     76  C   UNL A   1      49.253  26.494  24.631  1.00  0.00     0.022 A 
BRANCH  73  77
ATOM     77  S   UNL A   1      48.463  27.539  22.169  1.00  0.00     0.124 S 
ATOM     78  O   UNL A   1      48.679  26.161  21.731  1.00  0.00    -0.237 OA
ATOM     79  O   UNL A   1      47.166  28.117  21.840  1.00  0.00    -0.237 OA
ATOM     80  O   UNL A   1      49.608  28.429  21.988  1.00  0.00    -0.744 OA
ENDBRANCH  73  77
ENDBRANCH  56  70
BRANCH  57  81
ATOM     81  C   UNL A   1      38.884  30.576  31.013  1.00  0.00     0.023 A 
ATOM     82  C   UNL A   1      37.900  31.417  30.469  1.00  0.00     0.031 A 
ATOM     83  C   UNL A   1      38.758  30.205  32.365  1.00  0.00     0.131 A 
ATOM     84  C   UNL A   1      36.860  31.897  31.283  1.00  0.00     0.055 A 
ATOM     85  C   UNL A   1      37.695  30.642  33.155  1.00  0.00     0.041 A 
ATOM     86  F   UNL A   1      39.674  29.408  32.938  1.00  0.00    -0.206 F 
ATOM     87  C   UNL A   1      36.744  31.505  32.619  1.00  0.00     0.022 A 
BRANCH  84  88
ATOM     88  S   UNL A   1      35.706  33.114  30.591  1.00  0.00     0.124 S 
ATOM     89  O   UNL A   1      36.188  33.236  29.220  1.00  0.00    -0.237 OA
ATOM     90  O   UNL A   1      34.422  32.443  30.763  1.00  0.00    -0.237 OA
ATOM     91  O   UNL A   1      35.908  34.292  31.432  1.00  0.00    -0.744 OA
ENDBRANCH  84  88
ENDBRANCH  57  81
BRANCH  69  92
ATOM     92  C   UNL A   1      44.877  33.718  29.285  1.00  0.00     0.023 A 
ATOM     93  C   UNL A   1      44.738  34.720  28.310  1.00  0.00     0.031 A 
ATOM     94  C   UNL A   1      45.493  34.060  30.504  1.00  0.00     0.131 A 
ATOM     95  C   UNL A   1      45.243  36.007  28.556  1.00  0.00     0.055 A 
ATOM     96  C   UNL A   1      45.946  35.353  30.762  1.00  0.00     0.041 A 
ATOM     97  F   UNL A   1      45.651  33.140  31.469  1.00  0.00    -0.206 F 
ATOM     98  C   UNL A   1      45.830  36.334  29.782  1.00  0.00     0.022 A 
BRANCH  95  99
ATOM     99  S   UNL A   1      45.180  37.241  27.227  1.00  0.00     0.124 S 
ATOM    100  O   UNL A   1      46.015  36.625  26.202  1.00  0.00    -0.237 OA
ATOM    101  O   UNL A   1      43.753  37.309  26.931  1.00  0.00    -0.237 OA
ATOM    102  O   UNL A   1      45.740  38.440  27.845  1.00  0.00    -0.744 OA
ENDBRANCH  95  99
ENDBRANCH  69  92
ENDBRANCH  43  44
ENDBRANCH  36  38
ENDBRANCH  35  36
ENDBRANCH  34  35
ENDBRANCH  33  34
ENDBRANCH  32  33
ENDBRANCH  31  32
ENDBRANCH   1  31
TORSDOF 24
ENDMDL
