MODEL 1
REMARK VINA RESULT:     -11.1      0.000      0.000
REMARK SMILES Cc1ccc(Cl)cc1NC(=O)N[C@@](C)(C(=O)OCCOCCOCCOC(=O)c1ccc(-c2c3nc(c(-c4cc(S(=O)(=O)[O-])ccc4F)c4ccc([nH]4)c(-c4cc(S(=O)(=O)[O-])ccc4F)c4nc(c(-c5cc(S(=O)(=O)[O-])ccc5F)c5ccc2[nH]5)C=C4)C=C3)cc1)C(F)(F)F
REMARK SMILES IDX 22 1 21 2 20 3 19 4 18 5 17 6 15 7 16 8 13 9 14 10 12 11
REMARK SMILES IDX 9 12 10 13 11 15 8 17 1 18 2 19 3 20 4 21 7 22 5 23 6 24
REMARK SMILES IDX 92 25 93 26 94 27 95 28 23 29 24 30 25 31 26 32 27 33 28 34
REMARK SMILES IDX 29 35 30 36 91 37 31 38 90 39 32 40 33 41 34 42 84 43 35 44
REMARK SMILES IDX 89 45 83 46 85 47 36 48 88 49 82 50 81 51 37 53 69 54 49 55
REMARK SMILES IDX 68 56 50 57 53 58 67 59 86 60 51 61 52 62 66 64 87 65 54 66
REMARK SMILES IDX 38 67 39 68 47 69 40 70 46 71 48 72 45 73 41 74 42 75 43 76
REMARK SMILES IDX 44 77 70 78 71 79 79 80 72 81 78 82 80 83 77 84 73 85 74 86
REMARK SMILES IDX 75 87 76 88 55 89 56 90 64 91 57 92 63 93 65 94 62 95 58 96
REMARK SMILES IDX 59 97 60 98 61 99
REMARK H PARENT 9 14 12 16 85 52 53 63
REMARK Flexibility Score: inf
ROOT
ATOM      1  C   UNL A   1      36.877  21.922  24.979  1.00  0.00     0.188 C 
ENDROOT
BRANCH   1   2
ATOM      2  C   UNL A   1      36.927  22.249  23.472  1.00  0.00     0.188 C 
BRANCH   2   3
ATOM      3  O   UNL A   1      36.453  23.539  23.149  1.00  0.00    -0.376 OA
BRANCH   3   4
ATOM      4  C   UNL A   1      35.402  24.094  23.923  1.00  0.00     0.202 C 
BRANCH   4   5
ATOM      5  C   UNL A   1      34.296  25.008  23.350  1.00  0.00     0.261 C 
BRANCH   5   6
ATOM      6  O   UNL A   1      32.949  24.745  23.779  1.00  0.00    -0.461 OA
BRANCH   6   7
ATOM      7  C   UNL A   1      32.856  23.883  24.829  1.00  0.00     0.341 C 
ATOM      8  O   UNL A   1      33.460  24.071  25.882  1.00  0.00    -0.249 OA
BRANCH   7   9
ATOM      9  C   UNL A   1      31.693  22.861  24.677  1.00  0.00     0.232 C 
ATOM     10  C   UNL A   1      30.997  23.272  23.366  1.00  0.00     0.058 C 
BRANCH   9  11
ATOM     11  N   UNL A   1      30.618  22.927  25.731  1.00  0.00    -0.314 N 
ATOM     12  N   UNL A   1      30.085  25.107  26.672  1.00  0.00    -0.308 N 
ATOM     13  C   UNL A   1      30.093  23.769  26.627  1.00  0.00     0.320 C 
ATOM     14  H   UNL A   1      29.533  25.420  27.425  1.00  0.00     0.171 HD
ATOM     15  O   UNL A   1      29.411  23.208  27.498  1.00  0.00    -0.248 OA
ATOM     16  H   UNL A   1      30.146  22.064  25.773  1.00  0.00     0.166 HD
BRANCH  12  17
ATOM     17  C   UNL A   1      30.622  26.201  25.975  1.00  0.00     0.047 A 
ATOM     18  C   UNL A   1      28.699  26.188  24.244  1.00  0.00     0.046 C 
ATOM     19  C   UNL A   1      30.069  26.583  24.730  1.00  0.00    -0.027 A 
ATOM     20  C   UNL A   1      30.771  27.491  23.912  1.00  0.00     0.007 A 
ATOM     21  C   UNL A   1      31.915  28.128  24.374  1.00  0.00     0.021 A 
ATOM     22  C   UNL A   1      31.651  26.979  26.490  1.00  0.00     0.047 A 
ATOM     23  C   UNL A   1      32.293  27.936  25.692  1.00  0.00     0.043 A 
ATOM     24  Cl  UNL A   1      33.581  28.877  26.348  1.00  0.00    -0.084 Cl
ENDBRANCH  12  17
ENDBRANCH   9  11
BRANCH   9  25
ATOM     25  C   UNL A   1      32.528  21.562  24.602  1.00  0.00     0.422 C 
ATOM     26  F   UNL A   1      32.965  21.173  25.819  1.00  0.00    -0.168 F 
ATOM     27  F   UNL A   1      31.822  20.564  24.039  1.00  0.00    -0.168 F 
ATOM     28  F   UNL A   1      33.653  21.648  23.847  1.00  0.00    -0.168 F 
ENDBRANCH   9  25
ENDBRANCH   7   9
ENDBRANCH   6   7
ENDBRANCH   5   6
ENDBRANCH   4   5
ENDBRANCH   3   4
ENDBRANCH   2   3
ENDBRANCH   1   2
BRANCH   1  29
ATOM     29  O   UNL A   1      36.811  20.575  25.423  1.00  0.00    -0.376 OA
BRANCH  29  30
ATOM     30  C   UNL A   1      37.743  19.645  24.887  1.00  0.00     0.202 C 
BRANCH  30  31
ATOM     31  C   UNL A   1      39.003  19.240  25.676  1.00  0.00     0.261 C 
BRANCH  31  32
ATOM     32  O   UNL A   1      40.095  20.177  25.661  1.00  0.00    -0.460 OA
BRANCH  32  33
ATOM     33  C   UNL A   1      40.808  20.254  26.813  1.00  0.00     0.338 C 
ATOM     34  O   UNL A   1      41.428  19.340  27.353  1.00  0.00    -0.246 OA
BRANCH  33  35
ATOM     35  C   UNL A   1      40.928  21.661  27.245  1.00  0.00     0.060 A 
ATOM     36  C   UNL A   1      40.212  22.643  26.544  1.00  0.00     0.016 A 
ATOM     37  C   UNL A   1      41.785  22.027  28.282  1.00  0.00     0.016 A 
ATOM     38  C   UNL A   1      40.364  23.988  26.870  1.00  0.00     0.010 A 
ATOM     39  C   UNL A   1      41.963  23.386  28.580  1.00  0.00     0.010 A 
ATOM     40  C   UNL A   1      41.272  24.376  27.858  1.00  0.00    -0.014 A 
BRANCH  40  41
ATOM     41  C   UNL A   1      41.654  25.808  27.978  1.00  0.00     0.031 A 
ATOM     42  C   UNL A   1      42.967  26.244  27.384  1.00  0.00     0.074 A 
ATOM     43  C   UNL A   1      40.853  26.712  28.570  1.00  0.00     0.049 A 
ATOM     44  N   UNL A   1      43.569  27.402  27.454  1.00  0.00    -0.248 NA
ATOM     45  C   UNL A   1      43.696  25.229  26.608  1.00  0.00     0.031 C 
ATOM     46  C   UNL A   1      39.525  26.439  29.113  1.00  0.00     0.029 A 
ATOM     47  N   UNL A   1      41.051  28.049  28.824  1.00  0.00    -0.354 N 
ATOM     48  C   UNL A   1      44.762  27.250  26.753  1.00  0.00     0.074 A 
ATOM     49  C   UNL A   1      44.799  25.883  26.278  1.00  0.00     0.031 C 
ATOM     50  C   UNL A   1      39.037  27.568  29.658  1.00  0.00     0.029 A 
ATOM     51  C   UNL A   1      40.035  28.632  29.547  1.00  0.00     0.049 A 
ATOM     52  H   UNL A   1      41.846  28.543  28.517  1.00  0.00     0.167 HD
ATOM     53  C   UNL A   1      45.739  28.164  26.533  1.00  0.00     0.034 A 
ATOM     54  C   UNL A   1      39.942  29.865  30.090  1.00  0.00     0.034 A 
ATOM     55  C   UNL A   1      45.697  29.520  27.023  1.00  0.00     0.049 A 
ATOM     56  C   UNL A   1      41.088  30.838  29.917  1.00  0.00     0.074 A 
ATOM     57  C   UNL A   1      46.634  30.525  26.853  1.00  0.00     0.029 A 
ATOM     58  N   UNL A   1      44.674  30.060  27.792  1.00  0.00    -0.354 N 
ATOM     59  N   UNL A   1      42.220  30.680  29.267  1.00  0.00    -0.248 NA
ATOM     60  C   UNL A   1      40.945  32.156  30.554  1.00  0.00     0.031 C 
ATOM     61  C   UNL A   1      46.219  31.641  27.586  1.00  0.00     0.029 A 
ATOM     62  C   UNL A   1      44.976  31.369  28.135  1.00  0.00     0.049 A 
ATOM     63  H   UNL A   1      43.854  29.582  28.055  1.00  0.00     0.167 HD
ATOM     64  C   UNL A   1      42.904  31.889  29.393  1.00  0.00     0.074 A 
ATOM     65  C   UNL A   1      42.054  32.769  30.165  1.00  0.00     0.031 C 
ATOM     66  C   UNL A   1      44.124  32.241  28.911  1.00  0.00     0.034 A 
BRANCH  53  67
ATOM     67  C   UNL A   1      46.968  27.699  25.793  1.00  0.00     0.023 A 
ATOM     68  C   UNL A   1      47.187  28.010  24.439  1.00  0.00     0.031 A 
ATOM     69  C   UNL A   1      47.927  26.905  26.450  1.00  0.00     0.131 A 
ATOM     70  C   UNL A   1      48.300  27.476  23.772  1.00  0.00     0.055 A 
ATOM     71  C   UNL A   1      49.072  26.445  25.801  1.00  0.00     0.041 A 
ATOM     72  F   UNL A   1      47.757  26.554  27.735  1.00  0.00    -0.206 F 
ATOM     73  C   UNL A   1      49.257  26.718  24.449  1.00  0.00     0.022 A 
BRANCH  70  74
ATOM     74  S   UNL A   1      48.402  27.665  21.971  1.00  0.00     0.124 S 
ATOM     75  O   UNL A   1      47.094  28.236  21.660  1.00  0.00    -0.237 OA
ATOM     76  O   UNL A   1      49.543  28.559  21.813  1.00  0.00    -0.237 OA
ATOM     77  O   UNL A   1      48.608  26.299  21.494  1.00  0.00    -0.744 OA
ENDBRANCH  70  74
ENDBRANCH  53  67
BRANCH  54  78
ATOM     78  C   UNL A   1      38.753  30.247  30.911  1.00  0.00     0.023 A 
ATOM     79  C   UNL A   1      37.669  30.940  30.347  1.00  0.00     0.031 A 
ATOM     80  C   UNL A   1      38.721  29.994  32.295  1.00  0.00     0.131 A 
ATOM     81  C   UNL A   1      36.628  31.400  31.169  1.00  0.00     0.055 A 
ATOM     82  C   UNL A   1      37.652  30.397  33.097  1.00  0.00     0.041 A 
ATOM     83  F   UNL A   1      39.734  29.346  32.891  1.00  0.00    -0.206 F 
ATOM     84  C   UNL A   1      36.604  31.120  32.537  1.00  0.00     0.022 A 
BRANCH  81  85
ATOM     85  S   UNL A   1      35.353  32.467  30.441  1.00  0.00     0.124 S 
ATOM     86  O   UNL A   1      36.096  33.700  30.214  1.00  0.00    -0.237 OA
ATOM     87  O   UNL A   1      34.977  31.714  29.249  1.00  0.00    -0.237 OA
ATOM     88  O   UNL A   1      34.331  32.534  31.482  1.00  0.00    -0.744 OA
ENDBRANCH  81  85
ENDBRANCH  54  78
BRANCH  66  89
ATOM     89  C   UNL A   1      44.589  33.660  29.153  1.00  0.00     0.023 A 
ATOM     90  C   UNL A   1      44.197  34.727  28.325  1.00  0.00     0.031 A 
ATOM     91  C   UNL A   1      45.439  33.946  30.238  1.00  0.00     0.131 A 
ATOM     92  C   UNL A   1      44.697  36.018  28.564  1.00  0.00     0.055 A 
ATOM     93  C   UNL A   1      45.881  35.243  30.508  1.00  0.00     0.041 A 
ATOM     94  F   UNL A   1      45.850  32.968  31.061  1.00  0.00    -0.206 F 
ATOM     95  C   UNL A   1      45.521  36.286  29.660  1.00  0.00     0.022 A 
BRANCH  92  96
ATOM     96  S   UNL A   1      44.334  37.331  27.365  1.00  0.00     0.124 S 
ATOM     97  O   UNL A   1      44.071  38.472  28.236  1.00  0.00    -0.237 OA
ATOM     98  O   UNL A   1      45.568  37.394  26.588  1.00  0.00    -0.237 OA
ATOM     99  O   UNL A   1      43.171  36.824  26.640  1.00  0.00    -0.744 OA
ENDBRANCH  92  96
ENDBRANCH  66  89
ENDBRANCH  40  41
ENDBRANCH  33  35
ENDBRANCH  32  33
ENDBRANCH  31  32
ENDBRANCH  30  31
ENDBRANCH  29  30
ENDBRANCH   1  29
TORSDOF 23
ENDMDL
MODEL 2
REMARK VINA RESULT:     -10.4      1.865      2.120
REMARK SMILES Cc1ccc(Cl)cc1NC(=O)N[C@@](C)(C(=O)OCCOCCOCCOC(=O)c1ccc(-c2c3nc(c(-c4cc(S(=O)(=O)[O-])ccc4F)c4ccc([nH]4)c(-c4cc(S(=O)(=O)[O-])ccc4F)c4nc(c(-c5cc(S(=O)(=O)[O-])ccc5F)c5ccc2[nH]5)C=C4)C=C3)cc1)C(F)(F)F
REMARK SMILES IDX 22 1 21 2 20 3 19 4 18 5 17 6 15 7 16 8 13 9 14 10 12 11
REMARK SMILES IDX 9 12 10 13 11 15 8 17 1 18 2 19 3 20 4 21 7 22 5 23 6 24
REMARK SMILES IDX 92 25 93 26 94 27 95 28 23 29 24 30 25 31 26 32 27 33 28 34
REMARK SMILES IDX 29 35 30 36 91 37 31 38 90 39 32 40 33 41 34 42 84 43 35 44
REMARK SMILES IDX 89 45 83 46 85 47 36 48 88 49 82 50 81 51 37 53 69 54 49 55
REMARK SMILES IDX 68 56 50 57 53 58 67 59 86 60 51 61 52 62 66 64 87 65 54 66
REMARK SMILES IDX 38 67 39 68 47 69 40 70 46 71 48 72 45 73 41 74 42 75 43 76
REMARK SMILES IDX 44 77 70 78 71 79 79 80 72 81 78 82 80 83 77 84 73 85 74 86
REMARK SMILES IDX 75 87 76 88 55 89 56 90 64 91 57 92 63 93 65 94 62 95 58 96
REMARK SMILES IDX 59 97 60 98 61 99
REMARK H PARENT 9 14 12 16 85 52 53 63
REMARK Flexibility Score: inf
ROOT
ATOM      1  C   UNL A   1      37.129  21.956  24.817  1.00  0.00     0.188 C 
ENDROOT
BRANCH   1   2
ATOM      2  C   UNL A   1      36.986  22.238  23.307  1.00  0.00     0.188 C 
BRANCH   2   3
ATOM      3  O   UNL A   1      36.244  23.401  23.008  1.00  0.00    -0.376 OA
BRANCH   3   4
ATOM      4  C   UNL A   1      35.347  23.909  23.983  1.00  0.00     0.202 C 
BRANCH   4   5
ATOM      5  C   UNL A   1      34.326  25.036  23.714  1.00  0.00     0.261 C 
BRANCH   5   6
ATOM      6  O   UNL A   1      32.980  24.816  24.169  1.00  0.00    -0.461 OA
BRANCH   6   7
ATOM      7  C   UNL A   1      32.869  23.874  25.146  1.00  0.00     0.341 C 
ATOM      8  O   UNL A   1      33.450  23.980  26.224  1.00  0.00    -0.249 OA
BRANCH   7   9
ATOM      9  C   UNL A   1      31.713  22.864  24.890  1.00  0.00     0.232 C 
ATOM     10  C   UNL A   1      31.123  23.299  23.536  1.00  0.00     0.058 C 
BRANCH   9  11
ATOM     11  N   UNL A   1      30.561  22.923  25.859  1.00  0.00    -0.314 N 
ATOM     12  N   UNL A   1      29.826  25.116  26.613  1.00  0.00    -0.308 N 
ATOM     13  C   UNL A   1      29.920  23.781  26.658  1.00  0.00     0.320 C 
ATOM     14  H   UNL A   1      29.202  25.438  27.304  1.00  0.00     0.171 HD
ATOM     15  O   UNL A   1      29.212  23.232  27.516  1.00  0.00    -0.248 OA
ATOM     16  H   UNL A   1      30.142  22.034  25.926  1.00  0.00     0.166 HD
BRANCH  12  17
ATOM     17  C   UNL A   1      30.344  26.198  25.884  1.00  0.00     0.047 A 
ATOM     18  C   UNL A   1      28.409  26.116  24.168  1.00  0.00     0.046 C 
ATOM     19  C   UNL A   1      29.778  26.541  24.634  1.00  0.00    -0.027 A 
ATOM     20  C   UNL A   1      30.462  27.436  23.788  1.00  0.00     0.007 A 
ATOM     21  C   UNL A   1      31.601  28.099  24.225  1.00  0.00     0.021 A 
ATOM     22  C   UNL A   1      31.366  27.002  26.371  1.00  0.00     0.047 A 
ATOM     23  C   UNL A   1      31.990  27.946  25.545  1.00  0.00     0.043 A 
ATOM     24  Cl  UNL A   1      33.271  28.921  26.166  1.00  0.00    -0.084 Cl
ENDBRANCH  12  17
ENDBRANCH   9  11
BRANCH   9  25
ATOM     25  C   UNL A   1      32.543  21.559  24.859  1.00  0.00     0.422 C 
ATOM     26  F   UNL A   1      31.757  20.464  24.766  1.00  0.00    -0.168 F 
ATOM     27  F   UNL A   1      33.420  21.567  23.839  1.00  0.00    -0.168 F 
ATOM     28  F   UNL A   1      33.305  21.338  25.960  1.00  0.00    -0.168 F 
ENDBRANCH   9  25
ENDBRANCH   7   9
ENDBRANCH   6   7
ENDBRANCH   5   6
ENDBRANCH   4   5
ENDBRANCH   3   4
ENDBRANCH   2   3
ENDBRANCH   1   2
BRANCH   1  29
ATOM     29  O   UNL A   1      36.876  20.660  25.337  1.00  0.00    -0.376 OA
BRANCH  29  30
ATOM     30  C   UNL A   1      37.699  19.588  24.895  1.00  0.00     0.202 C 
BRANCH  30  31
ATOM     31  C   UNL A   1      39.002  19.230  25.635  1.00  0.00     0.261 C 
BRANCH  31  32
ATOM     32  O   UNL A   1      40.021  20.246  25.662  1.00  0.00    -0.460 OA
BRANCH  32  33
ATOM     33  C   UNL A   1      40.754  20.302  26.802  1.00  0.00     0.338 C 
ATOM     34  O   UNL A   1      41.372  19.375  27.322  1.00  0.00    -0.246 OA
BRANCH  33  35
ATOM     35  C   UNL A   1      40.898  21.702  27.248  1.00  0.00     0.060 A 
ATOM     36  C   UNL A   1      40.215  22.705  26.544  1.00  0.00     0.016 A 
ATOM     37  C   UNL A   1      41.746  22.041  28.302  1.00  0.00     0.016 A 
ATOM     38  C   UNL A   1      40.391  24.044  26.883  1.00  0.00     0.010 A 
ATOM     39  C   UNL A   1      41.948  23.393  28.614  1.00  0.00     0.010 A 
ATOM     40  C   UNL A   1      41.291  24.404  27.889  1.00  0.00    -0.014 A 
BRANCH  40  41
ATOM     41  C   UNL A   1      41.703  25.826  28.027  1.00  0.00     0.031 A 
ATOM     42  C   UNL A   1      43.046  26.232  27.481  1.00  0.00     0.074 A 
ATOM     43  C   UNL A   1      40.903  26.748  28.593  1.00  0.00     0.049 A 
ATOM     44  N   UNL A   1      43.672  27.375  27.576  1.00  0.00    -0.248 NA
ATOM     45  C   UNL A   1      43.778  25.201  26.728  1.00  0.00     0.031 C 
ATOM     46  C   UNL A   1      39.550  26.505  29.087  1.00  0.00     0.029 A 
ATOM     47  N   UNL A   1      41.123  28.079  28.857  1.00  0.00    -0.354 N 
ATOM     48  C   UNL A   1      44.886  27.197  26.918  1.00  0.00     0.074 A 
ATOM     49  C   UNL A   1      44.907  25.829  26.441  1.00  0.00     0.031 C 
ATOM     50  C   UNL A   1      39.070  27.644  29.618  1.00  0.00     0.029 A 
ATOM     51  C   UNL A   1      40.096  28.684  29.546  1.00  0.00     0.049 A 
ATOM     52  H   UNL A   1      41.940  28.555  28.581  1.00  0.00     0.167 HD
ATOM     53  C   UNL A   1      45.892  28.087  26.736  1.00  0.00     0.034 A 
ATOM     54  C   UNL A   1      40.013  29.918  30.089  1.00  0.00     0.034 A 
ATOM     55  C   UNL A   1      45.865  29.443  27.228  1.00  0.00     0.049 A 
ATOM     56  C   UNL A   1      41.188  30.864  29.960  1.00  0.00     0.074 A 
ATOM     57  C   UNL A   1      46.831  30.425  27.095  1.00  0.00     0.029 A 
ATOM     58  N   UNL A   1      44.828  30.005  27.962  1.00  0.00    -0.354 N 
ATOM     59  N   UNL A   1      42.338  30.680  29.350  1.00  0.00    -0.248 NA
ATOM     60  C   UNL A   1      41.054  32.183  30.595  1.00  0.00     0.031 C 
ATOM     61  C   UNL A   1      46.416  31.549  27.816  1.00  0.00     0.029 A 
ATOM     62  C   UNL A   1      45.148  31.306  28.319  1.00  0.00     0.049 A 
ATOM     63  H   UNL A   1      43.988  29.546  28.194  1.00  0.00     0.167 HD
ATOM     64  C   UNL A   1      43.046  31.872  29.504  1.00  0.00     0.074 A 
ATOM     65  C   UNL A   1      42.190  32.771  30.248  1.00  0.00     0.031 C 
ATOM     66  C   UNL A   1      44.291  32.196  29.067  1.00  0.00     0.034 A 
BRANCH  53  67
ATOM     67  C   UNL A   1      47.135  27.594  26.039  1.00  0.00     0.023 A 
ATOM     68  C   UNL A   1      48.238  27.087  26.749  1.00  0.00     0.031 A 
ATOM     69  C   UNL A   1      47.228  27.657  24.637  1.00  0.00     0.131 A 
ATOM     70  C   UNL A   1      49.406  26.727  26.060  1.00  0.00     0.055 A 
ATOM     71  C   UNL A   1      48.362  27.222  23.952  1.00  0.00     0.041 A 
ATOM     72  F   UNL A   1      46.217  28.157  23.908  1.00  0.00    -0.206 F 
ATOM     73  C   UNL A   1      49.467  26.766  24.665  1.00  0.00     0.022 A 
BRANCH  70  74
ATOM     74  S   UNL A   1      50.896  26.345  27.022  1.00  0.00     0.124 S 
ATOM     75  O   UNL A   1      50.958  24.890  26.903  1.00  0.00    -0.237 OA
ATOM     76  O   UNL A   1      51.929  27.088  26.311  1.00  0.00    -0.237 OA
ATOM     77  O   UNL A   1      50.577  26.841  28.359  1.00  0.00    -0.744 OA
ENDBRANCH  70  74
ENDBRANCH  53  67
BRANCH  54  78
ATOM     78  C   UNL A   1      38.805  30.326  30.868  1.00  0.00     0.023 A 
ATOM     79  C   UNL A   1      37.776  31.078  30.278  1.00  0.00     0.031 A 
ATOM     80  C   UNL A   1      38.702  30.038  32.242  1.00  0.00     0.131 A 
ATOM     81  C   UNL A   1      36.718  31.558  31.067  1.00  0.00     0.055 A 
ATOM     82  C   UNL A   1      37.615  30.464  33.008  1.00  0.00     0.041 A 
ATOM     83  F   UNL A   1      39.661  29.334  32.862  1.00  0.00    -0.206 F 
ATOM     84  C   UNL A   1      36.622  31.243  32.423  1.00  0.00     0.022 A 
BRANCH  81  85
ATOM     85  S   UNL A   1      35.520  32.695  30.314  1.00  0.00     0.124 S 
ATOM     86  O   UNL A   1      36.188  33.980  30.482  1.00  0.00    -0.237 OA
ATOM     87  O   UNL A   1      35.441  32.186  28.949  1.00  0.00    -0.237 OA
ATOM     88  O   UNL A   1      34.317  32.504  31.120  1.00  0.00    -0.744 OA
ENDBRANCH  81  85
ENDBRANCH  54  78
BRANCH  66  89
ATOM     89  C   UNL A   1      44.780  33.603  29.330  1.00  0.00     0.023 A 
ATOM     90  C   UNL A   1      45.528  33.933  30.474  1.00  0.00     0.031 A 
ATOM     91  C   UNL A   1      44.493  34.630  28.412  1.00  0.00     0.131 A 
ATOM     92  C   UNL A   1      45.916  35.265  30.696  1.00  0.00     0.055 A 
ATOM     93  C   UNL A   1      44.938  35.940  28.606  1.00  0.00     0.041 A 
ATOM     94  F   UNL A   1      43.780  34.377  27.303  1.00  0.00    -0.206 F 
ATOM     95  C   UNL A   1      45.642  36.266  29.760  1.00  0.00     0.022 A 
BRANCH  92  96
ATOM     96  S   UNL A   1      46.704  35.694  32.273  1.00  0.00     0.124 S 
ATOM     97  O   UNL A   1      46.524  34.470  33.046  1.00  0.00    -0.237 OA
ATOM     98  O   UNL A   1      48.073  35.996  31.867  1.00  0.00    -0.237 OA
ATOM     99  O   UNL A   1      45.932  36.843  32.743  1.00  0.00    -0.744 OA
ENDBRANCH  92  96
ENDBRANCH  66  89
ENDBRANCH  40  41
ENDBRANCH  33  35
ENDBRANCH  32  33
ENDBRANCH  31  32
ENDBRANCH  30  31
ENDBRANCH  29  30
ENDBRANCH   1  29
TORSDOF 23
ENDMDL
MODEL 3
REMARK VINA RESULT:     -10.2      2.662      3.428
REMARK SMILES Cc1ccc(Cl)cc1NC(=O)N[C@@](C)(C(=O)OCCOCCOCCOC(=O)c1ccc(-c2c3nc(c(-c4cc(S(=O)(=O)[O-])ccc4F)c4ccc([nH]4)c(-c4cc(S(=O)(=O)[O-])ccc4F)c4nc(c(-c5cc(S(=O)(=O)[O-])ccc5F)c5ccc2[nH]5)C=C4)C=C3)cc1)C(F)(F)F
REMARK SMILES IDX 22 1 21 2 20 3 19 4 18 5 17 6 15 7 16 8 13 9 14 10 12 11
REMARK SMILES IDX 9 12 10 13 11 15 8 17 1 18 2 19 3 20 4 21 7 22 5 23 6 24
REMARK SMILES IDX 92 25 93 26 94 27 95 28 23 29 24 30 25 31 26 32 27 33 28 34
REMARK SMILES IDX 29 35 30 36 91 37 31 38 90 39 32 40 33 41 34 42 84 43 35 44
REMARK SMILES IDX 89 45 83 46 85 47 36 48 88 49 82 50 81 51 37 53 69 54 49 55
REMARK SMILES IDX 68 56 50 57 53 58 67 59 86 60 51 61 52 62 66 64 87 65 54 66
REMARK SMILES IDX 38 67 39 68 47 69 40 70 46 71 48 72 45 73 41 74 42 75 43 76
REMARK SMILES IDX 44 77 70 78 71 79 79 80 72 81 78 82 80 83 77 84 73 85 74 86
REMARK SMILES IDX 75 87 76 88 55 89 56 90 64 91 57 92 63 93 65 94 62 95 58 96
REMARK SMILES IDX 59 97 60 98 61 99
REMARK H PARENT 9 14 12 16 85 52 53 63
REMARK Flexibility Score: inf
ROOT
ATOM      1  C   UNL A   1      36.830  21.926  25.365  1.00  0.00     0.188 C 
ENDROOT
BRANCH   1   2
ATOM      2  C   UNL A   1      35.917  22.883  24.571  1.00  0.00     0.188 C 
BRANCH   2   3
ATOM      3  O   UNL A   1      34.813  22.248  23.962  1.00  0.00    -0.376 OA
BRANCH   3   4
ATOM      4  C   UNL A   1      34.171  21.186  24.648  1.00  0.00     0.202 C 
BRANCH   4   5
ATOM      5  C   UNL A   1      32.649  20.922  24.603  1.00  0.00     0.261 C 
BRANCH   5   6
ATOM      6  O   UNL A   1      31.831  21.937  23.995  1.00  0.00    -0.461 OA
BRANCH   6   7
ATOM      7  C   UNL A   1      31.419  22.909  24.856  1.00  0.00     0.341 C 
ATOM      8  O   UNL A   1      31.033  22.653  25.994  1.00  0.00    -0.249 OA
BRANCH   7   9
ATOM      9  C   UNL A   1      31.790  24.343  24.378  1.00  0.00     0.232 C 
ATOM     10  C   UNL A   1      30.432  25.016  24.110  1.00  0.00     0.058 C 
BRANCH   9  11
ATOM     11  N   UNL A   1      32.537  24.428  23.072  1.00  0.00    -0.314 N 
ATOM     12  N   UNL A   1      32.382  26.503  21.812  1.00  0.00    -0.308 N 
ATOM     13  C   UNL A   1      32.648  25.203  21.989  1.00  0.00     0.320 C 
ATOM     14  H   UNL A   1      32.658  26.788  20.910  1.00  0.00     0.171 HD
ATOM     15  O   UNL A   1      33.190  24.640  21.026  1.00  0.00    -0.248 OA
ATOM     16  H   UNL A   1      33.144  23.657  22.990  1.00  0.00     0.166 HD
BRANCH  12  17
ATOM     17  C   UNL A   1      31.830  27.585  22.516  1.00  0.00     0.047 A 
ATOM     18  C   UNL A   1      34.151  28.383  23.336  1.00  0.00     0.046 C 
ATOM     19  C   UNL A   1      32.645  28.351  23.382  1.00  0.00    -0.027 A 
ATOM     20  C   UNL A   1      32.041  29.248  24.285  1.00  0.00     0.007 A 
ATOM     21  C   UNL A   1      30.676  29.501  24.233  1.00  0.00     0.021 A 
ATOM     22  C   UNL A   1      30.510  27.984  22.352  1.00  0.00     0.047 A 
ATOM     23  C   UNL A   1      29.938  28.937  23.206  1.00  0.00     0.043 A 
ATOM     24  Cl  UNL A   1      28.291  29.403  22.995  1.00  0.00    -0.084 Cl
ENDBRANCH  12  17
ENDBRANCH   9  11
BRANCH   9  25
ATOM     25  C   UNL A   1      32.528  24.830  25.647  1.00  0.00     0.422 C 
ATOM     26  F   UNL A   1      33.272  23.850  26.205  1.00  0.00    -0.168 F 
ATOM     27  F   UNL A   1      33.314  25.888  25.374  1.00  0.00    -0.168 F 
ATOM     28  F   UNL A   1      31.720  25.258  26.650  1.00  0.00    -0.168 F 
ENDBRANCH   9  25
ENDBRANCH   7   9
ENDBRANCH   6   7
ENDBRANCH   5   6
ENDBRANCH   4   5
ENDBRANCH   3   4
ENDBRANCH   2   3
ENDBRANCH   1   2
BRANCH   1  29
ATOM     29  O   UNL A   1      37.891  21.238  24.719  1.00  0.00    -0.376 OA
BRANCH  29  30
ATOM     30  C   UNL A   1      37.996  19.834  24.914  1.00  0.00     0.202 C 
BRANCH  30  31
ATOM     31  C   UNL A   1      39.207  19.222  25.645  1.00  0.00     0.261 C 
BRANCH  31  32
ATOM     32  O   UNL A   1      40.031  20.135  26.391  1.00  0.00    -0.460 OA
BRANCH  32  33
ATOM     33  C   UNL A   1      41.368  19.979  26.223  1.00  0.00     0.338 C 
ATOM     34  O   UNL A   1      41.942  18.969  25.823  1.00  0.00    -0.246 OA
BRANCH  33  35
ATOM     35  C   UNL A   1      42.057  21.275  26.382  1.00  0.00     0.060 A 
ATOM     36  C   UNL A   1      42.300  21.752  27.679  1.00  0.00     0.016 A 
ATOM     37  C   UNL A   1      42.402  22.051  25.276  1.00  0.00     0.016 A 
ATOM     38  C   UNL A   1      42.873  23.007  27.869  1.00  0.00     0.010 A 
ATOM     39  C   UNL A   1      42.943  23.329  25.474  1.00  0.00     0.010 A 
ATOM     40  C   UNL A   1      43.159  23.825  26.773  1.00  0.00    -0.014 A 
BRANCH  40  41
ATOM     41  C   UNL A   1      43.469  25.262  26.995  1.00  0.00     0.031 A 
ATOM     42  C   UNL A   1      44.853  25.750  26.656  1.00  0.00     0.074 A 
ATOM     43  C   UNL A   1      42.548  26.127  27.457  1.00  0.00     0.049 A 
ATOM     44  N   UNL A   1      45.396  26.921  26.862  1.00  0.00    -0.248 NA
ATOM     45  C   UNL A   1      45.739  24.778  25.998  1.00  0.00     0.031 C 
ATOM     46  C   UNL A   1      41.153  25.803  27.745  1.00  0.00     0.029 A 
ATOM     47  N   UNL A   1      42.656  27.460  27.774  1.00  0.00    -0.354 N 
ATOM     48  C   UNL A   1      46.699  26.821  26.382  1.00  0.00     0.074 A 
ATOM     49  C   UNL A   1      46.863  25.470  25.888  1.00  0.00     0.031 C 
ATOM     50  C   UNL A   1      40.542  26.902  28.222  1.00  0.00     0.029 A 
ATOM     51  C   UNL A   1      41.510  27.995  28.318  1.00  0.00     0.049 A 
ATOM     52  H   UNL A   1      43.477  27.984  27.627  1.00  0.00     0.167 HD
ATOM     53  C   UNL A   1      47.671  27.766  26.363  1.00  0.00     0.034 A 
ATOM     54  C   UNL A   1      41.283  29.208  28.866  1.00  0.00     0.034 A 
ATOM     55  C   UNL A   1      47.501  29.105  26.871  1.00  0.00     0.049 A 
ATOM     56  C   UNL A   1      42.411  30.215  28.925  1.00  0.00     0.074 A 
ATOM     57  C   UNL A   1      48.421  30.139  26.896  1.00  0.00     0.029 A 
ATOM     58  N   UNL A   1      46.341  29.595  27.457  1.00  0.00    -0.354 N 
ATOM     59  N   UNL A   1      43.645  30.107  28.484  1.00  0.00    -0.248 NA
ATOM     60  C   UNL A   1      42.116  31.509  29.558  1.00  0.00     0.031 C 
ATOM     61  C   UNL A   1      47.848  31.221  27.570  1.00  0.00     0.029 A 
ATOM     62  C   UNL A   1      46.536  30.901  27.881  1.00  0.00     0.049 A 
ATOM     63  H   UNL A   1      45.502  29.088  27.557  1.00  0.00     0.167 HD
ATOM     64  C   UNL A   1      44.258  31.328  28.761  1.00  0.00     0.074 A 
ATOM     65  C   UNL A   1      43.257  32.163  29.389  1.00  0.00     0.031 C 
ATOM     66  C   UNL A   1      45.533  31.727  28.513  1.00  0.00     0.034 A 
BRANCH  53  67
ATOM     67  C   UNL A   1      49.026  27.355  25.844  1.00  0.00     0.023 A 
ATOM     68  C   UNL A   1      50.074  26.980  26.704  1.00  0.00     0.031 A 
ATOM     69  C   UNL A   1      49.283  27.364  24.460  1.00  0.00     0.131 A 
ATOM     70  C   UNL A   1      51.342  26.695  26.177  1.00  0.00     0.055 A 
ATOM     71  C   UNL A   1      50.523  27.002  23.937  1.00  0.00     0.041 A 
ATOM     72  F   UNL A   1      48.328  27.739  23.593  1.00  0.00    -0.206 F 
ATOM     73  C   UNL A   1      51.567  26.678  24.799  1.00  0.00     0.022 A 
BRANCH  70  74
ATOM     74  S   UNL A   1      52.731  26.490  27.325  1.00  0.00     0.124 S 
ATOM     75  O   UNL A   1      53.302  25.224  26.873  1.00  0.00    -0.237 OA
ATOM     76  O   UNL A   1      53.532  27.680  27.065  1.00  0.00    -0.237 OA
ATOM     77  O   UNL A   1      52.088  26.443  28.636  1.00  0.00    -0.744 OA
ENDBRANCH  70  74
ENDBRANCH  53  67
BRANCH  54  78
ATOM     78  C   UNL A   1      39.956  29.534  29.471  1.00  0.00     0.023 A 
ATOM     79  C   UNL A   1      39.761  29.505  30.861  1.00  0.00     0.031 A 
ATOM     80  C   UNL A   1      38.839  29.800  28.657  1.00  0.00     0.131 A 
ATOM     81  C   UNL A   1      38.473  29.687  31.392  1.00  0.00     0.055 A 
ATOM     82  C   UNL A   1      37.573  30.044  29.193  1.00  0.00     0.041 A 
ATOM     83  F   UNL A   1      38.963  29.829  27.321  1.00  0.00    -0.206 F 
ATOM     84  C   UNL A   1      37.382  29.971  30.569  1.00  0.00     0.022 A 
BRANCH  81  85
ATOM     85  S   UNL A   1      38.225  29.438  33.172  1.00  0.00     0.124 S 
ATOM     86  O   UNL A   1      37.315  28.299  33.187  1.00  0.00    -0.237 OA
ATOM     87  O   UNL A   1      39.585  29.179  33.632  1.00  0.00    -0.237 OA
ATOM     88  O   UNL A   1      37.649  30.705  33.616  1.00  0.00    -0.744 OA
ENDBRANCH  81  85
ENDBRANCH  54  78
BRANCH  66  89
ATOM     89  C   UNL A   1      45.903  33.150  28.870  1.00  0.00     0.023 A 
ATOM     90  C   UNL A   1      45.705  34.219  27.979  1.00  0.00     0.031 A 
ATOM     91  C   UNL A   1      46.461  33.436  30.129  1.00  0.00     0.131 A 
ATOM     92  C   UNL A   1      46.112  35.514  28.339  1.00  0.00     0.055 A 
ATOM     93  C   UNL A   1      46.804  34.736  30.507  1.00  0.00     0.041 A 
ATOM     94  F   UNL A   1      46.677  32.455  31.021  1.00  0.00    -0.206 F 
ATOM     95  C   UNL A   1      46.642  35.782  29.604  1.00  0.00     0.022 A 
BRANCH  92  96
ATOM     96  S   UNL A   1      46.028  36.834  27.097  1.00  0.00     0.124 S 
ATOM     97  O   UNL A   1      46.687  36.216  25.952  1.00  0.00    -0.237 OA
ATOM     98  O   UNL A   1      44.590  37.049  26.965  1.00  0.00    -0.237 OA
ATOM     99  O   UNL A   1      46.764  37.936  27.715  1.00  0.00    -0.744 OA
ENDBRANCH  92  96
ENDBRANCH  66  89
ENDBRANCH  40  41
ENDBRANCH  33  35
ENDBRANCH  32  33
ENDBRANCH  31  32
ENDBRANCH  30  31
ENDBRANCH  29  30
ENDBRANCH   1  29
TORSDOF 23
ENDMDL
