MODEL 1
REMARK VINA RESULT:     -11.1      0.000      0.000
REMARK SMILES Cc1ccc([C@@]23C[C@@H]4C[C@@H](C[C@@](C(=O)N5CCC(C(=O)OCCOCCOCCOC(=O)c6ccc(-c7c8nc(c(-c9cc(S(=O)(=O)[O-])ccc9F)c9ccc([nH]9)c(-c9cc(S(=O)(=O)[O-])ccc9F)c9nc(c(-c%10cc(S(=O)(=O)[O-])ccc%10F)c%10ccc7[nH]%10)C=C9)C=C8)cc6)CC5)(C4)C2)C3)cc1
REMARK SMILES IDX 26 1 25 2 24 3 23 4 22 5 21 6 19 7 20 8 18 9 13 10 14 11
REMARK SMILES IDX 15 12 16 13 97 14 17 15 96 16 12 17 6 18 7 19 99 20 100 21
REMARK SMILES IDX 8 22 10 23 9 24 98 25 11 26 5 27 1 28 2 29 3 30 102 31 4 32
REMARK SMILES IDX 101 33 27 34 28 35 29 36 30 37 31 38 32 39 33 40 34 41 95 42
REMARK SMILES IDX 35 43 94 44 36 45 37 46 38 47 88 48 39 49 93 50 87 51 89 52
REMARK SMILES IDX 40 53 92 54 86 55 85 56 41 58 73 59 53 60 72 61 54 62 57 63
REMARK SMILES IDX 71 64 90 65 55 66 56 67 70 69 91 70 58 71 42 72 43 73 51 74
REMARK SMILES IDX 44 75 50 76 52 77 49 78 45 79 46 80 47 81 48 82 74 83 75 84
REMARK SMILES IDX 83 85 76 86 82 87 84 88 81 89 77 90 78 91 79 92 80 93 59 94
REMARK SMILES IDX 60 95 68 96 61 97 67 98 69 99 66 100 62 101 63 102 64 103
REMARK SMILES IDX 65 104
REMARK H PARENT 89 57 57 68
REMARK Flexibility Score: inf
ROOT
ATOM      1  C   UNL A   1      34.582  32.806  31.661  1.00  0.00     0.188 C 
ENDROOT
BRANCH   1   2
ATOM      2  C   UNL A   1      35.229  34.082  31.140  1.00  0.00     0.188 C 
BRANCH   2   3
ATOM      3  O   UNL A   1      35.115  34.446  29.754  1.00  0.00    -0.376 OA
BRANCH   3   4
ATOM      4  C   UNL A   1      35.098  33.513  28.674  1.00  0.00     0.202 C 
BRANCH   4   5
ATOM      5  C   UNL A   1      33.856  32.645  27.956  1.00  0.00     0.261 C 
BRANCH   5   6
ATOM      6  O   UNL A   1      33.584  30.969  27.310  1.00  0.00    -0.463 OA
BRANCH   6   7
ATOM      7  C   UNL A   1      32.856  30.209  26.294  1.00  0.00     0.309 C 
ATOM      8  O   UNL A   1      31.712  30.355  25.838  1.00  0.00    -0.252 OA
BRANCH   7   9
ATOM      9  C   UNL A   1      33.421  29.094  25.536  1.00  0.00     0.103 C 
ATOM     10  C   UNL A   1      32.051  26.150  23.911  1.00  0.00     0.228 C 
ATOM     11  O   UNL A   1      31.139  26.540  23.184  1.00  0.00    -0.274 OA
ATOM     12  N   UNL A   1      33.265  26.838  24.038  1.00  0.00    -0.342 N 
ATOM     13  C   UNL A   1      33.442  28.035  23.240  1.00  0.00     0.120 C 
ATOM     14  C   UNL A   1      34.094  26.839  25.252  1.00  0.00     0.120 C 
ATOM     15  C   UNL A   1      32.919  29.186  24.069  1.00  0.00     0.037 C 
ATOM     16  C   UNL A   1      33.431  27.786  26.229  1.00  0.00     0.037 C 
BRANCH  10  17
ATOM     17  C   UNL A   1      31.949  24.816  24.649  1.00  0.00     0.051 C 
ATOM     18  C   UNL A   1      33.562  22.974  25.388  1.00  0.00    -0.003 C 
ATOM     19  C   UNL A   1      33.014  23.213  26.828  1.00  0.00     0.015 C 
ATOM     20  C   UNL A   1      33.368  24.249  24.580  1.00  0.00     0.028 C 
ATOM     21  C   UNL A   1      32.658  21.926  24.688  1.00  0.00     0.015 C 
ATOM     22  C   UNL A   1      31.522  23.606  26.817  1.00  0.00    -0.009 C 
ATOM     23  C   UNL A   1      31.182  22.414  24.643  1.00  0.00    -0.009 C 
ATOM     24  C   UNL A   1      30.678  22.564  26.087  1.00  0.00     0.007 C 
ATOM     25  C   UNL A   1      31.375  24.929  26.077  1.00  0.00     0.020 C 
ATOM     26  C   UNL A   1      31.064  23.781  23.921  1.00  0.00     0.020 C 
BRANCH  18  27
ATOM     27  C   UNL A   1      35.067  22.629  25.425  1.00  0.00    -0.042 A 
ATOM     28  C   UNL A   1      39.268  21.604  25.840  1.00  0.00     0.044 C 
ATOM     29  C   UNL A   1      37.819  21.938  25.681  1.00  0.00    -0.051 A 
ATOM     30  C   UNL A   1      37.402  23.241  25.916  1.00  0.00     0.004 A 
ATOM     31  C   UNL A   1      36.864  20.983  25.314  1.00  0.00     0.004 A 
ATOM     32  C   UNL A   1      36.058  23.579  25.773  1.00  0.00     0.004 A 
ATOM     33  C   UNL A   1      35.507  21.324  25.189  1.00  0.00     0.004 A 
ENDBRANCH  18  27
ENDBRANCH  10  17
ENDBRANCH   7   9
ENDBRANCH   6   7
ENDBRANCH   5   6
ENDBRANCH   4   5
ENDBRANCH   3   4
ENDBRANCH   2   3
ENDBRANCH   1   2
BRANCH   1  34
ATOM     34  O   UNL A   1      35.522  32.050  32.405  1.00  0.00    -0.376 OA
BRANCH  34  35
ATOM     35  C   UNL A   1      36.564  31.454  31.668  1.00  0.00     0.202 C 
BRANCH  35  36
ATOM     36  C   UNL A   1      37.941  31.752  32.270  1.00  0.00     0.261 C 
BRANCH  36  37
ATOM     37  O   UNL A   1      39.021  31.224  31.463  1.00  0.00    -0.460 OA
BRANCH  37  38
ATOM     38  C   UNL A   1      40.311  31.402  31.939  1.00  0.00     0.338 C 
ATOM     39  O   UNL A   1      40.704  32.442  32.407  1.00  0.00    -0.246 OA
BRANCH  38  40
ATOM     40  C   UNL A   1      41.061  30.100  31.884  1.00  0.00     0.060 A 
ATOM     41  C   UNL A   1      41.577  29.338  32.939  1.00  0.00     0.016 A 
ATOM     42  C   UNL A   1      41.468  29.739  30.652  1.00  0.00     0.016 A 
ATOM     43  C   UNL A   1      42.707  28.416  32.767  1.00  0.00     0.010 A 
ATOM     44  C   UNL A   1      42.676  29.061  30.585  1.00  0.00     0.010 A 
ATOM     45  C   UNL A   1      43.455  28.345  31.580  1.00  0.00    -0.014 A 
BRANCH  45  46
ATOM     46  C   UNL A   1      45.061  27.533  31.388  1.00  0.00     0.031 A 
ATOM     47  C   UNL A   1      46.762  28.205  31.315  1.00  0.00     0.074 A 
ATOM     48  C   UNL A   1      45.047  26.278  30.890  1.00  0.00     0.049 A 
ATOM     49  N   UNL A   1      47.610  28.009  30.315  1.00  0.00    -0.248 NA
ATOM     50  C   UNL A   1      47.438  29.319  32.147  1.00  0.00     0.031 C 
ATOM     51  C   UNL A   1      46.192  25.416  30.638  1.00  0.00     0.029 A 
ATOM     52  N   UNL A   1      43.967  25.591  30.348  1.00  0.00    -0.354 N 
ATOM     53  C   UNL A   1      48.746  28.840  30.491  1.00  0.00     0.074 A 
ATOM     54  C   UNL A   1      48.444  29.795  31.460  1.00  0.00     0.031 C 
ATOM     55  C   UNL A   1      45.818  24.453  29.781  1.00  0.00     0.029 A 
ATOM     56  C   UNL A   1      44.465  24.757  29.348  1.00  0.00     0.049 A 
ATOM     57  H   UNL A   1      43.025  25.676  30.621  1.00  0.00     0.167 HD
ATOM     58  C   UNL A   1      50.005  28.596  30.047  1.00  0.00     0.034 A 
ATOM     59  C   UNL A   1      44.030  24.857  28.061  1.00  0.00     0.034 A 
ATOM     60  C   UNL A   1      49.971  27.386  29.300  1.00  0.00     0.049 A 
ATOM     61  C   UNL A   1      45.170  25.066  27.089  1.00  0.00     0.074 A 
ATOM     62  C   UNL A   1      50.036  26.063  29.691  1.00  0.00     0.029 A 
ATOM     63  N   UNL A   1      49.346  27.436  28.078  1.00  0.00    -0.354 N 
ATOM     64  N   UNL A   1      46.348  25.526  27.417  1.00  0.00    -0.248 NA
ATOM     65  C   UNL A   1      45.080  24.725  25.676  1.00  0.00     0.031 C 
ATOM     66  C   UNL A   1      49.385  25.304  28.684  1.00  0.00     0.029 A 
ATOM     67  C   UNL A   1      49.007  26.171  27.673  1.00  0.00     0.049 A 
ATOM     68  H   UNL A   1      49.166  28.259  27.569  1.00  0.00     0.167 HD
ATOM     69  C   UNL A   1      47.160  25.551  26.308  1.00  0.00     0.074 A 
ATOM     70  C   UNL A   1      46.321  25.017  25.251  1.00  0.00     0.031 C 
ATOM     71  C   UNL A   1      48.447  26.014  26.351  1.00  0.00     0.034 A 
BRANCH  58  72
ATOM     72  C   UNL A   1      51.234  29.240  30.681  1.00  0.00     0.023 A 
ATOM     73  C   UNL A   1      51.973  30.162  29.924  1.00  0.00     0.031 A 
ATOM     74  C   UNL A   1      51.786  28.926  31.948  1.00  0.00     0.131 A 
ATOM     75  C   UNL A   1      53.232  30.626  30.356  1.00  0.00     0.055 A 
ATOM     76  C   UNL A   1      53.081  29.310  32.336  1.00  0.00     0.041 A 
ATOM     77  F   UNL A   1      51.089  28.230  32.862  1.00  0.00    -0.206 F 
ATOM     78  C   UNL A   1      53.820  30.158  31.529  1.00  0.00     0.022 A 
BRANCH  75  79
ATOM     79  S   UNL A   1      54.079  31.889  29.370  1.00  0.00     0.124 S 
ATOM     80  O   UNL A   1      54.293  31.201  28.101  1.00  0.00    -0.237 OA
ATOM     81  O   UNL A   1      53.104  32.975  29.362  1.00  0.00    -0.237 OA
ATOM     82  O   UNL A   1      55.295  32.161  30.136  1.00  0.00    -0.744 OA
ENDBRANCH  75  79
ENDBRANCH  58  72
BRANCH  59  83
ATOM     83  C   UNL A   1      42.610  25.320  27.909  1.00  0.00     0.023 A 
ATOM     84  C   UNL A   1      42.399  26.700  27.655  1.00  0.00     0.031 A 
ATOM     85  C   UNL A   1      41.527  24.458  27.687  1.00  0.00     0.131 A 
ATOM     86  C   UNL A   1      41.219  27.154  27.048  1.00  0.00     0.055 A 
ATOM     87  C   UNL A   1      40.312  24.928  27.154  1.00  0.00     0.041 A 
ATOM     88  F   UNL A   1      41.651  23.137  27.880  1.00  0.00    -0.206 F 
ATOM     89  C   UNL A   1      40.164  26.274  26.802  1.00  0.00     0.022 A 
BRANCH  86  90
ATOM     90  S   UNL A   1      41.184  28.817  26.298  1.00  0.00     0.124 S 
ATOM     91  O   UNL A   1      41.696  28.560  24.957  1.00  0.00    -0.237 OA
ATOM     92  O   UNL A   1      39.777  29.200  26.382  1.00  0.00    -0.237 OA
ATOM     93  O   UNL A   1      42.063  29.591  27.172  1.00  0.00    -0.744 OA
ENDBRANCH  86  90
ENDBRANCH  59  83
BRANCH  71  94
ATOM     94  C   UNL A   1      49.346  26.375  25.180  1.00  0.00     0.023 A 
ATOM     95  C   UNL A   1      48.877  27.016  24.035  1.00  0.00     0.031 A 
ATOM     96  C   UNL A   1      50.756  26.163  25.217  1.00  0.00     0.131 A 
ATOM     97  C   UNL A   1      49.742  27.339  22.975  1.00  0.00     0.055 A 
ATOM     98  C   UNL A   1      51.629  26.597  24.217  1.00  0.00     0.041 A 
ATOM     99  F   UNL A   1      51.363  25.521  26.226  1.00  0.00    -0.206 F 
ATOM    100  C   UNL A   1      51.120  27.173  23.071  1.00  0.00     0.022 A 
BRANCH  97 101
ATOM    101  S   UNL A   1      48.987  27.861  21.421  1.00  0.00     0.124 S 
ATOM    102  O   UNL A   1      47.837  28.632  21.893  1.00  0.00    -0.237 OA
ATOM    103  O   UNL A   1      50.054  28.638  20.800  1.00  0.00    -0.237 OA
ATOM    104  O   UNL A   1      48.659  26.603  20.757  1.00  0.00    -0.744 OA
ENDBRANCH  97 101
ENDBRANCH  71  94
ENDBRANCH  45  46
ENDBRANCH  38  40
ENDBRANCH  37  38
ENDBRANCH  36  37
ENDBRANCH  35  36
ENDBRANCH  34  35
ENDBRANCH   1  34
TORSDOF 22
ENDMDL
MODEL 2
REMARK VINA RESULT:     -11.0      5.836     10.288
REMARK SMILES Cc1ccc([C@@]23C[C@@H]4C[C@@H](C[C@@](C(=O)N5CCC(C(=O)OCCOCCOCCOC(=O)c6ccc(-c7c8nc(c(-c9cc(S(=O)(=O)[O-])ccc9F)c9ccc([nH]9)c(-c9cc(S(=O)(=O)[O-])ccc9F)c9nc(c(-c%10cc(S(=O)(=O)[O-])ccc%10F)c%10ccc7[nH]%10)C=C9)C=C8)cc6)CC5)(C4)C2)C3)cc1
REMARK SMILES IDX 26 1 25 2 24 3 23 4 22 5 21 6 19 7 20 8 18 9 13 10 14 11
REMARK SMILES IDX 15 12 16 13 97 14 17 15 96 16 12 17 6 18 7 19 99 20 100 21
REMARK SMILES IDX 8 22 10 23 9 24 98 25 11 26 5 27 1 28 2 29 3 30 102 31 4 32
REMARK SMILES IDX 101 33 27 34 28 35 29 36 30 37 31 38 32 39 33 40 34 41 95 42
REMARK SMILES IDX 35 43 94 44 36 45 37 46 38 47 88 48 39 49 93 50 87 51 89 52
REMARK SMILES IDX 40 53 92 54 86 55 85 56 41 58 73 59 53 60 72 61 54 62 57 63
REMARK SMILES IDX 71 64 90 65 55 66 56 67 70 69 91 70 58 71 42 72 43 73 51 74
REMARK SMILES IDX 44 75 50 76 52 77 49 78 45 79 46 80 47 81 48 82 74 83 75 84
REMARK SMILES IDX 83 85 76 86 82 87 84 88 81 89 77 90 78 91 79 92 80 93 59 94
REMARK SMILES IDX 60 95 68 96 61 97 67 98 69 99 66 100 62 101 63 102 64 103
REMARK SMILES IDX 65 104
REMARK H PARENT 89 57 57 68
REMARK Flexibility Score: inf
ROOT
ATOM      1  C   UNL A   1      47.960  34.158  36.336  1.00  0.00     0.188 C 
ENDROOT
BRANCH   1   2
ATOM      2  C   UNL A   1      46.471  33.852  36.233  1.00  0.00     0.188 C 
BRANCH   2   3
ATOM      3  O   UNL A   1      45.600  34.070  37.355  1.00  0.00    -0.376 OA
BRANCH   3   4
ATOM      4  C   UNL A   1      44.401  34.842  37.307  1.00  0.00     0.202 C 
BRANCH   4   5
ATOM      5  C   UNL A   1      42.790  34.409  37.140  1.00  0.00     0.261 C 
BRANCH   5   6
ATOM      6  O   UNL A   1      41.169  35.228  37.145  1.00  0.00    -0.463 OA
BRANCH   6   7
ATOM      7  C   UNL A   1      39.974  35.467  36.335  1.00  0.00     0.309 C 
ATOM      8  O   UNL A   1      39.633  36.453  35.665  1.00  0.00    -0.252 OA
BRANCH   7   9
ATOM      9  C   UNL A   1      38.921  34.478  36.107  1.00  0.00     0.103 C 
ATOM     10  C   UNL A   1      38.489  31.678  33.837  1.00  0.00     0.228 C 
ATOM     11  O   UNL A   1      39.499  30.982  33.937  1.00  0.00    -0.274 OA
ATOM     12  N   UNL A   1      37.864  32.268  34.943  1.00  0.00    -0.342 N 
ATOM     13  C   UNL A   1      38.427  32.002  36.252  1.00  0.00     0.120 C 
ATOM     14  C   UNL A   1      37.116  33.533  34.895  1.00  0.00     0.120 C 
ATOM     15  C   UNL A   1      39.462  33.076  36.500  1.00  0.00     0.037 C 
ATOM     16  C   UNL A   1      38.145  34.643  34.857  1.00  0.00     0.037 C 
BRANCH  10  17
ATOM     17  C   UNL A   1      37.788  31.853  32.491  1.00  0.00     0.051 C 
ATOM     18  C   UNL A   1      37.737  30.624  30.249  1.00  0.00    -0.003 C 
ATOM     19  C   UNL A   1      36.193  30.539  30.447  1.00  0.00     0.015 C 
ATOM     20  C   UNL A   1      38.393  30.754  31.616  1.00  0.00     0.028 C 
ATOM     21  C   UNL A   1      38.065  31.958  29.530  1.00  0.00     0.015 C 
ATOM     22  C   UNL A   1      35.638  31.778  31.180  1.00  0.00    -0.009 C 
ATOM     23  C   UNL A   1      37.546  33.171  30.354  1.00  0.00    -0.009 C 
ATOM     24  C   UNL A   1      36.016  33.068  30.456  1.00  0.00     0.007 C 
ATOM     25  C   UNL A   1      36.248  31.828  32.575  1.00  0.00     0.020 C 
ATOM     26  C   UNL A   1      38.149  33.177  31.782  1.00  0.00     0.020 C 
BRANCH  18  27
ATOM     27  C   UNL A   1      38.271  29.351  29.557  1.00  0.00    -0.042 A 
ATOM     28  C   UNL A   1      40.065  25.865  27.684  1.00  0.00     0.044 C 
ATOM     29  C   UNL A   1      39.435  27.050  28.345  1.00  0.00    -0.051 A 
ATOM     30  C   UNL A   1      39.282  28.222  27.615  1.00  0.00     0.004 A 
ATOM     31  C   UNL A   1      39.002  27.026  29.675  1.00  0.00     0.004 A 
ATOM     32  C   UNL A   1      38.697  29.339  28.206  1.00  0.00     0.004 A 
ATOM     33  C   UNL A   1      38.429  28.161  30.273  1.00  0.00     0.004 A 
ENDBRANCH  18  27
ENDBRANCH  10  17
ENDBRANCH   7   9
ENDBRANCH   6   7
ENDBRANCH   5   6
ENDBRANCH   4   5
ENDBRANCH   3   4
ENDBRANCH   2   3
ENDBRANCH   1   2
BRANCH   1  34
ATOM     34  O   UNL A   1      48.226  35.459  35.841  1.00  0.00    -0.376 OA
BRANCH  34  35
ATOM     35  C   UNL A   1      48.845  36.352  36.738  1.00  0.00     0.202 C 
BRANCH  35  36
ATOM     36  C   UNL A   1      47.994  37.602  36.984  1.00  0.00     0.261 C 
BRANCH  36  37
ATOM     37  O   UNL A   1      46.584  37.360  36.765  1.00  0.00    -0.460 OA
BRANCH  37  38
ATOM     38  C   UNL A   1      45.862  38.358  36.127  1.00  0.00     0.338 C 
ATOM     39  O   UNL A   1      46.013  39.532  36.360  1.00  0.00    -0.246 OA
BRANCH  38  40
ATOM     40  C   UNL A   1      44.989  37.758  35.061  1.00  0.00     0.060 A 
ATOM     41  C   UNL A   1      43.591  37.686  35.007  1.00  0.00     0.016 A 
ATOM     42  C   UNL A   1      45.645  37.010  34.153  1.00  0.00     0.016 A 
ATOM     43  C   UNL A   1      42.885  36.653  34.237  1.00  0.00     0.010 A 
ATOM     44  C   UNL A   1      44.956  35.916  33.654  1.00  0.00     0.010 A 
ATOM     45  C   UNL A   1      43.545  35.572  33.632  1.00  0.00    -0.014 A 
BRANCH  45  46
ATOM     46  C   UNL A   1      42.757  34.075  32.990  1.00  0.00     0.031 A 
ATOM     47  C   UNL A   1      42.975  32.308  33.416  1.00  0.00     0.074 A 
ATOM     48  C   UNL A   1      42.149  34.180  31.789  1.00  0.00     0.049 A 
ATOM     49  N   UNL A   1      43.308  31.358  32.554  1.00  0.00    -0.248 NA
ATOM     50  C   UNL A   1      43.136  31.620  34.791  1.00  0.00     0.031 C 
ATOM     51  C   UNL A   1      41.450  33.134  31.058  1.00  0.00     0.029 A 
ATOM     52  N   UNL A   1      42.195  35.252  30.904  1.00  0.00    -0.354 N 
ATOM     53  C   UNL A   1      43.592  30.161  33.258  1.00  0.00     0.074 A 
ATOM     54  C   UNL A   1      43.736  30.472  34.610  1.00  0.00     0.031 C 
ATOM     55  C   UNL A   1      41.359  33.503  29.770  1.00  0.00     0.029 A 
ATOM     56  C   UNL A   1      42.124  34.728  29.614  1.00  0.00     0.049 A 
ATOM     57  H   UNL A   1      42.265  36.204  31.144  1.00  0.00     0.167 HD
ATOM     58  C   UNL A   1      43.454  28.894  32.793  1.00  0.00     0.034 A 
ATOM     59  C   UNL A   1      43.109  34.957  28.701  1.00  0.00     0.034 A 
ATOM     60  C   UNL A   1      43.043  28.977  31.434  1.00  0.00     0.049 A 
ATOM     61  C   UNL A   1      43.668  33.672  28.134  1.00  0.00     0.074 A 
ATOM     62  C   UNL A   1      41.798  29.143  30.859  1.00  0.00     0.029 A 
ATOM     63  N   UNL A   1      43.986  29.408  30.533  1.00  0.00    -0.354 N 
ATOM     64  N   UNL A   1      43.572  32.503  28.709  1.00  0.00    -0.248 NA
ATOM     65  C   UNL A   1      44.340  33.601  26.843  1.00  0.00     0.031 C 
ATOM     66  C   UNL A   1      42.008  29.734  29.587  1.00  0.00     0.029 A 
ATOM     67  C   UNL A   1      43.373  29.847  29.387  1.00  0.00     0.049 A 
ATOM     68  H   UNL A   1      44.958  29.404  30.687  1.00  0.00     0.167 HD
ATOM     69  C   UNL A   1      44.147  31.544  27.910  1.00  0.00     0.074 A 
ATOM     70  C   UNL A   1      44.591  32.285  26.744  1.00  0.00     0.031 C 
ATOM     71  C   UNL A   1      44.214  30.227  28.276  1.00  0.00     0.034 A 
BRANCH  58  72
ATOM     72  C   UNL A   1      43.287  27.695  33.722  1.00  0.00     0.023 A 
ATOM     73  C   UNL A   1      44.288  26.711  33.733  1.00  0.00     0.031 A 
ATOM     74  C   UNL A   1      42.154  27.406  34.523  1.00  0.00     0.131 A 
ATOM     75  C   UNL A   1      44.101  25.479  34.392  1.00  0.00     0.055 A 
ATOM     76  C   UNL A   1      41.925  26.145  35.100  1.00  0.00     0.041 A 
ATOM     77  F   UNL A   1      41.221  28.338  34.777  1.00  0.00    -0.206 F 
ATOM     78  C   UNL A   1      42.900  25.165  35.025  1.00  0.00     0.022 A 
BRANCH  75  79
ATOM     79  S   UNL A   1      45.476  24.302  34.442  1.00  0.00     0.124 S 
ATOM     80  O   UNL A   1      44.977  23.205  33.619  1.00  0.00    -0.237 OA
ATOM     81  O   UNL A   1      46.571  25.087  33.881  1.00  0.00    -0.237 OA
ATOM     82  O   UNL A   1      45.609  23.992  35.866  1.00  0.00    -0.744 OA
ENDBRANCH  75  79
ENDBRANCH  58  72
BRANCH  59  83
ATOM     83  C   UNL A   1      43.823  36.268  28.858  1.00  0.00     0.023 A 
ATOM     84  C   UNL A   1      43.257  37.399  28.214  1.00  0.00     0.031 A 
ATOM     85  C   UNL A   1      44.803  36.512  29.830  1.00  0.00     0.131 A 
ATOM     86  C   UNL A   1      43.541  38.700  28.651  1.00  0.00     0.055 A 
ATOM     87  C   UNL A   1      45.147  37.822  30.211  1.00  0.00     0.041 A 
ATOM     88  F   UNL A   1      45.370  35.500  30.502  1.00  0.00    -0.206 F 
ATOM     89  C   UNL A   1      44.494  38.922  29.645  1.00  0.00     0.022 A 
BRANCH  86  90
ATOM     90  S   UNL A   1      42.445  40.069  28.147  1.00  0.00     0.124 S 
ATOM     91  O   UNL A   1      41.458  39.384  27.321  1.00  0.00    -0.237 OA
ATOM     92  O   UNL A   1      41.956  40.600  29.417  1.00  0.00    -0.237 OA
ATOM     93  O   UNL A   1      43.349  40.970  27.436  1.00  0.00    -0.744 OA
ENDBRANCH  86  90
ENDBRANCH  59  83
BRANCH  71  94
ATOM     94  C   UNL A   1      45.061  29.129  27.653  1.00  0.00     0.023 A 
ATOM     95  C   UNL A   1      44.523  28.111  26.869  1.00  0.00     0.031 A 
ATOM     96  C   UNL A   1      46.483  29.123  27.757  1.00  0.00     0.131 A 
ATOM     97  C   UNL A   1      45.341  27.116  26.306  1.00  0.00     0.055 A 
ATOM     98  C   UNL A   1      47.302  28.206  27.093  1.00  0.00     0.041 A 
ATOM     99  F   UNL A   1      47.156  30.007  28.508  1.00  0.00    -0.206 F 
ATOM    100  C   UNL A   1      46.728  27.175  26.376  1.00  0.00     0.022 A 
BRANCH  97 101
ATOM    101  S   UNL A   1      44.519  25.675  25.593  1.00  0.00     0.124 S 
ATOM    102  O   UNL A   1      43.322  26.276  25.006  1.00  0.00    -0.237 OA
ATOM    103  O   UNL A   1      45.512  25.188  24.642  1.00  0.00    -0.237 OA
ATOM    104  O   UNL A   1      44.277  24.811  26.745  1.00  0.00    -0.744 OA
ENDBRANCH  97 101
ENDBRANCH  71  94
ENDBRANCH  45  46
ENDBRANCH  38  40
ENDBRANCH  37  38
ENDBRANCH  36  37
ENDBRANCH  35  36
ENDBRANCH  34  35
ENDBRANCH   1  34
TORSDOF 22
ENDMDL
MODEL 3
REMARK VINA RESULT:     -10.8      5.503      9.662
REMARK SMILES Cc1ccc([C@@]23C[C@@H]4C[C@@H](C[C@@](C(=O)N5CCC(C(=O)OCCOCCOCCOC(=O)c6ccc(-c7c8nc(c(-c9cc(S(=O)(=O)[O-])ccc9F)c9ccc([nH]9)c(-c9cc(S(=O)(=O)[O-])ccc9F)c9nc(c(-c%10cc(S(=O)(=O)[O-])ccc%10F)c%10ccc7[nH]%10)C=C9)C=C8)cc6)CC5)(C4)C2)C3)cc1
REMARK SMILES IDX 26 1 25 2 24 3 23 4 22 5 21 6 19 7 20 8 18 9 13 10 14 11
REMARK SMILES IDX 15 12 16 13 97 14 17 15 96 16 12 17 6 18 7 19 99 20 100 21
REMARK SMILES IDX 8 22 10 23 9 24 98 25 11 26 5 27 1 28 2 29 3 30 102 31 4 32
REMARK SMILES IDX 101 33 27 34 28 35 29 36 30 37 31 38 32 39 33 40 34 41 95 42
REMARK SMILES IDX 35 43 94 44 36 45 37 46 38 47 88 48 39 49 93 50 87 51 89 52
REMARK SMILES IDX 40 53 92 54 86 55 85 56 41 58 73 59 53 60 72 61 54 62 57 63
REMARK SMILES IDX 71 64 90 65 55 66 56 67 70 69 91 70 58 71 42 72 43 73 51 74
REMARK SMILES IDX 44 75 50 76 52 77 49 78 45 79 46 80 47 81 48 82 74 83 75 84
REMARK SMILES IDX 83 85 76 86 82 87 84 88 81 89 77 90 78 91 79 92 80 93 59 94
REMARK SMILES IDX 60 95 68 96 61 97 67 98 69 99 66 100 62 101 63 102 64 103
REMARK SMILES IDX 65 104
REMARK H PARENT 89 57 57 68
REMARK Flexibility Score: inf
ROOT
ATOM      1  C   UNL A   1      41.074  20.853  26.973  1.00  0.00     0.188 C 
ENDROOT
BRANCH   1   2
ATOM      2  C   UNL A   1      41.028  19.808  25.866  1.00  0.00     0.188 C 
BRANCH   2   3
ATOM      3  O   UNL A   1      39.909  18.913  25.751  1.00  0.00    -0.376 OA
BRANCH   3   4
ATOM      4  C   UNL A   1      38.654  19.262  25.166  1.00  0.00     0.202 C 
BRANCH   4   5
ATOM      5  C   UNL A   1      37.812  20.708  25.091  1.00  0.00     0.261 C 
BRANCH   5   6
ATOM      6  O   UNL A   1      36.217  21.306  24.457  1.00  0.00    -0.463 OA
BRANCH   6   7
ATOM      7  C   UNL A   1      35.504  22.509  24.027  1.00  0.00     0.309 C 
ATOM      8  O   UNL A   1      35.333  22.989  22.897  1.00  0.00    -0.252 OA
BRANCH   7   9
ATOM      9  C   UNL A   1      34.757  23.389  24.925  1.00  0.00     0.103 C 
ATOM     10  C   UNL A   1      31.670  25.282  24.667  1.00  0.00     0.228 C 
ATOM     11  O   UNL A   1      30.807  24.498  24.273  1.00  0.00    -0.274 OA
ATOM     12  N   UNL A   1      32.635  24.929  25.619  1.00  0.00    -0.342 N 
ATOM     13  C   UNL A   1      32.569  23.592  26.175  1.00  0.00     0.120 C 
ATOM     14  C   UNL A   1      33.988  25.501  25.679  1.00  0.00     0.120 C 
ATOM     15  C   UNL A   1      33.405  22.711  25.275  1.00  0.00     0.037 C 
ATOM     16  C   UNL A   1      34.791  24.830  24.585  1.00  0.00     0.037 C 
BRANCH  10  17
ATOM     17  C   UNL A   1      31.673  26.740  24.209  1.00  0.00     0.051 C 
ATOM     18  C   UNL A   1      32.577  28.963  25.093  1.00  0.00    -0.003 C 
ATOM     19  C   UNL A   1      33.327  29.082  23.732  1.00  0.00     0.015 C 
ATOM     20  C   UNL A   1      32.320  27.490  25.375  1.00  0.00     0.028 C 
ATOM     21  C   UNL A   1      31.165  29.582  24.930  1.00  0.00     0.015 C 
ATOM     22  C   UNL A   1      32.519  28.459  22.574  1.00  0.00    -0.009 C 
ATOM     23  C   UNL A   1      30.375  28.863  23.799  1.00  0.00    -0.009 C 
ATOM     24  C   UNL A   1      31.125  29.074  22.475  1.00  0.00     0.007 C 
ATOM     25  C   UNL A   1      32.356  26.969  22.844  1.00  0.00     0.020 C 
ATOM     26  C   UNL A   1      30.257  27.342  24.077  1.00  0.00     0.020 C 
BRANCH  18  27
ATOM     27  C   UNL A   1      33.428  29.550  26.240  1.00  0.00    -0.042 A 
ATOM     28  C   UNL A   1      35.999  31.347  29.247  1.00  0.00     0.044 C 
ATOM     29  C   UNL A   1      35.094  30.740  28.221  1.00  0.00    -0.051 A 
ATOM     30  C   UNL A   1      35.447  29.524  27.651  1.00  0.00     0.004 A 
ATOM     31  C   UNL A   1      33.909  31.357  27.807  1.00  0.00     0.004 A 
ATOM     32  C   UNL A   1      34.621  28.938  26.695  1.00  0.00     0.004 A 
ATOM     33  C   UNL A   1      33.088  30.772  26.829  1.00  0.00     0.004 A 
ENDBRANCH  18  27
ENDBRANCH  10  17
ENDBRANCH   7   9
ENDBRANCH   6   7
ENDBRANCH   5   6
ENDBRANCH   4   5
ENDBRANCH   3   4
ENDBRANCH   2   3
ENDBRANCH   1   2
BRANCH   1  34
ATOM     34  O   UNL A   1      41.072  22.156  26.415  1.00  0.00    -0.376 OA
BRANCH  34  35
ATOM     35  C   UNL A   1      40.010  22.997  26.803  1.00  0.00     0.202 C 
BRANCH  35  36
ATOM     36  C   UNL A   1      40.460  24.074  27.794  1.00  0.00     0.261 C 
BRANCH  36  37
ATOM     37  O   UNL A   1      41.675  24.739  27.370  1.00  0.00    -0.460 OA
BRANCH  37  38
ATOM     38  C   UNL A   1      42.753  24.704  28.241  1.00  0.00     0.338 C 
ATOM     39  O   UNL A   1      43.668  23.925  28.127  1.00  0.00    -0.246 OA
BRANCH  38  40
ATOM     40  C   UNL A   1      42.650  25.830  29.232  1.00  0.00     0.060 A 
ATOM     41  C   UNL A   1      41.816  26.955  29.200  1.00  0.00     0.016 A 
ATOM     42  C   UNL A   1      43.633  25.861  30.151  1.00  0.00     0.016 A 
ATOM     43  C   UNL A   1      42.155  28.206  29.889  1.00  0.00     0.010 A 
ATOM     44  C   UNL A   1      44.035  27.120  30.570  1.00  0.00     0.010 A 
ATOM     45  C   UNL A   1      43.403  28.426  30.495  1.00  0.00    -0.014 A 
BRANCH  45  46
ATOM     46  C   UNL A   1      44.050  30.027  31.037  1.00  0.00     0.031 A 
ATOM     47  C   UNL A   1      43.266  31.411  31.942  1.00  0.00     0.074 A 
ATOM     48  C   UNL A   1      45.173  30.462  30.427  1.00  0.00     0.049 A 
ATOM     49  N   UNL A   1      43.195  32.658  31.502  1.00  0.00    -0.248 NA
ATOM     50  C   UNL A   1      42.306  31.401  33.154  1.00  0.00     0.031 C 
ATOM     51  C   UNL A   1      45.888  31.705  30.674  1.00  0.00     0.029 A 
ATOM     52  N   UNL A   1      45.804  29.913  29.316  1.00  0.00    -0.354 N 
ATOM     53  C   UNL A   1      42.346  33.411  32.351  1.00  0.00     0.074 A 
ATOM     54  C   UNL A   1      41.633  32.523  33.156  1.00  0.00     0.031 C 
ATOM     55  C   UNL A   1      46.675  31.961  29.618  1.00  0.00     0.029 A 
ATOM     56  C   UNL A   1      46.378  30.965  28.603  1.00  0.00     0.049 A 
ATOM     57  H   UNL A   1      45.840  28.959  29.077  1.00  0.00     0.167 HD
ATOM     58  C   UNL A   1      42.409  34.747  32.584  1.00  0.00     0.034 A 
ATOM     59  C   UNL A   1      46.043  31.206  27.305  1.00  0.00     0.034 A 
ATOM     60  C   UNL A   1      43.437  35.279  31.760  1.00  0.00     0.049 A 
ATOM     61  C   UNL A   1      45.563  32.625  27.095  1.00  0.00     0.074 A 
ATOM     62  C   UNL A   1      44.806  35.357  31.933  1.00  0.00     0.029 A 
ATOM     63  N   UNL A   1      43.178  35.335  30.412  1.00  0.00    -0.354 N 
ATOM     64  N   UNL A   1      45.105  33.400  28.042  1.00  0.00    -0.248 NA
ATOM     65  C   UNL A   1      45.611  33.296  25.803  1.00  0.00     0.031 C 
ATOM     66  C   UNL A   1      45.381  35.416  30.638  1.00  0.00     0.029 A 
ATOM     67  C   UNL A   1      44.352  35.448  29.713  1.00  0.00     0.049 A 
ATOM     68  H   UNL A   1      42.281  35.297  30.008  1.00  0.00     0.167 HD
ATOM     69  C   UNL A   1      44.797  34.634  27.522  1.00  0.00     0.074 A 
ATOM     70  C   UNL A   1      45.156  34.520  26.120  1.00  0.00     0.031 C 
ATOM     71  C   UNL A   1      44.269  35.641  28.284  1.00  0.00     0.034 A 
BRANCH  58  72
ATOM     72  C   UNL A   1      41.830  35.385  33.843  1.00  0.00     0.023 A 
ATOM     73  C   UNL A   1      42.714  35.954  34.774  1.00  0.00     0.031 A 
ATOM     74  C   UNL A   1      40.469  35.378  34.237  1.00  0.00     0.131 A 
ATOM     75  C   UNL A   1      42.276  36.359  36.051  1.00  0.00     0.055 A 
ATOM     76  C   UNL A   1      40.046  35.692  35.541  1.00  0.00     0.041 A 
ATOM     77  F   UNL A   1      39.491  35.065  33.371  1.00  0.00    -0.206 F 
ATOM     78  C   UNL A   1      40.959  36.175  36.463  1.00  0.00     0.022 A 
BRANCH  75  79
ATOM     79  S   UNL A   1      43.458  37.173  37.157  1.00  0.00     0.124 S 
ATOM     80  O   UNL A   1      44.419  36.107  37.423  1.00  0.00    -0.237 OA
ATOM     81  O   UNL A   1      43.932  38.282  36.336  1.00  0.00    -0.237 OA
ATOM     82  O   UNL A   1      42.639  37.564  38.304  1.00  0.00    -0.744 OA
ENDBRANCH  75  79
ENDBRANCH  58  72
BRANCH  59  83
ATOM     83  C   UNL A   1      45.655  29.990  26.516  1.00  0.00     0.023 A 
ATOM     84  C   UNL A   1      46.689  29.299  25.833  1.00  0.00     0.031 A 
ATOM     85  C   UNL A   1      44.431  29.322  26.662  1.00  0.00     0.131 A 
ATOM     86  C   UNL A   1      46.548  27.951  25.474  1.00  0.00     0.055 A 
ATOM     87  C   UNL A   1      44.264  27.994  26.228  1.00  0.00     0.041 A 
ATOM     88  F   UNL A   1      43.410  29.895  27.315  1.00  0.00    -0.206 F 
ATOM     89  C   UNL A   1      45.333  27.291  25.660  1.00  0.00     0.022 A 
BRANCH  86  90
ATOM     90  S   UNL A   1      48.035  26.977  25.061  1.00  0.00     0.124 S 
ATOM     91  O   UNL A   1      48.350  26.341  26.335  1.00  0.00    -0.237 OA
ATOM     92  O   UNL A   1      47.575  26.086  23.999  1.00  0.00    -0.237 OA
ATOM     93  O   UNL A   1      48.981  27.996  24.612  1.00  0.00    -0.744 OA
ENDBRANCH  86  90
ENDBRANCH  59  83
BRANCH  71  94
ATOM     94  C   UNL A   1      43.615  36.927  27.805  1.00  0.00     0.023 A 
ATOM     95  C   UNL A   1      44.345  38.033  27.376  1.00  0.00     0.031 A 
ATOM     96  C   UNL A   1      42.200  37.051  27.676  1.00  0.00     0.131 A 
ATOM     97  C   UNL A   1      43.702  39.203  26.935  1.00  0.00     0.055 A 
ATOM     98  C   UNL A   1      41.570  38.167  27.120  1.00  0.00     0.041 A 
ATOM     99  F   UNL A   1      41.351  36.096  28.082  1.00  0.00    -0.206 F 
ATOM    100  C   UNL A   1      42.324  39.267  26.764  1.00  0.00     0.022 A 
BRANCH  97 101
ATOM    101  S   UNL A   1      44.723  40.676  26.718  1.00  0.00     0.124 S 
ATOM    102  O   UNL A   1      44.052  41.635  27.593  1.00  0.00    -0.237 OA
ATOM    103  O   UNL A   1      46.033  40.219  27.171  1.00  0.00    -0.237 OA
ATOM    104  O   UNL A   1      44.618  40.960  25.290  1.00  0.00    -0.744 OA
ENDBRANCH  97 101
ENDBRANCH  71  94
ENDBRANCH  45  46
ENDBRANCH  38  40
ENDBRANCH  37  38
ENDBRANCH  36  37
ENDBRANCH  35  36
ENDBRANCH  34  35
ENDBRANCH   1  34
TORSDOF 22
ENDMDL
