MODEL 1
REMARK VINA RESULT:     -10.2      0.000      0.000
REMARK SMILES O=C(OCCOCCOCCOC(=O)c1cc(Br)ccc1OCc1ccccc1F)c1ccc(-c2c3nc(c(-c4cc(S(=O)(=O)[O-])ccc4F)c4ccc([nH]4)c(-c4cc(S(=O)(=O)[O-])ccc4F)c4nc(c(-c5cc(S(=O)(=O)[O-])ccc5F)c5ccc2[nH]5)C=C4)C=C3)cc1
REMARK SMILES IDX 7 1 6 2 5 3 4 4 3 5 2 6 1 7 31 8 32 9 93 10 33 11 92 12
REMARK SMILES IDX 34 13 35 14 36 15 86 16 37 17 91 18 85 19 87 20 38 21 90 22
REMARK SMILES IDX 84 23 83 24 39 26 71 27 51 28 70 29 52 30 55 31 69 32 88 33
REMARK SMILES IDX 53 34 54 35 68 37 89 38 56 39 40 40 41 41 49 42 42 43 48 44
REMARK SMILES IDX 50 45 47 46 43 47 44 48 45 49 46 50 72 51 73 52 81 53 74 54
REMARK SMILES IDX 80 55 82 56 79 57 75 58 76 59 77 60 78 61 57 62 58 63 66 64
REMARK SMILES IDX 59 65 65 66 67 67 64 68 60 69 61 70 62 71 63 72 8 73 9 74
REMARK SMILES IDX 10 75 11 76 12 77 13 78 14 79 15 80 16 81 21 82 17 83 20 84
REMARK SMILES IDX 18 85 19 86 22 87 23 88 24 89 25 90 29 91 26 92 28 93 30 94
REMARK SMILES IDX 27 95
REMARK H PARENT 87 25 55 36
REMARK Flexibility Score: inf
ROOT
ATOM      1  C   UNL A   1      30.827  28.298  23.719  1.00  0.00     0.188 C 
ENDROOT
BRANCH   1   2
ATOM      2  O   UNL A   1      31.645  29.305  24.301  1.00  0.00    -0.376 OA
BRANCH   2   3
ATOM      3  C   UNL A   1      32.068  29.026  25.631  1.00  0.00     0.202 C 
BRANCH   3   4
ATOM      4  C   UNL A   1      31.742  30.156  26.622  1.00  0.00     0.261 C 
BRANCH   4   5
ATOM      5  O   UNL A   1      32.575  31.316  26.401  1.00  0.00    -0.460 OA
BRANCH   5   6
ATOM      6  C   UNL A   1      33.396  31.968  27.260  1.00  0.00     0.338 C 
ATOM      7  O   UNL A   1      33.100  33.119  27.586  1.00  0.00    -0.246 OA
BRANCH   6   8
ATOM      8  C   UNL A   1      34.636  31.378  27.856  1.00  0.00     0.060 A 
ATOM      9  C   UNL A   1      34.789  30.040  28.217  1.00  0.00     0.016 A 
ATOM     10  C   UNL A   1      35.747  32.229  28.013  1.00  0.00     0.016 A 
ATOM     11  C   UNL A   1      35.952  29.581  28.824  1.00  0.00     0.010 A 
ATOM     12  C   UNL A   1      36.938  31.769  28.594  1.00  0.00     0.010 A 
ATOM     13  C   UNL A   1      37.018  30.450  29.049  1.00  0.00    -0.014 A 
BRANCH  13  14
ATOM     14  C   UNL A   1      38.088  29.976  29.950  1.00  0.00     0.031 A 
ATOM     15  C   UNL A   1      39.135  29.066  29.369  1.00  0.00     0.074 A 
ATOM     16  C   UNL A   1      38.233  30.519  31.172  1.00  0.00     0.049 A 
ATOM     17  N   UNL A   1      40.231  28.613  29.913  1.00  0.00    -0.248 NA
ATOM     18  C   UNL A   1      38.936  28.639  27.972  1.00  0.00     0.031 C 
ATOM     19  C   UNL A   1      37.339  31.519  31.758  1.00  0.00     0.029 A 
ATOM     20  N   UNL A   1      39.213  30.352  32.115  1.00  0.00    -0.354 N 
ATOM     21  C   UNL A   1      40.858  27.865  28.924  1.00  0.00     0.074 A 
ATOM     22  C   UNL A   1      40.010  27.898  27.755  1.00  0.00     0.031 C 
ATOM     23  C   UNL A   1      37.830  31.899  32.949  1.00  0.00     0.029 A 
ATOM     24  C   UNL A   1      39.044  31.138  33.231  1.00  0.00     0.049 A 
ATOM     25  H   UNL A   1      39.966  29.728  32.004  1.00  0.00     0.167 HD
ATOM     26  C   UNL A   1      42.043  27.216  28.986  1.00  0.00     0.034 A 
ATOM     27  C   UNL A   1      39.782  31.217  34.357  1.00  0.00     0.034 A 
ATOM     28  C   UNL A   1      42.862  27.180  30.166  1.00  0.00     0.049 A 
ATOM     29  C   UNL A   1      41.014  30.357  34.460  1.00  0.00     0.074 A 
ATOM     30  C   UNL A   1      44.040  26.489  30.379  1.00  0.00     0.029 A 
ATOM     31  N   UNL A   1      42.576  27.865  31.339  1.00  0.00    -0.354 N 
ATOM     32  N   UNL A   1      41.554  29.583  33.546  1.00  0.00    -0.248 NA
ATOM     33  C   UNL A   1      41.727  30.362  35.744  1.00  0.00     0.031 C 
ATOM     34  C   UNL A   1      44.437  26.714  31.701  1.00  0.00     0.029 A 
ATOM     35  C   UNL A   1      43.536  27.586  32.293  1.00  0.00     0.049 A 
ATOM     36  H   UNL A   1      41.803  28.460  31.471  1.00  0.00     0.167 HD
ATOM     37  C   UNL A   1      42.669  29.007  34.145  1.00  0.00     0.074 A 
ATOM     38  C   UNL A   1      42.735  29.536  35.493  1.00  0.00     0.031 C 
ATOM     39  C   UNL A   1      43.556  28.119  33.633  1.00  0.00     0.034 A 
BRANCH  26  40
ATOM     40  C   UNL A   1      42.466  26.444  27.768  1.00  0.00     0.023 A 
ATOM     41  C   UNL A   1      42.342  25.046  27.702  1.00  0.00     0.031 A 
ATOM     42  C   UNL A   1      43.040  27.116  26.676  1.00  0.00     0.131 A 
ATOM     43  C   UNL A   1      42.828  24.358  26.580  1.00  0.00     0.055 A 
ATOM     44  C   UNL A   1      43.471  26.431  25.539  1.00  0.00     0.041 A 
ATOM     45  F   UNL A   1      43.208  28.447  26.706  1.00  0.00    -0.206 F 
ATOM     46  C   UNL A   1      43.373  25.043  25.490  1.00  0.00     0.022 A 
BRANCH  43  47
ATOM     47  S   UNL A   1      42.814  22.544  26.590  1.00  0.00     0.124 S 
ATOM     48  O   UNL A   1      44.219  22.237  26.335  1.00  0.00    -0.237 OA
ATOM     49  O   UNL A   1      42.327  22.235  27.929  1.00  0.00    -0.237 OA
ATOM     50  O   UNL A   1      41.899  22.204  25.502  1.00  0.00    -0.744 OA
ENDBRANCH  43  47
ENDBRANCH  26  40
BRANCH  27  51
ATOM     51  C   UNL A   1      39.337  32.070  35.496  1.00  0.00     0.023 A 
ATOM     52  C   UNL A   1      39.841  33.366  35.692  1.00  0.00     0.031 A 
ATOM     53  C   UNL A   1      38.414  31.573  36.435  1.00  0.00     0.131 A 
ATOM     54  C   UNL A   1      39.433  34.112  36.811  1.00  0.00     0.055 A 
ATOM     55  C   UNL A   1      37.982  32.332  37.523  1.00  0.00     0.041 A 
ATOM     56  F   UNL A   1      37.910  30.336  36.299  1.00  0.00    -0.206 F 
ATOM     57  C   UNL A   1      38.498  33.608  37.720  1.00  0.00     0.022 A 
BRANCH  54  58
ATOM     58  S   UNL A   1      40.174  35.744  37.097  1.00  0.00     0.124 S 
ATOM     59  O   UNL A   1      39.661  36.075  38.422  1.00  0.00    -0.237 OA
ATOM     60  O   UNL A   1      41.601  35.449  37.017  1.00  0.00    -0.237 OA
ATOM     61  O   UNL A   1      39.647  36.555  36.002  1.00  0.00    -0.744 OA
ENDBRANCH  54  58
ENDBRANCH  27  51
BRANCH  39  62
ATOM     62  C   UNL A   1      44.666  27.660  34.533  1.00  0.00     0.023 A 
ATOM     63  C   UNL A   1      44.534  26.489  35.296  1.00  0.00     0.031 A 
ATOM     64  C   UNL A   1      45.887  28.353  34.565  1.00  0.00     0.131 A 
ATOM     65  C   UNL A   1      45.610  26.048  36.077  1.00  0.00     0.055 A 
ATOM     66  C   UNL A   1      46.967  27.888  35.315  1.00  0.00     0.041 A 
ATOM     67  F   UNL A   1      46.056  29.471  33.842  1.00  0.00    -0.206 F 
ATOM     68  C   UNL A   1      46.831  26.730  36.077  1.00  0.00     0.022 A 
BRANCH  65  69
ATOM     69  S   UNL A   1      45.398  24.563  37.094  1.00  0.00     0.124 S 
ATOM     70  O   UNL A   1      44.427  23.800  36.314  1.00  0.00    -0.237 OA
ATOM     71  O   UNL A   1      46.749  24.014  37.144  1.00  0.00    -0.237 OA
ATOM     72  O   UNL A   1      44.898  25.088  38.364  1.00  0.00    -0.744 OA
ENDBRANCH  65  69
ENDBRANCH  39  62
ENDBRANCH  13  14
ENDBRANCH   6   8
ENDBRANCH   5   6
ENDBRANCH   4   5
ENDBRANCH   3   4
ENDBRANCH   2   3
ENDBRANCH   1   2
BRANCH   1  73
ATOM     73  C   UNL A   1      30.699  27.026  24.559  1.00  0.00     0.188 C 
BRANCH  73  74
ATOM     74  O   UNL A   1      31.321  25.853  24.052  1.00  0.00    -0.376 OA
BRANCH  74  75
ATOM     75  C   UNL A   1      32.426  26.071  23.163  1.00  0.00     0.202 C 
BRANCH  75  76
ATOM     76  C   UNL A   1      33.814  25.970  23.799  1.00  0.00     0.261 C 
BRANCH  76  77
ATOM     77  O   UNL A   1      34.018  24.710  24.476  1.00  0.00    -0.460 OA
BRANCH  77  78
ATOM     78  C   UNL A   1      34.567  23.765  23.675  1.00  0.00     0.342 C 
ATOM     79  O   UNL A   1      34.147  23.427  22.569  1.00  0.00    -0.246 OA
BRANCH  78  80
ATOM     80  C   UNL A   1      35.655  23.025  24.330  1.00  0.00     0.103 A 
ATOM     81  C   UNL A   1      36.673  23.816  24.884  1.00  0.00     0.035 A 
ATOM     82  C   UNL A   1      35.621  21.645  24.583  1.00  0.00     0.134 A 
ATOM     83  C   UNL A   1      37.653  23.228  25.677  1.00  0.00     0.019 A 
ATOM     84  C   UNL A   1      36.645  21.060  25.338  1.00  0.00     0.048 A 
ATOM     85  Br  UNL A   1      38.964  24.314  26.496  1.00  0.00    -0.051 Br
ATOM     86  C   UNL A   1      37.650  21.853  25.899  1.00  0.00     0.019 A 
BRANCH  82  87
ATOM     87  O   UNL A   1      34.606  20.872  24.086  1.00  0.00    -0.488 OA
BRANCH  87  88
ATOM     88  C   UNL A   1      33.814  20.215  25.093  1.00  0.00     0.268 C 
BRANCH  88  89
ATOM     89  C   UNL A   1      32.892  21.223  25.725  1.00  0.00     0.025 A 
ATOM     90  C   UNL A   1      31.771  21.713  25.042  1.00  0.00     0.010 A 
ATOM     91  C   UNL A   1      33.224  21.789  26.957  1.00  0.00     0.129 A 
ATOM     92  C   UNL A   1      31.059  22.804  25.551  1.00  0.00     0.001 A 
ATOM     93  C   UNL A   1      32.525  22.879  27.464  1.00  0.00     0.039 A 
ATOM     94  F   UNL A   1      34.265  21.310  27.653  1.00  0.00    -0.207 F 
ATOM     95  C   UNL A   1      31.450  23.399  26.749  1.00  0.00     0.003 A 
ENDBRANCH  88  89
ENDBRANCH  87  88
ENDBRANCH  82  87
ENDBRANCH  78  80
ENDBRANCH  77  78
ENDBRANCH  76  77
ENDBRANCH  75  76
ENDBRANCH  74  75
ENDBRANCH  73  74
ENDBRANCH   1  73
TORSDOF 23
ENDMDL
MODEL 2
REMARK VINA RESULT:     -10.0      1.583      2.276
REMARK SMILES O=C(OCCOCCOCCOC(=O)c1cc(Br)ccc1OCc1ccccc1F)c1ccc(-c2c3nc(c(-c4cc(S(=O)(=O)[O-])ccc4F)c4ccc([nH]4)c(-c4cc(S(=O)(=O)[O-])ccc4F)c4nc(c(-c5cc(S(=O)(=O)[O-])ccc5F)c5ccc2[nH]5)C=C4)C=C3)cc1
REMARK SMILES IDX 7 1 6 2 5 3 4 4 3 5 2 6 1 7 31 8 32 9 93 10 33 11 92 12
REMARK SMILES IDX 34 13 35 14 36 15 86 16 37 17 91 18 85 19 87 20 38 21 90 22
REMARK SMILES IDX 84 23 83 24 39 26 71 27 51 28 70 29 52 30 55 31 69 32 88 33
REMARK SMILES IDX 53 34 54 35 68 37 89 38 56 39 40 40 41 41 49 42 42 43 48 44
REMARK SMILES IDX 50 45 47 46 43 47 44 48 45 49 46 50 72 51 73 52 81 53 74 54
REMARK SMILES IDX 80 55 82 56 79 57 75 58 76 59 77 60 78 61 57 62 58 63 66 64
REMARK SMILES IDX 59 65 65 66 67 67 64 68 60 69 61 70 62 71 63 72 8 73 9 74
REMARK SMILES IDX 10 75 11 76 12 77 13 78 14 79 15 80 16 81 21 82 17 83 20 84
REMARK SMILES IDX 18 85 19 86 22 87 23 88 24 89 25 90 29 91 26 92 28 93 30 94
REMARK SMILES IDX 27 95
REMARK H PARENT 87 25 55 36
REMARK Flexibility Score: inf
ROOT
ATOM      1  C   UNL A   1      31.849  28.666  25.593  1.00  0.00     0.188 C 
ENDROOT
BRANCH   1   2
ATOM      2  O   UNL A   1      31.729  30.072  25.426  1.00  0.00    -0.376 OA
BRANCH   2   3
ATOM      3  C   UNL A   1      31.728  30.812  26.641  1.00  0.00     0.202 C 
BRANCH   3   4
ATOM      4  C   UNL A   1      31.517  32.322  26.432  1.00  0.00     0.261 C 
BRANCH   4   5
ATOM      5  O   UNL A   1      32.077  33.094  27.518  1.00  0.00    -0.460 OA
BRANCH   5   6
ATOM      6  C   UNL A   1      33.334  33.577  27.677  1.00  0.00     0.338 C 
ATOM      7  O   UNL A   1      33.547  34.752  27.372  1.00  0.00    -0.246 OA
BRANCH   6   8
ATOM      8  C   UNL A   1      34.483  32.783  28.215  1.00  0.00     0.060 A 
ATOM      9  C   UNL A   1      34.395  31.479  28.701  1.00  0.00     0.016 A 
ATOM     10  C   UNL A   1      35.758  33.382  28.179  1.00  0.00     0.016 A 
ATOM     11  C   UNL A   1      35.497  30.830  29.243  1.00  0.00     0.010 A 
ATOM     12  C   UNL A   1      36.884  32.725  28.693  1.00  0.00     0.010 A 
ATOM     13  C   UNL A   1      36.739  31.462  29.275  1.00  0.00    -0.014 A 
BRANCH  13  14
ATOM     14  C   UNL A   1      37.782  30.844  30.119  1.00  0.00     0.031 A 
ATOM     15  C   UNL A   1      38.724  29.873  29.462  1.00  0.00     0.074 A 
ATOM     16  C   UNL A   1      38.008  31.305  31.362  1.00  0.00     0.049 A 
ATOM     17  N   UNL A   1      39.786  29.293  29.950  1.00  0.00    -0.248 NA
ATOM     18  C   UNL A   1      38.451  29.541  28.052  1.00  0.00     0.031 C 
ATOM     19  C   UNL A   1      37.226  32.351  32.025  1.00  0.00     0.029 A 
ATOM     20  N   UNL A   1      38.990  30.998  32.266  1.00  0.00    -0.354 N 
ATOM     21  C   UNL A   1      40.315  28.543  28.906  1.00  0.00     0.074 A 
ATOM     22  C   UNL A   1      39.445  28.717  27.766  1.00  0.00     0.031 C 
ATOM     23  C   UNL A   1      37.781  32.620  33.218  1.00  0.00     0.029 A 
ATOM     24  C   UNL A   1      38.924  31.736  33.425  1.00  0.00     0.049 A 
ATOM     25  H   UNL A   1      39.679  30.314  32.101  1.00  0.00     0.167 HD
ATOM     26  C   UNL A   1      41.435  27.785  28.900  1.00  0.00     0.034 A 
ATOM     27  C   UNL A   1      39.693  31.686  34.531  1.00  0.00     0.034 A 
ATOM     28  C   UNL A   1      42.275  27.610  30.051  1.00  0.00     0.049 A 
ATOM     29  C   UNL A   1      40.842  30.711  34.554  1.00  0.00     0.074 A 
ATOM     30  C   UNL A   1      43.388  26.802  30.194  1.00  0.00     0.029 A 
ATOM     31  N   UNL A   1      42.085  28.255  31.266  1.00  0.00    -0.354 N 
ATOM     32  N   UNL A   1      41.283  29.940  33.586  1.00  0.00    -0.248 NA
ATOM     33  C   UNL A   1      41.583  30.582  35.815  1.00  0.00     0.031 C 
ATOM     34  C   UNL A   1      43.837  26.919  31.513  1.00  0.00     0.029 A 
ATOM     35  C   UNL A   1      43.037  27.838  32.176  1.00  0.00     0.049 A 
ATOM     36  H   UNL A   1      41.374  28.911  31.451  1.00  0.00     0.167 HD
ATOM     37  C   UNL A   1      42.353  29.232  34.122  1.00  0.00     0.074 A 
ATOM     38  C   UNL A   1      42.503  29.681  35.493  1.00  0.00     0.031 C 
ATOM     39  C   UNL A   1      43.141  28.295  33.540  1.00  0.00     0.034 A 
BRANCH  26  40
ATOM     40  C   UNL A   1      41.753  27.043  27.632  1.00  0.00     0.023 A 
ATOM     41  C   UNL A   1      41.610  25.648  27.539  1.00  0.00     0.031 A 
ATOM     42  C   UNL A   1      42.246  27.740  26.516  1.00  0.00     0.131 A 
ATOM     43  C   UNL A   1      41.999  24.987  26.364  1.00  0.00     0.055 A 
ATOM     44  C   UNL A   1      42.580  27.083  25.331  1.00  0.00     0.041 A 
ATOM     45  F   UNL A   1      42.430  29.068  26.568  1.00  0.00    -0.206 F 
ATOM     46  C   UNL A   1      42.463  25.698  25.253  1.00  0.00     0.022 A 
BRANCH  43  47
ATOM     47  S   UNL A   1      41.967  23.174  26.326  1.00  0.00     0.124 S 
ATOM     48  O   UNL A   1      42.692  22.841  27.550  1.00  0.00    -0.237 OA
ATOM     49  O   UNL A   1      40.539  22.879  26.332  1.00  0.00    -0.237 OA
ATOM     50  O   UNL A   1      42.664  22.845  25.085  1.00  0.00    -0.744 OA
ENDBRANCH  43  47
ENDBRANCH  26  40
BRANCH  27  51
ATOM     51  C   UNL A   1      39.360  32.515  35.725  1.00  0.00     0.023 A 
ATOM     52  C   UNL A   1      39.806  33.839  35.856  1.00  0.00     0.031 A 
ATOM     53  C   UNL A   1      38.607  31.965  36.780  1.00  0.00     0.131 A 
ATOM     54  C   UNL A   1      39.511  34.563  37.024  1.00  0.00     0.055 A 
ATOM     55  C   UNL A   1      38.284  32.700  37.921  1.00  0.00     0.041 A 
ATOM     56  F   UNL A   1      38.165  30.699  36.710  1.00  0.00    -0.206 F 
ATOM     57  C   UNL A   1      38.743  34.006  38.051  1.00  0.00     0.022 A 
BRANCH  54  58
ATOM     58  S   UNL A   1      40.184  36.239  37.213  1.00  0.00     0.124 S 
ATOM     59  O   UNL A   1      41.592  35.965  37.476  1.00  0.00    -0.237 OA
ATOM     60  O   UNL A   1      39.879  36.837  35.918  1.00  0.00    -0.237 OA
ATOM     61  O   UNL A   1      39.432  36.784  38.340  1.00  0.00    -0.744 OA
ENDBRANCH  54  58
ENDBRANCH  27  51
BRANCH  39  62
ATOM     62  C   UNL A   1      44.224  27.687  34.382  1.00  0.00     0.023 A 
ATOM     63  C   UNL A   1      44.029  26.453  35.022  1.00  0.00     0.031 A 
ATOM     64  C   UNL A   1      45.480  28.307  34.477  1.00  0.00     0.131 A 
ATOM     65  C   UNL A   1      45.080  25.878  35.748  1.00  0.00     0.055 A 
ATOM     66  C   UNL A   1      46.534  27.711  35.170  1.00  0.00     0.041 A 
ATOM     67  F   UNL A   1      45.709  29.482  33.871  1.00  0.00    -0.206 F 
ATOM     68  C   UNL A   1      46.336  26.490  35.811  1.00  0.00     0.022 A 
BRANCH  65  69
ATOM     69  S   UNL A   1      44.788  24.311  36.611  1.00  0.00     0.124 S 
ATOM     70  O   UNL A   1      43.665  23.759  35.858  1.00  0.00    -0.237 OA
ATOM     71  O   UNL A   1      46.063  23.618  36.454  1.00  0.00    -0.237 OA
ATOM     72  O   UNL A   1      44.476  24.726  37.977  1.00  0.00    -0.744 OA
ENDBRANCH  65  69
ENDBRANCH  39  62
ENDBRANCH  13  14
ENDBRANCH   6   8
ENDBRANCH   5   6
ENDBRANCH   4   5
ENDBRANCH   3   4
ENDBRANCH   2   3
ENDBRANCH   1   2
BRANCH   1  73
ATOM     73  C   UNL A   1      31.023  27.840  24.605  1.00  0.00     0.188 C 
BRANCH  73  74
ATOM     74  O   UNL A   1      31.480  26.524  24.324  1.00  0.00    -0.376 OA
BRANCH  74  75
ATOM     75  C   UNL A   1      31.769  25.709  25.468  1.00  0.00     0.202 C 
BRANCH  75  76
ATOM     76  C   UNL A   1      30.686  24.696  25.847  1.00  0.00     0.261 C 
BRANCH  76  77
ATOM     77  O   UNL A   1      31.131  23.331  25.691  1.00  0.00    -0.460 OA
BRANCH  77  78
ATOM     78  C   UNL A   1      31.801  23.125  24.531  1.00  0.00     0.342 C 
ATOM     79  O   UNL A   1      31.369  23.348  23.401  1.00  0.00    -0.246 OA
BRANCH  78  80
ATOM     80  C   UNL A   1      33.081  22.428  24.728  1.00  0.00     0.103 A 
ATOM     81  C   UNL A   1      34.202  23.259  24.878  1.00  0.00     0.035 A 
ATOM     82  C   UNL A   1      33.192  21.049  24.958  1.00  0.00     0.134 A 
ATOM     83  C   UNL A   1      35.426  22.711  25.246  1.00  0.00     0.019 A 
ATOM     84  C   UNL A   1      34.444  20.504  25.274  1.00  0.00     0.048 A 
ATOM     85  Br  UNL A   1      36.907  23.847  25.538  1.00  0.00    -0.051 Br
ATOM     86  C   UNL A   1      35.555  21.337  25.434  1.00  0.00     0.019 A 
BRANCH  82  87
ATOM     87  O   UNL A   1      32.095  20.236  24.860  1.00  0.00    -0.488 OA
BRANCH  87  88
ATOM     88  C   UNL A   1      32.107  19.358  23.719  1.00  0.00     0.268 C 
BRANCH  88  89
ATOM     89  C   UNL A   1      32.610  18.005  24.148  1.00  0.00     0.025 A 
ATOM     90  C   UNL A   1      32.351  17.505  25.431  1.00  0.00     0.010 A 
ATOM     91  C   UNL A   1      33.466  17.287  23.311  1.00  0.00     0.129 A 
ATOM     92  C   UNL A   1      33.008  16.357  25.885  1.00  0.00     0.001 A 
ATOM     93  C   UNL A   1      34.128  16.149  23.758  1.00  0.00     0.039 A 
ATOM     94  F   UNL A   1      33.696  17.718  22.063  1.00  0.00    -0.207 F 
ATOM     95  C   UNL A   1      33.912  15.694  25.056  1.00  0.00     0.003 A 
ENDBRANCH  88  89
ENDBRANCH  87  88
ENDBRANCH  82  87
ENDBRANCH  78  80
ENDBRANCH  77  78
ENDBRANCH  76  77
ENDBRANCH  75  76
ENDBRANCH  74  75
ENDBRANCH  73  74
ENDBRANCH   1  73
TORSDOF 23
ENDMDL
MODEL 3
REMARK VINA RESULT:     -10.0      2.468      8.015
REMARK SMILES O=C(OCCOCCOCCOC(=O)c1cc(Br)ccc1OCc1ccccc1F)c1ccc(-c2c3nc(c(-c4cc(S(=O)(=O)[O-])ccc4F)c4ccc([nH]4)c(-c4cc(S(=O)(=O)[O-])ccc4F)c4nc(c(-c5cc(S(=O)(=O)[O-])ccc5F)c5ccc2[nH]5)C=C4)C=C3)cc1
REMARK SMILES IDX 7 1 6 2 5 3 4 4 3 5 2 6 1 7 31 8 32 9 93 10 33 11 92 12
REMARK SMILES IDX 34 13 35 14 36 15 86 16 37 17 91 18 85 19 87 20 38 21 90 22
REMARK SMILES IDX 84 23 83 24 39 26 71 27 51 28 70 29 52 30 55 31 69 32 88 33
REMARK SMILES IDX 53 34 54 35 68 37 89 38 56 39 40 40 41 41 49 42 42 43 48 44
REMARK SMILES IDX 50 45 47 46 43 47 44 48 45 49 46 50 72 51 73 52 81 53 74 54
REMARK SMILES IDX 80 55 82 56 79 57 75 58 76 59 77 60 78 61 57 62 58 63 66 64
REMARK SMILES IDX 59 65 65 66 67 67 64 68 60 69 61 70 62 71 63 72 8 73 9 74
REMARK SMILES IDX 10 75 11 76 12 77 13 78 14 79 15 80 16 81 21 82 17 83 20 84
REMARK SMILES IDX 18 85 19 86 22 87 23 88 24 89 25 90 29 91 26 92 28 93 30 94
REMARK SMILES IDX 27 95
REMARK H PARENT 87 25 55 36
REMARK Flexibility Score: inf
ROOT
ATOM      1  C   UNL A   1      31.431  28.189  27.554  1.00  0.00     0.188 C 
ENDROOT
BRANCH   1   2
ATOM      2  O   UNL A   1      32.659  28.864  27.313  1.00  0.00    -0.376 OA
BRANCH   2   3
ATOM      3  C   UNL A   1      32.646  29.725  26.180  1.00  0.00     0.202 C 
BRANCH   3   4
ATOM      4  C   UNL A   1      32.058  31.115  26.480  1.00  0.00     0.261 C 
BRANCH   4   5
ATOM      5  O   UNL A   1      32.599  31.671  27.699  1.00  0.00    -0.460 OA
BRANCH   5   6
ATOM      6  C   UNL A   1      33.717  32.413  27.890  1.00  0.00     0.338 C 
ATOM      7  O   UNL A   1      33.617  33.639  27.831  1.00  0.00    -0.246 OA
BRANCH   6   8
ATOM      8  C   UNL A   1      35.070  31.842  28.183  1.00  0.00     0.060 A 
ATOM      9  C   UNL A   1      35.343  30.487  28.364  1.00  0.00     0.016 A 
ATOM     10  C   UNL A   1      36.155  32.739  28.227  1.00  0.00     0.016 A 
ATOM     11  C   UNL A   1      36.616  30.041  28.696  1.00  0.00     0.010 A 
ATOM     12  C   UNL A   1      37.451  32.296  28.529  1.00  0.00     0.010 A 
ATOM     13  C   UNL A   1      37.669  30.946  28.816  1.00  0.00    -0.014 A 
BRANCH  13  14
ATOM     14  C   UNL A   1      38.907  30.450  29.451  1.00  0.00     0.031 A 
ATOM     15  C   UNL A   1      39.197  30.901  30.856  1.00  0.00     0.074 A 
ATOM     16  C   UNL A   1      39.617  29.465  28.872  1.00  0.00     0.049 A 
ATOM     17  N   UNL A   1      40.145  30.519  31.667  1.00  0.00    -0.248 NA
ATOM     18  C   UNL A   1      38.271  31.890  31.435  1.00  0.00     0.031 C 
ATOM     19  C   UNL A   1      39.318  28.869  27.569  1.00  0.00     0.029 A 
ATOM     20  N   UNL A   1      40.697  28.755  29.325  1.00  0.00    -0.354 N 
ATOM     21  C   UNL A   1      39.919  31.206  32.854  1.00  0.00     0.074 A 
ATOM     22  C   UNL A   1      38.765  32.050  32.652  1.00  0.00     0.031 C 
ATOM     23  C   UNL A   1      40.176  27.860  27.343  1.00  0.00     0.029 A 
ATOM     24  C   UNL A   1      41.113  27.770  28.459  1.00  0.00     0.049 A 
ATOM     25  H   UNL A   1      41.134  28.932  30.189  1.00  0.00     0.167 HD
ATOM     26  C   UNL A   1      40.612  31.130  34.014  1.00  0.00     0.034 A 
ATOM     27  C   UNL A   1      42.145  26.908  28.555  1.00  0.00     0.034 A 
ATOM     28  C   UNL A   1      41.770  30.299  34.187  1.00  0.00     0.049 A 
ATOM     29  C   UNL A   1      42.998  26.958  29.796  1.00  0.00     0.074 A 
ATOM     30  C   UNL A   1      42.605  30.198  35.284  1.00  0.00     0.029 A 
ATOM     31  N   UNL A   1      42.259  29.426  33.225  1.00  0.00    -0.354 N 
ATOM     32  N   UNL A   1      42.826  27.677  30.882  1.00  0.00    -0.248 NA
ATOM     33  C   UNL A   1      44.191  26.102  29.821  1.00  0.00     0.031 C 
ATOM     34  C   UNL A   1      43.631  29.303  34.963  1.00  0.00     0.029 A 
ATOM     35  C   UNL A   1      43.405  28.807  33.688  1.00  0.00     0.049 A 
ATOM     36  H   UNL A   1      41.850  29.271  32.342  1.00  0.00     0.167 HD
ATOM     37  C   UNL A   1      43.890  27.361  31.720  1.00  0.00     0.074 A 
ATOM     38  C   UNL A   1      44.689  26.373  31.021  1.00  0.00     0.031 C 
ATOM     39  C   UNL A   1      44.185  27.843  32.952  1.00  0.00     0.034 A 
BRANCH  26  40
ATOM     40  C   UNL A   1      40.168  32.024  35.136  1.00  0.00     0.023 A 
ATOM     41  C   UNL A   1      39.296  31.570  36.141  1.00  0.00     0.031 A 
ATOM     42  C   UNL A   1      40.591  33.363  35.176  1.00  0.00     0.131 A 
ATOM     43  C   UNL A   1      38.840  32.464  37.122  1.00  0.00     0.055 A 
ATOM     44  C   UNL A   1      40.178  34.233  36.186  1.00  0.00     0.041 A 
ATOM     45  F   UNL A   1      41.398  33.852  34.221  1.00  0.00    -0.206 F 
ATOM     46  C   UNL A   1      39.292  33.786  37.163  1.00  0.00     0.022 A 
BRANCH  43  47
ATOM     47  S   UNL A   1      37.586  31.902  38.305  1.00  0.00     0.124 S 
ATOM     48  O   UNL A   1      38.296  32.040  39.574  1.00  0.00    -0.237 OA
ATOM     49  O   UNL A   1      36.492  32.840  38.082  1.00  0.00    -0.237 OA
ATOM     50  O   UNL A   1      37.318  30.526  37.892  1.00  0.00    -0.744 OA
ENDBRANCH  43  47
ENDBRANCH  26  40
BRANCH  27  51
ATOM     51  C   UNL A   1      42.476  25.992  27.427  1.00  0.00     0.023 A 
ATOM     52  C   UNL A   1      42.053  24.653  27.410  1.00  0.00     0.031 A 
ATOM     53  C   UNL A   1      43.263  26.448  26.352  1.00  0.00     0.131 A 
ATOM     54  C   UNL A   1      42.436  23.813  26.349  1.00  0.00     0.055 A 
ATOM     55  C   UNL A   1      43.608  25.621  25.283  1.00  0.00     0.041 A 
ATOM     56  F   UNL A   1      43.701  27.717  26.325  1.00  0.00    -0.206 F 
ATOM     57  C   UNL A   1      43.200  24.292  25.281  1.00  0.00     0.022 A 
BRANCH  54  58
ATOM     58  S   UNL A   1      41.961  22.062  26.401  1.00  0.00     0.124 S 
ATOM     59  O   UNL A   1      40.564  22.120  25.987  1.00  0.00    -0.237 OA
ATOM     60  O   UNL A   1      42.889  21.466  25.445  1.00  0.00    -0.237 OA
ATOM     61  O   UNL A   1      42.184  21.689  27.796  1.00  0.00    -0.744 OA
ENDBRANCH  54  58
ENDBRANCH  27  51
BRANCH  39  62
ATOM     62  C   UNL A   1      45.423  27.318  33.617  1.00  0.00     0.023 A 
ATOM     63  C   UNL A   1      46.647  27.993  33.493  1.00  0.00     0.031 A 
ATOM     64  C   UNL A   1      45.359  26.183  34.442  1.00  0.00     0.131 A 
ATOM     65  C   UNL A   1      47.773  27.517  34.178  1.00  0.00     0.055 A 
ATOM     66  C   UNL A   1      46.474  25.736  35.151  1.00  0.00     0.041 A 
ATOM     67  F   UNL A   1      44.205  25.515  34.595  1.00  0.00    -0.206 F 
ATOM     68  C   UNL A   1      47.689  26.404  35.020  1.00  0.00     0.022 A 
BRANCH  65  69
ATOM     69  S   UNL A   1      49.354  28.375  33.959  1.00  0.00     0.124 S 
ATOM     70  O   UNL A   1      48.926  29.765  33.830  1.00  0.00    -0.237 OA
ATOM     71  O   UNL A   1      50.071  28.040  35.185  1.00  0.00    -0.237 OA
ATOM     72  O   UNL A   1      49.901  27.778  32.742  1.00  0.00    -0.744 OA
ENDBRANCH  65  69
ENDBRANCH  39  62
ENDBRANCH  13  14
ENDBRANCH   6   8
ENDBRANCH   5   6
ENDBRANCH   4   5
ENDBRANCH   3   4
ENDBRANCH   2   3
ENDBRANCH   1   2
BRANCH   1  73
ATOM     73  C   UNL A   1      31.048  27.172  26.477  1.00  0.00     0.188 C 
BRANCH  73  74
ATOM     74  O   UNL A   1      31.031  25.803  26.859  1.00  0.00    -0.376 OA
BRANCH  74  75
ATOM     75  C   UNL A   1      30.455  24.899  25.906  1.00  0.00     0.202 C 
BRANCH  75  76
ATOM     76  C   UNL A   1      30.326  23.446  26.370  1.00  0.00     0.261 C 
BRANCH  76  77
ATOM     77  O   UNL A   1      31.361  22.600  25.823  1.00  0.00    -0.460 OA
BRANCH  77  78
ATOM     78  C   UNL A   1      32.294  22.250  26.741  1.00  0.00     0.342 C 
ATOM     79  O   UNL A   1      32.395  22.710  27.876  1.00  0.00    -0.246 OA
BRANCH  78  80
ATOM     80  C   UNL A   1      33.324  21.355  26.193  1.00  0.00     0.103 A 
ATOM     81  C   UNL A   1      32.850  20.150  25.653  1.00  0.00     0.035 A 
ATOM     82  C   UNL A   1      34.667  21.723  26.017  1.00  0.00     0.134 A 
ATOM     83  C   UNL A   1      33.715  19.316  24.953  1.00  0.00     0.019 A 
ATOM     84  C   UNL A   1      35.538  20.848  25.357  1.00  0.00     0.048 A 
ATOM     85  Br  UNL A   1      33.047  17.742  24.149  1.00  0.00    -0.051 Br
ATOM     86  C   UNL A   1      35.059  19.654  24.810  1.00  0.00     0.019 A 
BRANCH  82  87
ATOM     87  O   UNL A   1      35.129  22.918  26.499  1.00  0.00    -0.488 OA
BRANCH  87  88
ATOM     88  C   UNL A   1      35.967  23.644  25.580  1.00  0.00     0.268 C 
BRANCH  88  89
ATOM     89  C   UNL A   1      35.100  24.520  24.715  1.00  0.00     0.025 A 
ATOM     90  C   UNL A   1      34.560  25.718  25.202  1.00  0.00     0.010 A 
ATOM     91  C   UNL A   1      34.709  24.075  23.451  1.00  0.00     0.129 A 
ATOM     92  C   UNL A   1      33.586  26.400  24.467  1.00  0.00     0.001 A 
ATOM     93  C   UNL A   1      33.735  24.744  22.719  1.00  0.00     0.039 A 
ATOM     94  F   UNL A   1      35.243  22.956  22.942  1.00  0.00    -0.207 F 
ATOM     95  C   UNL A   1      33.158  25.901  23.238  1.00  0.00     0.003 A 
ENDBRANCH  88  89
ENDBRANCH  87  88
ENDBRANCH  82  87
ENDBRANCH  78  80
ENDBRANCH  77  78
ENDBRANCH  76  77
ENDBRANCH  75  76
ENDBRANCH  74  75
ENDBRANCH  73  74
ENDBRANCH   1  73
TORSDOF 23
ENDMDL
