MODEL 1
REMARK VINA RESULT:     -10.1      0.000      0.000
REMARK SMILES O=C1NC(=S)S/C1=C\c1ccc(OCc2cn(-c3ccc(C(=O)OCCOCCOCCOC(=O)c4ccc(-c5c6nc(c(-c7cc(S(=O)(=O)[O-])ccc7F)c7ccc([nH]7)c(-c7cc(S(=O)(=O)[O-])ccc7F)c7nc(c(-c8cc(S(=O)(=O)[O-])ccc8F)c8ccc5[nH]8)C=C7)C=C6)cc4)cc3)nn2)cc1
REMARK SMILES IDX 28 1 27 2 26 3 25 4 24 5 22 6 23 7 21 8 18 9 19 10 100 11
REMARK SMILES IDX 20 12 99 13 17 14 15 15 16 16 102 17 101 18 14 19 13 20
REMARK SMILES IDX 12 21 9 22 10 23 104 24 11 25 103 26 8 27 1 28 2 29 3 30
REMARK SMILES IDX 7 31 4 32 6 34 5 35 29 36 30 37 31 38 32 39 33 40 34 41
REMARK SMILES IDX 35 42 36 43 37 44 98 45 38 46 97 47 39 48 40 49 41 50 91 51
REMARK SMILES IDX 42 52 96 53 90 54 92 55 43 56 95 57 89 58 88 59 44 61 76 62
REMARK SMILES IDX 56 63 75 64 57 65 60 66 74 67 93 68 58 69 59 70 73 72 94 73
REMARK SMILES IDX 61 74 45 75 46 76 54 77 47 78 53 79 55 80 52 81 48 82 49 83
REMARK SMILES IDX 50 84 51 85 77 86 78 87 86 88 79 89 85 90 87 91 84 92 80 93
REMARK SMILES IDX 81 94 82 95 83 96 62 97 63 98 71 99 64 100 70 101 72 102
REMARK SMILES IDX 69 103 65 104 66 105 67 106 68 107
REMARK H PARENT 3 33 92 60 60 71
REMARK Flexibility Score: inf
ROOT
ATOM      1  C   UNL A   1      31.479  31.930  26.543  1.00  0.00     0.188 C 
ENDROOT
BRANCH   1   2
ATOM      2  O   UNL A   1      31.751  33.005  27.427  1.00  0.00    -0.376 OA
BRANCH   2   3
ATOM      3  C   UNL A   1      33.042  33.585  27.508  1.00  0.00     0.202 C 
BRANCH   3   4
ATOM      4  C   UNL A   1      33.988  33.406  28.713  1.00  0.00     0.261 C 
BRANCH   4   5
ATOM      5  O   UNL A   1      34.319  34.582  29.459  1.00  0.00    -0.460 OA
BRANCH   5   6
ATOM      6  C   UNL A   1      33.584  34.801  30.569  1.00  0.00     0.338 C 
ATOM      7  O   UNL A   1      32.436  35.218  30.624  1.00  0.00    -0.246 OA
BRANCH   6   8
ATOM      8  C   UNL A   1      34.306  34.301  31.756  1.00  0.00     0.060 A 
ATOM      9  C   UNL A   1      35.826  33.506  33.953  1.00  0.00     0.066 A 
ATOM     10  C   UNL A   1      35.378  34.832  33.858  1.00  0.00     0.029 A 
ATOM     11  C   UNL A   1      35.427  32.556  33.001  1.00  0.00     0.029 A 
ATOM     12  C   UNL A   1      34.654  35.234  32.740  1.00  0.00     0.018 A 
ATOM     13  C   UNL A   1      34.640  32.951  31.912  1.00  0.00     0.018 A 
BRANCH   9  14
ATOM     14  N   UNL A   1      36.772  33.186  34.954  1.00  0.00    -0.220 N 
ATOM     15  C   UNL A   1      37.699  32.702  36.872  1.00  0.00     0.120 A 
ATOM     16  C   UNL A   1      36.714  33.481  36.300  1.00  0.00     0.144 A 
ATOM     17  N   UNL A   1      38.351  32.024  35.878  1.00  0.00    -0.131 NA
ATOM     18  N   UNL A   1      37.785  32.323  34.724  1.00  0.00    -0.062 NA
BRANCH  15  19
ATOM     19  C   UNL A   1      38.014  32.425  38.305  1.00  0.00     0.289 C 
BRANCH  19  20
ATOM     20  O   UNL A   1      37.769  33.511  39.212  1.00  0.00    -0.487 OA
BRANCH  20  21
ATOM     21  C   UNL A   1      37.083  33.241  40.366  1.00  0.00     0.119 A 
ATOM     22  C   UNL A   1      35.345  32.670  42.495  1.00  0.00    -0.024 A 
ATOM     23  C   UNL A   1      35.331  31.875  41.348  1.00  0.00     0.012 A 
ATOM     24  C   UNL A   1      36.296  33.688  42.609  1.00  0.00     0.012 A 
ATOM     25  C   UNL A   1      36.197  32.163  40.288  1.00  0.00     0.047 A 
ATOM     26  C   UNL A   1      37.173  33.957  41.557  1.00  0.00     0.047 A 
BRANCH  22  27
ATOM     27  C   UNL A   1      34.359  32.472  43.559  1.00  0.00     0.029 C 
ATOM     28  O   UNL A   1      32.441  32.199  45.730  1.00  0.00    -0.268 OA
ATOM     29  C   UNL A   1      32.236  32.911  44.759  1.00  0.00     0.263 C 
ATOM     30  N   UNL A   1      31.125  33.683  44.570  1.00  0.00    -0.307 N 
ATOM     31  C   UNL A   1      33.170  33.089  43.615  1.00  0.00     0.080 C 
ATOM     32  C   UNL A   1      31.053  34.439  43.440  1.00  0.00     0.145 C 
ATOM     33  H   UNL A   1      30.398  33.695  45.233  1.00  0.00     0.171 HD
ATOM     34  S   UNL A   1      32.484  34.187  42.470  1.00  0.00    -0.055 SA
ATOM     35  S   UNL A   1      29.787  35.440  43.083  1.00  0.00    -0.052 S 
ENDBRANCH  22  27
ENDBRANCH  20  21
ENDBRANCH  19  20
ENDBRANCH  15  19
ENDBRANCH   9  14
ENDBRANCH   6   8
ENDBRANCH   5   6
ENDBRANCH   4   5
ENDBRANCH   3   4
ENDBRANCH   2   3
ENDBRANCH   1   2
BRANCH   1  36
ATOM     36  C   UNL A   1      31.994  30.508  26.845  1.00  0.00     0.188 C 
BRANCH  36  37
ATOM     37  O   UNL A   1      33.172  30.130  26.167  1.00  0.00    -0.376 OA
BRANCH  37  38
ATOM     38  C   UNL A   1      34.220  29.440  26.826  1.00  0.00     0.202 C 
BRANCH  38  39
ATOM     39  C   UNL A   1      35.305  30.098  27.675  1.00  0.00     0.261 C 
BRANCH  39  40
ATOM     40  O   UNL A   1      36.438  29.319  27.995  1.00  0.00    -0.460 OA
BRANCH  40  41
ATOM     41  C   UNL A   1      36.709  29.282  29.318  1.00  0.00     0.338 C 
ATOM     42  O   UNL A   1      35.904  29.357  30.230  1.00  0.00    -0.246 OA
BRANCH  41  43
ATOM     43  C   UNL A   1      38.158  29.289  29.493  1.00  0.00     0.060 A 
ATOM     44  C   UNL A   1      38.912  29.971  28.537  1.00  0.00     0.016 A 
ATOM     45  C   UNL A   1      38.718  28.344  30.363  1.00  0.00     0.016 A 
ATOM     46  C   UNL A   1      40.201  29.543  28.309  1.00  0.00     0.010 A 
ATOM     47  C   UNL A   1      39.986  27.892  30.105  1.00  0.00     0.010 A 
ATOM     48  C   UNL A   1      40.680  28.444  29.031  1.00  0.00    -0.014 A 
BRANCH  48  49
ATOM     49  C   UNL A   1      42.014  27.963  28.748  1.00  0.00     0.031 A 
ATOM     50  C   UNL A   1      41.980  26.670  28.041  1.00  0.00     0.074 A 
ATOM     51  C   UNL A   1      43.125  28.682  28.993  1.00  0.00     0.049 A 
ATOM     52  N   UNL A   1      42.232  25.506  28.537  1.00  0.00    -0.248 NA
ATOM     53  C   UNL A   1      41.347  26.629  26.711  1.00  0.00     0.031 C 
ATOM     54  C   UNL A   1      43.215  30.072  29.443  1.00  0.00     0.029 A 
ATOM     55  N   UNL A   1      44.427  28.343  28.789  1.00  0.00    -0.354 N 
ATOM     56  C   UNL A   1      42.072  24.627  27.477  1.00  0.00     0.074 A 
ATOM     57  C   UNL A   1      41.256  25.314  26.518  1.00  0.00     0.031 C 
ATOM     58  C   UNL A   1      44.480  30.518  29.257  1.00  0.00     0.029 A 
ATOM     59  C   UNL A   1      45.311  29.419  28.783  1.00  0.00     0.049 A 
ATOM     60  H   UNL A   1      44.719  27.412  28.657  1.00  0.00     0.167 HD
ATOM     61  C   UNL A   1      42.912  23.567  27.333  1.00  0.00     0.034 A 
ATOM     62  C   UNL A   1      46.602  29.413  28.347  1.00  0.00     0.034 A 
ATOM     63  C   UNL A   1      43.601  23.290  28.580  1.00  0.00     0.049 A 
ATOM     64  C   UNL A   1      47.054  27.996  28.359  1.00  0.00     0.074 A 
ATOM     65  C   UNL A   1      43.183  23.034  29.873  1.00  0.00     0.029 A 
ATOM     66  N   UNL A   1      44.927  23.653  28.683  1.00  0.00    -0.354 N 
ATOM     67  N   UNL A   1      47.212  27.305  29.454  1.00  0.00    -0.248 NA
ATOM     68  C   UNL A   1      46.847  27.202  27.155  1.00  0.00     0.031 C 
ATOM     69  C   UNL A   1      44.116  23.717  30.707  1.00  0.00     0.029 A 
ATOM     70  C   UNL A   1      45.109  24.270  29.897  1.00  0.00     0.049 A 
ATOM     71  H   UNL A   1      45.624  23.498  28.005  1.00  0.00     0.167 HD
ATOM     72  C   UNL A   1      46.682  26.055  29.169  1.00  0.00     0.074 A 
ATOM     73  C   UNL A   1      46.565  26.019  27.712  1.00  0.00     0.031 C 
ATOM     74  C   UNL A   1      46.113  25.290  30.149  1.00  0.00     0.034 A 
BRANCH  61  75
ATOM     75  C   UNL A   1      43.432  23.083  25.992  1.00  0.00     0.023 A 
ATOM     76  C   UNL A   1      43.374  21.696  25.768  1.00  0.00     0.031 A 
ATOM     77  C   UNL A   1      44.226  23.814  25.074  1.00  0.00     0.131 A 
ATOM     78  C   UNL A   1      44.183  21.088  24.796  1.00  0.00     0.055 A 
ATOM     79  C   UNL A   1      44.976  23.209  24.062  1.00  0.00     0.041 A 
ATOM     80  F   UNL A   1      44.399  25.137  25.135  1.00  0.00    -0.206 F 
ATOM     81  C   UNL A   1      44.990  21.833  23.943  1.00  0.00     0.022 A 
BRANCH  78  82
ATOM     82  S   UNL A   1      44.300  19.285  24.805  1.00  0.00     0.124 S 
ATOM     83  O   UNL A   1      44.589  19.012  23.401  1.00  0.00    -0.237 OA
ATOM     84  O   UNL A   1      45.392  19.062  25.745  1.00  0.00    -0.237 OA
ATOM     85  O   UNL A   1      42.980  18.864  25.269  1.00  0.00    -0.744 OA
ENDBRANCH  78  82
ENDBRANCH  61  75
BRANCH  62  86
ATOM     86  C   UNL A   1      47.339  30.497  27.630  1.00  0.00     0.023 A 
ATOM     87  C   UNL A   1      46.721  31.695  27.201  1.00  0.00     0.031 A 
ATOM     88  C   UNL A   1      48.752  30.471  27.577  1.00  0.00     0.131 A 
ATOM     89  C   UNL A   1      47.505  32.788  26.752  1.00  0.00     0.055 A 
ATOM     90  C   UNL A   1      49.520  31.549  27.131  1.00  0.00     0.041 A 
ATOM     91  F   UNL A   1      49.447  29.423  28.045  1.00  0.00    -0.206 F 
ATOM     92  C   UNL A   1      48.899  32.718  26.726  1.00  0.00     0.022 A 
BRANCH  89  93
ATOM     93  S   UNL A   1      46.727  34.372  26.283  1.00  0.00     0.124 S 
ATOM     94  O   UNL A   1      45.310  34.030  26.262  1.00  0.00    -0.237 OA
ATOM     95  O   UNL A   1      47.166  35.267  27.346  1.00  0.00    -0.237 OA
ATOM     96  O   UNL A   1      47.306  34.660  24.969  1.00  0.00    -0.744 OA
ENDBRANCH  89  93
ENDBRANCH  62  86
BRANCH  74  97
ATOM     97  C   UNL A   1      46.395  25.635  31.599  1.00  0.00     0.023 A 
ATOM     98  C   UNL A   1      47.586  25.335  32.301  1.00  0.00     0.031 A 
ATOM     99  C   UNL A   1      45.422  26.398  32.270  1.00  0.00     0.131 A 
ATOM    100  C   UNL A   1      47.754  25.786  33.627  1.00  0.00     0.055 A 
ATOM    101  C   UNL A   1      45.602  26.863  33.570  1.00  0.00     0.041 A 
ATOM    102  F   UNL A   1      44.275  26.733  31.654  1.00  0.00    -0.206 F 
ATOM    103  C   UNL A   1      46.768  26.552  34.258  1.00  0.00     0.022 A 
BRANCH 100 104
ATOM    104  S   UNL A   1      49.246  25.355  34.582  1.00  0.00     0.124 S 
ATOM    105  O   UNL A   1      49.770  24.182  33.895  1.00  0.00    -0.237 OA
ATOM    106  O   UNL A   1      50.049  26.570  34.476  1.00  0.00    -0.237 OA
ATOM    107  O   UNL A   1      48.723  25.090  35.925  1.00  0.00    -0.744 OA
ENDBRANCH 100 104
ENDBRANCH  74  97
ENDBRANCH  48  49
ENDBRANCH  41  43
ENDBRANCH  40  41
ENDBRANCH  39  40
ENDBRANCH  38  39
ENDBRANCH  37  38
ENDBRANCH  36  37
ENDBRANCH   1  36
TORSDOF 25
ENDMDL
MODEL 2
REMARK VINA RESULT:      -9.8      1.856      2.278
REMARK SMILES O=C1NC(=S)S/C1=C\c1ccc(OCc2cn(-c3ccc(C(=O)OCCOCCOCCOC(=O)c4ccc(-c5c6nc(c(-c7cc(S(=O)(=O)[O-])ccc7F)c7ccc([nH]7)c(-c7cc(S(=O)(=O)[O-])ccc7F)c7nc(c(-c8cc(S(=O)(=O)[O-])ccc8F)c8ccc5[nH]8)C=C7)C=C6)cc4)cc3)nn2)cc1
REMARK SMILES IDX 28 1 27 2 26 3 25 4 24 5 22 6 23 7 21 8 18 9 19 10 100 11
REMARK SMILES IDX 20 12 99 13 17 14 15 15 16 16 102 17 101 18 14 19 13 20
REMARK SMILES IDX 12 21 9 22 10 23 104 24 11 25 103 26 8 27 1 28 2 29 3 30
REMARK SMILES IDX 7 31 4 32 6 34 5 35 29 36 30 37 31 38 32 39 33 40 34 41
REMARK SMILES IDX 35 42 36 43 37 44 98 45 38 46 97 47 39 48 40 49 41 50 91 51
REMARK SMILES IDX 42 52 96 53 90 54 92 55 43 56 95 57 89 58 88 59 44 61 76 62
REMARK SMILES IDX 56 63 75 64 57 65 60 66 74 67 93 68 58 69 59 70 73 72 94 73
REMARK SMILES IDX 61 74 45 75 46 76 54 77 47 78 53 79 55 80 52 81 48 82 49 83
REMARK SMILES IDX 50 84 51 85 77 86 78 87 86 88 79 89 85 90 87 91 84 92 80 93
REMARK SMILES IDX 81 94 82 95 83 96 62 97 63 98 71 99 64 100 70 101 72 102
REMARK SMILES IDX 69 103 65 104 66 105 67 106 68 107
REMARK H PARENT 3 33 92 60 60 71
REMARK Flexibility Score: inf
ROOT
ATOM      1  C   UNL A   1      31.593  32.012  26.724  1.00  0.00     0.188 C 
ENDROOT
BRANCH   1   2
ATOM      2  O   UNL A   1      32.003  33.052  27.596  1.00  0.00    -0.376 OA
BRANCH   2   3
ATOM      3  C   UNL A   1      33.344  33.513  27.616  1.00  0.00     0.202 C 
BRANCH   3   4
ATOM      4  C   UNL A   1      34.286  33.357  28.827  1.00  0.00     0.261 C 
BRANCH   4   5
ATOM      5  O   UNL A   1      34.588  34.540  29.573  1.00  0.00    -0.460 OA
BRANCH   5   6
ATOM      6  C   UNL A   1      33.830  34.755  30.668  1.00  0.00     0.338 C 
ATOM      7  O   UNL A   1      32.690  35.195  30.704  1.00  0.00    -0.246 OA
BRANCH   6   8
ATOM      8  C   UNL A   1      34.513  34.216  31.863  1.00  0.00     0.060 A 
ATOM      9  C   UNL A   1      35.961  33.347  34.080  1.00  0.00     0.066 A 
ATOM     10  C   UNL A   1      35.540  34.683  34.002  1.00  0.00     0.029 A 
ATOM     11  C   UNL A   1      35.568  32.425  33.099  1.00  0.00     0.029 A 
ATOM     12  C   UNL A   1      34.852  35.122  32.875  1.00  0.00     0.018 A 
ATOM     13  C   UNL A   1      34.817  32.857  31.999  1.00  0.00     0.018 A 
BRANCH   9  14
ATOM     14  N   UNL A   1      36.874  32.989  35.098  1.00  0.00    -0.220 N 
ATOM     15  C   UNL A   1      37.876  32.790  37.029  1.00  0.00     0.120 A 
ATOM     16  C   UNL A   1      37.186  33.691  36.243  1.00  0.00     0.144 A 
ATOM     17  N   UNL A   1      38.017  31.622  36.332  1.00  0.00    -0.131 NA
ATOM     18  N   UNL A   1      37.409  31.750  35.167  1.00  0.00    -0.062 NA
BRANCH  15  19
ATOM     19  C   UNL A   1      38.317  32.877  38.454  1.00  0.00     0.289 C 
BRANCH  19  20
ATOM     20  O   UNL A   1      37.307  33.287  39.388  1.00  0.00    -0.487 OA
BRANCH  20  21
ATOM     21  C   UNL A   1      37.101  32.506  40.494  1.00  0.00     0.119 A 
ATOM     22  C   UNL A   1      36.686  31.252  42.971  1.00  0.00    -0.024 A 
ATOM     23  C   UNL A   1      35.890  32.333  42.591  1.00  0.00     0.012 A 
ATOM     24  C   UNL A   1      37.623  30.744  42.067  1.00  0.00     0.012 A 
ATOM     25  C   UNL A   1      36.100  32.956  41.357  1.00  0.00     0.047 A 
ATOM     26  C   UNL A   1      37.813  31.355  40.827  1.00  0.00     0.047 A 
BRANCH  22  27
ATOM     27  C   UNL A   1      36.575  30.669  44.310  1.00  0.00     0.029 C 
ATOM     28  O   UNL A   1      36.447  29.413  46.931  1.00  0.00    -0.268 OA
ATOM     29  C   UNL A   1      37.360  30.155  46.603  1.00  0.00     0.263 C 
ATOM     30  N   UNL A   1      38.437  30.470  47.383  1.00  0.00    -0.307 N 
ATOM     31  C   UNL A   1      37.481  30.832  45.285  1.00  0.00     0.080 C 
ATOM     32  C   UNL A   1      39.384  31.300  46.865  1.00  0.00     0.145 C 
ATOM     33  H   UNL A   1      38.526  30.106  48.292  1.00  0.00     0.171 HD
ATOM     34  S   UNL A   1      38.927  31.779  45.248  1.00  0.00    -0.055 SA
ATOM     35  S   UNL A   1      40.752  31.751  47.675  1.00  0.00    -0.052 S 
ENDBRANCH  22  27
ENDBRANCH  20  21
ENDBRANCH  19  20
ENDBRANCH  15  19
ENDBRANCH   9  14
ENDBRANCH   6   8
ENDBRANCH   5   6
ENDBRANCH   4   5
ENDBRANCH   3   4
ENDBRANCH   2   3
ENDBRANCH   1   2
BRANCH   1  36
ATOM     36  C   UNL A   1      32.017  30.551  26.983  1.00  0.00     0.188 C 
BRANCH  36  37
ATOM     37  O   UNL A   1      33.110  30.089  26.220  1.00  0.00    -0.376 OA
BRANCH  37  38
ATOM     38  C   UNL A   1      34.202  29.413  26.818  1.00  0.00     0.202 C 
BRANCH  38  39
ATOM     39  C   UNL A   1      35.309  30.082  27.631  1.00  0.00     0.261 C 
BRANCH  39  40
ATOM     40  O   UNL A   1      36.427  29.291  27.974  1.00  0.00    -0.460 OA
BRANCH  40  41
ATOM     41  C   UNL A   1      36.686  29.275  29.300  1.00  0.00     0.338 C 
ATOM     42  O   UNL A   1      35.873  29.351  30.204  1.00  0.00    -0.246 OA
BRANCH  41  43
ATOM     43  C   UNL A   1      38.134  29.302  29.487  1.00  0.00     0.060 A 
ATOM     44  C   UNL A   1      38.885  30.007  28.545  1.00  0.00     0.016 A 
ATOM     45  C   UNL A   1      38.702  28.355  30.350  1.00  0.00     0.016 A 
ATOM     46  C   UNL A   1      40.182  29.602  28.323  1.00  0.00     0.010 A 
ATOM     47  C   UNL A   1      39.979  27.926  30.097  1.00  0.00     0.010 A 
ATOM     48  C   UNL A   1      40.673  28.501  29.036  1.00  0.00    -0.014 A 
BRANCH  48  49
ATOM     49  C   UNL A   1      42.016  28.045  28.758  1.00  0.00     0.031 A 
ATOM     50  C   UNL A   1      42.009  26.743  28.068  1.00  0.00     0.074 A 
ATOM     51  C   UNL A   1      43.112  28.790  28.994  1.00  0.00     0.049 A 
ATOM     52  N   UNL A   1      42.285  25.591  28.578  1.00  0.00    -0.248 NA
ATOM     53  C   UNL A   1      41.376  26.671  26.739  1.00  0.00     0.031 C 
ATOM     54  C   UNL A   1      43.174  30.187  29.425  1.00  0.00     0.029 A 
ATOM     55  N   UNL A   1      44.420  28.476  28.793  1.00  0.00    -0.354 N 
ATOM     56  C   UNL A   1      42.143  24.694  27.530  1.00  0.00     0.074 A 
ATOM     57  C   UNL A   1      41.313  25.352  26.563  1.00  0.00     0.031 C 
ATOM     58  C   UNL A   1      44.429  30.657  29.233  1.00  0.00     0.029 A 
ATOM     59  C   UNL A   1      45.282  29.569  28.773  1.00  0.00     0.049 A 
ATOM     60  H   UNL A   1      44.732  27.550  28.672  1.00  0.00     0.167 HD
ATOM     61  C   UNL A   1      43.005  23.650  27.399  1.00  0.00     0.034 A 
ATOM     62  C   UNL A   1      46.573  29.585  28.336  1.00  0.00     0.034 A 
ATOM     63  C   UNL A   1      43.700  23.404  28.649  1.00  0.00     0.049 A 
ATOM     64  C   UNL A   1      47.055  28.178  28.366  1.00  0.00     0.074 A 
ATOM     65  C   UNL A   1      43.288  23.156  29.946  1.00  0.00     0.029 A 
ATOM     66  N   UNL A   1      45.018  23.796  28.747  1.00  0.00    -0.354 N 
ATOM     67  N   UNL A   1      47.227  27.504  29.470  1.00  0.00    -0.248 NA
ATOM     68  C   UNL A   1      46.863  27.364  27.173  1.00  0.00     0.031 C 
ATOM     69  C   UNL A   1      44.207  23.869  30.771  1.00  0.00     0.029 A 
ATOM     70  C   UNL A   1      45.188  24.432  29.952  1.00  0.00     0.049 A 
ATOM     71  H   UNL A   1      45.718  23.647  28.070  1.00  0.00     0.167 HD
ATOM     72  C   UNL A   1      46.723  26.240  29.201  1.00  0.00     0.074 A 
ATOM     73  C   UNL A   1      46.606  26.183  27.744  1.00  0.00     0.031 C 
ATOM     74  C   UNL A   1      46.170  25.476  30.191  1.00  0.00     0.034 A 
BRANCH  61  75
ATOM     75  C   UNL A   1      43.535  23.160  26.064  1.00  0.00     0.023 A 
ATOM     76  C   UNL A   1      43.507  21.770  25.858  1.00  0.00     0.031 A 
ATOM     77  C   UNL A   1      44.312  23.897  25.136  1.00  0.00     0.131 A 
ATOM     78  C   UNL A   1      44.328  21.166  24.894  1.00  0.00     0.055 A 
ATOM     79  C   UNL A   1      45.073  23.295  24.131  1.00  0.00     0.041 A 
ATOM     80  F   UNL A   1      44.455  25.224  25.179  1.00  0.00    -0.206 F 
ATOM     81  C   UNL A   1      45.118  21.918  24.031  1.00  0.00     0.022 A 
BRANCH  78  82
ATOM     82  S   UNL A   1      44.485  19.367  24.927  1.00  0.00     0.124 S 
ATOM     83  O   UNL A   1      45.775  19.207  25.588  1.00  0.00    -0.237 OA
ATOM     84  O   UNL A   1      43.310  18.980  25.699  1.00  0.00    -0.237 OA
ATOM     85  O   UNL A   1      44.453  19.000  23.513  1.00  0.00    -0.744 OA
ENDBRANCH  78  82
ENDBRANCH  61  75
BRANCH  62  86
ATOM     86  C   UNL A   1      47.287  30.675  27.604  1.00  0.00     0.023 A 
ATOM     87  C   UNL A   1      46.650  31.866  27.184  1.00  0.00     0.031 A 
ATOM     88  C   UNL A   1      48.699  30.661  27.527  1.00  0.00     0.131 A 
ATOM     89  C   UNL A   1      47.416  32.965  26.721  1.00  0.00     0.055 A 
ATOM     90  C   UNL A   1      49.449  31.746  27.066  1.00  0.00     0.041 A 
ATOM     91  F   UNL A   1      49.413  29.621  27.985  1.00  0.00    -0.206 F 
ATOM     92  C   UNL A   1      48.810  32.908  26.670  1.00  0.00     0.022 A 
BRANCH  89  93
ATOM     93  S   UNL A   1      46.615  34.541  26.262  1.00  0.00     0.124 S 
ATOM     94  O   UNL A   1      47.368  35.513  27.046  1.00  0.00    -0.237 OA
ATOM     95  O   UNL A   1      46.803  34.583  24.817  1.00  0.00    -0.237 OA
ATOM     96  O   UNL A   1      45.227  34.356  26.689  1.00  0.00    -0.744 OA
ENDBRANCH  89  93
ENDBRANCH  62  86
BRANCH  74  97
ATOM     97  C   UNL A   1      46.446  25.845  31.637  1.00  0.00     0.023 A 
ATOM     98  C   UNL A   1      47.587  25.467  32.381  1.00  0.00     0.031 A 
ATOM     99  C   UNL A   1      45.527  26.713  32.255  1.00  0.00     0.131 A 
ATOM    100  C   UNL A   1      47.762  25.947  33.695  1.00  0.00     0.055 A 
ATOM    101  C   UNL A   1      45.716  27.206  33.544  1.00  0.00     0.041 A 
ATOM    102  F   UNL A   1      44.431  27.126  31.597  1.00  0.00    -0.206 F 
ATOM    103  C   UNL A   1      46.832  26.818  34.273  1.00  0.00     0.022 A 
BRANCH 100 104
ATOM    104  S   UNL A   1      49.185  25.421  34.706  1.00  0.00     0.124 S 
ATOM    105  O   UNL A   1      49.612  24.176  34.080  1.00  0.00    -0.237 OA
ATOM    106  O   UNL A   1      50.101  26.550  34.571  1.00  0.00    -0.237 OA
ATOM    107  O   UNL A   1      48.610  25.263  36.044  1.00  0.00    -0.744 OA
ENDBRANCH 100 104
ENDBRANCH  74  97
ENDBRANCH  48  49
ENDBRANCH  41  43
ENDBRANCH  40  41
ENDBRANCH  39  40
ENDBRANCH  38  39
ENDBRANCH  37  38
ENDBRANCH  36  37
ENDBRANCH   1  36
TORSDOF 25
ENDMDL
MODEL 3
REMARK VINA RESULT:      -9.6      2.486      3.198
REMARK SMILES O=C1NC(=S)S/C1=C\c1ccc(OCc2cn(-c3ccc(C(=O)OCCOCCOCCOC(=O)c4ccc(-c5c6nc(c(-c7cc(S(=O)(=O)[O-])ccc7F)c7ccc([nH]7)c(-c7cc(S(=O)(=O)[O-])ccc7F)c7nc(c(-c8cc(S(=O)(=O)[O-])ccc8F)c8ccc5[nH]8)C=C7)C=C6)cc4)cc3)nn2)cc1
REMARK SMILES IDX 28 1 27 2 26 3 25 4 24 5 22 6 23 7 21 8 18 9 19 10 100 11
REMARK SMILES IDX 20 12 99 13 17 14 15 15 16 16 102 17 101 18 14 19 13 20
REMARK SMILES IDX 12 21 9 22 10 23 104 24 11 25 103 26 8 27 1 28 2 29 3 30
REMARK SMILES IDX 7 31 4 32 6 34 5 35 29 36 30 37 31 38 32 39 33 40 34 41
REMARK SMILES IDX 35 42 36 43 37 44 98 45 38 46 97 47 39 48 40 49 41 50 91 51
REMARK SMILES IDX 42 52 96 53 90 54 92 55 43 56 95 57 89 58 88 59 44 61 76 62
REMARK SMILES IDX 56 63 75 64 57 65 60 66 74 67 93 68 58 69 59 70 73 72 94 73
REMARK SMILES IDX 61 74 45 75 46 76 54 77 47 78 53 79 55 80 52 81 48 82 49 83
REMARK SMILES IDX 50 84 51 85 77 86 78 87 86 88 79 89 85 90 87 91 84 92 80 93
REMARK SMILES IDX 81 94 82 95 83 96 62 97 63 98 71 99 64 100 70 101 72 102
REMARK SMILES IDX 69 103 65 104 66 105 67 106 68 107
REMARK H PARENT 3 33 92 60 60 71
REMARK Flexibility Score: inf
ROOT
ATOM      1  C   UNL A   1      31.538  31.804  26.734  1.00  0.00     0.188 C 
ENDROOT
BRANCH   1   2
ATOM      2  O   UNL A   1      31.972  32.865  27.568  1.00  0.00    -0.376 OA
BRANCH   2   3
ATOM      3  C   UNL A   1      33.300  33.357  27.506  1.00  0.00     0.202 C 
BRANCH   3   4
ATOM      4  C   UNL A   1      34.290  33.304  28.688  1.00  0.00     0.261 C 
BRANCH   4   5
ATOM      5  O   UNL A   1      34.534  34.528  29.387  1.00  0.00    -0.460 OA
BRANCH   5   6
ATOM      6  C   UNL A   1      33.828  34.708  30.522  1.00  0.00     0.338 C 
ATOM      7  O   UNL A   1      32.683  35.124  30.622  1.00  0.00    -0.246 OA
BRANCH   6   8
ATOM      8  C   UNL A   1      34.580  34.164  31.672  1.00  0.00     0.060 A 
ATOM      9  C   UNL A   1      36.170  33.259  33.775  1.00  0.00     0.066 A 
ATOM     10  C   UNL A   1      35.912  34.631  33.636  1.00  0.00     0.029 A 
ATOM     11  C   UNL A   1      35.547  32.334  32.923  1.00  0.00     0.029 A 
ATOM     12  C   UNL A   1      35.151  35.082  32.562  1.00  0.00     0.018 A 
ATOM     13  C   UNL A   1      34.726  32.789  31.884  1.00  0.00     0.018 A 
BRANCH   9  14
ATOM     14  N   UNL A   1      37.149  32.850  34.709  1.00  0.00    -0.220 N 
ATOM     15  C   UNL A   1      38.372  32.676  36.510  1.00  0.00     0.120 A 
ATOM     16  C   UNL A   1      37.731  33.599  35.709  1.00  0.00     0.144 A 
ATOM     17  N   UNL A   1      38.221  31.436  35.953  1.00  0.00    -0.131 NA
ATOM     18  N   UNL A   1      37.481  31.550  34.865  1.00  0.00    -0.062 NA
BRANCH  15  19
ATOM     19  C   UNL A   1      39.021  32.828  37.847  1.00  0.00     0.289 C 
BRANCH  19  20
ATOM     20  O   UNL A   1      38.221  33.471  38.851  1.00  0.00    -0.487 OA
BRANCH  20  21
ATOM     21  C   UNL A   1      38.859  34.255  39.775  1.00  0.00     0.119 A 
ATOM     22  C   UNL A   1      39.835  36.093  41.658  1.00  0.00    -0.024 A 
ATOM     23  C   UNL A   1      38.568  35.532  41.820  1.00  0.00     0.012 A 
ATOM     24  C   UNL A   1      40.645  35.659  40.605  1.00  0.00     0.012 A 
ATOM     25  C   UNL A   1      38.084  34.617  40.879  1.00  0.00     0.047 A 
ATOM     26  C   UNL A   1      40.166  34.729  39.682  1.00  0.00     0.047 A 
BRANCH  22  27
ATOM     27  C   UNL A   1      40.309  37.152  42.553  1.00  0.00     0.029 C 
ATOM     28  O   UNL A   1      41.369  39.257  44.259  1.00  0.00    -0.268 OA
ATOM     29  C   UNL A   1      40.877  39.484  43.164  1.00  0.00     0.263 C 
ATOM     30  N   UNL A   1      40.784  40.718  42.584  1.00  0.00    -0.307 N 
ATOM     31  C   UNL A   1      40.313  38.457  42.249  1.00  0.00     0.080 C 
ATOM     32  C   UNL A   1      40.224  40.805  41.346  1.00  0.00     0.145 C 
ATOM     33  H   UNL A   1      41.113  41.521  43.048  1.00  0.00     0.171 HD
ATOM     34  S   UNL A   1      39.731  39.217  40.809  1.00  0.00    -0.055 SA
ATOM     35  S   UNL A   1      40.063  42.220  40.508  1.00  0.00    -0.052 S 
ENDBRANCH  22  27
ENDBRANCH  20  21
ENDBRANCH  19  20
ENDBRANCH  15  19
ENDBRANCH   9  14
ENDBRANCH   6   8
ENDBRANCH   5   6
ENDBRANCH   4   5
ENDBRANCH   3   4
ENDBRANCH   2   3
ENDBRANCH   1   2
BRANCH   1  36
ATOM     36  C   UNL A   1      32.017  30.358  26.980  1.00  0.00     0.188 C 
BRANCH  36  37
ATOM     37  O   UNL A   1      33.060  29.910  26.143  1.00  0.00    -0.376 OA
BRANCH  37  38
ATOM     38  C   UNL A   1      34.220  29.288  26.668  1.00  0.00     0.202 C 
BRANCH  38  39
ATOM     39  C   UNL A   1      35.346  30.011  27.403  1.00  0.00     0.261 C 
BRANCH  39  40
ATOM     40  O   UNL A   1      36.467  29.243  27.785  1.00  0.00    -0.460 OA
BRANCH  40  41
ATOM     41  C   UNL A   1      36.713  29.274  29.113  1.00  0.00     0.338 C 
ATOM     42  O   UNL A   1      35.890  29.381  30.005  1.00  0.00    -0.246 OA
BRANCH  41  43
ATOM     43  C   UNL A   1      38.159  29.312  29.313  1.00  0.00     0.060 A 
ATOM     44  C   UNL A   1      38.920  29.969  28.346  1.00  0.00     0.016 A 
ATOM     45  C   UNL A   1      38.718  28.411  30.229  1.00  0.00     0.016 A 
ATOM     46  C   UNL A   1      40.219  29.554  28.158  1.00  0.00     0.010 A 
ATOM     47  C   UNL A   1      39.998  27.970  30.012  1.00  0.00     0.010 A 
ATOM     48  C   UNL A   1      40.702  28.492  28.931  1.00  0.00    -0.014 A 
BRANCH  48  49
ATOM     49  C   UNL A   1      42.049  28.023  28.690  1.00  0.00     0.031 A 
ATOM     50  C   UNL A   1      42.049  26.722  27.997  1.00  0.00     0.074 A 
ATOM     51  C   UNL A   1      43.145  28.757  28.958  1.00  0.00     0.049 A 
ATOM     52  N   UNL A   1      42.299  25.566  28.514  1.00  0.00    -0.248 NA
ATOM     53  C   UNL A   1      41.453  26.658  26.651  1.00  0.00     0.031 C 
ATOM     54  C   UNL A   1      43.207  30.152  29.394  1.00  0.00     0.029 A 
ATOM     55  N   UNL A   1      44.455  28.430  28.794  1.00  0.00    -0.354 N 
ATOM     56  C   UNL A   1      42.179  24.673  27.460  1.00  0.00     0.074 A 
ATOM     57  C   UNL A   1      41.382  25.340  26.471  1.00  0.00     0.031 C 
ATOM     58  C   UNL A   1      44.472  30.610  29.239  1.00  0.00     0.029 A 
ATOM     59  C   UNL A   1      45.327  29.515  28.801  1.00  0.00     0.049 A 
ATOM     60  H   UNL A   1      44.761  27.501  28.681  1.00  0.00     0.167 HD
ATOM     61  C   UNL A   1      43.033  23.621  27.351  1.00  0.00     0.034 A 
ATOM     62  C   UNL A   1      46.631  29.519  28.401  1.00  0.00     0.034 A 
ATOM     63  C   UNL A   1      43.690  23.366  28.620  1.00  0.00     0.049 A 
ATOM     64  C   UNL A   1      47.097  28.107  28.442  1.00  0.00     0.074 A 
ATOM     65  C   UNL A   1      43.239  23.120  29.904  1.00  0.00     0.029 A 
ATOM     66  N   UNL A   1      45.009  23.745  28.757  1.00  0.00    -0.354 N 
ATOM     67  N   UNL A   1      47.232  27.430  29.549  1.00  0.00    -0.248 NA
ATOM     68  C   UNL A   1      46.932  27.297  27.242  1.00  0.00     0.031 C 
ATOM     69  C   UNL A   1      44.140  23.822  30.757  1.00  0.00     0.029 A 
ATOM     70  C   UNL A   1      45.150  24.377  29.968  1.00  0.00     0.049 A 
ATOM     71  H   UNL A   1      45.726  23.590  28.100  1.00  0.00     0.167 HD
ATOM     72  C   UNL A   1      46.723  26.171  29.264  1.00  0.00     0.074 A 
ATOM     73  C   UNL A   1      46.648  26.118  27.804  1.00  0.00     0.031 C 
ATOM     74  C   UNL A   1      46.136  25.411  30.236  1.00  0.00     0.034 A 
BRANCH  61  75
ATOM     75  C   UNL A   1      43.596  23.128  26.031  1.00  0.00     0.023 A 
ATOM     76  C   UNL A   1      43.593  21.736  25.837  1.00  0.00     0.031 A 
ATOM     77  C   UNL A   1      44.380  23.868  25.112  1.00  0.00     0.131 A 
ATOM     78  C   UNL A   1      44.442  21.137  24.894  1.00  0.00     0.055 A 
ATOM     79  C   UNL A   1      45.170  23.270  24.128  1.00  0.00     0.041 A 
ATOM     80  F   UNL A   1      44.503  25.198  25.147  1.00  0.00    -0.206 F 
ATOM     81  C   UNL A   1      45.237  21.893  24.040  1.00  0.00     0.022 A 
BRANCH  78  82
ATOM     82  S   UNL A   1      44.626  19.340  24.945  1.00  0.00     0.124 S 
ATOM     83  O   UNL A   1      43.559  18.973  25.870  1.00  0.00    -0.237 OA
ATOM     84  O   UNL A   1      44.421  18.980  23.547  1.00  0.00    -0.237 OA
ATOM     85  O   UNL A   1      45.985  19.155  25.447  1.00  0.00    -0.744 OA
ENDBRANCH  78  82
ENDBRANCH  61  75
BRANCH  62  86
ATOM     86  C   UNL A   1      47.375  30.603  27.692  1.00  0.00     0.023 A 
ATOM     87  C   UNL A   1      46.734  31.705  27.080  1.00  0.00     0.031 A 
ATOM     88  C   UNL A   1      48.780  30.695  27.828  1.00  0.00     0.131 A 
ATOM     89  C   UNL A   1      47.488  32.823  26.642  1.00  0.00     0.055 A 
ATOM     90  C   UNL A   1      49.519  31.798  27.391  1.00  0.00     0.041 A 
ATOM     91  F   UNL A   1      49.481  29.751  28.475  1.00  0.00    -0.206 F 
ATOM     92  C   UNL A   1      48.873  32.873  26.805  1.00  0.00     0.022 A 
BRANCH  89  93
ATOM     93  S   UNL A   1      46.665  34.292  25.935  1.00  0.00     0.124 S 
ATOM     94  O   UNL A   1      46.464  35.132  27.109  1.00  0.00    -0.237 OA
ATOM     95  O   UNL A   1      47.641  34.761  24.958  1.00  0.00    -0.237 OA
ATOM     96  O   UNL A   1      45.436  33.749  25.353  1.00  0.00    -0.744 OA
ENDBRANCH  89  93
ENDBRANCH  62  86
BRANCH  74  97
ATOM     97  C   UNL A   1      46.373  25.775  31.690  1.00  0.00     0.023 A 
ATOM     98  C   UNL A   1      47.489  25.384  32.466  1.00  0.00     0.031 A 
ATOM     99  C   UNL A   1      45.446  26.652  32.283  1.00  0.00     0.131 A 
ATOM    100  C   UNL A   1      47.630  25.861  33.785  1.00  0.00     0.055 A 
ATOM    101  C   UNL A   1      45.603  27.141  33.578  1.00  0.00     0.041 A 
ATOM    102  F   UNL A   1      44.373  27.077  31.594  1.00  0.00    -0.206 F 
ATOM    103  C   UNL A   1      46.694  26.740  34.338  1.00  0.00     0.022 A 
BRANCH 100 104
ATOM    104  S   UNL A   1      49.019  25.319  34.835  1.00  0.00     0.124 S 
ATOM    105  O   UNL A   1      49.612  24.219  34.083  1.00  0.00    -0.237 OA
ATOM    106  O   UNL A   1      49.827  26.531  34.939  1.00  0.00    -0.237 OA
ATOM    107  O   UNL A   1      48.364  24.918  36.083  1.00  0.00    -0.744 OA
ENDBRANCH 100 104
ENDBRANCH  74  97
ENDBRANCH  48  49
ENDBRANCH  41  43
ENDBRANCH  40  41
ENDBRANCH  39  40
ENDBRANCH  38  39
ENDBRANCH  37  38
ENDBRANCH  36  37
ENDBRANCH   1  36
TORSDOF 25
ENDMDL
