MODEL 1
REMARK VINA RESULT:     -10.7      0.000      0.000
REMARK SMILES CC(=O)Nc1ccc(/C(=C\c2ccc(S(C)(=O)=O)cc2)C(=O)OCCOCCOCCOC(=O)c2ccc(-c3c4nc(c(-c5cc(S(=O)(=O)[O-])ccc5F)c5ccc([nH]5)c(-c5cc(S(=O)(=O)[O-])ccc5F)c5nc(c(-c6cc(S(=O)(=O)[O-])ccc6F)c6ccc3[nH]6)C=C5)C=C4)cc2)cc1
REMARK SMILES IDX 28 1 27 2 26 3 25 4 24 5 23 6 21 7 22 8 9 9 10 10 8 11 5 12
REMARK SMILES IDX 6 13 99 14 7 15 98 16 4 17 1 18 2 19 3 20 11 22 12 23 20 24
REMARK SMILES IDX 13 25 19 26 14 27 15 28 16 29 17 30 18 31 29 32 30 33 31 34
REMARK SMILES IDX 32 35 33 36 34 37 35 38 36 39 97 40 37 41 96 42 38 43 39 44
REMARK SMILES IDX 40 45 90 46 41 47 95 48 89 49 91 50 42 51 94 52 88 53 87 54
REMARK SMILES IDX 43 56 75 57 55 58 74 59 56 60 59 61 73 62 92 63 57 64 58 65
REMARK SMILES IDX 72 67 93 68 60 69 44 70 45 71 53 72 46 73 52 74 54 75 51 76
REMARK SMILES IDX 47 77 48 78 49 79 50 80 76 81 77 82 85 83 78 84 84 85 86 86
REMARK SMILES IDX 83 87 79 88 80 89 81 90 82 91 61 92 62 93 70 94 63 95 69 96
REMARK SMILES IDX 71 97 68 98 64 99 65 100 66 101 67 102
REMARK H PARENT 4 21 91 55 59 66
REMARK Flexibility Score: inf
ROOT
ATOM      1  C   UNL A   1      30.387  28.825  23.672  1.00  0.00     0.188 C 
ENDROOT
BRANCH   1   2
ATOM      2  C   UNL A   1      31.204  28.494  22.405  1.00  0.00     0.188 C 
BRANCH   2   3
ATOM      3  O   UNL A   1      32.523  28.979  22.384  1.00  0.00    -0.376 OA
BRANCH   3   4
ATOM      4  C   UNL A   1      33.535  28.387  23.175  1.00  0.00     0.202 C 
BRANCH   4   5
ATOM      5  C   UNL A   1      33.490  26.980  23.801  1.00  0.00     0.261 C 
BRANCH   5   6
ATOM      6  O   UNL A   1      33.740  25.863  22.949  1.00  0.00    -0.460 OA
BRANCH   6   7
ATOM      7  C   UNL A   1      32.713  24.987  22.765  1.00  0.00     0.338 C 
ATOM      8  O   UNL A   1      31.690  25.223  22.142  1.00  0.00    -0.246 OA
BRANCH   7   9
ATOM      9  C   UNL A   1      33.045  23.645  23.358  1.00  0.00     0.067 C 
ATOM     10  C   UNL A   1      32.093  22.689  23.204  1.00  0.00     0.024 C 
BRANCH   9  11
ATOM     11  C   UNL A   1      34.351  23.456  24.061  1.00  0.00    -0.011 A 
ATOM     12  C   UNL A   1      36.734  22.822  25.506  1.00  0.00     0.041 A 
ATOM     13  C   UNL A   1      36.647  22.627  24.126  1.00  0.00     0.027 A 
ATOM     14  C   UNL A   1      35.659  23.429  26.144  1.00  0.00     0.027 A 
ATOM     15  C   UNL A   1      35.486  22.957  23.415  1.00  0.00     0.011 A 
ATOM     16  C   UNL A   1      34.486  23.743  25.430  1.00  0.00     0.011 A 
BRANCH  12  17
ATOM     17  N   UNL A   1      37.945  22.444  26.102  1.00  0.00    -0.326 N 
ATOM     18  C   UNL A   1      39.064  24.597  26.688  1.00  0.00     0.114 C 
ATOM     19  C   UNL A   1      39.048  23.108  26.550  1.00  0.00     0.221 C 
ATOM     20  O   UNL A   1      39.990  22.428  26.963  1.00  0.00    -0.275 OA
ATOM     21  H   UNL A   1      38.017  21.470  26.227  1.00  0.00     0.169 HD
ENDBRANCH  12  17
ENDBRANCH   9  11
BRANCH  10  22
ATOM     22  C   UNL A   1      32.190  21.271  23.581  1.00  0.00    -0.025 A 
ATOM     23  C   UNL A   1      32.190  20.335  22.538  1.00  0.00     0.009 A 
ATOM     24  C   UNL A   1      32.431  20.846  24.895  1.00  0.00     0.009 A 
ATOM     25  C   UNL A   1      32.554  19.012  22.779  1.00  0.00     0.021 A 
ATOM     26  C   UNL A   1      32.805  19.520  25.143  1.00  0.00     0.021 A 
ATOM     27  C   UNL A   1      32.895  18.621  24.076  1.00  0.00     0.067 A 
BRANCH  27  28
ATOM     28  S   UNL A   1      33.624  17.016  24.310  1.00  0.00     0.175 S 
ATOM     29  C   UNL A   1      32.687  16.306  25.631  1.00  0.00     0.163 C 
ATOM     30  O   UNL A   1      33.347  16.250  23.108  1.00  0.00    -0.224 OA
ATOM     31  O   UNL A   1      34.982  17.203  24.778  1.00  0.00    -0.224 OA
ENDBRANCH  27  28
ENDBRANCH  10  22
ENDBRANCH   7   9
ENDBRANCH   6   7
ENDBRANCH   5   6
ENDBRANCH   4   5
ENDBRANCH   3   4
ENDBRANCH   2   3
ENDBRANCH   1   2
BRANCH   1  32
ATOM     32  O   UNL A   1      30.722  29.958  24.461  1.00  0.00    -0.376 OA
BRANCH  32  33
ATOM     33  C   UNL A   1      31.469  29.760  25.654  1.00  0.00     0.202 C 
BRANCH  33  34
ATOM     34  C   UNL A   1      31.918  30.968  26.494  1.00  0.00     0.261 C 
BRANCH  34  35
ATOM     35  O   UNL A   1      33.131  30.785  27.242  1.00  0.00    -0.460 OA
BRANCH  35  36
ATOM     36  C   UNL A   1      33.773  31.925  27.606  1.00  0.00     0.338 C 
ATOM     37  O   UNL A   1      33.309  33.053  27.647  1.00  0.00    -0.246 OA
BRANCH  36  38
ATOM     38  C   UNL A   1      35.110  31.581  28.128  1.00  0.00     0.060 A 
ATOM     39  C   UNL A   1      35.335  30.278  28.591  1.00  0.00     0.016 A 
ATOM     40  C   UNL A   1      36.127  32.536  28.189  1.00  0.00     0.016 A 
ATOM     41  C   UNL A   1      36.588  29.923  29.091  1.00  0.00     0.010 A 
ATOM     42  C   UNL A   1      37.373  32.183  28.723  1.00  0.00     0.010 A 
ATOM     43  C   UNL A   1      37.612  30.877  29.179  1.00  0.00    -0.014 A 
BRANCH  43  44
ATOM     44  C   UNL A   1      38.894  30.526  29.840  1.00  0.00     0.031 A 
ATOM     45  C   UNL A   1      39.123  30.942  31.267  1.00  0.00     0.074 A 
ATOM     46  C   UNL A   1      39.813  29.776  29.202  1.00  0.00     0.049 A 
ATOM     47  N   UNL A   1      40.170  30.757  32.026  1.00  0.00    -0.248 NA
ATOM     48  C   UNL A   1      38.017  31.654  31.923  1.00  0.00     0.031 C 
ATOM     49  C   UNL A   1      39.653  29.213  27.863  1.00  0.00     0.029 A 
ATOM     50  N   UNL A   1      41.035  29.306  29.618  1.00  0.00    -0.354 N 
ATOM     51  C   UNL A   1      39.867  31.356  33.244  1.00  0.00     0.074 A 
ATOM     52  C   UNL A   1      38.529  31.900  33.120  1.00  0.00     0.031 C 
ATOM     53  C   UNL A   1      40.714  28.436  27.587  1.00  0.00     0.029 A 
ATOM     54  C   UNL A   1      41.670  28.507  28.694  1.00  0.00     0.049 A 
ATOM     55  H   UNL A   1      41.422  29.520  30.498  1.00  0.00     0.167 HD
ATOM     56  C   UNL A   1      40.640  31.460  34.353  1.00  0.00     0.034 A 
ATOM     57  C   UNL A   1      42.890  27.927  28.724  1.00  0.00     0.034 A 
ATOM     58  C   UNL A   1      41.977  30.925  34.458  1.00  0.00     0.049 A 
ATOM     59  C   UNL A   1      43.772  28.152  29.934  1.00  0.00     0.074 A 
ATOM     60  C   UNL A   1      42.850  30.995  35.530  1.00  0.00     0.029 A 
ATOM     61  N   UNL A   1      42.642  30.234  33.454  1.00  0.00    -0.354 N 
ATOM     62  N   UNL A   1      43.493  28.767  31.061  1.00  0.00    -0.248 NA
ATOM     63  C   UNL A   1      45.146  27.630  29.862  1.00  0.00     0.031 C 
ATOM     64  C   UNL A   1      44.068  30.428  35.143  1.00  0.00     0.029 A 
ATOM     65  C   UNL A   1      43.932  29.927  33.859  1.00  0.00     0.049 A 
ATOM     66  H   UNL A   1      42.253  29.997  32.581  1.00  0.00     0.167 HD
ATOM     67  C   UNL A   1      44.654  28.701  31.829  1.00  0.00     0.074 A 
ATOM     68  C   UNL A   1      45.625  27.957  31.054  1.00  0.00     0.031 C 
ATOM     69  C   UNL A   1      44.904  29.218  33.060  1.00  0.00     0.034 A 
BRANCH  56  70
ATOM     70  C   UNL A   1      40.097  32.272  35.503  1.00  0.00     0.023 A 
ATOM     71  C   UNL A   1      39.234  31.727  36.467  1.00  0.00     0.031 A 
ATOM     72  C   UNL A   1      40.439  33.633  35.616  1.00  0.00     0.131 A 
ATOM     73  C   UNL A   1      38.697  32.552  37.468  1.00  0.00     0.055 A 
ATOM     74  C   UNL A   1      39.960  34.429  36.656  1.00  0.00     0.041 A 
ATOM     75  F   UNL A   1      41.237  34.214  34.706  1.00  0.00    -0.206 F 
ATOM     76  C   UNL A   1      39.073  33.893  37.584  1.00  0.00     0.022 A 
BRANCH  73  77
ATOM     77  S   UNL A   1      37.388  31.888  38.535  1.00  0.00     0.124 S 
ATOM     78  O   UNL A   1      37.268  30.518  38.039  1.00  0.00    -0.237 OA
ATOM     79  O   UNL A   1      37.959  32.038  39.867  1.00  0.00    -0.237 OA
ATOM     80  O   UNL A   1      36.242  32.748  38.246  1.00  0.00    -0.744 OA
ENDBRANCH  73  77
ENDBRANCH  56  70
BRANCH  57  81
ATOM     81  C   UNL A   1      43.404  27.156  27.550  1.00  0.00     0.023 A 
ATOM     82  C   UNL A   1      43.506  25.754  27.577  1.00  0.00     0.031 A 
ATOM     83  C   UNL A   1      43.887  27.823  26.407  1.00  0.00     0.131 A 
ATOM     84  C   UNL A   1      44.113  25.073  26.508  1.00  0.00     0.055 A 
ATOM     85  C   UNL A   1      44.425  27.135  25.318  1.00  0.00     0.041 A 
ATOM     86  F   UNL A   1      43.842  29.162  26.331  1.00  0.00    -0.206 F 
ATOM     87  C   UNL A   1      44.554  25.753  25.371  1.00  0.00     0.022 A 
BRANCH  84  88
ATOM     88  S   UNL A   1      44.430  23.292  26.668  1.00  0.00     0.124 S 
ATOM     89  O   UNL A   1      43.167  22.814  27.218  1.00  0.00    -0.237 OA
ATOM     90  O   UNL A   1      44.719  22.910  25.290  1.00  0.00    -0.237 OA
ATOM     91  O   UNL A   1      45.570  23.230  27.581  1.00  0.00    -0.744 OA
ENDBRANCH  84  88
ENDBRANCH  57  81
BRANCH  69  92
ATOM     92  C   UNL A   1      46.285  29.006  33.635  1.00  0.00     0.023 A 
ATOM     93  C   UNL A   1      47.312  29.949  33.440  1.00  0.00     0.031 A 
ATOM     94  C   UNL A   1      46.576  27.863  34.399  1.00  0.00     0.131 A 
ATOM     95  C   UNL A   1      48.592  29.710  33.965  1.00  0.00     0.055 A 
ATOM     96  C   UNL A   1      47.836  27.658  34.967  1.00  0.00     0.041 A 
ATOM     97  F   UNL A   1      45.636  26.930  34.619  1.00  0.00    -0.206 F 
ATOM     98  C   UNL A   1      48.854  28.580  34.743  1.00  0.00     0.022 A 
BRANCH  95  99
ATOM     99  S   UNL A   1      49.930  30.869  33.567  1.00  0.00     0.124 S 
ATOM    100  O   UNL A   1      50.007  31.673  34.782  1.00  0.00    -0.237 OA
ATOM    101  O   UNL A   1      51.056  29.975  33.321  1.00  0.00    -0.237 OA
ATOM    102  O   UNL A   1      49.433  31.576  32.387  1.00  0.00    -0.744 OA
ENDBRANCH  95  99
ENDBRANCH  69  92
ENDBRANCH  43  44
ENDBRANCH  36  38
ENDBRANCH  35  36
ENDBRANCH  34  35
ENDBRANCH  33  34
ENDBRANCH  32  33
ENDBRANCH   1  32
TORSDOF 24
ENDMDL
MODEL 2
REMARK VINA RESULT:     -10.5      2.376      7.563
REMARK SMILES CC(=O)Nc1ccc(/C(=C\c2ccc(S(C)(=O)=O)cc2)C(=O)OCCOCCOCCOC(=O)c2ccc(-c3c4nc(c(-c5cc(S(=O)(=O)[O-])ccc5F)c5ccc([nH]5)c(-c5cc(S(=O)(=O)[O-])ccc5F)c5nc(c(-c6cc(S(=O)(=O)[O-])ccc6F)c6ccc3[nH]6)C=C5)C=C4)cc2)cc1
REMARK SMILES IDX 28 1 27 2 26 3 25 4 24 5 23 6 21 7 22 8 9 9 10 10 8 11 5 12
REMARK SMILES IDX 6 13 99 14 7 15 98 16 4 17 1 18 2 19 3 20 11 22 12 23 20 24
REMARK SMILES IDX 13 25 19 26 14 27 15 28 16 29 17 30 18 31 29 32 30 33 31 34
REMARK SMILES IDX 32 35 33 36 34 37 35 38 36 39 97 40 37 41 96 42 38 43 39 44
REMARK SMILES IDX 40 45 90 46 41 47 95 48 89 49 91 50 42 51 94 52 88 53 87 54
REMARK SMILES IDX 43 56 75 57 55 58 74 59 56 60 59 61 73 62 92 63 57 64 58 65
REMARK SMILES IDX 72 67 93 68 60 69 44 70 45 71 53 72 46 73 52 74 54 75 51 76
REMARK SMILES IDX 47 77 48 78 49 79 50 80 76 81 77 82 85 83 78 84 84 85 86 86
REMARK SMILES IDX 83 87 79 88 80 89 81 90 82 91 61 92 62 93 70 94 63 95 69 96
REMARK SMILES IDX 71 97 68 98 64 99 65 100 66 101 67 102
REMARK H PARENT 4 21 91 55 59 66
REMARK Flexibility Score: inf
ROOT
ATOM      1  C   UNL A   1      30.637  28.798  24.063  1.00  0.00     0.188 C 
ENDROOT
BRANCH   1   2
ATOM      2  C   UNL A   1      31.217  28.382  22.695  1.00  0.00     0.188 C 
BRANCH   2   3
ATOM      3  O   UNL A   1      32.530  28.811  22.431  1.00  0.00    -0.376 OA
BRANCH   3   4
ATOM      4  C   UNL A   1      33.647  28.045  22.838  1.00  0.00     0.202 C 
BRANCH   4   5
ATOM      5  C   UNL A   1      33.604  26.741  23.655  1.00  0.00     0.261 C 
BRANCH   5   6
ATOM      6  O   UNL A   1      33.712  25.506  22.947  1.00  0.00    -0.460 OA
BRANCH   6   7
ATOM      7  C   UNL A   1      32.634  24.674  22.992  1.00  0.00     0.338 C 
ATOM      8  O   UNL A   1      31.508  24.958  22.614  1.00  0.00    -0.246 OA
BRANCH   7   9
ATOM      9  C   UNL A   1      33.033  23.312  23.490  1.00  0.00     0.067 C 
ATOM     10  C   UNL A   1      32.102  22.337  23.331  1.00  0.00     0.024 C 
BRANCH   9  11
ATOM     11  C   UNL A   1      34.380  23.124  24.112  1.00  0.00    -0.011 A 
ATOM     12  C   UNL A   1      36.839  22.504  25.431  1.00  0.00     0.041 A 
ATOM     13  C   UNL A   1      36.646  22.213  24.079  1.00  0.00     0.027 A 
ATOM     14  C   UNL A   1      35.834  23.197  26.095  1.00  0.00     0.027 A 
ATOM     15  C   UNL A   1      35.448  22.535  23.428  1.00  0.00     0.011 A 
ATOM     16  C   UNL A   1      34.623  23.504  25.443  1.00  0.00     0.011 A 
BRANCH  12  17
ATOM     17  N   UNL A   1      38.077  22.124  25.968  1.00  0.00    -0.326 N 
ATOM     18  C   UNL A   1      39.052  24.236  26.872  1.00  0.00     0.114 C 
ATOM     19  C   UNL A   1      39.135  22.787  26.513  1.00  0.00     0.221 C 
ATOM     20  O   UNL A   1      40.124  22.117  26.824  1.00  0.00    -0.275 OA
ATOM     21  H   UNL A   1      38.214  21.149  25.947  1.00  0.00     0.169 HD
ENDBRANCH  12  17
ENDBRANCH   9  11
BRANCH  10  22
ATOM     22  C   UNL A   1      32.258  20.904  23.621  1.00  0.00    -0.025 A 
ATOM     23  C   UNL A   1      32.151  20.021  22.537  1.00  0.00     0.009 A 
ATOM     24  C   UNL A   1      32.648  20.418  24.876  1.00  0.00     0.009 A 
ATOM     25  C   UNL A   1      32.557  18.695  22.667  1.00  0.00     0.021 A 
ATOM     26  C   UNL A   1      33.064  19.088  25.012  1.00  0.00     0.021 A 
ATOM     27  C   UNL A   1      33.046  18.245  23.896  1.00  0.00     0.067 A 
BRANCH  27  28
ATOM     28  S   UNL A   1      33.815  16.644  23.964  1.00  0.00     0.175 S 
ATOM     29  C   UNL A   1      35.185  16.870  25.060  1.00  0.00     0.163 C 
ATOM     30  O   UNL A   1      32.871  15.752  24.612  1.00  0.00    -0.224 OA
ATOM     31  O   UNL A   1      34.343  16.343  22.649  1.00  0.00    -0.224 OA
ENDBRANCH  27  28
ENDBRANCH  10  22
ENDBRANCH   7   9
ENDBRANCH   6   7
ENDBRANCH   5   6
ENDBRANCH   4   5
ENDBRANCH   3   4
ENDBRANCH   2   3
ENDBRANCH   1   2
BRANCH   1  32
ATOM     32  O   UNL A   1      31.180  29.910  24.760  1.00  0.00    -0.376 OA
BRANCH  32  33
ATOM     33  C   UNL A   1      32.069  29.668  25.843  1.00  0.00     0.202 C 
BRANCH  33  34
ATOM     34  C   UNL A   1      32.418  30.800  26.824  1.00  0.00     0.261 C 
BRANCH  34  35
ATOM     35  O   UNL A   1      33.718  30.715  27.429  1.00  0.00    -0.460 OA
BRANCH  35  36
ATOM     36  C   UNL A   1      34.260  31.895  27.825  1.00  0.00     0.338 C 
ATOM     37  O   UNL A   1      33.765  33.005  27.721  1.00  0.00    -0.246 OA
BRANCH  36  38
ATOM     38  C   UNL A   1      35.501  31.629  28.579  1.00  0.00     0.060 A 
ATOM     39  C   UNL A   1      35.657  30.381  29.196  1.00  0.00     0.016 A 
ATOM     40  C   UNL A   1      36.490  32.605  28.703  1.00  0.00     0.016 A 
ATOM     41  C   UNL A   1      36.817  30.101  29.916  1.00  0.00     0.010 A 
ATOM     42  C   UNL A   1      37.640  32.331  29.456  1.00  0.00     0.010 A 
ATOM     43  C   UNL A   1      37.811  31.079  30.068  1.00  0.00    -0.014 A 
BRANCH  43  44
ATOM     44  C   UNL A   1      38.976  30.818  30.951  1.00  0.00     0.031 A 
ATOM     45  C   UNL A   1      40.171  30.095  30.395  1.00  0.00     0.074 A 
ATOM     46  C   UNL A   1      39.001  31.290  32.212  1.00  0.00     0.049 A 
ATOM     47  N   UNL A   1      41.282  29.749  30.992  1.00  0.00    -0.248 NA
ATOM     48  C   UNL A   1      40.105  29.721  28.975  1.00  0.00     0.031 C 
ATOM     49  C   UNL A   1      37.954  32.108  32.822  1.00  0.00     0.029 A 
ATOM     50  N   UNL A   1      39.968  31.206  33.184  1.00  0.00    -0.354 N 
ATOM     51  C   UNL A   1      42.039  29.088  30.031  1.00  0.00     0.074 A 
ATOM     52  C   UNL A   1      41.260  29.094  28.809  1.00  0.00     0.031 C 
ATOM     53  C   UNL A   1      38.357  32.488  34.047  1.00  0.00     0.029 A 
ATOM     54  C   UNL A   1      39.654  31.877  34.344  1.00  0.00     0.049 A 
ATOM     55  H   UNL A   1      40.810  30.710  33.063  1.00  0.00     0.167 HD
ATOM     56  C   UNL A   1      43.260  28.512  30.163  1.00  0.00     0.034 A 
ATOM     57  C   UNL A   1      40.319  31.963  35.517  1.00  0.00     0.034 A 
ATOM     58  C   UNL A   1      44.019  28.503  31.390  1.00  0.00     0.049 A 
ATOM     59  C   UNL A   1      41.630  31.221  35.667  1.00  0.00     0.074 A 
ATOM     60  C   UNL A   1      45.256  27.929  31.632  1.00  0.00     0.029 A 
ATOM     61  N   UNL A   1      43.612  29.079  32.586  1.00  0.00    -0.354 N 
ATOM     62  N   UNL A   1      42.311  30.553  34.764  1.00  0.00    -0.248 NA
ATOM     63  C   UNL A   1      42.244  31.218  37.003  1.00  0.00     0.031 C 
ATOM     64  C   UNL A   1      45.553  28.081  32.991  1.00  0.00     0.029 A 
ATOM     65  C   UNL A   1      44.543  28.823  33.582  1.00  0.00     0.049 A 
ATOM     66  H   UNL A   1      42.782  29.596  32.709  1.00  0.00     0.167 HD
ATOM     67  C   UNL A   1      43.434  30.056  35.424  1.00  0.00     0.074 A 
ATOM     68  C   UNL A   1      43.357  30.529  36.790  1.00  0.00     0.031 C 
ATOM     69  C   UNL A   1      44.435  29.269  34.951  1.00  0.00     0.034 A 
BRANCH  56  70
ATOM     70  C   UNL A   1      43.801  27.755  28.975  1.00  0.00     0.023 A 
ATOM     71  C   UNL A   1      44.735  28.315  28.089  1.00  0.00     0.031 A 
ATOM     72  C   UNL A   1      43.346  26.448  28.718  1.00  0.00     0.131 A 
ATOM     73  C   UNL A   1      45.142  27.591  26.956  1.00  0.00     0.055 A 
ATOM     74  C   UNL A   1      43.809  25.707  27.631  1.00  0.00     0.041 A 
ATOM     75  F   UNL A   1      42.431  25.875  29.516  1.00  0.00    -0.206 F 
ATOM     76  C   UNL A   1      44.704  26.282  26.735  1.00  0.00     0.022 A 
BRANCH  73  77
ATOM     77  S   UNL A   1      46.139  28.433  25.696  1.00  0.00     0.124 S 
ATOM     78  O   UNL A   1      47.494  28.044  26.082  1.00  0.00    -0.237 OA
ATOM     79  O   UNL A   1      45.635  27.855  24.456  1.00  0.00    -0.237 OA
ATOM     80  O   UNL A   1      45.826  29.846  25.898  1.00  0.00    -0.744 OA
ENDBRANCH  73  77
ENDBRANCH  56  70
BRANCH  57  81
ATOM     81  C   UNL A   1      39.733  32.699  36.681  1.00  0.00     0.023 A 
ATOM     82  C   UNL A   1      38.795  32.096  37.537  1.00  0.00     0.031 A 
ATOM     83  C   UNL A   1      40.041  34.055  36.903  1.00  0.00     0.131 A 
ATOM     84  C   UNL A   1      38.170  32.856  38.540  1.00  0.00     0.055 A 
ATOM     85  C   UNL A   1      39.469  34.786  37.945  1.00  0.00     0.041 A 
ATOM     86  F   UNL A   1      40.910  34.696  36.105  1.00  0.00    -0.206 F 
ATOM     87  C   UNL A   1      38.516  34.190  38.762  1.00  0.00     0.022 A 
BRANCH  84  88
ATOM     88  S   UNL A   1      36.805  32.114  39.482  1.00  0.00     0.124 S 
ATOM     89  O   UNL A   1      35.640  32.676  38.809  1.00  0.00    -0.237 OA
ATOM     90  O   UNL A   1      37.039  30.688  39.283  1.00  0.00    -0.237 OA
ATOM     91  O   UNL A   1      37.030  32.597  40.843  1.00  0.00    -0.744 OA
ENDBRANCH  84  88
ENDBRANCH  57  81
BRANCH  69  92
ATOM     92  C   UNL A   1      45.516  28.861  35.923  1.00  0.00     0.023 A 
ATOM     93  C   UNL A   1      45.424  27.667  36.664  1.00  0.00     0.031 A 
ATOM     94  C   UNL A   1      46.659  29.661  36.102  1.00  0.00     0.131 A 
ATOM     95  C   UNL A   1      46.434  27.330  37.579  1.00  0.00     0.055 A 
ATOM     96  C   UNL A   1      47.687  29.292  36.972  1.00  0.00     0.041 A 
ATOM     97  F   UNL A   1      46.802  30.809  35.422  1.00  0.00    -0.206 F 
ATOM     98  C   UNL A   1      47.573  28.126  37.723  1.00  0.00     0.022 A 
BRANCH  95  99
ATOM     99  S   UNL A   1      46.211  25.865  38.626  1.00  0.00     0.124 S 
ATOM    100  O   UNL A   1      47.203  24.946  38.078  1.00  0.00    -0.237 OA
ATOM    101  O   UNL A   1      46.493  26.387  39.959  1.00  0.00    -0.237 OA
ATOM    102  O   UNL A   1      44.819  25.485  38.393  1.00  0.00    -0.744 OA
ENDBRANCH  95  99
ENDBRANCH  69  92
ENDBRANCH  43  44
ENDBRANCH  36  38
ENDBRANCH  35  36
ENDBRANCH  34  35
ENDBRANCH  33  34
ENDBRANCH  32  33
ENDBRANCH   1  32
TORSDOF 24
ENDMDL
MODEL 3
REMARK VINA RESULT:     -10.3      1.999      2.648
REMARK SMILES CC(=O)Nc1ccc(/C(=C\c2ccc(S(C)(=O)=O)cc2)C(=O)OCCOCCOCCOC(=O)c2ccc(-c3c4nc(c(-c5cc(S(=O)(=O)[O-])ccc5F)c5ccc([nH]5)c(-c5cc(S(=O)(=O)[O-])ccc5F)c5nc(c(-c6cc(S(=O)(=O)[O-])ccc6F)c6ccc3[nH]6)C=C5)C=C4)cc2)cc1
REMARK SMILES IDX 28 1 27 2 26 3 25 4 24 5 23 6 21 7 22 8 9 9 10 10 8 11 5 12
REMARK SMILES IDX 6 13 99 14 7 15 98 16 4 17 1 18 2 19 3 20 11 22 12 23 20 24
REMARK SMILES IDX 13 25 19 26 14 27 15 28 16 29 17 30 18 31 29 32 30 33 31 34
REMARK SMILES IDX 32 35 33 36 34 37 35 38 36 39 97 40 37 41 96 42 38 43 39 44
REMARK SMILES IDX 40 45 90 46 41 47 95 48 89 49 91 50 42 51 94 52 88 53 87 54
REMARK SMILES IDX 43 56 75 57 55 58 74 59 56 60 59 61 73 62 92 63 57 64 58 65
REMARK SMILES IDX 72 67 93 68 60 69 44 70 45 71 53 72 46 73 52 74 54 75 51 76
REMARK SMILES IDX 47 77 48 78 49 79 50 80 76 81 77 82 85 83 78 84 84 85 86 86
REMARK SMILES IDX 83 87 79 88 80 89 81 90 82 91 61 92 62 93 70 94 63 95 69 96
REMARK SMILES IDX 71 97 68 98 64 99 65 100 66 101 67 102
REMARK H PARENT 4 21 91 55 59 66
REMARK Flexibility Score: inf
ROOT
ATOM      1  C   UNL A   1      31.815  30.131  26.876  1.00  0.00     0.188 C 
ENDROOT
BRANCH   1   2
ATOM      2  C   UNL A   1      31.824  29.424  25.504  1.00  0.00     0.188 C 
BRANCH   2   3
ATOM      3  O   UNL A   1      31.736  28.021  25.538  1.00  0.00    -0.376 OA
BRANCH   3   4
ATOM      4  C   UNL A   1      30.938  27.313  24.609  1.00  0.00     0.202 C 
BRANCH   4   5
ATOM      5  C   UNL A   1      31.454  26.396  23.485  1.00  0.00     0.261 C 
BRANCH   5   6
ATOM      6  O   UNL A   1      32.300  25.306  23.849  1.00  0.00    -0.460 OA
BRANCH   6   7
ATOM      7  C   UNL A   1      32.705  24.478  22.845  1.00  0.00     0.338 C 
ATOM      8  O   UNL A   1      32.811  24.795  21.671  1.00  0.00    -0.246 OA
BRANCH   7   9
ATOM      9  C   UNL A   1      33.096  23.132  23.390  1.00  0.00     0.067 C 
ATOM     10  C   UNL A   1      32.134  22.176  23.325  1.00  0.00     0.024 C 
BRANCH   9  11
ATOM     11  C   UNL A   1      34.467  22.939  23.955  1.00  0.00    -0.011 A 
ATOM     12  C   UNL A   1      37.140  22.870  24.964  1.00  0.00     0.041 A 
ATOM     13  C   UNL A   1      36.044  23.009  25.818  1.00  0.00     0.027 A 
ATOM     14  C   UNL A   1      36.887  22.666  23.613  1.00  0.00     0.027 A 
ATOM     15  C   UNL A   1      34.733  23.022  25.326  1.00  0.00     0.011 A 
ATOM     16  C   UNL A   1      35.569  22.698  23.117  1.00  0.00     0.011 A 
BRANCH  12  17
ATOM     17  N   UNL A   1      38.400  22.880  25.579  1.00  0.00    -0.326 N 
ATOM     18  C   UNL A   1      39.037  20.474  25.760  1.00  0.00     0.114 C 
ATOM     19  C   UNL A   1      39.250  21.925  26.050  1.00  0.00     0.221 C 
ATOM     20  O   UNL A   1      40.277  22.309  26.616  1.00  0.00    -0.275 OA
ATOM     21  H   UNL A   1      38.755  23.791  25.698  1.00  0.00     0.169 HD
ENDBRANCH  12  17
ENDBRANCH   9  11
BRANCH  10  22
ATOM     22  C   UNL A   1      32.269  20.755  23.679  1.00  0.00    -0.025 A 
ATOM     23  C   UNL A   1      32.300  19.837  22.620  1.00  0.00     0.009 A 
ATOM     24  C   UNL A   1      32.515  20.315  24.987  1.00  0.00     0.009 A 
ATOM     25  C   UNL A   1      32.701  18.521  22.841  1.00  0.00     0.021 A 
ATOM     26  C   UNL A   1      32.925  18.996  25.214  1.00  0.00     0.021 A 
ATOM     27  C   UNL A   1      33.047  18.118  24.133  1.00  0.00     0.067 A 
BRANCH  27  28
ATOM     28  S   UNL A   1      33.819  16.531  24.344  1.00  0.00     0.175 S 
ATOM     29  C   UNL A   1      32.597  15.565  25.181  1.00  0.00     0.163 C 
ATOM     30  O   UNL A   1      33.995  15.969  23.017  1.00  0.00    -0.224 OA
ATOM     31  O   UNL A   1      34.947  16.695  25.239  1.00  0.00    -0.224 OA
ENDBRANCH  27  28
ENDBRANCH  10  22
ENDBRANCH   7   9
ENDBRANCH   6   7
ENDBRANCH   5   6
ENDBRANCH   4   5
ENDBRANCH   3   4
ENDBRANCH   2   3
ENDBRANCH   1   2
BRANCH   1  32
ATOM     32  O   UNL A   1      32.863  31.024  27.226  1.00  0.00    -0.376 OA
BRANCH  32  33
ATOM     33  C   UNL A   1      32.528  32.350  27.612  1.00  0.00     0.202 C 
BRANCH  33  34
ATOM     34  C   UNL A   1      33.613  33.439  27.661  1.00  0.00     0.261 C 
BRANCH  34  35
ATOM     35  O   UNL A   1      33.201  34.700  28.211  1.00  0.00    -0.460 OA
BRANCH  35  36
ATOM     36  C   UNL A   1      33.334  34.826  29.556  1.00  0.00     0.338 C 
ATOM     37  O   UNL A   1      32.549  35.348  30.330  1.00  0.00    -0.246 OA
BRANCH  36  38
ATOM     38  C   UNL A   1      34.521  34.066  29.997  1.00  0.00     0.060 A 
ATOM     39  C   UNL A   1      34.342  32.995  30.882  1.00  0.00     0.016 A 
ATOM     40  C   UNL A   1      35.801  34.420  29.568  1.00  0.00     0.016 A 
ATOM     41  C   UNL A   1      35.443  32.259  31.317  1.00  0.00     0.010 A 
ATOM     42  C   UNL A   1      36.908  33.698  30.035  1.00  0.00     0.010 A 
ATOM     43  C   UNL A   1      36.738  32.615  30.912  1.00  0.00    -0.014 A 
BRANCH  43  44
ATOM     44  C   UNL A   1      37.913  31.914  31.490  1.00  0.00     0.031 A 
ATOM     45  C   UNL A   1      38.349  32.245  32.891  1.00  0.00     0.074 A 
ATOM     46  C   UNL A   1      38.535  30.937  30.805  1.00  0.00     0.049 A 
ATOM     47  N   UNL A   1      39.352  31.770  33.580  1.00  0.00    -0.248 NA
ATOM     48  C   UNL A   1      37.539  33.239  33.609  1.00  0.00     0.031 C 
ATOM     49  C   UNL A   1      38.128  30.446  29.489  1.00  0.00     0.029 A 
ATOM     50  N   UNL A   1      39.601  30.140  31.144  1.00  0.00    -0.354 N 
ATOM     51  C   UNL A   1      39.317  32.426  34.805  1.00  0.00     0.074 A 
ATOM     52  C   UNL A   1      38.182  33.327  34.764  1.00  0.00     0.031 C 
ATOM     53  C   UNL A   1      38.905  29.402  29.155  1.00  0.00     0.029 A 
ATOM     54  C   UNL A   1      39.918  29.197  30.192  1.00  0.00     0.049 A 
ATOM     55  H   UNL A   1      40.094  30.233  31.991  1.00  0.00     0.167 HD
ATOM     56  C   UNL A   1      40.165  32.305  35.857  1.00  0.00     0.034 A 
ATOM     57  C   UNL A   1      40.924  28.296  30.149  1.00  0.00     0.034 A 
ATOM     58  C   UNL A   1      41.300  31.414  35.879  1.00  0.00     0.049 A 
ATOM     59  C   UNL A   1      41.916  28.258  31.292  1.00  0.00     0.074 A 
ATOM     60  C   UNL A   1      42.230  31.231  36.888  1.00  0.00     0.029 A 
ATOM     61  N   UNL A   1      41.670  30.565  34.844  1.00  0.00    -0.354 N 
ATOM     62  N   UNL A   1      41.902  28.924  32.424  1.00  0.00    -0.248 NA
ATOM     63  C   UNL A   1      43.078  27.370  31.135  1.00  0.00     0.031 C 
ATOM     64  C   UNL A   1      43.209  30.344  36.429  1.00  0.00     0.029 A 
ATOM     65  C   UNL A   1      42.847  29.905  35.165  1.00  0.00     0.049 A 
ATOM     66  H   UNL A   1      41.170  30.450  34.004  1.00  0.00     0.167 HD
ATOM     67  C   UNL A   1      43.049  28.531  33.112  1.00  0.00     0.074 A 
ATOM     68  C   UNL A   1      43.713  27.545  32.286  1.00  0.00     0.031 C 
ATOM     69  C   UNL A   1      43.520  28.952  34.315  1.00  0.00     0.034 A 
BRANCH  56  70
ATOM     70  C   UNL A   1      39.955  33.234  37.027  1.00  0.00     0.023 A 
ATOM     71  C   UNL A   1      39.232  32.854  38.169  1.00  0.00     0.031 A 
ATOM     72  C   UNL A   1      40.476  34.541  36.980  1.00  0.00     0.131 A 
ATOM     73  C   UNL A   1      39.001  33.788  39.192  1.00  0.00     0.055 A 
ATOM     74  C   UNL A   1      40.306  35.441  38.031  1.00  0.00     0.041 A 
ATOM     75  F   UNL A   1      41.151  34.968  35.901  1.00  0.00    -0.206 F 
ATOM     76  C   UNL A   1      39.554  35.071  39.141  1.00  0.00     0.022 A 
BRANCH  73  77
ATOM     77  S   UNL A   1      37.848  33.355  40.524  1.00  0.00     0.124 S 
ATOM     78  O   UNL A   1      38.559  32.263  41.187  1.00  0.00    -0.237 OA
ATOM     79  O   UNL A   1      37.748  34.602  41.273  1.00  0.00    -0.237 OA
ATOM     80  O   UNL A   1      36.636  32.955  39.812  1.00  0.00    -0.744 OA
ENDBRANCH  73  77
ENDBRANCH  56  70
BRANCH  57  81
ATOM     81  C   UNL A   1      41.115  27.414  28.956  1.00  0.00     0.023 A 
ATOM     82  C   UNL A   1      42.076  27.704  27.972  1.00  0.00     0.031 A 
ATOM     83  C   UNL A   1      40.272  26.307  28.738  1.00  0.00     0.131 A 
ATOM     84  C   UNL A   1      42.140  26.927  26.803  1.00  0.00     0.055 A 
ATOM     85  C   UNL A   1      40.387  25.497  27.607  1.00  0.00     0.041 A 
ATOM     86  F   UNL A   1      39.317  25.992  29.627  1.00  0.00    -0.206 F 
ATOM     87  C   UNL A   1      41.317  25.814  26.624  1.00  0.00     0.022 A 
BRANCH  84  88
ATOM     88  S   UNL A   1      43.236  27.458  25.455  1.00  0.00     0.124 S 
ATOM     89  O   UNL A   1      42.318  28.203  24.602  1.00  0.00    -0.237 OA
ATOM     90  O   UNL A   1      44.236  28.244  26.168  1.00  0.00    -0.237 OA
ATOM     91  O   UNL A   1      43.721  26.198  24.895  1.00  0.00    -0.744 OA
ENDBRANCH  84  88
ENDBRANCH  57  81
BRANCH  69  92
ATOM     92  C   UNL A   1      44.822  28.357  34.797  1.00  0.00     0.023 A 
ATOM     93  C   UNL A   1      46.063  28.869  34.373  1.00  0.00     0.031 A 
ATOM     94  C   UNL A   1      44.827  27.281  35.701  1.00  0.00     0.131 A 
ATOM     95  C   UNL A   1      47.255  28.278  34.820  1.00  0.00     0.055 A 
ATOM     96  C   UNL A   1      46.017  26.733  36.186  1.00  0.00     0.041 A 
ATOM     97  F   UNL A   1      43.675  26.752  36.141  1.00  0.00    -0.206 F 
ATOM     98  C   UNL A   1      47.239  27.224  35.738  1.00  0.00     0.022 A 
BRANCH  95  99
ATOM     99  S   UNL A   1      48.831  28.863  34.136  1.00  0.00     0.124 S 
ATOM    100  O   UNL A   1      49.780  27.911  34.704  1.00  0.00    -0.237 OA
ATOM    101  O   UNL A   1      48.607  28.759  32.698  1.00  0.00    -0.237 OA
ATOM    102  O   UNL A   1      48.941  30.228  34.648  1.00  0.00    -0.744 OA
ENDBRANCH  95  99
ENDBRANCH  69  92
ENDBRANCH  43  44
ENDBRANCH  36  38
ENDBRANCH  35  36
ENDBRANCH  34  35
ENDBRANCH  33  34
ENDBRANCH  32  33
ENDBRANCH   1  32
TORSDOF 24
ENDMDL
