MODEL 1
REMARK VINA RESULT:      -9.7      0.000      0.000
REMARK SMILES CCOC(=O)C1=NN(c2ccc([N+](=O)[O-])cc2C(F)(F)F)[C@@](C)(C(=O)OCCOCCOCCOC(=O)c2ccc(-c3c4nc(c(-c5cc(S(=O)(=O)[O-])ccc5F)c5ccc([nH]5)c(-c5cc(S(=O)(=O)[O-])ccc5F)c5nc(c(-c6cc(S(=O)(=O)[O-])ccc6F)c6ccc3[nH]6)C=C5)C=C4)cc2)C1
REMARK SMILES IDX 30 1 29 2 28 3 27 4 26 5 24 6 25 7 22 8 6 9 7 10 101 11 8 12
REMARK SMILES IDX 23 13 4 14 5 15 3 16 2 17 1 18 9 19 10 20 17 21 11 22 16 23
REMARK SMILES IDX 12 24 18 25 19 26 20 27 21 28 13 29 14 30 15 31 31 32 32 33
REMARK SMILES IDX 33 34 34 35 35 36 36 37 37 38 38 39 39 40 100 41 40 42 99 43
REMARK SMILES IDX 41 44 42 45 43 46 93 47 44 48 98 49 92 50 94 51 45 52 97 53
REMARK SMILES IDX 91 54 90 55 46 57 78 58 58 59 77 60 59 61 62 62 76 63 95 64
REMARK SMILES IDX 60 65 61 66 75 68 96 69 63 70 47 71 48 72 56 73 49 74 55 75
REMARK SMILES IDX 57 76 54 77 50 78 51 79 52 80 53 81 79 82 80 83 88 84 81 85
REMARK SMILES IDX 87 86 89 87 86 88 82 89 83 90 84 91 85 92 64 93 65 94 73 95
REMARK SMILES IDX 66 96 72 97 74 98 71 99 67 100 68 101 69 102 70 103
REMARK H PARENT 94 56 62 67
REMARK Flexibility Score: inf
ROOT
ATOM      1  C   UNL A   1      35.279  32.209  27.916  1.00  0.00     0.188 C 
ENDROOT
BRANCH   1   2
ATOM      2  O   UNL A   1      35.516  30.837  27.619  1.00  0.00    -0.376 OA
BRANCH   2   3
ATOM      3  C   UNL A   1      34.571  29.850  27.987  1.00  0.00     0.202 C 
BRANCH   3   4
ATOM      4  C   UNL A   1      33.677  29.256  26.885  1.00  0.00     0.261 C 
BRANCH   4   5
ATOM      5  O   UNL A   1      33.457  27.826  26.898  1.00  0.00    -0.461 OA
BRANCH   5   6
ATOM      6  C   UNL A   1      32.150  27.448  26.863  1.00  0.00     0.334 C 
ATOM      7  O   UNL A   1      31.383  27.649  27.805  1.00  0.00    -0.249 OA
BRANCH   6   8
ATOM      8  C   UNL A   1      31.710  26.614  25.634  1.00  0.00     0.163 C 
ATOM      9  C   UNL A   1      31.666  27.661  23.533  1.00  0.00     0.149 C 
ATOM     10  N   UNL A   1      32.731  26.919  23.486  1.00  0.00    -0.169 NA
ATOM     11  C   UNL A   1      30.826  27.537  24.761  1.00  0.00     0.108 C 
ATOM     12  N   UNL A   1      32.770  26.195  24.658  1.00  0.00    -0.247 N 
ATOM     13  C   UNL A   1      30.895  25.472  26.236  1.00  0.00     0.050 C 
BRANCH   9  14
ATOM     14  C   UNL A   1      31.266  28.670  22.476  1.00  0.00     0.354 C 
ATOM     15  O   UNL A   1      32.134  29.374  21.993  1.00  0.00    -0.245 OA
BRANCH  14  16
ATOM     16  O   UNL A   1      29.967  28.594  22.154  1.00  0.00    -0.461 OA
BRANCH  16  17
ATOM     17  C   UNL A   1      29.147  29.787  22.037  1.00  0.00     0.230 C 
ATOM     18  C   UNL A   1      28.529  30.340  23.312  1.00  0.00     0.049 C 
ENDBRANCH  16  17
ENDBRANCH  14  16
ENDBRANCH   9  14
BRANCH  12  19
ATOM     19  C   UNL A   1      33.565  25.054  24.621  1.00  0.00     0.073 A 
ATOM     20  C   UNL A   1      34.824  25.093  25.266  1.00  0.00     0.036 A 
ATOM     21  C   UNL A   1      33.288  23.897  23.867  1.00  0.00     0.088 A 
ATOM     22  C   UNL A   1      35.698  24.000  25.315  1.00  0.00     0.088 A 
ATOM     23  C   UNL A   1      34.135  22.761  23.971  1.00  0.00     0.101 A 
ATOM     24  C   UNL A   1      35.323  22.813  24.704  1.00  0.00     0.270 A 
BRANCH  21  25
ATOM     25  C   UNL A   1      32.176  23.792  22.851  1.00  0.00     0.418 C 
ATOM     26  F   UNL A   1      32.463  24.481  21.706  1.00  0.00    -0.166 F 
ATOM     27  F   UNL A   1      31.989  22.504  22.445  1.00  0.00    -0.166 F 
ATOM     28  F   UNL A   1      30.961  24.250  23.248  1.00  0.00    -0.166 F 
ENDBRANCH  21  25
BRANCH  24  29
ATOM     29  N   UNL A   1      36.183  21.627  24.799  1.00  0.00     0.062 N 
ATOM     30  O   UNL A   1      35.696  20.595  25.282  1.00  0.00    -0.258 OA
ATOM     31  O   UNL A   1      37.340  21.721  24.367  1.00  0.00    -0.258 OA
ENDBRANCH  24  29
ENDBRANCH  12  19
ENDBRANCH   6   8
ENDBRANCH   5   6
ENDBRANCH   4   5
ENDBRANCH   3   4
ENDBRANCH   2   3
ENDBRANCH   1   2
BRANCH   1  32
ATOM     32  C   UNL A   1      34.614  32.631  29.235  1.00  0.00     0.188 C 
BRANCH  32  33
ATOM     33  O   UNL A   1      35.470  33.298  30.139  1.00  0.00    -0.376 OA
BRANCH  33  34
ATOM     34  C   UNL A   1      35.169  33.170  31.514  1.00  0.00     0.202 C 
BRANCH  34  35
ATOM     35  C   UNL A   1      36.243  32.528  32.406  1.00  0.00     0.261 C 
BRANCH  35  36
ATOM     36  O   UNL A   1      37.229  31.715  31.740  1.00  0.00    -0.460 OA
BRANCH  36  37
ATOM     37  C   UNL A   1      37.069  30.374  31.803  1.00  0.00     0.338 C 
ATOM     38  O   UNL A   1      36.082  29.747  31.452  1.00  0.00    -0.246 OA
BRANCH  37  39
ATOM     39  C   UNL A   1      38.359  29.763  32.199  1.00  0.00     0.060 A 
ATOM     40  C   UNL A   1      39.478  30.586  32.343  1.00  0.00     0.016 A 
ATOM     41  C   UNL A   1      38.486  28.386  32.398  1.00  0.00     0.016 A 
ATOM     42  C   UNL A   1      40.711  30.029  32.676  1.00  0.00     0.010 A 
ATOM     43  C   UNL A   1      39.752  27.830  32.676  1.00  0.00     0.010 A 
ATOM     44  C   UNL A   1      40.892  28.647  32.773  1.00  0.00    -0.014 A 
BRANCH  44  45
ATOM     45  C   UNL A   1      42.290  28.110  32.730  1.00  0.00     0.031 A 
ATOM     46  C   UNL A   1      42.968  27.750  34.034  1.00  0.00     0.074 A 
ATOM     47  C   UNL A   1      42.899  27.759  31.577  1.00  0.00     0.049 A 
ATOM     48  N   UNL A   1      44.180  27.305  34.254  1.00  0.00    -0.248 NA
ATOM     49  C   UNL A   1      42.159  27.901  35.253  1.00  0.00     0.031 C 
ATOM     50  C   UNL A   1      42.314  27.879  30.243  1.00  0.00     0.029 A 
ATOM     51  N   UNL A   1      44.131  27.183  31.346  1.00  0.00    -0.354 N 
ATOM     52  C   UNL A   1      44.293  27.167  35.636  1.00  0.00     0.074 A 
ATOM     53  C   UNL A   1      43.027  27.581  36.200  1.00  0.00     0.031 C 
ATOM     54  C   UNL A   1      43.164  27.354  29.342  1.00  0.00     0.029 A 
ATOM     55  C   UNL A   1      44.394  26.939  30.016  1.00  0.00     0.049 A 
ATOM     56  H   UNL A   1      44.765  26.967  32.067  1.00  0.00     0.167 HD
ATOM     57  C   UNL A   1      45.352  26.739  36.368  1.00  0.00     0.034 A 
ATOM     58  C   UNL A   1      45.503  26.466  29.402  1.00  0.00     0.034 A 
ATOM     59  C   UNL A   1      46.606  26.299  35.806  1.00  0.00     0.049 A 
ATOM     60  C   UNL A   1      46.716  26.118  30.238  1.00  0.00     0.074 A 
ATOM     61  C   UNL A   1      47.752  25.893  36.471  1.00  0.00     0.029 A 
ATOM     62  N   UNL A   1      46.883  26.198  34.450  1.00  0.00    -0.354 N 
ATOM     63  N   UNL A   1      46.849  26.098  31.544  1.00  0.00    -0.248 NA
ATOM     64  C   UNL A   1      47.937  25.739  29.510  1.00  0.00     0.031 C 
ATOM     65  C   UNL A   1      48.744  25.625  35.522  1.00  0.00     0.029 A 
ATOM     66  C   UNL A   1      48.191  25.770  34.260  1.00  0.00     0.049 A 
ATOM     67  H   UNL A   1      46.246  26.400  33.727  1.00  0.00     0.167 HD
ATOM     68  C   UNL A   1      48.157  25.682  31.789  1.00  0.00     0.074 A 
ATOM     69  C   UNL A   1      48.761  25.429  30.499  1.00  0.00     0.031 C 
ATOM     70  C   UNL A   1      48.801  25.526  32.975  1.00  0.00     0.034 A 
BRANCH  57  71
ATOM     71  C   UNL A   1      45.230  26.817  37.873  1.00  0.00     0.023 A 
ATOM     72  C   UNL A   1      45.566  27.972  38.598  1.00  0.00     0.031 A 
ATOM     73  C   UNL A   1      44.789  25.692  38.594  1.00  0.00     0.131 A 
ATOM     74  C   UNL A   1      45.518  27.953  40.001  1.00  0.00     0.055 A 
ATOM     75  C   UNL A   1      44.660  25.708  39.983  1.00  0.00     0.041 A 
ATOM     76  F   UNL A   1      44.481  24.550  37.958  1.00  0.00    -0.206 F 
ATOM     77  C   UNL A   1      45.040  26.839  40.697  1.00  0.00     0.022 A 
BRANCH  74  78
ATOM     78  S   UNL A   1      46.234  29.349  40.912  1.00  0.00     0.124 S 
ATOM     79  O   UNL A   1      47.588  28.867  41.173  1.00  0.00    -0.237 OA
ATOM     80  O   UNL A   1      46.118  30.443  39.955  1.00  0.00    -0.237 OA
ATOM     81  O   UNL A   1      45.381  29.459  42.095  1.00  0.00    -0.744 OA
ENDBRANCH  74  78
ENDBRANCH  57  71
BRANCH  58  82
ATOM     82  C   UNL A   1      45.578  26.368  27.908  1.00  0.00     0.023 A 
ATOM     83  C   UNL A   1      46.295  27.305  27.143  1.00  0.00     0.031 A 
ATOM     84  C   UNL A   1      44.836  25.393  27.214  1.00  0.00     0.131 A 
ATOM     85  C   UNL A   1      46.208  27.282  25.739  1.00  0.00     0.055 A 
ATOM     86  C   UNL A   1      44.817  25.327  25.819  1.00  0.00     0.041 A 
ATOM     87  F   UNL A   1      44.105  24.488  27.883  1.00  0.00    -0.206 F 
ATOM     88  C   UNL A   1      45.491  26.286  25.074  1.00  0.00     0.022 A 
BRANCH  85  89
ATOM     89  S   UNL A   1      46.935  28.652  24.795  1.00  0.00     0.124 S 
ATOM     90  O   UNL A   1      48.323  28.615  25.239  1.00  0.00    -0.237 OA
ATOM     91  O   UNL A   1      46.690  28.235  23.418  1.00  0.00    -0.237 OA
ATOM     92  O   UNL A   1      46.167  29.814  25.237  1.00  0.00    -0.744 OA
ENDBRANCH  85  89
ENDBRANCH  58  82
BRANCH  70  93
ATOM     93  C   UNL A   1      50.226  25.014  32.934  1.00  0.00     0.023 A 
ATOM     94  C   UNL A   1      50.523  23.640  32.901  1.00  0.00     0.031 A 
ATOM     95  C   UNL A   1      51.306  25.917  32.948  1.00  0.00     0.131 A 
ATOM     96  C   UNL A   1      51.859  23.208  32.957  1.00  0.00     0.055 A 
ATOM     97  C   UNL A   1      52.632  25.483  32.929  1.00  0.00     0.041 A 
ATOM     98  F   UNL A   1      51.089  27.243  32.981  1.00  0.00    -0.206 F 
ATOM     99  C   UNL A   1      52.915  24.121  32.952  1.00  0.00     0.022 A 
BRANCH  96 100
ATOM    100  S   UNL A   1      52.194  21.435  33.160  1.00  0.00     0.124 S 
ATOM    101  O   UNL A   1      50.862  20.857  33.021  1.00  0.00    -0.237 OA
ATOM    102  O   UNL A   1      53.123  21.168  32.067  1.00  0.00    -0.237 OA
ATOM    103  O   UNL A   1      52.772  21.348  34.500  1.00  0.00    -0.744 OA
ENDBRANCH  96 100
ENDBRANCH  70  93
ENDBRANCH  44  45
ENDBRANCH  37  39
ENDBRANCH  36  37
ENDBRANCH  35  36
ENDBRANCH  34  35
ENDBRANCH  33  34
ENDBRANCH  32  33
ENDBRANCH   1  32
TORSDOF 26
ENDMDL
MODEL 2
REMARK VINA RESULT:      -8.8      2.978      7.780
REMARK SMILES CCOC(=O)C1=NN(c2ccc([N+](=O)[O-])cc2C(F)(F)F)[C@@](C)(C(=O)OCCOCCOCCOC(=O)c2ccc(-c3c4nc(c(-c5cc(S(=O)(=O)[O-])ccc5F)c5ccc([nH]5)c(-c5cc(S(=O)(=O)[O-])ccc5F)c5nc(c(-c6cc(S(=O)(=O)[O-])ccc6F)c6ccc3[nH]6)C=C5)C=C4)cc2)C1
REMARK SMILES IDX 30 1 29 2 28 3 27 4 26 5 24 6 25 7 22 8 6 9 7 10 101 11 8 12
REMARK SMILES IDX 23 13 4 14 5 15 3 16 2 17 1 18 9 19 10 20 17 21 11 22 16 23
REMARK SMILES IDX 12 24 18 25 19 26 20 27 21 28 13 29 14 30 15 31 31 32 32 33
REMARK SMILES IDX 33 34 34 35 35 36 36 37 37 38 38 39 39 40 100 41 40 42 99 43
REMARK SMILES IDX 41 44 42 45 43 46 93 47 44 48 98 49 92 50 94 51 45 52 97 53
REMARK SMILES IDX 91 54 90 55 46 57 78 58 58 59 77 60 59 61 62 62 76 63 95 64
REMARK SMILES IDX 60 65 61 66 75 68 96 69 63 70 47 71 48 72 56 73 49 74 55 75
REMARK SMILES IDX 57 76 54 77 50 78 51 79 52 80 53 81 79 82 80 83 88 84 81 85
REMARK SMILES IDX 87 86 89 87 86 88 82 89 83 90 84 91 85 92 64 93 65 94 73 95
REMARK SMILES IDX 66 96 72 97 74 98 71 99 67 100 68 101 69 102 70 103
REMARK H PARENT 94 56 62 67
REMARK Flexibility Score: inf
ROOT
ATOM      1  C   UNL A   1      36.508  30.557  29.265  1.00  0.00     0.188 C 
ENDROOT
BRANCH   1   2
ATOM      2  O   UNL A   1      35.442  31.490  29.119  1.00  0.00    -0.376 OA
BRANCH   2   3
ATOM      3  C   UNL A   1      34.919  31.788  27.838  1.00  0.00     0.202 C 
BRANCH   3   4
ATOM      4  C   UNL A   1      33.518  31.261  27.486  1.00  0.00     0.261 C 
BRANCH   4   5
ATOM      5  O   UNL A   1      33.371  30.513  26.257  1.00  0.00    -0.461 OA
BRANCH   5   6
ATOM      6  C   UNL A   1      33.556  29.171  26.378  1.00  0.00     0.334 C 
ATOM      7  O   UNL A   1      34.672  28.673  26.534  1.00  0.00    -0.249 OA
BRANCH   6   8
ATOM      8  C   UNL A   1      32.307  28.283  26.158  1.00  0.00     0.163 C 
ATOM      9  C   UNL A   1      31.214  28.387  24.082  1.00  0.00     0.149 C 
ATOM     10  N   UNL A   1      31.858  27.261  24.035  1.00  0.00    -0.169 NA
ATOM     11  C   UNL A   1      31.284  29.137  25.371  1.00  0.00     0.108 C 
ATOM     12  N   UNL A   1      32.450  27.084  25.266  1.00  0.00    -0.247 N 
ATOM     13  C   UNL A   1      31.812  27.984  27.571  1.00  0.00     0.050 C 
BRANCH   9  14
ATOM     14  C   UNL A   1      30.471  29.010  22.918  1.00  0.00     0.354 C 
ATOM     15  O   UNL A   1      30.565  28.482  21.825  1.00  0.00    -0.245 OA
BRANCH  14  16
ATOM     16  O   UNL A   1      29.721  30.059  23.284  1.00  0.00    -0.461 OA
BRANCH  16  17
ATOM     17  C   UNL A   1      28.292  30.094  23.025  1.00  0.00     0.230 C 
ATOM     18  C   UNL A   1      27.517  28.799  23.199  1.00  0.00     0.049 C 
ENDBRANCH  16  17
ENDBRANCH  14  16
ENDBRANCH   9  14
BRANCH  12  19
ATOM     19  C   UNL A   1      32.812  25.773  25.565  1.00  0.00     0.073 A 
ATOM     20  C   UNL A   1      34.166  25.397  25.400  1.00  0.00     0.036 A 
ATOM     21  C   UNL A   1      31.913  24.737  25.881  1.00  0.00     0.088 A 
ATOM     22  C   UNL A   1      34.650  24.116  25.690  1.00  0.00     0.088 A 
ATOM     23  C   UNL A   1      32.405  23.455  26.247  1.00  0.00     0.101 A 
ATOM     24  C   UNL A   1      33.767  23.157  26.164  1.00  0.00     0.270 A 
BRANCH  21  25
ATOM     25  C   UNL A   1      30.411  24.853  25.773  1.00  0.00     0.418 C 
ATOM     26  F   UNL A   1      30.005  25.049  24.483  1.00  0.00    -0.166 F 
ATOM     27  F   UNL A   1      29.790  23.702  26.163  1.00  0.00    -0.166 F 
ATOM     28  F   UNL A   1      29.838  25.858  26.484  1.00  0.00    -0.166 F 
ENDBRANCH  21  25
BRANCH  24  29
ATOM     29  N   UNL A   1      34.255  21.827  26.547  1.00  0.00     0.062 N 
ATOM     30  O   UNL A   1      34.677  21.082  25.650  1.00  0.00    -0.258 OA
ATOM     31  O   UNL A   1      34.239  21.534  27.751  1.00  0.00    -0.258 OA
ENDBRANCH  24  29
ENDBRANCH  12  19
ENDBRANCH   6   8
ENDBRANCH   5   6
ENDBRANCH   4   5
ENDBRANCH   3   4
ENDBRANCH   2   3
ENDBRANCH   1   2
BRANCH   1  32
ATOM     32  C   UNL A   1      37.964  30.973  29.008  1.00  0.00     0.188 C 
BRANCH  32  33
ATOM     33  O   UNL A   1      38.769  29.968  28.425  1.00  0.00    -0.376 OA
BRANCH  33  34
ATOM     34  C   UNL A   1      38.970  28.794  29.186  1.00  0.00     0.202 C 
BRANCH  34  35
ATOM     35  C   UNL A   1      38.958  27.459  28.423  1.00  0.00     0.261 C 
BRANCH  35  36
ATOM     36  O   UNL A   1      39.874  27.343  27.317  1.00  0.00    -0.460 OA
BRANCH  36  37
ATOM     37  C   UNL A   1      40.429  26.129  27.099  1.00  0.00     0.338 C 
ATOM     38  O   UNL A   1      39.911  25.193  26.510  1.00  0.00    -0.246 OA
BRANCH  37  39
ATOM     39  C   UNL A   1      41.845  26.174  27.531  1.00  0.00     0.060 A 
ATOM     40  C   UNL A   1      42.544  24.973  27.674  1.00  0.00     0.016 A 
ATOM     41  C   UNL A   1      42.483  27.382  27.825  1.00  0.00     0.016 A 
ATOM     42  C   UNL A   1      43.866  24.987  28.116  1.00  0.00     0.010 A 
ATOM     43  C   UNL A   1      43.800  27.376  28.329  1.00  0.00     0.010 A 
ATOM     44  C   UNL A   1      44.492  26.168  28.523  1.00  0.00    -0.014 A 
BRANCH  44  45
ATOM     45  C   UNL A   1      45.737  26.062  29.351  1.00  0.00     0.031 A 
ATOM     46  C   UNL A   1      47.045  26.537  28.757  1.00  0.00     0.074 A 
ATOM     47  C   UNL A   1      45.713  25.735  30.661  1.00  0.00     0.049 A 
ATOM     48  N   UNL A   1      48.253  26.514  29.261  1.00  0.00    -0.248 NA
ATOM     49  C   UNL A   1      46.971  27.135  27.415  1.00  0.00     0.031 C 
ATOM     50  C   UNL A   1      44.511  25.418  31.430  1.00  0.00     0.029 A 
ATOM     51  N   UNL A   1      46.728  25.665  31.592  1.00  0.00    -0.354 N 
ATOM     52  C   UNL A   1      49.088  27.050  28.284  1.00  0.00     0.074 A 
ATOM     53  C   UNL A   1      48.246  27.384  27.155  1.00  0.00     0.031 C 
ATOM     54  C   UNL A   1      44.852  25.230  32.718  1.00  0.00     0.029 A 
ATOM     55  C   UNL A   1      46.304  25.325  32.858  1.00  0.00     0.049 A 
ATOM     56  H   UNL A   1      47.671  25.840  31.371  1.00  0.00     0.167 HD
ATOM     57  C   UNL A   1      50.430  27.242  28.318  1.00  0.00     0.034 A 
ATOM     58  C   UNL A   1      47.000  25.087  33.994  1.00  0.00     0.034 A 
ATOM     59  C   UNL A   1      51.268  26.935  29.453  1.00  0.00     0.049 A 
ATOM     60  C   UNL A   1      48.510  25.185  33.967  1.00  0.00     0.074 A 
ATOM     61  C   UNL A   1      52.644  27.054  29.562  1.00  0.00     0.029 A 
ATOM     62  N   UNL A   1      50.816  26.460  30.675  1.00  0.00    -0.354 N 
ATOM     63  N   UNL A   1      49.301  25.587  32.998  1.00  0.00    -0.248 NA
ATOM     64  C   UNL A   1      49.223  24.784  35.189  1.00  0.00     0.031 C 
ATOM     65  C   UNL A   1      53.031  26.574  30.818  1.00  0.00     0.029 A 
ATOM     66  C   UNL A   1      51.889  26.247  31.531  1.00  0.00     0.049 A 
ATOM     67  H   UNL A   1      49.872  26.296  30.903  1.00  0.00     0.167 HD
ATOM     68  C   UNL A   1      50.597  25.509  33.507  1.00  0.00     0.074 A 
ATOM     69  C   UNL A   1      50.480  25.055  34.875  1.00  0.00     0.031 C 
ATOM     70  C   UNL A   1      51.778  25.785  32.894  1.00  0.00     0.034 A 
BRANCH  57  71
ATOM     71  C   UNL A   1      51.093  27.727  27.049  1.00  0.00     0.023 A 
ATOM     72  C   UNL A   1      51.323  29.088  26.791  1.00  0.00     0.031 A 
ATOM     73  C   UNL A   1      51.479  26.796  26.066  1.00  0.00     0.131 A 
ATOM     74  C   UNL A   1      51.859  29.482  25.554  1.00  0.00     0.055 A 
ATOM     75  C   UNL A   1      52.092  27.188  24.876  1.00  0.00     0.041 A 
ATOM     76  F   UNL A   1      51.259  25.483  26.245  1.00  0.00    -0.206 F 
ATOM     77  C   UNL A   1      52.272  28.540  24.608  1.00  0.00     0.022 A 
BRANCH  74  78
ATOM     78  S   UNL A   1      51.869  31.247  25.137  1.00  0.00     0.124 S 
ATOM     79  O   UNL A   1      51.635  31.210  23.695  1.00  0.00    -0.237 OA
ATOM     80  O   UNL A   1      50.777  31.770  25.949  1.00  0.00    -0.237 OA
ATOM     81  O   UNL A   1      53.208  31.685  25.532  1.00  0.00    -0.744 OA
ENDBRANCH  74  78
ENDBRANCH  57  71
BRANCH  58  82
ATOM     82  C   UNL A   1      46.307  24.642  35.246  1.00  0.00     0.023 A 
ATOM     83  C   UNL A   1      45.958  25.554  36.258  1.00  0.00     0.031 A 
ATOM     84  C   UNL A   1      46.086  23.275  35.498  1.00  0.00     0.131 A 
ATOM     85  C   UNL A   1      45.462  25.085  37.488  1.00  0.00     0.055 A 
ATOM     86  C   UNL A   1      45.520  22.821  36.692  1.00  0.00     0.041 A 
ATOM     87  F   UNL A   1      46.426  22.349  34.587  1.00  0.00    -0.206 F 
ATOM     88  C   UNL A   1      45.221  23.726  37.702  1.00  0.00     0.022 A 
BRANCH  85  89
ATOM     89  S   UNL A   1      45.261  26.261  38.857  1.00  0.00     0.124 S 
ATOM     90  O   UNL A   1      45.064  25.365  39.990  1.00  0.00    -0.237 OA
ATOM     91  O   UNL A   1      46.528  26.985  38.824  1.00  0.00    -0.237 OA
ATOM     92  O   UNL A   1      44.089  27.041  38.466  1.00  0.00    -0.744 OA
ENDBRANCH  85  89
ENDBRANCH  58  82
BRANCH  70  93
ATOM     93  C   UNL A   1      53.041  25.646  33.718  1.00  0.00     0.023 A 
ATOM     94  C   UNL A   1      53.719  24.420  33.842  1.00  0.00     0.031 A 
ATOM     95  C   UNL A   1      53.563  26.756  34.410  1.00  0.00     0.131 A 
ATOM     96  C   UNL A   1      54.834  24.315  34.690  1.00  0.00     0.055 A 
ATOM     97  C   UNL A   1      54.714  26.662  35.194  1.00  0.00     0.041 A 
ATOM     98  F   UNL A   1      52.961  27.954  34.335  1.00  0.00    -0.206 F 
ATOM     99  C   UNL A   1      55.346  25.433  35.353  1.00  0.00     0.022 A 
BRANCH  96 100
ATOM    100  S   UNL A   1      55.532  22.671  35.014  1.00  0.00     0.124 S 
ATOM    101  O   UNL A   1      55.451  22.589  36.469  1.00  0.00    -0.237 OA
ATOM    102  O   UNL A   1      54.628  21.798  34.274  1.00  0.00    -0.237 OA
ATOM    103  O   UNL A   1      56.887  22.762  34.474  1.00  0.00    -0.744 OA
ENDBRANCH  96 100
ENDBRANCH  70  93
ENDBRANCH  44  45
ENDBRANCH  37  39
ENDBRANCH  36  37
ENDBRANCH  35  36
ENDBRANCH  34  35
ENDBRANCH  33  34
ENDBRANCH  32  33
ENDBRANCH   1  32
TORSDOF 26
ENDMDL
MODEL 3
REMARK VINA RESULT:      -8.8      1.827      2.107
REMARK SMILES CCOC(=O)C1=NN(c2ccc([N+](=O)[O-])cc2C(F)(F)F)[C@@](C)(C(=O)OCCOCCOCCOC(=O)c2ccc(-c3c4nc(c(-c5cc(S(=O)(=O)[O-])ccc5F)c5ccc([nH]5)c(-c5cc(S(=O)(=O)[O-])ccc5F)c5nc(c(-c6cc(S(=O)(=O)[O-])ccc6F)c6ccc3[nH]6)C=C5)C=C4)cc2)C1
REMARK SMILES IDX 30 1 29 2 28 3 27 4 26 5 24 6 25 7 22 8 6 9 7 10 101 11 8 12
REMARK SMILES IDX 23 13 4 14 5 15 3 16 2 17 1 18 9 19 10 20 17 21 11 22 16 23
REMARK SMILES IDX 12 24 18 25 19 26 20 27 21 28 13 29 14 30 15 31 31 32 32 33
REMARK SMILES IDX 33 34 34 35 35 36 36 37 37 38 38 39 39 40 100 41 40 42 99 43
REMARK SMILES IDX 41 44 42 45 43 46 93 47 44 48 98 49 92 50 94 51 45 52 97 53
REMARK SMILES IDX 91 54 90 55 46 57 78 58 58 59 77 60 59 61 62 62 76 63 95 64
REMARK SMILES IDX 60 65 61 66 75 68 96 69 63 70 47 71 48 72 56 73 49 74 55 75
REMARK SMILES IDX 57 76 54 77 50 78 51 79 52 80 53 81 79 82 80 83 88 84 81 85
REMARK SMILES IDX 87 86 89 87 86 88 82 89 83 90 84 91 85 92 64 93 65 94 73 95
REMARK SMILES IDX 66 96 72 97 74 98 71 99 67 100 68 101 69 102 70 103
REMARK H PARENT 94 56 62 67
REMARK Flexibility Score: inf
ROOT
ATOM      1  C   UNL A   1      34.268  32.897  27.979  1.00  0.00     0.188 C 
ENDROOT
BRANCH   1   2
ATOM      2  O   UNL A   1      34.598  31.742  27.215  1.00  0.00    -0.376 OA
BRANCH   2   3
ATOM      3  C   UNL A   1      34.170  30.459  27.632  1.00  0.00     0.202 C 
BRANCH   3   4
ATOM      4  C   UNL A   1      33.184  29.697  26.731  1.00  0.00     0.261 C 
BRANCH   4   5
ATOM      5  O   UNL A   1      33.183  28.252  26.810  1.00  0.00    -0.461 OA
BRANCH   5   6
ATOM      6  C   UNL A   1      31.964  27.692  27.036  1.00  0.00     0.334 C 
ATOM      7  O   UNL A   1      31.383  27.797  28.117  1.00  0.00    -0.249 OA
BRANCH   6   8
ATOM      8  C   UNL A   1      31.406  26.784  25.912  1.00  0.00     0.163 C 
ATOM      9  C   UNL A   1      31.035  27.730  23.795  1.00  0.00     0.149 C 
ATOM     10  N   UNL A   1      32.119  27.034  23.635  1.00  0.00    -0.169 NA
ATOM     11  C   UNL A   1      30.371  27.627  25.129  1.00  0.00     0.108 C 
ATOM     12  N   UNL A   1      32.347  26.367  24.820  1.00  0.00    -0.247 N 
ATOM     13  C   UNL A   1      30.735  25.637  26.662  1.00  0.00     0.050 C 
BRANCH   9  14
ATOM     14  C   UNL A   1      30.449  28.672  22.763  1.00  0.00     0.354 C 
ATOM     15  O   UNL A   1      30.527  28.360  21.588  1.00  0.00    -0.245 OA
BRANCH  14  16
ATOM     16  O   UNL A   1      29.836  29.729  23.314  1.00  0.00    -0.461 OA
BRANCH  16  17
ATOM     17  C   UNL A   1      28.404  29.927  23.179  1.00  0.00     0.230 C 
ATOM     18  C   UNL A   1      27.847  31.291  23.553  1.00  0.00     0.049 C 
ENDBRANCH  16  17
ENDBRANCH  14  16
ENDBRANCH   9  14
BRANCH  12  19
ATOM     19  C   UNL A   1      33.185  25.260  24.722  1.00  0.00     0.073 A 
ATOM     20  C   UNL A   1      34.527  25.396  25.149  1.00  0.00     0.036 A 
ATOM     21  C   UNL A   1      32.853  24.045  24.094  1.00  0.00     0.088 A 
ATOM     22  C   UNL A   1      35.455  24.348  25.120  1.00  0.00     0.088 A 
ATOM     23  C   UNL A   1      33.764  22.955  24.127  1.00  0.00     0.101 A 
ATOM     24  C   UNL A   1      35.049  23.107  24.651  1.00  0.00     0.270 A 
BRANCH  21  25
ATOM     25  C   UNL A   1      31.599  23.824  23.282  1.00  0.00     0.418 C 
ATOM     26  F   UNL A   1      31.518  22.546  22.804  1.00  0.00    -0.166 F 
ATOM     27  F   UNL A   1      30.476  23.985  24.039  1.00  0.00    -0.166 F 
ATOM     28  F   UNL A   1      31.446  24.623  22.194  1.00  0.00    -0.166 F 
ENDBRANCH  21  25
BRANCH  24  29
ATOM     29  N   UNL A   1      35.975  21.968  24.675  1.00  0.00     0.062 N 
ATOM     30  O   UNL A   1      36.966  22.009  23.932  1.00  0.00    -0.258 OA
ATOM     31  O   UNL A   1      35.723  21.041  25.458  1.00  0.00    -0.258 OA
ENDBRANCH  24  29
ENDBRANCH  12  19
ENDBRANCH   6   8
ENDBRANCH   5   6
ENDBRANCH   4   5
ENDBRANCH   3   4
ENDBRANCH   2   3
ENDBRANCH   1   2
BRANCH   1  32
ATOM     32  C   UNL A   1      34.257  32.854  29.514  1.00  0.00     0.188 C 
BRANCH  32  33
ATOM     33  O   UNL A   1      35.424  33.368  30.126  1.00  0.00    -0.376 OA
BRANCH  33  34
ATOM     34  C   UNL A   1      35.473  33.326  31.538  1.00  0.00     0.202 C 
BRANCH  34  35
ATOM     35  C   UNL A   1      36.828  32.981  32.178  1.00  0.00     0.261 C 
BRANCH  35  36
ATOM     36  O   UNL A   1      37.526  31.846  31.630  1.00  0.00    -0.460 OA
BRANCH  36  37
ATOM     37  C   UNL A   1      37.223  30.630  32.138  1.00  0.00     0.338 C 
ATOM     38  O   UNL A   1      36.118  30.112  32.163  1.00  0.00    -0.246 OA
BRANCH  37  39
ATOM     39  C   UNL A   1      38.485  29.941  32.497  1.00  0.00     0.060 A 
ATOM     40  C   UNL A   1      39.585  30.709  32.882  1.00  0.00     0.016 A 
ATOM     41  C   UNL A   1      38.605  28.551  32.428  1.00  0.00     0.016 A 
ATOM     42  C   UNL A   1      40.795  30.087  33.187  1.00  0.00     0.010 A 
ATOM     43  C   UNL A   1      39.850  27.940  32.681  1.00  0.00     0.010 A 
ATOM     44  C   UNL A   1      40.975  28.712  33.021  1.00  0.00    -0.014 A 
BRANCH  44  45
ATOM     45  C   UNL A   1      42.376  28.181  32.974  1.00  0.00     0.031 A 
ATOM     46  C   UNL A   1      43.072  27.858  34.278  1.00  0.00     0.074 A 
ATOM     47  C   UNL A   1      42.973  27.806  31.822  1.00  0.00     0.049 A 
ATOM     48  N   UNL A   1      44.289  27.424  34.494  1.00  0.00    -0.248 NA
ATOM     49  C   UNL A   1      42.276  28.034  35.502  1.00  0.00     0.031 C 
ATOM     50  C   UNL A   1      42.371  27.889  30.493  1.00  0.00     0.029 A 
ATOM     51  N   UNL A   1      44.205  27.231  31.591  1.00  0.00    -0.354 N 
ATOM     52  C   UNL A   1      44.420  27.320  35.877  1.00  0.00     0.074 A 
ATOM     53  C   UNL A   1      43.158  27.741  36.447  1.00  0.00     0.031 C 
ATOM     54  C   UNL A   1      43.213  27.347  29.595  1.00  0.00     0.029 A 
ATOM     55  C   UNL A   1      44.453  26.956  30.264  1.00  0.00     0.049 A 
ATOM     56  H   UNL A   1      44.850  27.036  32.308  1.00  0.00     0.167 HD
ATOM     57  C   UNL A   1      45.490  26.917  36.607  1.00  0.00     0.034 A 
ATOM     58  C   UNL A   1      45.558  26.474  29.648  1.00  0.00     0.034 A 
ATOM     59  C   UNL A   1      46.740  26.470  36.040  1.00  0.00     0.049 A 
ATOM     60  C   UNL A   1      46.783  26.153  30.477  1.00  0.00     0.074 A 
ATOM     61  C   UNL A   1      47.895  26.087  36.701  1.00  0.00     0.029 A 
ATOM     62  N   UNL A   1      47.001  26.337  34.684  1.00  0.00    -0.354 N 
ATOM     63  N   UNL A   1      46.931  26.166  31.782  1.00  0.00    -0.248 NA
ATOM     64  C   UNL A   1      47.997  25.763  29.744  1.00  0.00     0.031 C 
ATOM     65  C   UNL A   1      48.877  25.801  35.746  1.00  0.00     0.029 A 
ATOM     66  C   UNL A   1      48.309  25.911  34.488  1.00  0.00     0.049 A 
ATOM     67  H   UNL A   1      46.354  26.518  33.964  1.00  0.00     0.167 HD
ATOM     68  C   UNL A   1      48.245  25.763  32.020  1.00  0.00     0.074 A 
ATOM     69  C   UNL A   1      48.834  25.482  30.730  1.00  0.00     0.031 C 
ATOM     70  C   UNL A   1      48.905  25.640  33.202  1.00  0.00     0.034 A 
BRANCH  57  71
ATOM     71  C   UNL A   1      45.386  27.031  38.111  1.00  0.00     0.023 A 
ATOM     72  C   UNL A   1      45.811  28.171  38.811  1.00  0.00     0.031 A 
ATOM     73  C   UNL A   1      44.869  25.954  38.855  1.00  0.00     0.131 A 
ATOM     74  C   UNL A   1      45.773  28.181  40.215  1.00  0.00     0.055 A 
ATOM     75  C   UNL A   1      44.753  26.005  40.244  1.00  0.00     0.041 A 
ATOM     76  F   UNL A   1      44.472  24.827  38.242  1.00  0.00    -0.206 F 
ATOM     77  C   UNL A   1      45.220  27.118  40.935  1.00  0.00     0.022 A 
BRANCH  74  78
ATOM     78  S   UNL A   1      46.597  29.536  41.095  1.00  0.00     0.124 S 
ATOM     79  O   UNL A   1      47.752  28.854  41.673  1.00  0.00    -0.237 OA
ATOM     80  O   UNL A   1      46.884  30.481  40.022  1.00  0.00    -0.237 OA
ATOM     81  O   UNL A   1      45.593  29.976  42.063  1.00  0.00    -0.744 OA
ENDBRANCH  74  78
ENDBRANCH  57  71
BRANCH  58  82
ATOM     82  C   UNL A   1      45.615  26.339  28.156  1.00  0.00     0.023 A 
ATOM     83  C   UNL A   1      45.302  25.129  27.513  1.00  0.00     0.031 A 
ATOM     84  C   UNL A   1      46.096  27.394  27.357  1.00  0.00     0.131 A 
ATOM     85  C   UNL A   1      45.525  24.986  26.132  1.00  0.00     0.055 A 
ATOM     86  C   UNL A   1      46.242  27.272  25.974  1.00  0.00     0.041 A 
ATOM     87  F   UNL A   1      46.444  28.566  27.912  1.00  0.00    -0.206 F 
ATOM     88  C   UNL A   1      45.973  26.057  25.356  1.00  0.00     0.022 A 
BRANCH  85  89
ATOM     89  S   UNL A   1      45.352  23.342  25.381  1.00  0.00     0.124 S 
ATOM     90  O   UNL A   1      46.499  22.638  25.944  1.00  0.00    -0.237 OA
ATOM     91  O   UNL A   1      44.041  22.923  25.865  1.00  0.00    -0.237 OA
ATOM     92  O   UNL A   1      45.428  23.613  23.947  1.00  0.00    -0.744 OA
ENDBRANCH  85  89
ENDBRANCH  58  82
BRANCH  70  93
ATOM     93  C   UNL A   1      50.332  25.135  33.156  1.00  0.00     0.023 A 
ATOM     94  C   UNL A   1      51.421  25.998  32.941  1.00  0.00     0.031 A 
ATOM     95  C   UNL A   1      50.605  23.762  33.307  1.00  0.00     0.131 A 
ATOM     96  C   UNL A   1      52.718  25.476  32.812  1.00  0.00     0.055 A 
ATOM     97  C   UNL A   1      51.905  23.257  33.252  1.00  0.00     0.041 A 
ATOM     98  F   UNL A   1      49.608  22.885  33.513  1.00  0.00    -0.206 F 
ATOM     99  C   UNL A   1      52.969  24.113  32.985  1.00  0.00     0.022 A 
BRANCH  96 100
ATOM    100  S   UNL A   1      54.058  26.585  32.295  1.00  0.00     0.124 S 
ATOM    101  O   UNL A   1      53.446  27.300  31.179  1.00  0.00    -0.237 OA
ATOM    102  O   UNL A   1      54.296  27.370  33.501  1.00  0.00    -0.237 OA
ATOM    103  O   UNL A   1      55.138  25.671  31.928  1.00  0.00    -0.744 OA
ENDBRANCH  96 100
ENDBRANCH  70  93
ENDBRANCH  44  45
ENDBRANCH  37  39
ENDBRANCH  36  37
ENDBRANCH  35  36
ENDBRANCH  34  35
ENDBRANCH  33  34
ENDBRANCH  32  33
ENDBRANCH   1  32
TORSDOF 26
ENDMDL
