MODEL 1
REMARK VINA RESULT:     -10.9      0.000      0.000
REMARK SMILES COC(=O)c1cc(F)cc(-c2ccc(C(=O)OCCOCCOCCOC(=O)c3ccc(-c4c5nc(c(-c6cc(S(=O)(=O)[O-])ccc6F)c6ccc([nH]6)c(-c6cc(S(=O)(=O)[O-])ccc6F)c6nc(c(-c7cc(S(=O)(=O)[O-])ccc7F)c7ccc4[nH]7)C=C6)C=C5)cc3)cc2C)c1
REMARK SMILES IDX 21 1 20 2 19 3 18 4 17 5 15 6 16 7 14 8 11 9 12 10 93 11
REMARK SMILES IDX 13 12 92 13 94 14 10 15 5 16 6 17 95 18 7 19 8 20 9 21 3 22
REMARK SMILES IDX 4 23 2 24 1 25 22 26 23 27 24 28 25 29 26 30 27 31 28 32
REMARK SMILES IDX 29 33 30 34 91 35 31 36 90 37 32 38 33 39 34 40 84 41 35 42
REMARK SMILES IDX 89 43 83 44 85 45 36 46 88 47 82 48 81 49 37 51 69 52 49 53
REMARK SMILES IDX 68 54 50 55 53 56 67 57 86 58 51 59 52 60 66 62 87 63 54 64
REMARK SMILES IDX 38 65 39 66 47 67 40 68 46 69 48 70 45 71 41 72 42 73 43 74
REMARK SMILES IDX 44 75 70 76 71 77 79 78 72 79 78 80 80 81 77 82 73 83 74 84
REMARK SMILES IDX 75 85 76 86 55 87 56 88 64 89 57 90 63 91 65 92 62 93 58 94
REMARK SMILES IDX 59 95 60 96 61 97
REMARK H PARENT 85 50 53 61
REMARK Flexibility Score: inf
ROOT
ATOM      1  C   UNL A   1      33.310  30.808  27.476  1.00  0.00     0.188 C 
ENDROOT
BRANCH   1   2
ATOM      2  O   UNL A   1      33.444  30.308  26.158  1.00  0.00    -0.376 OA
BRANCH   2   3
ATOM      3  C   UNL A   1      32.555  29.272  25.757  1.00  0.00     0.202 C 
BRANCH   3   4
ATOM      4  C   UNL A   1      32.203  29.063  24.272  1.00  0.00     0.261 C 
BRANCH   4   5
ATOM      5  O   UNL A   1      30.996  28.350  23.933  1.00  0.00    -0.460 OA
BRANCH   5   6
ATOM      6  C   UNL A   1      31.098  27.416  22.933  1.00  0.00     0.338 C 
ATOM      7  O   UNL A   1      30.620  27.510  21.816  1.00  0.00    -0.246 OA
BRANCH   6   8
ATOM      8  C   UNL A   1      31.844  26.223  23.416  1.00  0.00     0.060 A 
ATOM      9  C   UNL A   1      33.428  23.938  24.133  1.00  0.00    -0.015 A 
ATOM     10  C   UNL A   1      33.582  24.607  22.916  1.00  0.00     0.010 A 
ATOM     11  C   UNL A   1      32.519  24.517  25.051  1.00  0.00    -0.042 A 
ATOM     12  C   UNL A   1      32.819  25.722  22.583  1.00  0.00     0.016 A 
ATOM     13  C   UNL A   1      31.728  25.654  24.680  1.00  0.00     0.019 A 
ATOM     14  C   UNL A   1      32.380  24.030  26.468  1.00  0.00     0.045 C 
BRANCH   9  15
ATOM     15  C   UNL A   1      34.214  22.683  24.300  1.00  0.00    -0.014 A 
ATOM     16  C   UNL A   1      34.239  20.250  24.741  1.00  0.00     0.063 A 
ATOM     17  C   UNL A   1      35.617  20.288  24.944  1.00  0.00     0.055 A 
ATOM     18  C   UNL A   1      33.556  21.436  24.409  1.00  0.00     0.024 A 
ATOM     19  C   UNL A   1      36.278  21.504  24.818  1.00  0.00     0.124 A 
ATOM     20  F   UNL A   1      37.607  21.546  24.997  1.00  0.00    -0.207 F 
ATOM     21  C   UNL A   1      35.599  22.688  24.516  1.00  0.00     0.048 A 
BRANCH  16  22
ATOM     22  C   UNL A   1      33.455  18.992  24.836  1.00  0.00     0.337 C 
ATOM     23  O   UNL A   1      32.455  18.887  25.541  1.00  0.00    -0.246 OA
BRANCH  22  24
ATOM     24  O   UNL A   1      33.974  18.024  24.045  1.00  0.00    -0.465 OA
ATOM     25  C   UNL A   1      33.092  17.610  22.997  1.00  0.00     0.282 C 
ENDBRANCH  22  24
ENDBRANCH  16  22
ENDBRANCH   9  15
ENDBRANCH   6   8
ENDBRANCH   5   6
ENDBRANCH   4   5
ENDBRANCH   3   4
ENDBRANCH   2   3
ENDBRANCH   1   2
BRANCH   1  26
ATOM     26  C   UNL A   1      34.445  31.652  28.064  1.00  0.00     0.188 C 
BRANCH  26  27
ATOM     27  O   UNL A   1      34.347  33.055  27.857  1.00  0.00    -0.376 OA
BRANCH  27  28
ATOM     28  C   UNL A   1      33.027  33.600  27.900  1.00  0.00     0.202 C 
BRANCH  28  29
ATOM     29  C   UNL A   1      32.953  35.025  28.475  1.00  0.00     0.261 C 
BRANCH  29  30
ATOM     30  O   UNL A   1      32.413  34.992  29.804  1.00  0.00    -0.460 OA
BRANCH  30  31
ATOM     31  C   UNL A   1      33.185  35.637  30.714  1.00  0.00     0.338 C 
ATOM     32  O   UNL A   1      33.089  36.821  31.002  1.00  0.00    -0.246 OA
BRANCH  31  33
ATOM     33  C   UNL A   1      34.292  34.740  31.151  1.00  0.00     0.060 A 
ATOM     34  C   UNL A   1      35.466  34.721  30.405  1.00  0.00     0.016 A 
ATOM     35  C   UNL A   1      34.120  33.815  32.196  1.00  0.00     0.016 A 
ATOM     36  C   UNL A   1      36.445  33.777  30.711  1.00  0.00     0.010 A 
ATOM     37  C   UNL A   1      35.088  32.845  32.474  1.00  0.00     0.010 A 
ATOM     38  C   UNL A   1      36.269  32.815  31.734  1.00  0.00    -0.014 A 
BRANCH  38  39
ATOM     39  C   UNL A   1      37.440  32.051  32.236  1.00  0.00     0.031 A 
ATOM     40  C   UNL A   1      37.967  30.764  31.645  1.00  0.00     0.074 A 
ATOM     41  C   UNL A   1      38.115  32.650  33.234  1.00  0.00     0.049 A 
ATOM     42  N   UNL A   1      39.191  30.302  31.722  1.00  0.00    -0.248 NA
ATOM     43  C   UNL A   1      37.106  29.973  30.752  1.00  0.00     0.031 C 
ATOM     44  C   UNL A   1      37.723  33.908  33.885  1.00  0.00     0.029 A 
ATOM     45  N   UNL A   1      39.249  32.272  33.890  1.00  0.00    -0.354 N 
ATOM     46  C   UNL A   1      39.310  29.334  30.728  1.00  0.00     0.074 A 
ATOM     47  C   UNL A   1      37.997  29.188  30.138  1.00  0.00     0.031 C 
ATOM     48  C   UNL A   1      38.569  34.160  34.889  1.00  0.00     0.029 A 
ATOM     49  C   UNL A   1      39.511  33.058  34.982  1.00  0.00     0.049 A 
ATOM     50  H   UNL A   1      39.818  31.519  33.610  1.00  0.00     0.167 HD
ATOM     51  C   UNL A   1      40.437  28.677  30.348  1.00  0.00     0.034 A 
ATOM     52  C   UNL A   1      40.354  32.848  36.004  1.00  0.00     0.034 A 
ATOM     53  C   UNL A   1      41.566  28.546  31.244  1.00  0.00     0.049 A 
ATOM     54  C   UNL A   1      41.305  31.701  35.895  1.00  0.00     0.074 A 
ATOM     55  C   UNL A   1      42.630  27.663  31.161  1.00  0.00     0.029 A 
ATOM     56  N   UNL A   1      41.691  29.200  32.463  1.00  0.00    -0.354 N 
ATOM     57  N   UNL A   1      41.481  30.887  34.880  1.00  0.00    -0.248 NA
ATOM     58  C   UNL A   1      42.177  31.452  37.040  1.00  0.00     0.031 C 
ATOM     59  C   UNL A   1      43.287  27.666  32.398  1.00  0.00     0.029 A 
ATOM     60  C   UNL A   1      42.719  28.642  33.202  1.00  0.00     0.049 A 
ATOM     61  H   UNL A   1      41.128  29.952  32.759  1.00  0.00     0.167 HD
ATOM     62  C   UNL A   1      42.512  30.039  35.252  1.00  0.00     0.074 A 
ATOM     63  C   UNL A   1      42.914  30.447  36.588  1.00  0.00     0.031 C 
ATOM     64  C   UNL A   1      43.084  29.031  34.544  1.00  0.00     0.034 A 
BRANCH  51  65
ATOM     65  C   UNL A   1      40.471  27.867  29.069  1.00  0.00     0.023 A 
ATOM     66  C   UNL A   1      41.333  28.187  27.995  1.00  0.00     0.031 A 
ATOM     67  C   UNL A   1      39.778  26.646  29.009  1.00  0.00     0.131 A 
ATOM     68  C   UNL A   1      41.478  27.288  26.916  1.00  0.00     0.055 A 
ATOM     69  C   UNL A   1      39.945  25.749  27.951  1.00  0.00     0.041 A 
ATOM     70  F   UNL A   1      38.958  26.287  30.009  1.00  0.00    -0.206 F 
ATOM     71  C   UNL A   1      40.800  26.065  26.901  1.00  0.00     0.022 A 
BRANCH  68  72
ATOM     72  S   UNL A   1      42.578  27.693  25.517  1.00  0.00     0.124 S 
ATOM     73  O   UNL A   1      42.446  26.507  24.677  1.00  0.00    -0.237 OA
ATOM     74  O   UNL A   1      41.993  28.921  24.992  1.00  0.00    -0.237 OA
ATOM     75  O   UNL A   1      43.889  27.856  26.146  1.00  0.00    -0.744 OA
ENDBRANCH  68  72
ENDBRANCH  51  65
BRANCH  52  76
ATOM     76  C   UNL A   1      40.199  33.675  37.225  1.00  0.00     0.023 A 
ATOM     77  C   UNL A   1      39.384  33.283  38.289  1.00  0.00     0.031 A 
ATOM     78  C   UNL A   1      40.945  34.868  37.355  1.00  0.00     0.131 A 
ATOM     79  C   UNL A   1      39.335  34.077  39.445  1.00  0.00     0.055 A 
ATOM     80  C   UNL A   1      40.928  35.626  38.523  1.00  0.00     0.041 A 
ATOM     81  F   UNL A   1      41.744  35.283  36.359  1.00  0.00    -0.206 F 
ATOM     82  C   UNL A   1      40.114  35.233  39.577  1.00  0.00     0.022 A 
BRANCH  79  83
ATOM     83  S   UNL A   1      38.203  33.597  40.774  1.00  0.00     0.124 S 
ATOM     84  O   UNL A   1      37.010  33.217  40.025  1.00  0.00    -0.237 OA
ATOM     85  O   UNL A   1      38.934  32.507  41.413  1.00  0.00    -0.237 OA
ATOM     86  O   UNL A   1      38.079  34.815  41.572  1.00  0.00    -0.744 OA
ENDBRANCH  79  83
ENDBRANCH  52  76
BRANCH  64  87
ATOM     87  C   UNL A   1      44.227  28.313  35.206  1.00  0.00     0.023 A 
ATOM     88  C   UNL A   1      44.010  27.388  36.240  1.00  0.00     0.031 A 
ATOM     89  C   UNL A   1      45.549  28.577  34.812  1.00  0.00     0.131 A 
ATOM     90  C   UNL A   1      45.105  26.811  36.893  1.00  0.00     0.055 A 
ATOM     91  C   UNL A   1      46.633  27.942  35.416  1.00  0.00     0.041 A 
ATOM     92  F   UNL A   1      45.809  29.463  33.837  1.00  0.00    -0.206 F 
ATOM     93  C   UNL A   1      46.415  27.065  36.474  1.00  0.00     0.022 A 
BRANCH  90  94
ATOM     94  S   UNL A   1      44.798  25.809  38.372  1.00  0.00     0.124 S 
ATOM     95  O   UNL A   1      46.020  26.028  39.140  1.00  0.00    -0.237 OA
ATOM     96  O   UNL A   1      43.587  26.414  38.915  1.00  0.00    -0.237 OA
ATOM     97  O   UNL A   1      44.633  24.457  37.841  1.00  0.00    -0.744 OA
ENDBRANCH  90  94
ENDBRANCH  64  87
ENDBRANCH  38  39
ENDBRANCH  31  33
ENDBRANCH  30  31
ENDBRANCH  29  30
ENDBRANCH  28  29
ENDBRANCH  27  28
ENDBRANCH  26  27
ENDBRANCH   1  26
TORSDOF 23
ENDMDL
MODEL 2
REMARK VINA RESULT:     -10.5      1.877      2.339
REMARK SMILES COC(=O)c1cc(F)cc(-c2ccc(C(=O)OCCOCCOCCOC(=O)c3ccc(-c4c5nc(c(-c6cc(S(=O)(=O)[O-])ccc6F)c6ccc([nH]6)c(-c6cc(S(=O)(=O)[O-])ccc6F)c6nc(c(-c7cc(S(=O)(=O)[O-])ccc7F)c7ccc4[nH]7)C=C6)C=C5)cc3)cc2C)c1
REMARK SMILES IDX 21 1 20 2 19 3 18 4 17 5 15 6 16 7 14 8 11 9 12 10 93 11
REMARK SMILES IDX 13 12 92 13 94 14 10 15 5 16 6 17 95 18 7 19 8 20 9 21 3 22
REMARK SMILES IDX 4 23 2 24 1 25 22 26 23 27 24 28 25 29 26 30 27 31 28 32
REMARK SMILES IDX 29 33 30 34 91 35 31 36 90 37 32 38 33 39 34 40 84 41 35 42
REMARK SMILES IDX 89 43 83 44 85 45 36 46 88 47 82 48 81 49 37 51 69 52 49 53
REMARK SMILES IDX 68 54 50 55 53 56 67 57 86 58 51 59 52 60 66 62 87 63 54 64
REMARK SMILES IDX 38 65 39 66 47 67 40 68 46 69 48 70 45 71 41 72 42 73 43 74
REMARK SMILES IDX 44 75 70 76 71 77 79 78 72 79 78 80 80 81 77 82 73 83 74 84
REMARK SMILES IDX 75 85 76 86 55 87 56 88 64 89 57 90 63 91 65 92 62 93 58 94
REMARK SMILES IDX 59 95 60 96 61 97
REMARK H PARENT 85 50 53 61
REMARK Flexibility Score: inf
ROOT
ATOM      1  C   UNL A   1      33.589  30.361  27.502  1.00  0.00     0.188 C 
ENDROOT
BRANCH   1   2
ATOM      2  O   UNL A   1      34.122  29.952  26.256  1.00  0.00    -0.376 OA
BRANCH   2   3
ATOM      3  C   UNL A   1      33.929  28.596  25.873  1.00  0.00     0.202 C 
BRANCH   3   4
ATOM      4  C   UNL A   1      32.741  27.781  26.420  1.00  0.00     0.261 C 
BRANCH   4   5
ATOM      5  O   UNL A   1      32.836  26.343  26.453  1.00  0.00    -0.460 OA
BRANCH   5   6
ATOM      6  C   UNL A   1      31.664  25.649  26.286  1.00  0.00     0.338 C 
ATOM      7  O   UNL A   1      30.545  26.073  26.518  1.00  0.00    -0.246 OA
BRANCH   6   8
ATOM      8  C   UNL A   1      31.944  24.264  25.822  1.00  0.00     0.060 A 
ATOM      9  C   UNL A   1      32.388  21.660  24.696  1.00  0.00    -0.015 A 
ATOM     10  C   UNL A   1      31.742  22.682  23.995  1.00  0.00     0.010 A 
ATOM     11  C   UNL A   1      32.918  22.012  25.962  1.00  0.00    -0.042 A 
ATOM     12  C   UNL A   1      31.543  23.945  24.545  1.00  0.00     0.016 A 
ATOM     13  C   UNL A   1      32.684  23.313  26.517  1.00  0.00     0.019 A 
ATOM     14  C   UNL A   1      33.800  21.086  26.754  1.00  0.00     0.045 C 
BRANCH   9  15
ATOM     15  C   UNL A   1      32.411  20.323  24.040  1.00  0.00    -0.014 A 
ATOM     16  C   UNL A   1      33.023  17.929  24.146  1.00  0.00     0.063 A 
ATOM     17  C   UNL A   1      32.794  17.797  22.779  1.00  0.00     0.055 A 
ATOM     18  C   UNL A   1      32.817  19.177  24.764  1.00  0.00     0.024 A 
ATOM     19  C   UNL A   1      32.373  18.910  22.059  1.00  0.00     0.124 A 
ATOM     20  F   UNL A   1      32.136  18.786  20.745  1.00  0.00    -0.207 F 
ATOM     21  C   UNL A   1      32.194  20.157  22.665  1.00  0.00     0.048 A 
BRANCH  16  22
ATOM     22  C   UNL A   1      33.455  16.789  24.994  1.00  0.00     0.337 C 
ATOM     23  O   UNL A   1      34.100  16.940  26.028  1.00  0.00    -0.246 OA
BRANCH  22  24
ATOM     24  O   UNL A   1      33.030  15.607  24.490  1.00  0.00    -0.465 OA
ATOM     25  C   UNL A   1      32.514  14.715  25.482  1.00  0.00     0.282 C 
ENDBRANCH  22  24
ENDBRANCH  16  22
ENDBRANCH   9  15
ENDBRANCH   6   8
ENDBRANCH   5   6
ENDBRANCH   4   5
ENDBRANCH   3   4
ENDBRANCH   2   3
ENDBRANCH   1   2
BRANCH   1  26
ATOM     26  C   UNL A   1      34.300  31.470  28.282  1.00  0.00     0.188 C 
BRANCH  26  27
ATOM     27  O   UNL A   1      34.243  32.769  27.707  1.00  0.00    -0.376 OA
BRANCH  27  28
ATOM     28  C   UNL A   1      32.947  33.370  27.655  1.00  0.00     0.202 C 
BRANCH  28  29
ATOM     29  C   UNL A   1      32.898  34.807  28.201  1.00  0.00     0.261 C 
BRANCH  29  30
ATOM     30  O   UNL A   1      32.446  34.801  29.562  1.00  0.00    -0.460 OA
BRANCH  30  31
ATOM     31  C   UNL A   1      33.265  35.483  30.403  1.00  0.00     0.338 C 
ATOM     32  O   UNL A   1      33.209  36.684  30.616  1.00  0.00    -0.246 OA
BRANCH  31  33
ATOM     33  C   UNL A   1      34.362  34.585  30.862  1.00  0.00     0.060 A 
ATOM     34  C   UNL A   1      35.571  34.607  30.175  1.00  0.00     0.016 A 
ATOM     35  C   UNL A   1      34.153  33.621  31.866  1.00  0.00     0.016 A 
ATOM     36  C   UNL A   1      36.548  33.665  30.495  1.00  0.00     0.010 A 
ATOM     37  C   UNL A   1      35.120  32.655  32.156  1.00  0.00     0.010 A 
ATOM     38  C   UNL A   1      36.336  32.666  31.475  1.00  0.00    -0.014 A 
BRANCH  38  39
ATOM     39  C   UNL A   1      37.493  31.899  32.007  1.00  0.00     0.031 A 
ATOM     40  C   UNL A   1      38.019  30.600  31.443  1.00  0.00     0.074 A 
ATOM     41  C   UNL A   1      38.155  32.506  33.008  1.00  0.00     0.049 A 
ATOM     42  N   UNL A   1      39.238  30.130  31.547  1.00  0.00    -0.248 NA
ATOM     43  C   UNL A   1      37.166  29.804  30.546  1.00  0.00     0.031 C 
ATOM     44  C   UNL A   1      37.762  33.776  33.635  1.00  0.00     0.029 A 
ATOM     45  N   UNL A   1      39.275  32.129  33.688  1.00  0.00    -0.354 N 
ATOM     46  C   UNL A   1      39.365  29.147  30.568  1.00  0.00     0.074 A 
ATOM     47  C   UNL A   1      38.061  29.004  29.958  1.00  0.00     0.031 C 
ATOM     48  C   UNL A   1      38.593  34.036  34.649  1.00  0.00     0.029 A 
ATOM     49  C   UNL A   1      39.525  32.927  34.774  1.00  0.00     0.049 A 
ATOM     50  H   UNL A   1      39.842  31.368  33.428  1.00  0.00     0.167 HD
ATOM     51  C   UNL A   1      40.493  28.476  30.216  1.00  0.00     0.034 A 
ATOM     52  C   UNL A   1      40.349  32.725  35.813  1.00  0.00     0.034 A 
ATOM     53  C   UNL A   1      41.606  28.348  31.133  1.00  0.00     0.049 A 
ATOM     54  C   UNL A   1      41.292  31.569  35.735  1.00  0.00     0.074 A 
ATOM     55  C   UNL A   1      42.663  27.456  31.080  1.00  0.00     0.029 A 
ATOM     56  N   UNL A   1      41.715  29.018  32.344  1.00  0.00    -0.354 N 
ATOM     57  N   UNL A   1      41.479  30.740  34.734  1.00  0.00    -0.248 NA
ATOM     58  C   UNL A   1      42.143  31.329  36.898  1.00  0.00     0.031 C 
ATOM     59  C   UNL A   1      43.300  27.471  32.328  1.00  0.00     0.029 A 
ATOM     60  C   UNL A   1      42.727  28.462  33.108  1.00  0.00     0.049 A 
ATOM     61  H   UNL A   1      41.153  29.779  32.620  1.00  0.00     0.167 HD
ATOM     62  C   UNL A   1      42.497  29.889  35.136  1.00  0.00     0.074 A 
ATOM     63  C   UNL A   1      42.879  30.312  36.472  1.00  0.00     0.031 C 
ATOM     64  C   UNL A   1      43.072  28.867  34.451  1.00  0.00     0.034 A 
BRANCH  51  65
ATOM     65  C   UNL A   1      40.542  27.648  28.949  1.00  0.00     0.023 A 
ATOM     66  C   UNL A   1      41.420  27.949  27.883  1.00  0.00     0.031 A 
ATOM     67  C   UNL A   1      39.845  26.429  28.896  1.00  0.00     0.131 A 
ATOM     68  C   UNL A   1      41.577  27.035  26.818  1.00  0.00     0.055 A 
ATOM     69  C   UNL A   1      40.023  25.517  27.853  1.00  0.00     0.041 A 
ATOM     70  F   UNL A   1      39.009  26.087  29.889  1.00  0.00    -0.206 F 
ATOM     71  C   UNL A   1      40.894  25.815  26.811  1.00  0.00     0.022 A 
BRANCH  68  72
ATOM     72  S   UNL A   1      42.698  27.416  25.430  1.00  0.00     0.124 S 
ATOM     73  O   UNL A   1      42.661  26.175  24.664  1.00  0.00    -0.237 OA
ATOM     74  O   UNL A   1      42.063  28.573  24.811  1.00  0.00    -0.237 OA
ATOM     75  O   UNL A   1      43.976  27.693  26.086  1.00  0.00    -0.744 OA
ENDBRANCH  68  72
ENDBRANCH  51  65
BRANCH  52  76
ATOM     76  C   UNL A   1      40.180  33.570  37.019  1.00  0.00     0.023 A 
ATOM     77  C   UNL A   1      41.004  34.667  37.279  1.00  0.00     0.031 A 
ATOM     78  C   UNL A   1      39.113  33.307  37.908  1.00  0.00     0.131 A 
ATOM     79  C   UNL A   1      40.747  35.469  38.401  1.00  0.00     0.055 A 
ATOM     80  C   UNL A   1      38.835  34.134  38.993  1.00  0.00     0.041 A 
ATOM     81  F   UNL A   1      38.293  32.265  37.697  1.00  0.00    -0.206 F 
ATOM     82  C   UNL A   1      39.660  35.222  39.247  1.00  0.00     0.022 A 
BRANCH  79  83
ATOM     83  S   UNL A   1      41.883  36.830  38.767  1.00  0.00     0.124 S 
ATOM     84  O   UNL A   1      42.832  36.191  39.672  1.00  0.00    -0.237 OA
ATOM     85  O   UNL A   1      42.389  37.166  37.439  1.00  0.00    -0.237 OA
ATOM     86  O   UNL A   1      41.019  37.839  39.376  1.00  0.00    -0.744 OA
ENDBRANCH  79  83
ENDBRANCH  52  76
BRANCH  64  87
ATOM     87  C   UNL A   1      44.197  28.149  35.142  1.00  0.00     0.023 A 
ATOM     88  C   UNL A   1      43.959  27.263  36.205  1.00  0.00     0.031 A 
ATOM     89  C   UNL A   1      45.527  28.374  34.745  1.00  0.00     0.131 A 
ATOM     90  C   UNL A   1      45.040  26.687  36.882  1.00  0.00     0.055 A 
ATOM     91  C   UNL A   1      46.595  27.738  35.375  1.00  0.00     0.041 A 
ATOM     92  F   UNL A   1      45.807  29.221  33.743  1.00  0.00    -0.206 F 
ATOM     93  C   UNL A   1      46.356  26.901  36.461  1.00  0.00     0.022 A 
BRANCH  90  94
ATOM     94  S   UNL A   1      44.706  25.741  38.392  1.00  0.00     0.124 S 
ATOM     95  O   UNL A   1      43.287  26.009  38.605  1.00  0.00    -0.237 OA
ATOM     96  O   UNL A   1      45.045  24.380  37.991  1.00  0.00    -0.237 OA
ATOM     97  O   UNL A   1      45.606  26.341  39.376  1.00  0.00    -0.744 OA
ENDBRANCH  90  94
ENDBRANCH  64  87
ENDBRANCH  38  39
ENDBRANCH  31  33
ENDBRANCH  30  31
ENDBRANCH  29  30
ENDBRANCH  28  29
ENDBRANCH  27  28
ENDBRANCH  26  27
ENDBRANCH   1  26
TORSDOF 23
ENDMDL
MODEL 3
REMARK VINA RESULT:     -10.4      2.025      2.303
REMARK SMILES COC(=O)c1cc(F)cc(-c2ccc(C(=O)OCCOCCOCCOC(=O)c3ccc(-c4c5nc(c(-c6cc(S(=O)(=O)[O-])ccc6F)c6ccc([nH]6)c(-c6cc(S(=O)(=O)[O-])ccc6F)c6nc(c(-c7cc(S(=O)(=O)[O-])ccc7F)c7ccc4[nH]7)C=C6)C=C5)cc3)cc2C)c1
REMARK SMILES IDX 21 1 20 2 19 3 18 4 17 5 15 6 16 7 14 8 11 9 12 10 93 11
REMARK SMILES IDX 13 12 92 13 94 14 10 15 5 16 6 17 95 18 7 19 8 20 9 21 3 22
REMARK SMILES IDX 4 23 2 24 1 25 22 26 23 27 24 28 25 29 26 30 27 31 28 32
REMARK SMILES IDX 29 33 30 34 91 35 31 36 90 37 32 38 33 39 34 40 84 41 35 42
REMARK SMILES IDX 89 43 83 44 85 45 36 46 88 47 82 48 81 49 37 51 69 52 49 53
REMARK SMILES IDX 68 54 50 55 53 56 67 57 86 58 51 59 52 60 66 62 87 63 54 64
REMARK SMILES IDX 38 65 39 66 47 67 40 68 46 69 48 70 45 71 41 72 42 73 43 74
REMARK SMILES IDX 44 75 70 76 71 77 79 78 72 79 78 80 80 81 77 82 73 83 74 84
REMARK SMILES IDX 75 85 76 86 55 87 56 88 64 89 57 90 63 91 65 92 62 93 58 94
REMARK SMILES IDX 59 95 60 96 61 97
REMARK H PARENT 85 50 53 61
REMARK Flexibility Score: inf
ROOT
ATOM      1  C   UNL A   1      33.795  30.471  27.456  1.00  0.00     0.188 C 
ENDROOT
BRANCH   1   2
ATOM      2  O   UNL A   1      33.647  30.017  26.122  1.00  0.00    -0.376 OA
BRANCH   2   3
ATOM      3  C   UNL A   1      32.601  29.091  25.857  1.00  0.00     0.202 C 
BRANCH   3   4
ATOM      4  C   UNL A   1      31.729  29.223  24.593  1.00  0.00     0.261 C 
BRANCH   4   5
ATOM      5  O   UNL A   1      30.731  28.218  24.324  1.00  0.00    -0.460 OA
BRANCH   5   6
ATOM      6  C   UNL A   1      30.960  27.403  23.244  1.00  0.00     0.338 C 
ATOM      7  O   UNL A   1      30.605  27.619  22.098  1.00  0.00    -0.246 OA
BRANCH   6   8
ATOM      8  C   UNL A   1      31.674  26.169  23.671  1.00  0.00     0.060 A 
ATOM      9  C   UNL A   1      33.202  23.818  24.287  1.00  0.00    -0.015 A 
ATOM     10  C   UNL A   1      33.408  24.565  23.124  1.00  0.00     0.010 A 
ATOM     11  C   UNL A   1      32.268  24.348  25.210  1.00  0.00    -0.042 A 
ATOM     12  C   UNL A   1      32.671  25.711  22.840  1.00  0.00     0.016 A 
ATOM     13  C   UNL A   1      31.505  25.519  24.889  1.00  0.00     0.019 A 
ATOM     14  C   UNL A   1      32.073  23.769  26.584  1.00  0.00     0.045 C 
BRANCH   9  15
ATOM     15  C   UNL A   1      33.965  22.544  24.396  1.00  0.00    -0.014 A 
ATOM     16  C   UNL A   1      33.943  20.081  24.627  1.00  0.00     0.063 A 
ATOM     17  C   UNL A   1      35.304  20.084  24.921  1.00  0.00     0.055 A 
ATOM     18  C   UNL A   1      33.292  21.300  24.354  1.00  0.00     0.024 A 
ATOM     19  C   UNL A   1      35.982  21.297  24.944  1.00  0.00     0.124 A 
ATOM     20  F   UNL A   1      37.296  21.306  25.212  1.00  0.00    -0.207 F 
ATOM     21  C   UNL A   1      35.334  22.512  24.701  1.00  0.00     0.048 A 
BRANCH  16  22
ATOM     22  C   UNL A   1      33.145  18.830  24.562  1.00  0.00     0.337 C 
ATOM     23  O   UNL A   1      32.075  18.697  25.149  1.00  0.00    -0.246 OA
BRANCH  22  24
ATOM     24  O   UNL A   1      33.738  17.904  23.774  1.00  0.00    -0.465 OA
ATOM     25  C   UNL A   1      33.719  16.585  24.327  1.00  0.00     0.282 C 
ENDBRANCH  22  24
ENDBRANCH  16  22
ENDBRANCH   9  15
ENDBRANCH   6   8
ENDBRANCH   5   6
ENDBRANCH   4   5
ENDBRANCH   3   4
ENDBRANCH   2   3
ENDBRANCH   1   2
BRANCH   1  26
ATOM     26  C   UNL A   1      35.036  31.288  27.824  1.00  0.00     0.188 C 
BRANCH  26  27
ATOM     27  O   UNL A   1      34.909  32.699  27.705  1.00  0.00    -0.376 OA
BRANCH  27  28
ATOM     28  C   UNL A   1      33.573  33.202  27.658  1.00  0.00     0.202 C 
BRANCH  28  29
ATOM     29  C   UNL A   1      33.358  34.494  28.465  1.00  0.00     0.261 C 
BRANCH  29  30
ATOM     30  O   UNL A   1      33.052  34.176  29.830  1.00  0.00    -0.460 OA
BRANCH  30  31
ATOM     31  C   UNL A   1      33.862  34.802  30.722  1.00  0.00     0.338 C 
ATOM     32  O   UNL A   1      33.764  35.973  31.056  1.00  0.00    -0.246 OA
BRANCH  31  33
ATOM     33  C   UNL A   1      35.002  33.908  31.068  1.00  0.00     0.060 A 
ATOM     34  C   UNL A   1      36.248  34.171  30.508  1.00  0.00     0.016 A 
ATOM     35  C   UNL A   1      34.815  32.732  31.818  1.00  0.00     0.016 A 
ATOM     36  C   UNL A   1      37.283  33.256  30.700  1.00  0.00     0.010 A 
ATOM     37  C   UNL A   1      35.843  31.799  31.975  1.00  0.00     0.010 A 
ATOM     38  C   UNL A   1      37.096  32.051  31.419  1.00  0.00    -0.014 A 
BRANCH  38  39
ATOM     39  C   UNL A   1      38.279  31.273  31.870  1.00  0.00     0.031 A 
ATOM     40  C   UNL A   1      38.800  30.012  31.221  1.00  0.00     0.074 A 
ATOM     41  C   UNL A   1      38.970  31.835  32.878  1.00  0.00     0.049 A 
ATOM     42  N   UNL A   1      40.026  29.552  31.258  1.00  0.00    -0.248 NA
ATOM     43  C   UNL A   1      37.925  29.253  30.313  1.00  0.00     0.031 C 
ATOM     44  C   UNL A   1      38.585  33.066  33.584  1.00  0.00     0.029 A 
ATOM     45  N   UNL A   1      40.117  31.437  33.499  1.00  0.00    -0.354 N 
ATOM     46  C   UNL A   1      40.130  28.623  30.225  1.00  0.00     0.074 A 
ATOM     47  C   UNL A   1      38.807  28.495  29.654  1.00  0.00     0.031 C 
ATOM     48  C   UNL A   1      39.448  33.283  34.582  1.00  0.00     0.029 A 
ATOM     49  C   UNL A   1      40.396  32.181  34.616  1.00  0.00     0.049 A 
ATOM     50  H   UNL A   1      40.682  30.698  33.180  1.00  0.00     0.167 HD
ATOM     51  C   UNL A   1      41.253  27.986  29.799  1.00  0.00     0.034 A 
ATOM     52  C   UNL A   1      41.257  31.935  35.614  1.00  0.00     0.034 A 
ATOM     53  C   UNL A   1      42.398  27.825  30.670  1.00  0.00     0.049 A 
ATOM     54  C   UNL A   1      42.209  30.797  35.444  1.00  0.00     0.074 A 
ATOM     55  C   UNL A   1      43.462  26.950  30.534  1.00  0.00     0.029 A 
ATOM     56  N   UNL A   1      42.542  28.432  31.911  1.00  0.00    -0.354 N 
ATOM     57  N   UNL A   1      42.370  30.024  34.394  1.00  0.00    -0.248 NA
ATOM     58  C   UNL A   1      43.103  30.507  36.562  1.00  0.00     0.031 C 
ATOM     59  C   UNL A   1      44.142  26.908  31.759  1.00  0.00     0.029 A 
ATOM     60  C   UNL A   1      43.586  27.850  32.609  1.00  0.00     0.049 A 
ATOM     61  H   UNL A   1      41.982  29.170  32.245  1.00  0.00     0.167 HD
ATOM     62  C   UNL A   1      43.411  29.166  34.716  1.00  0.00     0.074 A 
ATOM     63  C   UNL A   1      43.835  29.523  36.058  1.00  0.00     0.031 C 
ATOM     64  C   UNL A   1      43.973  28.189  33.959  1.00  0.00     0.034 A 
BRANCH  51  65
ATOM     65  C   UNL A   1      41.266  27.226  28.490  1.00  0.00     0.023 A 
ATOM     66  C   UNL A   1      41.095  25.824  28.430  1.00  0.00     0.031 A 
ATOM     67  C   UNL A   1      41.251  27.939  27.279  1.00  0.00     0.131 A 
ATOM     68  C   UNL A   1      40.909  25.189  27.182  1.00  0.00     0.055 A 
ATOM     69  C   UNL A   1      41.041  27.309  26.050  1.00  0.00     0.041 A 
ATOM     70  F   UNL A   1      41.395  29.273  27.281  1.00  0.00    -0.206 F 
ATOM     71  C   UNL A   1      40.864  25.930  25.997  1.00  0.00     0.022 A 
BRANCH  68  72
ATOM     72  S   UNL A   1      40.698  23.379  27.088  1.00  0.00     0.124 S 
ATOM     73  O   UNL A   1      41.605  23.026  26.002  1.00  0.00    -0.237 OA
ATOM     74  O   UNL A   1      41.090  22.939  28.422  1.00  0.00    -0.237 OA
ATOM     75  O   UNL A   1      39.277  23.214  26.778  1.00  0.00    -0.744 OA
ENDBRANCH  68  72
ENDBRANCH  51  65
BRANCH  52  76
ATOM     76  C   UNL A   1      41.121  32.714  36.868  1.00  0.00     0.023 A 
ATOM     77  C   UNL A   1      40.162  32.404  37.835  1.00  0.00     0.031 A 
ATOM     78  C   UNL A   1      42.027  33.765  37.135  1.00  0.00     0.131 A 
ATOM     79  C   UNL A   1      40.132  33.136  39.031  1.00  0.00     0.055 A 
ATOM     80  C   UNL A   1      42.021  34.456  38.343  1.00  0.00     0.041 A 
ATOM     81  F   UNL A   1      42.968  34.097  36.236  1.00  0.00    -0.206 F 
ATOM     82  C   UNL A   1      41.064  34.145  39.300  1.00  0.00     0.022 A 
BRANCH  79  83
ATOM     83  S   UNL A   1      38.823  32.776  40.230  1.00  0.00     0.124 S 
ATOM     84  O   UNL A   1      37.945  31.904  39.457  1.00  0.00    -0.237 OA
ATOM     85  O   UNL A   1      39.571  32.140  41.310  1.00  0.00    -0.237 OA
ATOM     86  O   UNL A   1      38.277  34.095  40.543  1.00  0.00    -0.744 OA
ENDBRANCH  79  83
ENDBRANCH  52  76
BRANCH  64  87
ATOM     87  C   UNL A   1      45.130  27.450  34.572  1.00  0.00     0.023 A 
ATOM     88  C   UNL A   1      46.454  27.879  34.388  1.00  0.00     0.031 A 
ATOM     89  C   UNL A   1      44.903  26.289  35.330  1.00  0.00     0.131 A 
ATOM     90  C   UNL A   1      47.507  27.111  34.897  1.00  0.00     0.055 A 
ATOM     91  C   UNL A   1      45.953  25.570  35.899  1.00  0.00     0.041 A 
ATOM     92  F   UNL A   1      43.655  25.831  35.525  1.00  0.00    -0.206 F 
ATOM     93  C   UNL A   1      47.266  25.971  35.670  1.00  0.00     0.022 A 
BRANCH  90  94
ATOM     94  S   UNL A   1      49.203  27.562  34.441  1.00  0.00     0.124 S 
ATOM     95  O   UNL A   1      49.693  28.170  35.674  1.00  0.00    -0.237 OA
ATOM     96  O   UNL A   1      49.787  26.272  34.091  1.00  0.00    -0.237 OA
ATOM     97  O   UNL A   1      49.021  28.485  33.322  1.00  0.00    -0.744 OA
ENDBRANCH  90  94
ENDBRANCH  64  87
ENDBRANCH  38  39
ENDBRANCH  31  33
ENDBRANCH  30  31
ENDBRANCH  29  30
ENDBRANCH  28  29
ENDBRANCH  27  28
ENDBRANCH  26  27
ENDBRANCH   1  26
TORSDOF 23
ENDMDL
