MODEL 1
REMARK VINA RESULT:      -9.1      0.000      0.000
REMARK SMILES CC[C@@H](Oc1ccccc1/C=C1/SC(Nc2ccc(F)cc2)=[NH+]C1=O)C(=O)OCCOCCOCCOC(=O)c1ccc(-c2c3nc(c(-c4cc(S(=O)(=O)[O-])ccc4F)c4ccc([nH]4)c(-c4cc(S(=O)(=O)[O-])ccc4F)c4nc(c(-c5cc(S(=O)(=O)[O-])ccc5F)c5ccc2[nH]5)C=C4)C=C3)cc1
REMARK SMILES IDX 32 1 31 2 30 3 29 4 28 5 26 6 27 7 3 8 2 9 1 10 4 11 5 12
REMARK SMILES IDX 6 13 10 14 7 15 9 16 8 17 11 18 12 19 13 20 24 21 14 22
REMARK SMILES IDX 23 23 25 24 15 25 16 28 17 29 22 30 18 31 21 32 19 33 20 34
REMARK SMILES IDX 33 35 34 36 35 37 36 38 37 39 38 40 39 41 40 42 41 43 102 44
REMARK SMILES IDX 42 45 101 46 43 47 44 48 45 49 95 50 46 51 100 52 94 53
REMARK SMILES IDX 96 54 47 55 99 56 93 57 92 58 48 60 80 61 60 62 79 63 61 64
REMARK SMILES IDX 64 65 78 66 97 67 62 68 63 69 77 71 98 72 65 73 49 74 50 75
REMARK SMILES IDX 58 76 51 77 57 78 59 79 56 80 52 81 53 82 54 83 55 84 81 85
REMARK SMILES IDX 82 86 90 87 83 88 89 89 91 90 88 91 84 92 85 93 86 94 87 95
REMARK SMILES IDX 66 96 67 97 75 98 68 99 74 100 76 101 73 102 69 103 70 104
REMARK SMILES IDX 71 105 72 106
REMARK H PARENT 23 26 15 27 96 59 64 70
REMARK Flexibility Score: inf
ROOT
ATOM      1  C   UNL A   1      39.671  20.985  26.087  1.00  0.00     0.188 C 
ENDROOT
BRANCH   1   2
ATOM      2  O   UNL A   1      38.502  21.336  25.366  1.00  0.00    -0.376 OA
BRANCH   2   3
ATOM      3  C   UNL A   1      37.708  20.250  24.901  1.00  0.00     0.202 C 
BRANCH   3   4
ATOM      4  C   UNL A   1      36.174  20.383  24.984  1.00  0.00     0.261 C 
BRANCH   4   5
ATOM      5  O   UNL A   1      35.636  21.716  24.835  1.00  0.00    -0.461 OA
BRANCH   5   6
ATOM      6  C   UNL A   1      35.210  22.326  25.987  1.00  0.00     0.347 C 
ATOM      7  O   UNL A   1      34.916  21.727  27.017  1.00  0.00    -0.248 OA
BRANCH   6   8
ATOM      8  C   UNL A   1      35.120  23.856  25.869  1.00  0.00     0.282 C 
BRANCH   8   9
ATOM      9  C   UNL A   1      36.467  24.517  25.531  1.00  0.00     0.054 C 
ATOM     10  C   UNL A   1      37.631  24.145  26.447  1.00  0.00     0.008 C 
ENDBRANCH   8   9
BRANCH   8  11
ATOM     11  O   UNL A   1      34.163  24.076  24.825  1.00  0.00    -0.478 OA
BRANCH  11  12
ATOM     12  C   UNL A   1      33.082  24.833  25.194  1.00  0.00     0.127 A 
ATOM     13  C   UNL A   1      33.259  25.943  26.022  1.00  0.00     0.047 A 
ATOM     14  C   UNL A   1      31.798  24.447  24.757  1.00  0.00     0.018 A 
ATOM     15  C   UNL A   1      32.159  26.729  26.359  1.00  0.00     0.004 A 
ATOM     16  C   UNL A   1      30.710  25.260  25.089  1.00  0.00     0.012 A 
ATOM     17  C   UNL A   1      30.890  26.395  25.886  1.00  0.00     0.001 A 
BRANCH  14  18
ATOM     18  C   UNL A   1      31.611  23.351  23.788  1.00  0.00     0.036 C 
ATOM     19  C   UNL A   1      31.873  22.056  24.007  1.00  0.00     0.110 C 
ATOM     20  S   UNL A   1      32.114  20.917  22.727  1.00  0.00     0.006 SA
ATOM     21  C   UNL A   1      32.140  21.381  25.317  1.00  0.00     0.346 C 
ATOM     22  C   UNL A   1      32.771  19.789  23.889  1.00  0.00     0.322 C 
ATOM     23  N   UNL A   1      32.716  20.148  25.127  1.00  0.00    -0.199 N 
ATOM     24  O   UNL A   1      31.797  21.814  26.401  1.00  0.00    -0.240 OA
ATOM     25  N   UNL A   1      33.253  18.602  23.416  1.00  0.00    -0.235 N 
ATOM     26  H   UNL A   1      33.053  19.592  25.866  1.00  0.00     0.316 HD
ATOM     27  H   UNL A   1      33.648  18.572  22.515  1.00  0.00     0.313 HD
BRANCH  25  28
ATOM     28  C   UNL A   1      33.201  17.424  24.175  1.00  0.00     0.125 A 
ATOM     29  C   UNL A   1      31.988  16.937  24.672  1.00  0.00     0.055 A 
ATOM     30  C   UNL A   1      34.370  16.669  24.382  1.00  0.00     0.055 A 
ATOM     31  C   UNL A   1      31.949  15.705  25.338  1.00  0.00     0.043 A 
ATOM     32  C   UNL A   1      34.335  15.453  25.057  1.00  0.00     0.043 A 
ATOM     33  C   UNL A   1      33.121  14.977  25.520  1.00  0.00     0.123 A 
ATOM     34  F   UNL A   1      33.076  13.794  26.147  1.00  0.00    -0.207 F 
ENDBRANCH  25  28
ENDBRANCH  14  18
ENDBRANCH  11  12
ENDBRANCH   8  11
ENDBRANCH   6   8
ENDBRANCH   5   6
ENDBRANCH   4   5
ENDBRANCH   3   4
ENDBRANCH   2   3
ENDBRANCH   1   2
BRANCH   1  35
ATOM     35  C   UNL A   1      40.161  19.545  25.924  1.00  0.00     0.188 C 
BRANCH  35  36
ATOM     36  O   UNL A   1      41.516  19.360  25.546  1.00  0.00    -0.376 OA
BRANCH  36  37
ATOM     37  C   UNL A   1      42.503  20.040  26.324  1.00  0.00     0.202 C 
BRANCH  37  38
ATOM     38  C   UNL A   1      43.085  21.386  25.826  1.00  0.00     0.261 C 
BRANCH  38  39
ATOM     39  O   UNL A   1      44.479  21.653  26.097  1.00  0.00    -0.460 OA
BRANCH  39  40
ATOM     40  C   UNL A   1      45.185  22.381  25.199  1.00  0.00     0.338 C 
ATOM     41  O   UNL A   1      45.455  22.034  24.063  1.00  0.00    -0.246 OA
BRANCH  40  42
ATOM     42  C   UNL A   1      45.318  23.782  25.717  1.00  0.00     0.060 A 
ATOM     43  C   UNL A   1      45.823  23.963  27.015  1.00  0.00     0.016 A 
ATOM     44  C   UNL A   1      45.045  24.908  24.931  1.00  0.00     0.016 A 
ATOM     45  C   UNL A   1      46.012  25.249  27.540  1.00  0.00     0.010 A 
ATOM     46  C   UNL A   1      45.220  26.197  25.464  1.00  0.00     0.010 A 
ATOM     47  C   UNL A   1      45.672  26.378  26.784  1.00  0.00    -0.014 A 
BRANCH  47  48
ATOM     48  C   UNL A   1      45.580  27.718  27.438  1.00  0.00     0.031 A 
ATOM     49  C   UNL A   1      44.259  28.122  28.046  1.00  0.00     0.074 A 
ATOM     50  C   UNL A   1      46.632  28.556  27.537  1.00  0.00     0.049 A 
ATOM     51  N   UNL A   1      43.906  29.249  28.611  1.00  0.00    -0.248 NA
ATOM     52  C   UNL A   1      43.192  27.112  28.003  1.00  0.00     0.031 C 
ATOM     53  C   UNL A   1      47.983  28.278  27.056  1.00  0.00     0.029 A 
ATOM     54  N   UNL A   1      46.722  29.821  28.073  1.00  0.00    -0.354 N 
ATOM     55  C   UNL A   1      42.574  29.085  28.984  1.00  0.00     0.074 A 
ATOM     56  C   UNL A   1      42.177  27.766  28.543  1.00  0.00     0.031 C 
ATOM     57  C   UNL A   1      48.765  29.344  27.311  1.00  0.00     0.029 A 
ATOM     58  C   UNL A   1      47.964  30.401  27.932  1.00  0.00     0.049 A 
ATOM     59  H   UNL A   1      45.968  30.270  28.519  1.00  0.00     0.167 HD
ATOM     60  C   UNL A   1      41.760  29.948  29.641  1.00  0.00     0.034 A 
ATOM     61  C   UNL A   1      48.396  31.645  28.237  1.00  0.00     0.034 A 
ATOM     62  C   UNL A   1      42.155  31.268  30.069  1.00  0.00     0.049 A 
ATOM     63  C   UNL A   1      47.437  32.634  28.865  1.00  0.00     0.074 A 
ATOM     64  C   UNL A   1      41.404  32.213  30.747  1.00  0.00     0.029 A 
ATOM     65  N   UNL A   1      43.401  31.839  29.848  1.00  0.00    -0.354 N 
ATOM     66  N   UNL A   1      46.180  32.466  29.210  1.00  0.00    -0.248 NA
ATOM     67  C   UNL A   1      47.957  33.980  29.151  1.00  0.00     0.031 C 
ATOM     68  C   UNL A   1      42.163  33.381  30.857  1.00  0.00     0.029 A 
ATOM     69  C   UNL A   1      43.424  33.136  30.340  1.00  0.00     0.049 A 
ATOM     70  H   UNL A   1      44.158  31.389  29.407  1.00  0.00     0.167 HD
ATOM     71  C   UNL A   1      45.778  33.672  29.786  1.00  0.00     0.074 A 
ATOM     72  C   UNL A   1      46.926  34.552  29.754  1.00  0.00     0.031 C 
ATOM     73  C   UNL A   1      44.570  34.017  30.303  1.00  0.00     0.034 A 
BRANCH  60  74
ATOM     74  C   UNL A   1      40.334  29.507  29.883  1.00  0.00     0.023 A 
ATOM     75  C   UNL A   1      39.287  29.873  29.020  1.00  0.00     0.031 A 
ATOM     76  C   UNL A   1      40.015  28.730  31.011  1.00  0.00     0.131 A 
ATOM     77  C   UNL A   1      37.965  29.529  29.338  1.00  0.00     0.055 A 
ATOM     78  C   UNL A   1      38.709  28.313  31.273  1.00  0.00     0.041 A 
ATOM     79  F   UNL A   1      40.968  28.372  31.886  1.00  0.00    -0.206 F 
ATOM     80  C   UNL A   1      37.672  28.725  30.443  1.00  0.00     0.022 A 
BRANCH  77  81
ATOM     81  S   UNL A   1      36.621  30.278  28.379  1.00  0.00     0.124 S 
ATOM     82  O   UNL A   1      36.634  31.652  28.876  1.00  0.00    -0.237 OA
ATOM     83  O   UNL A   1      37.071  30.092  27.004  1.00  0.00    -0.237 OA
ATOM     84  O   UNL A   1      35.447  29.497  28.764  1.00  0.00    -0.744 OA
ENDBRANCH  77  81
ENDBRANCH  60  74
BRANCH  61  85
ATOM     85  C   UNL A   1      49.793  32.069  27.907  1.00  0.00     0.023 A 
ATOM     86  C   UNL A   1      50.106  32.667  26.675  1.00  0.00     0.031 A 
ATOM     87  C   UNL A   1      50.854  31.800  28.792  1.00  0.00     0.131 A 
ATOM     88  C   UNL A   1      51.446  32.932  26.342  1.00  0.00     0.055 A 
ATOM     89  C   UNL A   1      52.176  32.123  28.483  1.00  0.00     0.041 A 
ATOM     90  F   UNL A   1      50.618  31.212  29.976  1.00  0.00    -0.206 F 
ATOM     91  C   UNL A   1      52.480  32.680  27.246  1.00  0.00     0.022 A 
BRANCH  88  92
ATOM     92  S   UNL A   1      51.830  33.510  24.665  1.00  0.00     0.124 S 
ATOM     93  O   UNL A   1      53.176  34.044  24.838  1.00  0.00    -0.237 OA
ATOM     94  O   UNL A   1      51.722  32.279  23.888  1.00  0.00    -0.237 OA
ATOM     95  O   UNL A   1      50.792  34.503  24.400  1.00  0.00    -0.744 OA
ENDBRANCH  88  92
ENDBRANCH  61  85
BRANCH  73  96
ATOM     96  C   UNL A   1      44.439  35.386  30.933  1.00  0.00     0.023 A 
ATOM     97  C   UNL A   1      44.119  36.530  30.182  1.00  0.00     0.031 A 
ATOM     98  C   UNL A   1      44.639  35.546  32.319  1.00  0.00     0.131 A 
ATOM     99  C   UNL A   1      44.065  37.787  30.806  1.00  0.00     0.055 A 
ATOM    100  C   UNL A   1      44.516  36.787  32.945  1.00  0.00     0.041 A 
ATOM    101  F   UNL A   1      44.952  34.492  33.090  1.00  0.00    -0.206 F 
ATOM    102  C   UNL A   1      44.241  37.920  32.186  1.00  0.00     0.022 A 
BRANCH  99 103
ATOM    103  S   UNL A   1      43.864  39.267  29.775  1.00  0.00     0.124 S 
ATOM    104  O   UNL A   1      45.218  39.809  29.756  1.00  0.00    -0.237 OA
ATOM    105  O   UNL A   1      43.383  38.708  28.516  1.00  0.00    -0.237 OA
ATOM    106  O   UNL A   1      42.886  40.068  30.510  1.00  0.00    -0.744 OA
ENDBRANCH  99 103
ENDBRANCH  73  96
ENDBRANCH  47  48
ENDBRANCH  40  42
ENDBRANCH  39  40
ENDBRANCH  38  39
ENDBRANCH  37  38
ENDBRANCH  36  37
ENDBRANCH  35  36
ENDBRANCH   1  35
TORSDOF 25
ENDMDL
MODEL 2
REMARK VINA RESULT:      -9.0      4.634      9.873
REMARK SMILES CC[C@@H](Oc1ccccc1/C=C1/SC(Nc2ccc(F)cc2)=[NH+]C1=O)C(=O)OCCOCCOCCOC(=O)c1ccc(-c2c3nc(c(-c4cc(S(=O)(=O)[O-])ccc4F)c4ccc([nH]4)c(-c4cc(S(=O)(=O)[O-])ccc4F)c4nc(c(-c5cc(S(=O)(=O)[O-])ccc5F)c5ccc2[nH]5)C=C4)C=C3)cc1
REMARK SMILES IDX 32 1 31 2 30 3 29 4 28 5 26 6 27 7 3 8 2 9 1 10 4 11 5 12
REMARK SMILES IDX 6 13 10 14 7 15 9 16 8 17 11 18 12 19 13 20 24 21 14 22
REMARK SMILES IDX 23 23 25 24 15 25 16 28 17 29 22 30 18 31 21 32 19 33 20 34
REMARK SMILES IDX 33 35 34 36 35 37 36 38 37 39 38 40 39 41 40 42 41 43 102 44
REMARK SMILES IDX 42 45 101 46 43 47 44 48 45 49 95 50 46 51 100 52 94 53
REMARK SMILES IDX 96 54 47 55 99 56 93 57 92 58 48 60 80 61 60 62 79 63 61 64
REMARK SMILES IDX 64 65 78 66 97 67 62 68 63 69 77 71 98 72 65 73 49 74 50 75
REMARK SMILES IDX 58 76 51 77 57 78 59 79 56 80 52 81 53 82 54 83 55 84 81 85
REMARK SMILES IDX 82 86 90 87 83 88 89 89 91 90 88 91 84 92 85 93 86 94 87 95
REMARK SMILES IDX 66 96 67 97 75 98 68 99 74 100 76 101 73 102 69 103 70 104
REMARK SMILES IDX 71 105 72 106
REMARK H PARENT 23 26 15 27 96 59 64 70
REMARK Flexibility Score: inf
ROOT
ATOM      1  C   UNL A   1      38.465  21.524  25.438  1.00  0.00     0.188 C 
ENDROOT
BRANCH   1   2
ATOM      2  O   UNL A   1      37.170  21.837  24.953  1.00  0.00    -0.376 OA
BRANCH   2   3
ATOM      3  C   UNL A   1      36.092  21.131  25.557  1.00  0.00     0.202 C 
BRANCH   3   4
ATOM      4  C   UNL A   1      34.962  21.951  26.213  1.00  0.00     0.261 C 
BRANCH   4   5
ATOM      5  O   UNL A   1      34.670  23.233  25.615  1.00  0.00    -0.461 OA
BRANCH   5   6
ATOM      6  C   UNL A   1      33.463  23.792  25.948  1.00  0.00     0.347 C 
ATOM      7  O   UNL A   1      32.866  23.572  26.998  1.00  0.00    -0.248 OA
BRANCH   6   8
ATOM      8  C   UNL A   1      32.904  24.729  24.864  1.00  0.00     0.282 C 
BRANCH   8   9
ATOM      9  C   UNL A   1      32.020  24.003  23.834  1.00  0.00     0.054 C 
ATOM     10  C   UNL A   1      32.769  23.182  22.787  1.00  0.00     0.008 C 
ENDBRANCH   8   9
BRANCH   8  11
ATOM     11  O   UNL A   1      32.149  25.704  25.592  1.00  0.00    -0.478 OA
BRANCH  11  12
ATOM     12  C   UNL A   1      31.721  26.768  24.843  1.00  0.00     0.127 A 
ATOM     13  C   UNL A   1      30.535  26.675  24.113  1.00  0.00     0.047 A 
ATOM     14  C   UNL A   1      32.517  27.931  24.792  1.00  0.00     0.018 A 
ATOM     15  C   UNL A   1      30.088  27.775  23.385  1.00  0.00     0.004 A 
ATOM     16  C   UNL A   1      32.042  29.033  24.073  1.00  0.00     0.012 A 
ATOM     17  C   UNL A   1      30.834  28.954  23.373  1.00  0.00     0.001 A 
BRANCH  14  18
ATOM     18  C   UNL A   1      33.707  28.088  25.649  1.00  0.00     0.036 C 
ATOM     19  C   UNL A   1      33.866  29.007  26.610  1.00  0.00     0.110 C 
ATOM     20  S   UNL A   1      35.419  29.466  27.222  1.00  0.00     0.006 SA
ATOM     21  C   UNL A   1      32.821  29.886  27.224  1.00  0.00     0.346 C 
ATOM     22  C   UNL A   1      34.681  30.859  27.977  1.00  0.00     0.322 C 
ATOM     23  N   UNL A   1      33.395  30.935  27.901  1.00  0.00    -0.199 N 
ATOM     24  O   UNL A   1      31.627  29.647  27.220  1.00  0.00    -0.240 OA
ATOM     25  N   UNL A   1      35.503  31.738  28.622  1.00  0.00    -0.235 N 
ATOM     26  H   UNL A   1      32.874  31.673  28.291  1.00  0.00     0.316 HD
ATOM     27  H   UNL A   1      36.422  31.863  28.293  1.00  0.00     0.313 HD
BRANCH  25  28
ATOM     28  C   UNL A   1      35.076  32.470  29.739  1.00  0.00     0.125 A 
ATOM     29  C   UNL A   1      35.218  31.961  31.034  1.00  0.00     0.055 A 
ATOM     30  C   UNL A   1      34.565  33.771  29.576  1.00  0.00     0.055 A 
ATOM     31  C   UNL A   1      34.881  32.753  32.138  1.00  0.00     0.043 A 
ATOM     32  C   UNL A   1      34.215  34.553  30.671  1.00  0.00     0.043 A 
ATOM     33  C   UNL A   1      34.386  34.039  31.946  1.00  0.00     0.123 A 
ATOM     34  F   UNL A   1      34.076  34.797  33.005  1.00  0.00    -0.207 F 
ENDBRANCH  25  28
ENDBRANCH  14  18
ENDBRANCH  11  12
ENDBRANCH   8  11
ENDBRANCH   6   8
ENDBRANCH   5   6
ENDBRANCH   4   5
ENDBRANCH   3   4
ENDBRANCH   2   3
ENDBRANCH   1   2
BRANCH   1  35
ATOM     35  C   UNL A   1      38.818  20.038  25.517  1.00  0.00     0.188 C 
BRANCH  35  36
ATOM     36  O   UNL A   1      40.129  19.705  25.946  1.00  0.00    -0.376 OA
BRANCH  36  37
ATOM     37  C   UNL A   1      40.773  20.625  26.830  1.00  0.00     0.202 C 
BRANCH  37  38
ATOM     38  C   UNL A   1      42.173  21.183  26.476  1.00  0.00     0.261 C 
BRANCH  38  39
ATOM     39  O   UNL A   1      42.265  22.580  26.118  1.00  0.00    -0.460 OA
BRANCH  39  40
ATOM     40  C   UNL A   1      42.151  23.509  27.097  1.00  0.00     0.338 C 
ATOM     41  O   UNL A   1      41.456  23.405  28.092  1.00  0.00    -0.246 OA
BRANCH  40  42
ATOM     42  C   UNL A   1      43.231  24.533  26.914  1.00  0.00     0.060 A 
ATOM     43  C   UNL A   1      43.877  25.026  28.060  1.00  0.00     0.016 A 
ATOM     44  C   UNL A   1      43.677  24.944  25.653  1.00  0.00     0.016 A 
ATOM     45  C   UNL A   1      44.924  25.952  27.952  1.00  0.00     0.010 A 
ATOM     46  C   UNL A   1      44.717  25.884  25.546  1.00  0.00     0.010 A 
ATOM     47  C   UNL A   1      45.326  26.422  26.695  1.00  0.00    -0.014 A 
BRANCH  47  48
ATOM     48  C   UNL A   1      46.215  27.618  26.591  1.00  0.00     0.031 A 
ATOM     49  C   UNL A   1      47.698  27.390  26.434  1.00  0.00     0.074 A 
ATOM     50  C   UNL A   1      45.741  28.881  26.594  1.00  0.00     0.049 A 
ATOM     51  N   UNL A   1      48.679  28.255  26.386  1.00  0.00    -0.248 NA
ATOM     52  C   UNL A   1      48.127  25.988  26.322  1.00  0.00     0.031 C 
ATOM     53  C   UNL A   1      44.332  29.257  26.673  1.00  0.00     0.029 A 
ATOM     54  N   UNL A   1      46.405  30.086  26.535  1.00  0.00    -0.354 N 
ATOM     55  C   UNL A   1      49.842  27.502  26.245  1.00  0.00     0.074 A 
ATOM     56  C   UNL A   1      49.443  26.111  26.257  1.00  0.00     0.031 C 
ATOM     57  C   UNL A   1      44.237  30.599  26.667  1.00  0.00     0.029 A 
ATOM     58  C   UNL A   1      45.579  31.184  26.628  1.00  0.00     0.049 A 
ATOM     59  H   UNL A   1      47.381  30.156  26.433  1.00  0.00     0.167 HD
ATOM     60  C   UNL A   1      51.123  27.928  26.108  1.00  0.00     0.034 A 
ATOM     61  C   UNL A   1      45.868  32.502  26.708  1.00  0.00     0.034 A 
ATOM     62  C   UNL A   1      51.519  29.315  26.108  1.00  0.00     0.049 A 
ATOM     63  C   UNL A   1      47.314  32.950  26.670  1.00  0.00     0.074 A 
ATOM     64  C   UNL A   1      52.790  29.846  25.969  1.00  0.00     0.029 A 
ATOM     65  N   UNL A   1      50.658  30.391  26.271  1.00  0.00    -0.354 N 
ATOM     66  N   UNL A   1      48.404  32.228  26.539  1.00  0.00    -0.248 NA
ATOM     67  C   UNL A   1      47.570  34.395  26.785  1.00  0.00     0.031 C 
ATOM     68  C   UNL A   1      52.709  31.231  26.136  1.00  0.00     0.029 A 
ATOM     69  C   UNL A   1      51.376  31.578  26.278  1.00  0.00     0.049 A 
ATOM     70  H   UNL A   1      49.681  30.323  26.368  1.00  0.00     0.167 HD
ATOM     71  C   UNL A   1      49.464  33.135  26.517  1.00  0.00     0.074 A 
ATOM     72  C   UNL A   1      48.884  34.455  26.637  1.00  0.00     0.031 C 
ATOM     73  C   UNL A   1      50.797  32.897  26.402  1.00  0.00     0.034 A 
BRANCH  60  74
ATOM     74  C   UNL A   1      52.197  26.869  26.007  1.00  0.00     0.023 A 
ATOM     75  C   UNL A   1      53.072  26.594  27.073  1.00  0.00     0.031 A 
ATOM     76  C   UNL A   1      52.366  26.143  24.814  1.00  0.00     0.131 A 
ATOM     77  C   UNL A   1      54.119  25.677  26.900  1.00  0.00     0.055 A 
ATOM     78  C   UNL A   1      53.353  25.165  24.679  1.00  0.00     0.041 A 
ATOM     79  F   UNL A   1      51.579  26.379  23.753  1.00  0.00    -0.206 F 
ATOM     80  C   UNL A   1      54.248  24.939  25.720  1.00  0.00     0.022 A 
BRANCH  77  81
ATOM     81  S   UNL A   1      55.404  25.580  28.175  1.00  0.00     0.124 S 
ATOM     82  O   UNL A   1      55.883  24.210  28.007  1.00  0.00    -0.237 OA
ATOM     83  O   UNL A   1      56.329  26.634  27.773  1.00  0.00    -0.237 OA
ATOM     84  O   UNL A   1      54.675  25.828  29.417  1.00  0.00    -0.744 OA
ENDBRANCH  77  81
ENDBRANCH  60  74
BRANCH  61  85
ATOM     85  C   UNL A   1      44.780  33.513  26.889  1.00  0.00     0.023 A 
ATOM     86  C   UNL A   1      44.249  33.799  28.158  1.00  0.00     0.031 A 
ATOM     87  C   UNL A   1      44.195  34.146  25.777  1.00  0.00     0.131 A 
ATOM     88  C   UNL A   1      43.139  34.653  28.279  1.00  0.00     0.055 A 
ATOM     89  C   UNL A   1      43.133  35.044  25.909  1.00  0.00     0.041 A 
ATOM     90  F   UNL A   1      44.648  33.898  24.537  1.00  0.00    -0.206 F 
ATOM     91  C   UNL A   1      42.590  35.291  27.164  1.00  0.00     0.022 A 
BRANCH  88  92
ATOM     92  S   UNL A   1      42.351  34.834  29.904  1.00  0.00     0.124 S 
ATOM     93  O   UNL A   1      43.103  35.946  30.474  1.00  0.00    -0.237 OA
ATOM     94  O   UNL A   1      40.966  35.114  29.540  1.00  0.00    -0.237 OA
ATOM     95  O   UNL A   1      42.576  33.537  30.539  1.00  0.00    -0.744 OA
ENDBRANCH  88  92
ENDBRANCH  61  85
BRANCH  73  96
ATOM     96  C   UNL A   1      51.722  34.093  26.336  1.00  0.00     0.023 A 
ATOM     97  C   UNL A   1      52.318  34.643  27.484  1.00  0.00     0.031 A 
ATOM     98  C   UNL A   1      52.012  34.692  25.095  1.00  0.00     0.131 A 
ATOM     99  C   UNL A   1      53.124  35.788  27.376  1.00  0.00     0.055 A 
ATOM    100  C   UNL A   1      52.869  35.787  24.985  1.00  0.00     0.041 A 
ATOM    101  F   UNL A   1      51.469  34.216  23.963  1.00  0.00    -0.206 F 
ATOM    102  C   UNL A   1      53.421  36.351  26.132  1.00  0.00     0.022 A 
BRANCH  99 103
ATOM    103  S   UNL A   1      53.701  36.598  28.894  1.00  0.00     0.124 S 
ATOM    104  O   UNL A   1      52.443  36.931  29.556  1.00  0.00    -0.237 OA
ATOM    105  O   UNL A   1      54.496  35.551  29.525  1.00  0.00    -0.237 OA
ATOM    106  O   UNL A   1      54.464  37.745  28.403  1.00  0.00    -0.744 OA
ENDBRANCH  99 103
ENDBRANCH  73  96
ENDBRANCH  47  48
ENDBRANCH  40  42
ENDBRANCH  39  40
ENDBRANCH  38  39
ENDBRANCH  37  38
ENDBRANCH  36  37
ENDBRANCH  35  36
ENDBRANCH   1  35
TORSDOF 25
ENDMDL
MODEL 3
REMARK VINA RESULT:      -8.9      5.717     12.070
REMARK SMILES CC[C@@H](Oc1ccccc1/C=C1/SC(Nc2ccc(F)cc2)=[NH+]C1=O)C(=O)OCCOCCOCCOC(=O)c1ccc(-c2c3nc(c(-c4cc(S(=O)(=O)[O-])ccc4F)c4ccc([nH]4)c(-c4cc(S(=O)(=O)[O-])ccc4F)c4nc(c(-c5cc(S(=O)(=O)[O-])ccc5F)c5ccc2[nH]5)C=C4)C=C3)cc1
REMARK SMILES IDX 32 1 31 2 30 3 29 4 28 5 26 6 27 7 3 8 2 9 1 10 4 11 5 12
REMARK SMILES IDX 6 13 10 14 7 15 9 16 8 17 11 18 12 19 13 20 24 21 14 22
REMARK SMILES IDX 23 23 25 24 15 25 16 28 17 29 22 30 18 31 21 32 19 33 20 34
REMARK SMILES IDX 33 35 34 36 35 37 36 38 37 39 38 40 39 41 40 42 41 43 102 44
REMARK SMILES IDX 42 45 101 46 43 47 44 48 45 49 95 50 46 51 100 52 94 53
REMARK SMILES IDX 96 54 47 55 99 56 93 57 92 58 48 60 80 61 60 62 79 63 61 64
REMARK SMILES IDX 64 65 78 66 97 67 62 68 63 69 77 71 98 72 65 73 49 74 50 75
REMARK SMILES IDX 58 76 51 77 57 78 59 79 56 80 52 81 53 82 54 83 55 84 81 85
REMARK SMILES IDX 82 86 90 87 83 88 89 89 91 90 88 91 84 92 85 93 86 94 87 95
REMARK SMILES IDX 66 96 67 97 75 98 68 99 74 100 76 101 73 102 69 103 70 104
REMARK SMILES IDX 71 105 72 106
REMARK H PARENT 23 26 15 27 96 59 64 70
REMARK Flexibility Score: inf
ROOT
ATOM      1  C   UNL A   1      38.176  33.418  39.167  1.00  0.00     0.188 C 
ENDROOT
BRANCH   1   2
ATOM      2  O   UNL A   1      37.220  32.598  38.515  1.00  0.00    -0.376 OA
BRANCH   2   3
ATOM      3  C   UNL A   1      37.679  31.909  37.356  1.00  0.00     0.202 C 
BRANCH   3   4
ATOM      4  C   UNL A   1      37.512  32.598  35.987  1.00  0.00     0.261 C 
BRANCH   4   5
ATOM      5  O   UNL A   1      38.450  32.213  34.957  1.00  0.00    -0.461 OA
BRANCH   5   6
ATOM      6  C   UNL A   1      37.930  31.510  33.901  1.00  0.00     0.347 C 
ATOM      7  O   UNL A   1      37.615  30.325  33.948  1.00  0.00    -0.248 OA
BRANCH   6   8
ATOM      8  C   UNL A   1      37.784  32.350  32.621  1.00  0.00     0.282 C 
BRANCH   8   9
ATOM      9  C   UNL A   1      39.114  32.955  32.140  1.00  0.00     0.054 C 
ATOM     10  C   UNL A   1      39.042  34.401  31.655  1.00  0.00     0.008 C 
ENDBRANCH   8   9
BRANCH   8  11
ATOM     11  O   UNL A   1      37.256  31.434  31.653  1.00  0.00    -0.478 OA
BRANCH  11  12
ATOM     12  C   UNL A   1      36.523  32.021  30.655  1.00  0.00     0.127 A 
ATOM     13  C   UNL A   1      35.281  32.587  30.944  1.00  0.00     0.047 A 
ATOM     14  C   UNL A   1      37.027  32.003  29.338  1.00  0.00     0.018 A 
ATOM     15  C   UNL A   1      34.561  33.215  29.930  1.00  0.00     0.004 A 
ATOM     16  C   UNL A   1      36.301  32.656  28.338  1.00  0.00     0.012 A 
ATOM     17  C   UNL A   1      35.074  33.259  28.633  1.00  0.00     0.001 A 
BRANCH  14  18
ATOM     18  C   UNL A   1      38.387  31.516  29.040  1.00  0.00     0.036 C 
ATOM     19  C   UNL A   1      38.731  30.245  28.800  1.00  0.00     0.110 C 
ATOM     20  S   UNL A   1      40.354  29.665  28.954  1.00  0.00     0.006 SA
ATOM     21  C   UNL A   1      37.826  29.088  28.506  1.00  0.00     0.346 C 
ATOM     22  C   UNL A   1      39.748  28.027  28.901  1.00  0.00     0.322 C 
ATOM     23  N   UNL A   1      38.485  27.894  28.671  1.00  0.00    -0.199 N 
ATOM     24  O   UNL A   1      36.693  29.189  28.073  1.00  0.00    -0.240 OA
ATOM     25  N   UNL A   1      40.648  27.013  29.065  1.00  0.00    -0.235 N 
ATOM     26  H   UNL A   1      38.036  27.019  28.616  1.00  0.00     0.316 HD
ATOM     27  H   UNL A   1      41.437  27.162  29.633  1.00  0.00     0.313 HD
BRANCH  25  28
ATOM     28  C   UNL A   1      40.481  25.766  28.447  1.00  0.00     0.125 A 
ATOM     29  C   UNL A   1      39.315  25.460  27.737  1.00  0.00     0.055 A 
ATOM     30  C   UNL A   1      41.527  24.825  28.466  1.00  0.00     0.055 A 
ATOM     31  C   UNL A   1      39.216  24.249  27.042  1.00  0.00     0.043 A 
ATOM     32  C   UNL A   1      41.424  23.615  27.789  1.00  0.00     0.043 A 
ATOM     33  C   UNL A   1      40.271  23.342  27.073  1.00  0.00     0.123 A 
ATOM     34  F   UNL A   1      40.176  22.190  26.396  1.00  0.00    -0.207 F 
ENDBRANCH  25  28
ENDBRANCH  14  18
ENDBRANCH  11  12
ENDBRANCH   8  11
ENDBRANCH   6   8
ENDBRANCH   5   6
ENDBRANCH   4   5
ENDBRANCH   3   4
ENDBRANCH   2   3
ENDBRANCH   1   2
BRANCH   1  35
ATOM     35  C   UNL A   1      38.145  33.411  40.696  1.00  0.00     0.188 C 
BRANCH  35  36
ATOM     36  O   UNL A   1      39.134  34.172  41.369  1.00  0.00    -0.376 OA
BRANCH  36  37
ATOM     37  C   UNL A   1      40.397  34.315  40.713  1.00  0.00     0.202 C 
BRANCH  37  38
ATOM     38  C   UNL A   1      41.186  35.640  40.839  1.00  0.00     0.261 C 
BRANCH  38  39
ATOM     39  O   UNL A   1      41.941  36.081  39.689  1.00  0.00    -0.460 OA
BRANCH  39  40
ATOM     40  C   UNL A   1      41.270  36.398  38.555  1.00  0.00     0.338 C 
ATOM     41  O   UNL A   1      40.720  37.463  38.333  1.00  0.00    -0.246 OA
BRANCH  40  42
ATOM     42  C   UNL A   1      41.567  35.359  37.516  1.00  0.00     0.060 A 
ATOM     43  C   UNL A   1      42.890  34.906  37.392  1.00  0.00     0.016 A 
ATOM     44  C   UNL A   1      40.569  34.763  36.736  1.00  0.00     0.016 A 
ATOM     45  C   UNL A   1      43.224  33.903  36.471  1.00  0.00     0.010 A 
ATOM     46  C   UNL A   1      40.907  33.769  35.801  1.00  0.00     0.010 A 
ATOM     47  C   UNL A   1      42.242  33.355  35.636  1.00  0.00    -0.014 A 
BRANCH  47  48
ATOM     48  C   UNL A   1      42.637  32.525  34.458  1.00  0.00     0.031 A 
ATOM     49  C   UNL A   1      42.787  33.213  33.123  1.00  0.00     0.074 A 
ATOM     50  C   UNL A   1      42.898  31.206  34.550  1.00  0.00     0.049 A 
ATOM     51  N   UNL A   1      43.057  32.708  31.946  1.00  0.00    -0.248 NA
ATOM     52  C   UNL A   1      42.600  34.671  33.123  1.00  0.00     0.031 C 
ATOM     53  C   UNL A   1      42.859  30.419  35.781  1.00  0.00     0.029 A 
ATOM     54  N   UNL A   1      43.243  30.291  33.581  1.00  0.00    -0.354 N 
ATOM     55  C   UNL A   1      43.065  33.785  31.064  1.00  0.00     0.074 A 
ATOM     56  C   UNL A   1      42.733  34.962  31.839  1.00  0.00     0.031 C 
ATOM     57  C   UNL A   1      43.159  29.139  35.490  1.00  0.00     0.029 A 
ATOM     58  C   UNL A   1      43.368  29.001  34.048  1.00  0.00     0.049 A 
ATOM     59  H   UNL A   1      43.390  30.537  32.639  1.00  0.00     0.167 HD
ATOM     60  C   UNL A   1      43.334  33.798  29.735  1.00  0.00     0.034 A 
ATOM     61  C   UNL A   1      43.592  27.842  33.389  1.00  0.00     0.034 A 
ATOM     62  C   UNL A   1      43.653  32.622  28.962  1.00  0.00     0.049 A 
ATOM     63  C   UNL A   1      43.774  27.863  31.886  1.00  0.00     0.074 A 
ATOM     64  C   UNL A   1      43.947  32.534  27.612  1.00  0.00     0.029 A 
ATOM     65  N   UNL A   1      43.704  31.328  29.462  1.00  0.00    -0.354 N 
ATOM     66  N   UNL A   1      43.777  28.889  31.064  1.00  0.00    -0.248 NA
ATOM     67  C   UNL A   1      43.989  26.568  31.221  1.00  0.00     0.031 C 
ATOM     68  C   UNL A   1      44.088  31.184  27.280  1.00  0.00     0.029 A 
ATOM     69  C   UNL A   1      43.984  30.434  28.439  1.00  0.00     0.049 A 
ATOM     70  H   UNL A   1      43.563  31.081  30.405  1.00  0.00     0.167 HD
ATOM     71  C   UNL A   1      44.033  28.363  29.797  1.00  0.00     0.074 A 
ATOM     72  C   UNL A   1      44.190  26.934  29.964  1.00  0.00     0.031 C 
ATOM     73  C   UNL A   1      44.135  29.006  28.605  1.00  0.00     0.034 A 
BRANCH  60  74
ATOM     74  C   UNL A   1      43.233  35.126  29.020  1.00  0.00     0.023 A 
ATOM     75  C   UNL A   1      44.362  35.932  28.789  1.00  0.00     0.031 A 
ATOM     76  C   UNL A   1      41.983  35.606  28.588  1.00  0.00     0.131 A 
ATOM     77  C   UNL A   1      44.208  37.203  28.215  1.00  0.00     0.055 A 
ATOM     78  C   UNL A   1      41.849  36.832  27.935  1.00  0.00     0.041 A 
ATOM     79  F   UNL A   1      40.867  34.893  28.805  1.00  0.00    -0.206 F 
ATOM     80  C   UNL A   1      42.963  37.646  27.759  1.00  0.00     0.022 A 
BRANCH  77  81
ATOM     81  S   UNL A   1      45.627  38.332  28.218  1.00  0.00     0.124 S 
ATOM     82  O   UNL A   1      44.995  39.599  28.580  1.00  0.00    -0.237 OA
ATOM     83  O   UNL A   1      46.498  37.742  29.229  1.00  0.00    -0.237 OA
ATOM     84  O   UNL A   1      46.125  38.264  26.846  1.00  0.00    -0.744 OA
ENDBRANCH  77  81
ENDBRANCH  60  74
BRANCH  61  85
ATOM     85  C   UNL A   1      43.604  26.538  34.123  1.00  0.00     0.023 A 
ATOM     86  C   UNL A   1      44.790  25.803  34.292  1.00  0.00     0.031 A 
ATOM     87  C   UNL A   1      42.407  25.965  34.590  1.00  0.00     0.131 A 
ATOM     88  C   UNL A   1      44.747  24.522  34.867  1.00  0.00     0.055 A 
ATOM     89  C   UNL A   1      42.378  24.719  35.219  1.00  0.00     0.041 A 
ATOM     90  F   UNL A   1      41.240  26.611  34.440  1.00  0.00    -0.206 F 
ATOM     91  C   UNL A   1      43.551  23.983  35.348  1.00  0.00     0.022 A 
BRANCH  88  92
ATOM     92  S   UNL A   1      46.260  23.520  34.880  1.00  0.00     0.124 S 
ATOM     93  O   UNL A   1      45.757  22.221  34.448  1.00  0.00    -0.237 OA
ATOM     94  O   UNL A   1      47.103  24.233  33.926  1.00  0.00    -0.237 OA
ATOM     95  O   UNL A   1      46.702  23.588  36.271  1.00  0.00    -0.744 OA
ENDBRANCH  88  92
ENDBRANCH  61  85
BRANCH  73  96
ATOM     96  C   UNL A   1      44.494  28.179  27.389  1.00  0.00     0.023 A 
ATOM     97  C   UNL A   1      45.822  27.840  27.078  1.00  0.00     0.031 A 
ATOM     98  C   UNL A   1      43.480  27.721  26.524  1.00  0.00     0.131 A 
ATOM     99  C   UNL A   1      46.106  27.119  25.907  1.00  0.00     0.055 A 
ATOM    100  C   UNL A   1      43.763  26.945  25.400  1.00  0.00     0.041 A 
ATOM    101  F   UNL A   1      42.193  28.016  26.765  1.00  0.00    -0.206 F 
ATOM    102  C   UNL A   1      45.084  26.651  25.077  1.00  0.00     0.022 A 
BRANCH  99 103
ATOM    103  S   UNL A   1      47.840  26.885  25.423  1.00  0.00     0.124 S 
ATOM    104  O   UNL A   1      48.391  26.205  26.591  1.00  0.00    -0.237 OA
ATOM    105  O   UNL A   1      47.721  26.079  24.213  1.00  0.00    -0.237 OA
ATOM    106  O   UNL A   1      48.326  28.248  25.214  1.00  0.00    -0.744 OA
ENDBRANCH  99 103
ENDBRANCH  73  96
ENDBRANCH  47  48
ENDBRANCH  40  42
ENDBRANCH  39  40
ENDBRANCH  38  39
ENDBRANCH  37  38
ENDBRANCH  36  37
ENDBRANCH  35  36
ENDBRANCH   1  35
TORSDOF 25
ENDMDL
