MODEL 1
REMARK VINA RESULT:     -10.8      0.000      0.000
REMARK SMILES C[C@@H]1[C@H](C)CCC[C@H]1NC(=O)C[N@@H+]1CCC[C@@H]1C(=O)OCCOCCOCCOC(=O)c1ccc(-c2c3nc(c(-c4cc(S(=O)(=O)[O-])ccc4F)c4ccc([nH]4)c(-c4cc(S(=O)(=O)[O-])ccc4F)c4nc(c(-c5cc(S(=O)(=O)[O-])ccc5F)c5ccc2[nH]5)C=C4)C=C3)cc1
REMARK SMILES IDX 24 1 23 2 22 3 21 4 20 5 18 6 19 7 17 8 13 9 14 10 15 12
REMARK SMILES IDX 16 13 12 14 10 15 9 16 11 18 8 19 1 20 2 21 3 22 4 23 5 24
REMARK SMILES IDX 7 25 6 26 25 27 26 28 27 29 28 30 29 31 30 32 31 33 32 34
REMARK SMILES IDX 33 35 94 36 34 37 93 38 35 39 36 40 37 41 87 42 38 43 92 44
REMARK SMILES IDX 86 45 88 46 39 47 91 48 85 49 84 50 40 52 72 53 52 54 71 55
REMARK SMILES IDX 53 56 56 57 70 58 89 59 54 60 55 61 69 63 90 64 57 65 41 66
REMARK SMILES IDX 42 67 50 68 43 69 49 70 51 71 48 72 44 73 45 74 46 75 47 76
REMARK SMILES IDX 73 77 74 78 82 79 75 80 81 81 83 82 80 83 76 84 77 85 78 86
REMARK SMILES IDX 79 87 58 88 59 89 67 90 60 91 66 92 68 93 65 94 61 95 62 96
REMARK SMILES IDX 63 97 64 98
REMARK H PARENT 13 11 9 17 88 51 56 62
REMARK Flexibility Score: inf
ROOT
ATOM      1  C   UNL A   1      34.789  21.521  26.248  1.00  0.00     0.188 C 
ENDROOT
BRANCH   1   2
ATOM      2  O   UNL A   1      33.986  22.665  25.995  1.00  0.00    -0.376 OA
BRANCH   2   3
ATOM      3  C   UNL A   1      34.105  23.329  24.739  1.00  0.00     0.202 C 
BRANCH   3   4
ATOM      4  C   UNL A   1      34.814  24.693  24.667  1.00  0.00     0.261 C 
BRANCH   4   5
ATOM      5  O   UNL A   1      34.018  25.760  24.113  1.00  0.00    -0.459 OA
BRANCH   5   6
ATOM      6  C   UNL A   1      33.076  26.342  24.912  1.00  0.00     0.365 C 
ATOM      7  O   UNL A   1      33.336  27.163  25.784  1.00  0.00    -0.245 OA
BRANCH   6   8
ATOM      8  C   UNL A   1      31.649  25.771  24.677  1.00  0.00     0.295 C 
ATOM      9  N   UNL A   1      30.798  26.660  23.821  1.00  0.00    -0.315 N 
ATOM     10  C   UNL A   1      29.430  26.198  24.101  1.00  0.00     0.263 C 
ATOM     11  H   UNL A   1      30.985  26.608  22.820  1.00  0.00     0.349 HD
ATOM     12  C   UNL A   1      29.374  25.928  25.576  1.00  0.00     0.068 C 
ATOM     13  C   UNL A   1      30.764  25.422  25.888  1.00  0.00     0.083 C 
BRANCH   9  14
ATOM     14  C   UNL A   1      31.063  28.083  24.148  1.00  0.00     0.364 C 
BRANCH  14  15
ATOM     15  C   UNL A   1      31.340  28.983  22.967  1.00  0.00     0.275 C 
ATOM     16  N   UNL A   1      30.359  29.754  22.446  1.00  0.00    -0.348 N 
ATOM     17  H   UNL A   1      30.624  30.288  21.661  1.00  0.00     0.163 HD
ATOM     18  O   UNL A   1      32.454  29.017  22.435  1.00  0.00    -0.268 OA
BRANCH  16  19
ATOM     19  C   UNL A   1      28.965  29.922  22.865  1.00  0.00     0.085 C 
ATOM     20  C   UNL A   1      27.399  31.392  24.247  1.00  0.00     0.010 C 
ATOM     21  C   UNL A   1      28.776  31.291  23.570  1.00  0.00     0.011 C 
ATOM     22  C   UNL A   1      29.100  32.436  22.578  1.00  0.00    -0.009 C 
ATOM     23  C   UNL A   1      29.031  33.820  23.222  1.00  0.00     0.008 C 
ATOM     24  C   UNL A   1      28.241  32.337  21.311  1.00  0.00     0.004 C 
ATOM     25  C   UNL A   1      28.079  29.811  21.619  1.00  0.00     0.025 C 
ATOM     26  C   UNL A   1      28.328  30.961  20.643  1.00  0.00     0.002 C 
ENDBRANCH  16  19
ENDBRANCH  14  15
ENDBRANCH   9  14
ENDBRANCH   6   8
ENDBRANCH   5   6
ENDBRANCH   4   5
ENDBRANCH   3   4
ENDBRANCH   2   3
ENDBRANCH   1   2
BRANCH   1  27
ATOM     27  C   UNL A   1      36.157  21.443  25.571  1.00  0.00     0.188 C 
BRANCH  27  28
ATOM     28  O   UNL A   1      36.552  20.154  25.164  1.00  0.00    -0.376 OA
BRANCH  28  29
ATOM     29  C   UNL A   1      37.897  19.960  24.756  1.00  0.00     0.202 C 
BRANCH  29  30
ATOM     30  C   UNL A   1      38.964  19.475  25.758  1.00  0.00     0.261 C 
BRANCH  30  31
ATOM     31  O   UNL A   1      40.230  20.157  25.763  1.00  0.00    -0.460 OA
BRANCH  31  32
ATOM     32  C   UNL A   1      40.914  20.218  26.932  1.00  0.00     0.338 C 
ATOM     33  O   UNL A   1      41.500  19.295  27.475  1.00  0.00    -0.246 OA
BRANCH  32  34
ATOM     34  C   UNL A   1      41.087  21.661  27.262  1.00  0.00     0.060 A 
ATOM     35  C   UNL A   1      40.344  22.619  26.551  1.00  0.00     0.016 A 
ATOM     36  C   UNL A   1      41.903  22.059  28.322  1.00  0.00     0.016 A 
ATOM     37  C   UNL A   1      40.433  23.975  26.883  1.00  0.00     0.010 A 
ATOM     38  C   UNL A   1      42.018  23.420  28.631  1.00  0.00     0.010 A 
ATOM     39  C   UNL A   1      41.307  24.388  27.896  1.00  0.00    -0.014 A 
BRANCH  39  40
ATOM     40  C   UNL A   1      41.679  25.820  28.030  1.00  0.00     0.031 A 
ATOM     41  C   UNL A   1      43.013  26.246  27.475  1.00  0.00     0.074 A 
ATOM     42  C   UNL A   1      40.881  26.724  28.625  1.00  0.00     0.049 A 
ATOM     43  N   UNL A   1      43.634  27.391  27.572  1.00  0.00    -0.248 NA
ATOM     44  C   UNL A   1      43.747  25.222  26.716  1.00  0.00     0.031 C 
ATOM     45  C   UNL A   1      39.539  26.462  29.140  1.00  0.00     0.029 A 
ATOM     46  N   UNL A   1      41.097  28.052  28.909  1.00  0.00    -0.354 N 
ATOM     47  C   UNL A   1      44.839  27.224  26.897  1.00  0.00     0.074 A 
ATOM     48  C   UNL A   1      44.875  25.853  26.435  1.00  0.00     0.031 C 
ATOM     49  C   UNL A   1      39.057  27.592  29.691  1.00  0.00     0.029 A 
ATOM     50  C   UNL A   1      40.073  28.642  29.613  1.00  0.00     0.049 A 
ATOM     51  H   UNL A   1      41.909  28.536  28.632  1.00  0.00     0.167 HD
ATOM     52  C   UNL A   1      45.824  28.130  26.678  1.00  0.00     0.034 A 
ATOM     53  C   UNL A   1      39.984  29.873  30.160  1.00  0.00     0.034 A 
ATOM     54  C   UNL A   1      45.784  29.486  27.166  1.00  0.00     0.049 A 
ATOM     55  C   UNL A   1      41.146  30.832  30.014  1.00  0.00     0.074 A 
ATOM     56  C   UNL A   1      46.726  30.488  27.004  1.00  0.00     0.029 A 
ATOM     57  N   UNL A   1      44.756  30.028  27.928  1.00  0.00    -0.354 N 
ATOM     58  N   UNL A   1      42.287  30.663  29.386  1.00  0.00    -0.248 NA
ATOM     59  C   UNL A   1      41.005  32.149  30.652  1.00  0.00     0.031 C 
ATOM     60  C   UNL A   1      46.308  31.603  27.737  1.00  0.00     0.029 A 
ATOM     61  C   UNL A   1      45.060  31.335  28.276  1.00  0.00     0.049 A 
ATOM     62  H   UNL A   1      43.933  29.553  28.183  1.00  0.00     0.167 HD
ATOM     63  C   UNL A   1      42.979  31.866  29.520  1.00  0.00     0.074 A 
ATOM     64  C   UNL A   1      42.126  32.752  30.283  1.00  0.00     0.031 C 
ATOM     65  C   UNL A   1      44.204  32.211  29.045  1.00  0.00     0.034 A 
BRANCH  52  66
ATOM     66  C   UNL A   1      47.046  27.650  25.933  1.00  0.00     0.023 A 
ATOM     67  C   UNL A   1      47.280  28.000  24.591  1.00  0.00     0.031 A 
ATOM     68  C   UNL A   1      47.961  26.780  26.553  1.00  0.00     0.131 A 
ATOM     69  C   UNL A   1      48.344  27.413  23.890  1.00  0.00     0.055 A 
ATOM     70  C   UNL A   1      49.072  26.275  25.877  1.00  0.00     0.041 A 
ATOM     71  F   UNL A   1      47.776  26.386  27.823  1.00  0.00    -0.206 F 
ATOM     72  C   UNL A   1      49.259  26.575  24.530  1.00  0.00     0.022 A 
BRANCH  69  73
ATOM     73  S   UNL A   1      48.407  27.617  22.088  1.00  0.00     0.124 S 
ATOM     74  O   UNL A   1      47.084  28.172  21.807  1.00  0.00    -0.237 OA
ATOM     75  O   UNL A   1      49.532  28.528  21.913  1.00  0.00    -0.237 OA
ATOM     76  O   UNL A   1      48.621  26.257  21.596  1.00  0.00    -0.744 OA
ENDBRANCH  69  73
ENDBRANCH  52  66
BRANCH  53  77
ATOM     77  C   UNL A   1      38.774  30.270  30.941  1.00  0.00     0.023 A 
ATOM     78  C   UNL A   1      37.737  31.009  30.346  1.00  0.00     0.031 A 
ATOM     79  C   UNL A   1      38.663  29.968  32.311  1.00  0.00     0.131 A 
ATOM     80  C   UNL A   1      36.657  31.454  31.125  1.00  0.00     0.055 A 
ATOM     81  C   UNL A   1      37.559  30.364  33.067  1.00  0.00     0.041 A 
ATOM     82  F   UNL A   1      39.630  29.277  32.934  1.00  0.00    -0.206 F 
ATOM     83  C   UNL A   1      36.553  31.123  32.478  1.00  0.00     0.022 A 
BRANCH  80  84
ATOM     84  S   UNL A   1      35.429  32.552  30.364  1.00  0.00     0.124 S 
ATOM     85  O   UNL A   1      34.311  32.433  31.292  1.00  0.00    -0.237 OA
ATOM     86  O   UNL A   1      36.128  33.834  30.362  1.00  0.00    -0.237 OA
ATOM     87  O   UNL A   1      35.214  31.960  29.046  1.00  0.00    -0.744 OA
ENDBRANCH  80  84
ENDBRANCH  53  77
BRANCH  65  88
ATOM     88  C   UNL A   1      44.672  33.629  29.283  1.00  0.00     0.023 A 
ATOM     89  C   UNL A   1      44.096  34.729  28.623  1.00  0.00     0.031 A 
ATOM     90  C   UNL A   1      45.712  33.882  30.198  1.00  0.00     0.131 A 
ATOM     91  C   UNL A   1      44.597  36.022  28.848  1.00  0.00     0.055 A 
ATOM     92  C   UNL A   1      46.160  35.175  30.468  1.00  0.00     0.041 A 
ATOM     93  F   UNL A   1      46.304  32.872  30.856  1.00  0.00    -0.206 F 
ATOM     94  C   UNL A   1      45.610  36.254  29.782  1.00  0.00     0.022 A 
BRANCH  91  95
ATOM     95  S   UNL A   1      43.970  37.391  27.836  1.00  0.00     0.124 S 
ATOM     96  O   UNL A   1      43.686  36.725  26.570  1.00  0.00    -0.237 OA
ATOM     97  O   UNL A   1      42.807  37.836  28.598  1.00  0.00    -0.237 OA
ATOM     98  O   UNL A   1      45.087  38.334  27.805  1.00  0.00    -0.744 OA
ENDBRANCH  91  95
ENDBRANCH  65  88
ENDBRANCH  39  40
ENDBRANCH  32  34
ENDBRANCH  31  32
ENDBRANCH  30  31
ENDBRANCH  29  30
ENDBRANCH  28  29
ENDBRANCH  27  28
ENDBRANCH   1  27
TORSDOF 23
ENDMDL
MODEL 2
REMARK VINA RESULT:     -10.7      2.094      3.146
REMARK SMILES C[C@@H]1[C@H](C)CCC[C@H]1NC(=O)C[N@@H+]1CCC[C@@H]1C(=O)OCCOCCOCCOC(=O)c1ccc(-c2c3nc(c(-c4cc(S(=O)(=O)[O-])ccc4F)c4ccc([nH]4)c(-c4cc(S(=O)(=O)[O-])ccc4F)c4nc(c(-c5cc(S(=O)(=O)[O-])ccc5F)c5ccc2[nH]5)C=C4)C=C3)cc1
REMARK SMILES IDX 24 1 23 2 22 3 21 4 20 5 18 6 19 7 17 8 13 9 14 10 15 12
REMARK SMILES IDX 16 13 12 14 10 15 9 16 11 18 8 19 1 20 2 21 3 22 4 23 5 24
REMARK SMILES IDX 7 25 6 26 25 27 26 28 27 29 28 30 29 31 30 32 31 33 32 34
REMARK SMILES IDX 33 35 94 36 34 37 93 38 35 39 36 40 37 41 87 42 38 43 92 44
REMARK SMILES IDX 86 45 88 46 39 47 91 48 85 49 84 50 40 52 72 53 52 54 71 55
REMARK SMILES IDX 53 56 56 57 70 58 89 59 54 60 55 61 69 63 90 64 57 65 41 66
REMARK SMILES IDX 42 67 50 68 43 69 49 70 51 71 48 72 44 73 45 74 46 75 47 76
REMARK SMILES IDX 73 77 74 78 82 79 75 80 81 81 83 82 80 83 76 84 77 85 78 86
REMARK SMILES IDX 79 87 58 88 59 89 67 90 60 91 66 92 68 93 65 94 61 95 62 96
REMARK SMILES IDX 63 97 64 98
REMARK H PARENT 13 11 9 17 88 51 56 62
REMARK Flexibility Score: inf
ROOT
ATOM      1  C   UNL A   1      33.649  23.243  27.591  1.00  0.00     0.188 C 
ENDROOT
BRANCH   1   2
ATOM      2  O   UNL A   1      32.646  23.700  26.696  1.00  0.00    -0.376 OA
BRANCH   2   3
ATOM      3  C   UNL A   1      31.328  23.167  26.804  1.00  0.00     0.202 C 
BRANCH   3   4
ATOM      4  C   UNL A   1      30.732  22.379  25.624  1.00  0.00     0.261 C 
BRANCH   4   5
ATOM      5  O   UNL A   1      30.858  23.024  24.340  1.00  0.00    -0.459 OA
BRANCH   5   6
ATOM      6  C   UNL A   1      31.799  22.550  23.472  1.00  0.00     0.365 C 
ATOM      7  O   UNL A   1      31.539  21.846  22.503  1.00  0.00    -0.245 OA
BRANCH   6   8
ATOM      8  C   UNL A   1      33.251  22.903  23.904  1.00  0.00     0.295 C 
ATOM      9  N   UNL A   1      33.551  24.367  23.801  1.00  0.00    -0.315 N 
ATOM     10  C   UNL A   1      35.021  24.418  23.800  1.00  0.00     0.263 C 
ATOM     11  H   UNL A   1      33.184  24.941  24.561  1.00  0.00     0.349 HD
ATOM     12  C   UNL A   1      35.476  23.272  22.944  1.00  0.00     0.068 C 
ATOM     13  C   UNL A   1      34.437  22.206  23.211  1.00  0.00     0.083 C 
BRANCH   9  14
ATOM     14  C   UNL A   1      32.898  24.936  22.596  1.00  0.00     0.364 C 
BRANCH  14  15
ATOM     15  C   UNL A   1      33.142  26.407  22.354  1.00  0.00     0.275 C 
ATOM     16  N   UNL A   1      32.547  27.339  23.131  1.00  0.00    -0.348 N 
ATOM     17  H   UNL A   1      32.743  28.272  22.884  1.00  0.00     0.163 HD
ATOM     18  O   UNL A   1      33.865  26.793  21.430  1.00  0.00    -0.268 OA
BRANCH  16  19
ATOM     19  C   UNL A   1      31.657  27.180  24.285  1.00  0.00     0.085 C 
ATOM     20  C   UNL A   1      31.613  26.966  26.830  1.00  0.00     0.010 C 
ATOM     21  C   UNL A   1      32.448  27.377  25.605  1.00  0.00     0.011 C 
ATOM     22  C   UNL A   1      33.020  28.815  25.659  1.00  0.00    -0.009 C 
ATOM     23  C   UNL A   1      33.895  29.063  26.887  1.00  0.00     0.008 C 
ATOM     24  C   UNL A   1      31.910  29.864  25.511  1.00  0.00     0.004 C 
ATOM     25  C   UNL A   1      30.526  28.207  24.156  1.00  0.00     0.025 C 
ATOM     26  C   UNL A   1      31.046  29.639  24.266  1.00  0.00     0.002 C 
ENDBRANCH  16  19
ENDBRANCH  14  15
ENDBRANCH   9  14
ENDBRANCH   6   8
ENDBRANCH   5   6
ENDBRANCH   4   5
ENDBRANCH   3   4
ENDBRANCH   2   3
ENDBRANCH   1   2
BRANCH   1  27
ATOM     27  C   UNL A   1      33.989  21.753  27.586  1.00  0.00     0.188 C 
BRANCH  27  28
ATOM     28  O   UNL A   1      34.819  21.331  26.529  1.00  0.00    -0.376 OA
BRANCH  28  29
ATOM     29  C   UNL A   1      36.058  21.996  26.340  1.00  0.00     0.202 C 
BRANCH  29  30
ATOM     30  C   UNL A   1      37.236  21.286  25.642  1.00  0.00     0.261 C 
BRANCH  30  31
ATOM     31  O   UNL A   1      38.438  22.047  25.430  1.00  0.00    -0.460 OA
BRANCH  31  32
ATOM     32  C   UNL A   1      39.422  21.954  26.359  1.00  0.00     0.338 C 
ATOM     33  O   UNL A   1      40.144  20.989  26.552  1.00  0.00    -0.246 OA
BRANCH  32  34
ATOM     34  C   UNL A   1      39.667  23.331  26.874  1.00  0.00     0.060 A 
ATOM     35  C   UNL A   1      38.861  24.387  26.414  1.00  0.00     0.016 A 
ATOM     36  C   UNL A   1      40.619  23.564  27.867  1.00  0.00     0.016 A 
ATOM     37  C   UNL A   1      39.021  25.678  26.928  1.00  0.00     0.010 A 
ATOM     38  C   UNL A   1      40.802  24.862  28.356  1.00  0.00     0.010 A 
ATOM     39  C   UNL A   1      40.025  25.932  27.870  1.00  0.00    -0.014 A 
BRANCH  39  40
ATOM     40  C   UNL A   1      40.443  27.327  28.166  1.00  0.00     0.031 A 
ATOM     41  C   UNL A   1      41.891  27.678  27.949  1.00  0.00     0.074 A 
ATOM     42  C   UNL A   1      39.587  28.260  28.618  1.00  0.00     0.049 A 
ATOM     43  N   UNL A   1      42.542  28.772  28.247  1.00  0.00    -0.248 NA
ATOM     44  C   UNL A   1      42.715  26.637  27.316  1.00  0.00     0.031 C 
ATOM     45  C   UNL A   1      38.150  28.073  28.804  1.00  0.00     0.029 A 
ATOM     46  N   UNL A   1      39.812  29.555  29.018  1.00  0.00    -0.354 N 
ATOM     47  C   UNL A   1      43.856  28.547  27.850  1.00  0.00     0.074 A 
ATOM     48  C   UNL A   1      43.913  27.198  27.331  1.00  0.00     0.031 C 
ATOM     49  C   UNL A   1      37.624  29.210  29.297  1.00  0.00     0.029 A 
ATOM     50  C   UNL A   1      38.693  30.187  29.508  1.00  0.00     0.049 A 
ATOM     51  H   UNL A   1      40.693  29.991  28.958  1.00  0.00     0.167 HD
ATOM     52  C   UNL A   1      44.918  29.388  27.909  1.00  0.00     0.034 A 
ATOM     53  C   UNL A   1      38.556  31.398  30.092  1.00  0.00     0.034 A 
ATOM     54  C   UNL A   1      44.850  30.722  28.453  1.00  0.00     0.049 A 
ATOM     55  C   UNL A   1      39.776  32.276  30.264  1.00  0.00     0.074 A 
ATOM     56  C   UNL A   1      45.863  31.659  28.563  1.00  0.00     0.029 A 
ATOM     57  N   UNL A   1      43.711  31.304  28.995  1.00  0.00    -0.354 N 
ATOM     58  N   UNL A   1      41.018  32.052  29.899  1.00  0.00    -0.248 NA
ATOM     59  C   UNL A   1      39.574  33.572  30.929  1.00  0.00     0.031 C 
ATOM     60  C   UNL A   1      45.358  32.770  29.247  1.00  0.00     0.029 A 
ATOM     61  C   UNL A   1      44.006  32.570  29.476  1.00  0.00     0.049 A 
ATOM     62  H   UNL A   1      42.824  30.879  29.032  1.00  0.00     0.167 HD
ATOM     63  C   UNL A   1      41.733  33.196  30.252  1.00  0.00     0.074 A 
ATOM     64  C   UNL A   1      40.784  34.108  30.855  1.00  0.00     0.031 C 
ATOM     65  C   UNL A   1      43.053  33.472  30.084  1.00  0.00     0.034 A 
BRANCH  52  66
ATOM     66  C   UNL A   1      46.246  28.854  27.430  1.00  0.00     0.023 A 
ATOM     67  C   UNL A   1      46.535  28.708  26.061  1.00  0.00     0.031 A 
ATOM     68  C   UNL A   1      47.216  28.427  28.354  1.00  0.00     0.131 A 
ATOM     69  C   UNL A   1      47.718  28.068  25.659  1.00  0.00     0.055 A 
ATOM     70  C   UNL A   1      48.432  27.878  27.946  1.00  0.00     0.041 A 
ATOM     71  F   UNL A   1      46.987  28.513  29.674  1.00  0.00    -0.206 F 
ATOM     72  C   UNL A   1      48.681  27.678  26.591  1.00  0.00     0.022 A 
BRANCH  69  73
ATOM     73  S   UNL A   1      47.891  27.591  23.918  1.00  0.00     0.124 S 
ATOM     74  O   UNL A   1      46.941  28.490  23.268  1.00  0.00    -0.237 OA
ATOM     75  O   UNL A   1      49.302  27.856  23.658  1.00  0.00    -0.237 OA
ATOM     76  O   UNL A   1      47.509  26.180  23.909  1.00  0.00    -0.744 OA
ENDBRANCH  69  73
ENDBRANCH  52  66
BRANCH  53  77
ATOM     77  C   UNL A   1      37.227  31.847  30.604  1.00  0.00     0.023 A 
ATOM     78  C   UNL A   1      36.322  32.527  29.772  1.00  0.00     0.031 A 
ATOM     79  C   UNL A   1      36.866  31.657  31.950  1.00  0.00     0.131 A 
ATOM     80  C   UNL A   1      35.121  33.025  30.302  1.00  0.00     0.055 A 
ATOM     81  C   UNL A   1      35.645  32.104  32.458  1.00  0.00     0.041 A 
ATOM     82  F   UNL A   1      37.698  31.025  32.793  1.00  0.00    -0.206 F 
ATOM     83  C   UNL A   1      34.769  32.804  31.635  1.00  0.00     0.022 A 
BRANCH  80  84
ATOM     84  S   UNL A   1      34.060  34.048  29.243  1.00  0.00     0.124 S 
ATOM     85  O   UNL A   1      33.108  34.584  30.208  1.00  0.00    -0.237 OA
ATOM     86  O   UNL A   1      35.015  35.001  28.686  1.00  0.00    -0.237 OA
ATOM     87  O   UNL A   1      33.509  33.090  28.286  1.00  0.00    -0.744 OA
ENDBRANCH  80  84
ENDBRANCH  53  77
BRANCH  65  88
ATOM     88  C   UNL A   1      43.539  34.841  30.501  1.00  0.00     0.023 A 
ATOM     89  C   UNL A   1      43.596  35.922  29.603  1.00  0.00     0.031 A 
ATOM     90  C   UNL A   1      43.945  35.069  31.830  1.00  0.00     0.131 A 
ATOM     91  C   UNL A   1      44.096  37.163  30.031  1.00  0.00     0.055 A 
ATOM     92  C   UNL A   1      44.377  36.321  32.267  1.00  0.00     0.041 A 
ATOM     93  F   UNL A   1      43.917  34.074  32.733  1.00  0.00    -0.206 F 
ATOM     94  C   UNL A   1      44.467  37.374  31.362  1.00  0.00     0.022 A 
BRANCH  91  95
ATOM     95  S   UNL A   1      44.345  38.476  28.804  1.00  0.00     0.124 S 
ATOM     96  O   UNL A   1      43.006  39.045  28.696  1.00  0.00    -0.237 OA
ATOM     97  O   UNL A   1      45.347  39.320  29.448  1.00  0.00    -0.237 OA
ATOM     98  O   UNL A   1      44.811  37.756  27.620  1.00  0.00    -0.744 OA
ENDBRANCH  91  95
ENDBRANCH  65  88
ENDBRANCH  39  40
ENDBRANCH  32  34
ENDBRANCH  31  32
ENDBRANCH  30  31
ENDBRANCH  29  30
ENDBRANCH  28  29
ENDBRANCH  27  28
ENDBRANCH   1  27
TORSDOF 23
ENDMDL
MODEL 3
REMARK VINA RESULT:     -10.6      2.046      2.767
REMARK SMILES C[C@@H]1[C@H](C)CCC[C@H]1NC(=O)C[N@@H+]1CCC[C@@H]1C(=O)OCCOCCOCCOC(=O)c1ccc(-c2c3nc(c(-c4cc(S(=O)(=O)[O-])ccc4F)c4ccc([nH]4)c(-c4cc(S(=O)(=O)[O-])ccc4F)c4nc(c(-c5cc(S(=O)(=O)[O-])ccc5F)c5ccc2[nH]5)C=C4)C=C3)cc1
REMARK SMILES IDX 24 1 23 2 22 3 21 4 20 5 18 6 19 7 17 8 13 9 14 10 15 12
REMARK SMILES IDX 16 13 12 14 10 15 9 16 11 18 8 19 1 20 2 21 3 22 4 23 5 24
REMARK SMILES IDX 7 25 6 26 25 27 26 28 27 29 28 30 29 31 30 32 31 33 32 34
REMARK SMILES IDX 33 35 94 36 34 37 93 38 35 39 36 40 37 41 87 42 38 43 92 44
REMARK SMILES IDX 86 45 88 46 39 47 91 48 85 49 84 50 40 52 72 53 52 54 71 55
REMARK SMILES IDX 53 56 56 57 70 58 89 59 54 60 55 61 69 63 90 64 57 65 41 66
REMARK SMILES IDX 42 67 50 68 43 69 49 70 51 71 48 72 44 73 45 74 46 75 47 76
REMARK SMILES IDX 73 77 74 78 82 79 75 80 81 81 83 82 80 83 76 84 77 85 78 86
REMARK SMILES IDX 79 87 58 88 59 89 67 90 60 91 66 92 68 93 65 94 61 95 62 96
REMARK SMILES IDX 63 97 64 98
REMARK H PARENT 13 11 9 17 88 51 56 62
REMARK Flexibility Score: inf
ROOT
ATOM      1  C   UNL A   1      34.570  21.578  26.475  1.00  0.00     0.188 C 
ENDROOT
BRANCH   1   2
ATOM      2  O   UNL A   1      33.762  22.716  26.211  1.00  0.00    -0.376 OA
BRANCH   2   3
ATOM      3  C   UNL A   1      32.989  22.753  25.013  1.00  0.00     0.202 C 
BRANCH   3   4
ATOM      4  C   UNL A   1      33.700  22.920  23.659  1.00  0.00     0.261 C 
BRANCH   4   5
ATOM      5  O   UNL A   1      32.865  23.419  22.594  1.00  0.00    -0.459 OA
BRANCH   5   6
ATOM      6  C   UNL A   1      32.950  24.744  22.278  1.00  0.00     0.365 C 
ATOM      7  O   UNL A   1      34.008  25.332  22.083  1.00  0.00    -0.245 OA
BRANCH   6   8
ATOM      8  C   UNL A   1      31.570  25.460  22.301  1.00  0.00     0.295 C 
ATOM      9  N   UNL A   1      31.686  26.949  22.420  1.00  0.00    -0.315 N 
ATOM     10  C   UNL A   1      30.349  27.363  22.873  1.00  0.00     0.263 C 
ATOM     11  H   UNL A   1      31.926  27.437  21.557  1.00  0.00     0.349 HD
ATOM     12  C   UNL A   1      29.916  26.340  23.882  1.00  0.00     0.068 C 
ATOM     13  C   UNL A   1      30.525  25.058  23.359  1.00  0.00     0.083 C 
BRANCH   9  14
ATOM     14  C   UNL A   1      32.800  27.300  23.336  1.00  0.00     0.364 C 
BRANCH  14  15
ATOM     15  C   UNL A   1      33.205  28.755  23.344  1.00  0.00     0.275 C 
ATOM     16  N   UNL A   1      32.862  29.557  24.377  1.00  0.00    -0.348 N 
ATOM     17  H   UNL A   1      33.145  30.496  24.285  1.00  0.00     0.163 HD
ATOM     18  O   UNL A   1      33.831  29.251  22.402  1.00  0.00    -0.268 OA
BRANCH  16  19
ATOM     19  C   UNL A   1      32.136  29.250  25.612  1.00  0.00     0.085 C 
ATOM     20  C   UNL A   1      32.350  28.117  27.892  1.00  0.00     0.010 C 
ATOM     21  C   UNL A   1      33.109  28.688  26.682  1.00  0.00     0.011 C 
ATOM     22  C   UNL A   1      34.176  29.757  27.028  1.00  0.00    -0.009 C 
ATOM     23  C   UNL A   1      35.234  29.248  28.006  1.00  0.00     0.008 C 
ATOM     24  C   UNL A   1      33.525  31.064  27.497  1.00  0.00     0.004 C 
ATOM     25  C   UNL A   1      31.460  30.537  26.098  1.00  0.00     0.025 C 
ATOM     26  C   UNL A   1      32.484  31.596  26.506  1.00  0.00     0.002 C 
ENDBRANCH  16  19
ENDBRANCH  14  15
ENDBRANCH   9  14
ENDBRANCH   6   8
ENDBRANCH   5   6
ENDBRANCH   4   5
ENDBRANCH   3   4
ENDBRANCH   2   3
ENDBRANCH   1   2
BRANCH   1  27
ATOM     27  C   UNL A   1      35.927  21.487  25.776  1.00  0.00     0.188 C 
BRANCH  27  28
ATOM     28  O   UNL A   1      36.191  20.260  25.137  1.00  0.00    -0.376 OA
BRANCH  28  29
ATOM     29  C   UNL A   1      37.497  20.032  24.633  1.00  0.00     0.202 C 
BRANCH  29  30
ATOM     30  C   UNL A   1      38.606  19.465  25.542  1.00  0.00     0.261 C 
BRANCH  30  31
ATOM     31  O   UNL A   1      39.832  20.212  25.640  1.00  0.00    -0.460 OA
BRANCH  31  32
ATOM     32  C   UNL A   1      40.478  20.218  26.832  1.00  0.00     0.338 C 
ATOM     33  O   UNL A   1      40.977  19.254  27.389  1.00  0.00    -0.246 OA
BRANCH  32  34
ATOM     34  C   UNL A   1      40.741  21.644  27.177  1.00  0.00     0.060 A 
ATOM     35  C   UNL A   1      39.979  22.650  26.558  1.00  0.00     0.016 A 
ATOM     36  C   UNL A   1      41.666  21.982  28.166  1.00  0.00     0.016 A 
ATOM     37  C   UNL A   1      40.155  23.992  26.911  1.00  0.00     0.010 A 
ATOM     38  C   UNL A   1      41.866  23.328  28.493  1.00  0.00     0.010 A 
ATOM     39  C   UNL A   1      41.134  24.343  27.848  1.00  0.00    -0.014 A 
BRANCH  39  40
ATOM     40  C   UNL A   1      41.578  25.755  27.980  1.00  0.00     0.031 A 
ATOM     41  C   UNL A   1      42.938  26.108  27.439  1.00  0.00     0.074 A 
ATOM     42  C   UNL A   1      40.820  26.702  28.561  1.00  0.00     0.049 A 
ATOM     43  N   UNL A   1      43.616  27.221  27.538  1.00  0.00    -0.248 NA
ATOM     44  C   UNL A   1      43.627  25.043  26.695  1.00  0.00     0.031 C 
ATOM     45  C   UNL A   1      39.461  26.512  29.061  1.00  0.00     0.029 A 
ATOM     46  N   UNL A   1      41.100  28.018  28.840  1.00  0.00    -0.354 N 
ATOM     47  C   UNL A   1      44.818  26.988  26.878  1.00  0.00     0.074 A 
ATOM     48  C   UNL A   1      44.789  25.614  26.424  1.00  0.00     0.031 C 
ATOM     49  C   UNL A   1      39.031  27.668  29.600  1.00  0.00     0.029 A 
ATOM     50  C   UNL A   1      40.100  28.664  29.529  1.00  0.00     0.049 A 
ATOM     51  H   UNL A   1      41.939  28.458  28.571  1.00  0.00     0.167 HD
ATOM     52  C   UNL A   1      45.851  27.841  26.666  1.00  0.00     0.034 A 
ATOM     53  C   UNL A   1      40.068  29.901  30.070  1.00  0.00     0.034 A 
ATOM     54  C   UNL A   1      45.876  29.200  27.147  1.00  0.00     0.049 A 
ATOM     55  C   UNL A   1      41.279  30.798  29.933  1.00  0.00     0.074 A 
ATOM     56  C   UNL A   1      46.869  30.151  26.992  1.00  0.00     0.029 A 
ATOM     57  N   UNL A   1      44.868  29.799  27.894  1.00  0.00    -0.354 N 
ATOM     58  N   UNL A   1      42.417  30.567  29.319  1.00  0.00    -0.248 NA
ATOM     59  C   UNL A   1      41.199  32.125  30.562  1.00  0.00     0.031 C 
ATOM     60  C   UNL A   1      46.501  31.291  27.714  1.00  0.00     0.029 A 
ATOM     61  C   UNL A   1      45.234  31.090  28.239  1.00  0.00     0.049 A 
ATOM     62  H   UNL A   1      44.018  29.368  28.142  1.00  0.00     0.167 HD
ATOM     63  C   UNL A   1      43.169  31.734  29.455  1.00  0.00     0.074 A 
ATOM     64  C   UNL A   1      42.353  32.667  30.204  1.00  0.00     0.031 C 
ATOM     65  C   UNL A   1      44.416  32.013  28.994  1.00  0.00     0.034 A 
BRANCH  52  66
ATOM     66  C   UNL A   1      47.056  27.294  25.939  1.00  0.00     0.023 A 
ATOM     67  C   UNL A   1      48.058  26.568  26.606  1.00  0.00     0.031 A 
ATOM     68  C   UNL A   1      47.237  27.554  24.569  1.00  0.00     0.131 A 
ATOM     69  C   UNL A   1      49.232  26.209  25.928  1.00  0.00     0.055 A 
ATOM     70  C   UNL A   1      48.365  27.110  23.877  1.00  0.00     0.041 A 
ATOM     71  F   UNL A   1      46.330  28.267  23.882  1.00  0.00    -0.206 F 
ATOM     72  C   UNL A   1      49.381  26.449  24.561  1.00  0.00     0.022 A 
BRANCH  69  73
ATOM     73  S   UNL A   1      50.634  25.589  26.899  1.00  0.00     0.124 S 
ATOM     74  O   UNL A   1      51.592  25.247  25.850  1.00  0.00    -0.237 OA
ATOM     75  O   UNL A   1      50.977  26.739  27.727  1.00  0.00    -0.237 OA
ATOM     76  O   UNL A   1      50.075  24.446  27.618  1.00  0.00    -0.744 OA
ENDBRANCH  69  73
ENDBRANCH  52  66
BRANCH  53  77
ATOM     77  C   UNL A   1      38.871  30.364  30.833  1.00  0.00     0.023 A 
ATOM     78  C   UNL A   1      37.930  31.231  30.252  1.00  0.00     0.031 A 
ATOM     79  C   UNL A   1      38.680  29.994  32.177  1.00  0.00     0.131 A 
ATOM     80  C   UNL A   1      36.867  31.730  31.022  1.00  0.00     0.055 A 
ATOM     81  C   UNL A   1      37.589  30.448  32.921  1.00  0.00     0.041 A 
ATOM     82  F   UNL A   1      39.555  29.179  32.787  1.00  0.00    -0.206 F 
ATOM     83  C   UNL A   1      36.681  31.331  32.347  1.00  0.00     0.022 A 
BRANCH  80  84
ATOM     84  S   UNL A   1      35.776  32.982  30.291  1.00  0.00     0.124 S 
ATOM     85  O   UNL A   1      36.170  32.935  28.888  1.00  0.00    -0.237 OA
ATOM     86  O   UNL A   1      34.453  32.451  30.604  1.00  0.00    -0.237 OA
ATOM     87  O   UNL A   1      36.137  34.207  31.001  1.00  0.00    -0.744 OA
ENDBRANCH  80  84
ENDBRANCH  53  77
BRANCH  65  88
ATOM     88  C   UNL A   1      44.953  33.407  29.230  1.00  0.00     0.023 A 
ATOM     89  C   UNL A   1      44.734  34.458  28.322  1.00  0.00     0.031 A 
ATOM     90  C   UNL A   1      45.692  33.687  30.395  1.00  0.00     0.131 A 
ATOM     91  C   UNL A   1      45.292  35.723  28.569  1.00  0.00     0.055 A 
ATOM     92  C   UNL A   1      46.186  34.963  30.668  1.00  0.00     0.041 A 
ATOM     93  F   UNL A   1      45.937  32.723  31.298  1.00  0.00    -0.206 F 
ATOM     94  C   UNL A   1      45.998  35.987  29.746  1.00  0.00     0.022 A 
BRANCH  91  95
ATOM     95  S   UNL A   1      45.162  37.001  27.287  1.00  0.00     0.124 S 
ATOM     96  O   UNL A   1      46.100  36.515  26.280  1.00  0.00    -0.237 OA
ATOM     97  O   UNL A   1      43.749  36.940  26.926  1.00  0.00    -0.237 OA
ATOM     98  O   UNL A   1      45.572  38.223  27.977  1.00  0.00    -0.744 OA
ENDBRANCH  91  95
ENDBRANCH  65  88
ENDBRANCH  39  40
ENDBRANCH  32  34
ENDBRANCH  31  32
ENDBRANCH  30  31
ENDBRANCH  29  30
ENDBRANCH  28  29
ENDBRANCH  27  28
ENDBRANCH   1  27
TORSDOF 23
ENDMDL
