MODEL 1
REMARK VINA RESULT:     -10.3      0.000      0.000
REMARK SMILES C[NH2+][C@]1(C(=O)OCCOCCOCCOC(=O)c2ccc(-c3c4nc(c(-c5cc(S(=O)(=O)[O-])ccc5F)c5ccc([nH]5)c(-c5cc(S(=O)(=O)[O-])ccc5F)c5nc(c(-c6cc(S(=O)(=O)[O-])ccc6F)c6ccc3[nH]6)C=C5)C=C4)cc2)CCC[C@H]([N@H+]2CCC[C@@H]2C2CCCC2)C1
REMARK SMILES IDX 11 1 10 2 9 3 8 4 7 5 6 6 4 7 5 8 3 9 81 10 95 11 82 12
REMARK SMILES IDX 84 13 83 14 2 15 1 16 85 19 86 20 89 21 87 23 88 24 90 25
REMARK SMILES IDX 91 26 94 27 92 28 93 29 12 30 13 31 14 32 15 33 16 34 17 35
REMARK SMILES IDX 18 36 19 37 80 38 20 39 79 40 21 41 22 42 23 43 73 44 24 45
REMARK SMILES IDX 78 46 72 47 74 48 25 49 77 50 71 51 70 52 26 54 58 55 38 56
REMARK SMILES IDX 57 57 39 58 42 59 56 60 75 61 40 62 41 63 55 65 76 66 43 67
REMARK SMILES IDX 27 68 28 69 36 70 29 71 35 72 37 73 34 74 30 75 31 76 32 77
REMARK SMILES IDX 33 78 59 79 60 80 68 81 61 82 67 83 69 84 66 85 62 86 63 87
REMARK SMILES IDX 64 88 65 89 44 90 45 91 53 92 46 93 52 94 54 95 51 96 47 97
REMARK SMILES IDX 48 98 49 99 50 100
REMARK H PARENT 2 17 2 18 85 22 74 53 42 64
REMARK Flexibility Score: inf
ROOT
ATOM      1  C   UNL A   1      40.201  20.140  25.881  1.00  0.00     0.188 C 
ENDROOT
BRANCH   1   2
ATOM      2  C   UNL A   1      39.253  21.351  25.977  1.00  0.00     0.188 C 
BRANCH   2   3
ATOM      3  O   UNL A   1      38.086  21.369  25.155  1.00  0.00    -0.376 OA
BRANCH   3   4
ATOM      4  C   UNL A   1      37.472  20.126  24.827  1.00  0.00     0.202 C 
BRANCH   4   5
ATOM      5  C   UNL A   1      35.967  20.014  25.124  1.00  0.00     0.261 C 
BRANCH   5   6
ATOM      6  O   UNL A   1      35.473  21.273  25.604  1.00  0.00    -0.459 OA
BRANCH   6   7
ATOM      7  C   UNL A   1      34.133  21.457  25.852  1.00  0.00     0.368 C 
ATOM      8  O   UNL A   1      33.434  20.693  26.496  1.00  0.00    -0.245 OA
BRANCH   7   9
ATOM      9  C   UNL A   1      33.705  22.839  25.167  1.00  0.00     0.199 C 
ATOM     10  C   UNL A   1      35.002  23.151  24.309  1.00  0.00     0.081 C 
ATOM     11  C   UNL A   1      32.465  22.710  24.277  1.00  0.00     0.146 C 
ATOM     12  C   UNL A   1      34.893  23.501  22.821  1.00  0.00     0.013 C 
ATOM     13  C   UNL A   1      32.403  23.607  23.012  1.00  0.00     0.191 C 
ATOM     14  C   UNL A   1      33.587  23.152  22.152  1.00  0.00     0.065 C 
BRANCH   9  15
ATOM     15  N   UNL A   1      33.513  23.786  26.322  1.00  0.00    -0.334 N 
ATOM     16  C   UNL A   1      32.329  23.727  27.177  1.00  0.00     0.331 C 
ATOM     17  H   UNL A   1      34.316  23.655  26.937  1.00  0.00     0.347 HD
ATOM     18  H   UNL A   1      33.395  24.682  25.850  1.00  0.00     0.347 HD
ENDBRANCH   9  15
BRANCH  13  19
ATOM     19  N   UNL A   1      32.301  25.081  22.846  1.00  0.00    -0.330 N 
ATOM     20  C   UNL A   1      32.054  25.415  21.430  1.00  0.00     0.262 C 
ATOM     21  C   UNL A   1      31.487  26.058  23.607  1.00  0.00     0.187 C 
ATOM     22  H   UNL A   1      33.197  25.229  23.308  1.00  0.00     0.348 HD
ATOM     23  C   UNL A   1      32.174  26.917  21.429  1.00  0.00     0.067 C 
ATOM     24  C   UNL A   1      31.485  27.323  22.713  1.00  0.00     0.071 C 
BRANCH  21  25
ATOM     25  C   UNL A   1      31.853  26.423  25.063  1.00  0.00     0.047 C 
ATOM     26  C   UNL A   1      33.170  27.141  25.385  1.00  0.00     0.010 C 
ATOM     27  C   UNL A   1      30.875  27.386  25.762  1.00  0.00     0.010 C 
ATOM     28  C   UNL A   1      33.035  27.364  26.892  1.00  0.00     0.001 C 
ATOM     29  C   UNL A   1      31.563  27.732  27.089  1.00  0.00     0.001 C 
ENDBRANCH  21  25
ENDBRANCH  13  19
ENDBRANCH   7   9
ENDBRANCH   6   7
ENDBRANCH   5   6
ENDBRANCH   4   5
ENDBRANCH   3   4
ENDBRANCH   2   3
ENDBRANCH   1   2
BRANCH   1  30
ATOM     30  O   UNL A   1      40.971  19.953  27.064  1.00  0.00    -0.376 OA
BRANCH  30  31
ATOM     31  C   UNL A   1      42.326  19.586  26.837  1.00  0.00     0.202 C 
BRANCH  31  32
ATOM     32  C   UNL A   1      43.015  20.531  25.850  1.00  0.00     0.261 C 
BRANCH  32  33
ATOM     33  O   UNL A   1      43.343  21.822  26.398  1.00  0.00    -0.460 OA
BRANCH  33  34
ATOM     34  C   UNL A   1      43.157  22.881  25.577  1.00  0.00     0.338 C 
ATOM     35  O   UNL A   1      43.312  22.905  24.373  1.00  0.00    -0.246 OA
BRANCH  34  36
ATOM     36  C   UNL A   1      42.590  23.990  26.372  1.00  0.00     0.060 A 
ATOM     37  C   UNL A   1      43.118  25.272  26.208  1.00  0.00     0.016 A 
ATOM     38  C   UNL A   1      41.590  23.758  27.315  1.00  0.00     0.016 A 
ATOM     39  C   UNL A   1      42.687  26.322  27.024  1.00  0.00     0.010 A 
ATOM     40  C   UNL A   1      41.150  24.813  28.124  1.00  0.00     0.010 A 
ATOM     41  C   UNL A   1      41.716  26.098  28.008  1.00  0.00    -0.014 A 
BRANCH  41  42
ATOM     42  C   UNL A   1      41.392  27.154  29.007  1.00  0.00     0.031 A 
ATOM     43  C   UNL A   1      42.255  27.284  30.236  1.00  0.00     0.074 A 
ATOM     44  C   UNL A   1      40.364  28.006  28.824  1.00  0.00     0.049 A 
ATOM     45  N   UNL A   1      42.081  28.017  31.305  1.00  0.00    -0.248 NA
ATOM     46  C   UNL A   1      43.479  26.471  30.254  1.00  0.00     0.031 C 
ATOM     47  C   UNL A   1      39.500  28.048  27.646  1.00  0.00     0.029 A 
ATOM     48  N   UNL A   1      39.866  28.996  29.638  1.00  0.00    -0.354 N 
ATOM     49  C   UNL A   1      43.161  27.737  32.138  1.00  0.00     0.074 A 
ATOM     50  C   UNL A   1      43.967  26.747  31.454  1.00  0.00     0.031 C 
ATOM     51  C   UNL A   1      38.576  29.009  27.817  1.00  0.00     0.029 A 
ATOM     52  C   UNL A   1      38.737  29.607  29.141  1.00  0.00     0.049 A 
ATOM     53  H   UNL A   1      40.280  29.246  30.497  1.00  0.00     0.167 HD
ATOM     54  C   UNL A   1      43.452  28.256  33.357  1.00  0.00     0.034 A 
ATOM     55  C   UNL A   1      37.903  30.506  29.705  1.00  0.00     0.034 A 
ATOM     56  C   UNL A   1      42.639  29.240  34.028  1.00  0.00     0.049 A 
ATOM     57  C   UNL A   1      38.185  30.991  31.108  1.00  0.00     0.074 A 
ATOM     58  C   UNL A   1      42.831  29.818  35.272  1.00  0.00     0.029 A 
ATOM     59  N   UNL A   1      41.472  29.793  33.514  1.00  0.00    -0.354 N 
ATOM     60  N   UNL A   1      39.179  30.679  31.909  1.00  0.00    -0.248 NA
ATOM     61  C   UNL A   1      37.229  31.946  31.686  1.00  0.00     0.031 C 
ATOM     62  C   UNL A   1      41.748  30.665  35.537  1.00  0.00     0.029 A 
ATOM     63  C   UNL A   1      40.920  30.681  34.426  1.00  0.00     0.049 A 
ATOM     64  H   UNL A   1      41.092  29.586  32.630  1.00  0.00     0.167 HD
ATOM     65  C   UNL A   1      38.978  31.421  33.072  1.00  0.00     0.074 A 
ATOM     66  C   UNL A   1      37.779  32.206  32.863  1.00  0.00     0.031 C 
ATOM     67  C   UNL A   1      39.719  31.454  34.210  1.00  0.00     0.034 A 
BRANCH  54  68
ATOM     68  C   UNL A   1      44.669  27.708  34.066  1.00  0.00     0.023 A 
ATOM     69  C   UNL A   1      44.604  26.563  34.879  1.00  0.00     0.031 A 
ATOM     70  C   UNL A   1      45.904  28.372  33.964  1.00  0.00     0.131 A 
ATOM     71  C   UNL A   1      45.728  26.165  35.618  1.00  0.00     0.055 A 
ATOM     72  C   UNL A   1      47.042  27.922  34.636  1.00  0.00     0.041 A 
ATOM     73  F   UNL A   1      46.023  29.484  33.221  1.00  0.00    -0.206 F 
ATOM     74  C   UNL A   1      46.954  26.822  35.483  1.00  0.00     0.022 A 
BRANCH  71  75
ATOM     75  S   UNL A   1      45.527  24.874  36.877  1.00  0.00     0.124 S 
ATOM     76  O   UNL A   1      44.960  25.633  37.989  1.00  0.00    -0.237 OA
ATOM     77  O   UNL A   1      44.626  23.932  36.221  1.00  0.00    -0.237 OA
ATOM     78  O   UNL A   1      46.888  24.388  37.092  1.00  0.00    -0.744 OA
ENDBRANCH  71  75
ENDBRANCH  54  68
BRANCH  55  79
ATOM     79  C   UNL A   1      36.674  30.958  28.985  1.00  0.00     0.023 A 
ATOM     80  C   UNL A   1      36.322  32.316  28.920  1.00  0.00     0.031 A 
ATOM     81  C   UNL A   1      35.796  30.024  28.405  1.00  0.00     0.131 A 
ATOM     82  C   UNL A   1      35.104  32.696  28.330  1.00  0.00     0.055 A 
ATOM     83  C   UNL A   1      34.617  30.411  27.768  1.00  0.00     0.041 A 
ATOM     84  F   UNL A   1      36.078  28.712  28.445  1.00  0.00    -0.206 F 
ATOM     85  C   UNL A   1      34.258  31.755  27.741  1.00  0.00     0.022 A 
BRANCH  82  86
ATOM     86  S   UNL A   1      34.598  34.436  28.423  1.00  0.00     0.124 S 
ATOM     87  O   UNL A   1      34.829  34.886  27.055  1.00  0.00    -0.237 OA
ATOM     88  O   UNL A   1      33.203  34.324  28.836  1.00  0.00    -0.237 OA
ATOM     89  O   UNL A   1      35.499  35.000  29.427  1.00  0.00    -0.744 OA
ENDBRANCH  82  86
ENDBRANCH  55  79
BRANCH  67  90
ATOM     90  C   UNL A   1      39.280  32.409  35.295  1.00  0.00     0.023 A 
ATOM     91  C   UNL A   1      39.791  33.716  35.388  1.00  0.00     0.031 A 
ATOM     92  C   UNL A   1      38.338  31.999  36.256  1.00  0.00     0.131 A 
ATOM     93  C   UNL A   1      39.396  34.548  36.447  1.00  0.00     0.055 A 
ATOM     94  C   UNL A   1      37.905  32.852  37.272  1.00  0.00     0.041 A 
ATOM     95  F   UNL A   1      37.818  30.762  36.218  1.00  0.00    -0.206 F 
ATOM     96  C   UNL A   1      38.444  34.130  37.380  1.00  0.00     0.022 A 
BRANCH  93  97
ATOM     97  S   UNL A   1      40.210  36.158  36.644  1.00  0.00     0.124 S 
ATOM     98  O   UNL A   1      39.565  36.679  37.845  1.00  0.00    -0.237 OA
ATOM     99  O   UNL A   1      41.613  35.783  36.786  1.00  0.00    -0.237 OA
ATOM    100  O   UNL A   1      39.879  36.863  35.408  1.00  0.00    -0.744 OA
ENDBRANCH  93  97
ENDBRANCH  67  90
ENDBRANCH  41  42
ENDBRANCH  34  36
ENDBRANCH  33  34
ENDBRANCH  32  33
ENDBRANCH  31  32
ENDBRANCH  30  31
ENDBRANCH   1  30
TORSDOF 23
ENDMDL
MODEL 2
REMARK VINA RESULT:     -10.2      1.674      2.493
REMARK SMILES C[NH2+][C@]1(C(=O)OCCOCCOCCOC(=O)c2ccc(-c3c4nc(c(-c5cc(S(=O)(=O)[O-])ccc5F)c5ccc([nH]5)c(-c5cc(S(=O)(=O)[O-])ccc5F)c5nc(c(-c6cc(S(=O)(=O)[O-])ccc6F)c6ccc3[nH]6)C=C5)C=C4)cc2)CCC[C@H]([N@H+]2CCC[C@@H]2C2CCCC2)C1
REMARK SMILES IDX 11 1 10 2 9 3 8 4 7 5 6 6 4 7 5 8 3 9 81 10 95 11 82 12
REMARK SMILES IDX 84 13 83 14 2 15 1 16 85 19 86 20 89 21 87 23 88 24 90 25
REMARK SMILES IDX 91 26 94 27 92 28 93 29 12 30 13 31 14 32 15 33 16 34 17 35
REMARK SMILES IDX 18 36 19 37 80 38 20 39 79 40 21 41 22 42 23 43 73 44 24 45
REMARK SMILES IDX 78 46 72 47 74 48 25 49 77 50 71 51 70 52 26 54 58 55 38 56
REMARK SMILES IDX 57 57 39 58 42 59 56 60 75 61 40 62 41 63 55 65 76 66 43 67
REMARK SMILES IDX 27 68 28 69 36 70 29 71 35 72 37 73 34 74 30 75 31 76 32 77
REMARK SMILES IDX 33 78 59 79 60 80 68 81 61 82 67 83 69 84 66 85 62 86 63 87
REMARK SMILES IDX 64 88 65 89 44 90 45 91 53 92 46 93 52 94 54 95 51 96 47 97
REMARK SMILES IDX 48 98 49 99 50 100
REMARK H PARENT 2 17 2 18 85 22 74 53 42 64
REMARK Flexibility Score: inf
ROOT
ATOM      1  C   UNL A   1      39.644  21.166  25.719  1.00  0.00     0.188 C 
ENDROOT
BRANCH   1   2
ATOM      2  C   UNL A   1      38.407  22.081  25.806  1.00  0.00     0.188 C 
BRANCH   2   3
ATOM      3  O   UNL A   1      37.117  21.477  25.889  1.00  0.00    -0.376 OA
BRANCH   3   4
ATOM      4  C   UNL A   1      36.780  20.472  24.938  1.00  0.00     0.202 C 
BRANCH   4   5
ATOM      5  C   UNL A   1      35.306  20.032  24.909  1.00  0.00     0.261 C 
BRANCH   5   6
ATOM      6  O   UNL A   1      34.468  21.165  24.643  1.00  0.00    -0.459 OA
BRANCH   6   7
ATOM      7  C   UNL A   1      33.412  21.473  25.469  1.00  0.00     0.368 C 
ATOM      8  O   UNL A   1      32.842  20.674  26.193  1.00  0.00    -0.245 OA
BRANCH   7   9
ATOM      9  C   UNL A   1      33.114  23.037  25.305  1.00  0.00     0.199 C 
ATOM     10  C   UNL A   1      31.817  22.989  24.392  1.00  0.00     0.081 C 
ATOM     11  C   UNL A   1      32.834  23.738  26.636  1.00  0.00     0.146 C 
ATOM     12  C   UNL A   1      30.561  23.781  24.772  1.00  0.00     0.013 C 
ATOM     13  C   UNL A   1      31.811  24.906  26.622  1.00  0.00     0.191 C 
ATOM     14  C   UNL A   1      30.487  24.260  26.201  1.00  0.00     0.065 C 
BRANCH   9  15
ATOM     15  N   UNL A   1      34.325  23.575  24.590  1.00  0.00    -0.334 N 
ATOM     16  C   UNL A   1      35.313  24.409  25.270  1.00  0.00     0.331 C 
ATOM     17  H   UNL A   1      34.832  22.765  24.233  1.00  0.00     0.347 HD
ATOM     18  H   UNL A   1      33.911  24.229  23.925  1.00  0.00     0.347 HD
ENDBRANCH   9  15
BRANCH  13  19
ATOM     19  N   UNL A   1      31.848  26.249  25.984  1.00  0.00    -0.330 N 
ATOM     20  C   UNL A   1      31.978  27.296  27.016  1.00  0.00     0.262 C 
ATOM     21  C   UNL A   1      32.680  26.730  24.857  1.00  0.00     0.187 C 
ATOM     22  H   UNL A   1      30.983  26.069  25.476  1.00  0.00     0.348 HD
ATOM     23  C   UNL A   1      31.805  28.560  26.214  1.00  0.00     0.067 C 
ATOM     24  C   UNL A   1      32.571  28.274  24.941  1.00  0.00     0.071 C 
BRANCH  21  25
ATOM     25  C   UNL A   1      32.410  26.246  23.415  1.00  0.00     0.047 C 
ATOM     26  C   UNL A   1      31.300  26.884  22.567  1.00  0.00     0.010 C 
ATOM     27  C   UNL A   1      33.588  26.410  22.436  1.00  0.00     0.010 C 
ATOM     28  C   UNL A   1      31.482  26.160  21.233  1.00  0.00     0.001 C 
ATOM     29  C   UNL A   1      32.999  26.049  21.066  1.00  0.00     0.001 C 
ENDBRANCH  21  25
ENDBRANCH  13  19
ENDBRANCH   7   9
ENDBRANCH   6   7
ENDBRANCH   5   6
ENDBRANCH   4   5
ENDBRANCH   3   4
ENDBRANCH   2   3
ENDBRANCH   1   2
BRANCH   1  30
ATOM     30  O   UNL A   1      40.621  21.471  26.709  1.00  0.00    -0.376 OA
BRANCH  30  31
ATOM     31  C   UNL A   1      41.754  20.612  26.708  1.00  0.00     0.202 C 
BRANCH  31  32
ATOM     32  C   UNL A   1      42.880  21.155  25.824  1.00  0.00     0.261 C 
BRANCH  32  33
ATOM     33  O   UNL A   1      43.479  22.371  26.310  1.00  0.00    -0.460 OA
BRANCH  33  34
ATOM     34  C   UNL A   1      43.291  23.473  25.547  1.00  0.00     0.338 C 
ATOM     35  O   UNL A   1      43.478  23.571  24.351  1.00  0.00    -0.246 OA
BRANCH  34  36
ATOM     36  C   UNL A   1      42.677  24.520  26.389  1.00  0.00     0.060 A 
ATOM     37  C   UNL A   1      43.268  25.786  26.423  1.00  0.00     0.016 A 
ATOM     38  C   UNL A   1      41.567  24.242  27.184  1.00  0.00     0.016 A 
ATOM     39  C   UNL A   1      42.784  26.766  27.295  1.00  0.00     0.010 A 
ATOM     40  C   UNL A   1      41.075  25.228  28.048  1.00  0.00     0.010 A 
ATOM     41  C   UNL A   1      41.698  26.490  28.135  1.00  0.00    -0.014 A 
BRANCH  41  42
ATOM     42  C   UNL A   1      41.300  27.452  29.199  1.00  0.00     0.031 A 
ATOM     43  C   UNL A   1      42.110  27.510  30.470  1.00  0.00     0.074 A 
ATOM     44  C   UNL A   1      40.252  28.283  29.043  1.00  0.00     0.049 A 
ATOM     45  N   UNL A   1      41.870  28.149  31.585  1.00  0.00    -0.248 NA
ATOM     46  C   UNL A   1      43.360  26.736  30.474  1.00  0.00     0.031 C 
ATOM     47  C   UNL A   1      39.433  28.392  27.837  1.00  0.00     0.029 A 
ATOM     48  N   UNL A   1      39.690  29.189  29.911  1.00  0.00    -0.354 N 
ATOM     49  C   UNL A   1      42.926  27.836  32.437  1.00  0.00     0.074 A 
ATOM     50  C   UNL A   1      43.791  26.930  31.711  1.00  0.00     0.031 C 
ATOM     51  C   UNL A   1      38.470  29.308  28.044  1.00  0.00     0.029 A 
ATOM     52  C   UNL A   1      38.561  29.803  29.416  1.00  0.00     0.049 A 
ATOM     53  H   UNL A   1      40.061  29.383  30.803  1.00  0.00     0.167 HD
ATOM     54  C   UNL A   1      43.152  28.265  33.704  1.00  0.00     0.034 A 
ATOM     55  C   UNL A   1      37.675  30.628  30.015  1.00  0.00     0.034 A 
ATOM     56  C   UNL A   1      42.281  29.168  34.416  1.00  0.00     0.049 A 
ATOM     57  C   UNL A   1      37.886  31.008  31.462  1.00  0.00     0.074 A 
ATOM     58  C   UNL A   1      42.405  29.650  35.708  1.00  0.00     0.029 A 
ATOM     59  N   UNL A   1      41.116  29.723  33.899  1.00  0.00    -0.354 N 
ATOM     60  N   UNL A   1      38.858  30.663  32.276  1.00  0.00    -0.248 NA
ATOM     61  C   UNL A   1      36.876  31.883  32.073  1.00  0.00     0.031 C 
ATOM     62  C   UNL A   1      41.284  30.438  35.994  1.00  0.00     0.029 A 
ATOM     63  C   UNL A   1      40.500  30.518  34.856  1.00  0.00     0.049 A 
ATOM     64  H   UNL A   1      40.778  29.575  32.987  1.00  0.00     0.167 HD
ATOM     65  C   UNL A   1      38.587  31.303  33.485  1.00  0.00     0.074 A 
ATOM     66  C   UNL A   1      37.372  32.065  33.289  1.00  0.00     0.031 C 
ATOM     67  C   UNL A   1      39.282  31.268  34.651  1.00  0.00     0.034 A 
BRANCH  54  68
ATOM     68  C   UNL A   1      44.359  27.700  34.417  1.00  0.00     0.023 A 
ATOM     69  C   UNL A   1      44.272  26.565  35.242  1.00  0.00     0.031 A 
ATOM     70  C   UNL A   1      45.607  28.339  34.307  1.00  0.00     0.131 A 
ATOM     71  C   UNL A   1      45.389  26.152  35.983  1.00  0.00     0.055 A 
ATOM     72  C   UNL A   1      46.736  27.873  34.982  1.00  0.00     0.041 A 
ATOM     73  F   UNL A   1      45.747  29.441  33.553  1.00  0.00    -0.206 F 
ATOM     74  C   UNL A   1      46.628  26.783  35.840  1.00  0.00     0.022 A 
BRANCH  71  75
ATOM     75  S   UNL A   1      45.164  24.878  37.255  1.00  0.00     0.124 S 
ATOM     76  O   UNL A   1      45.334  23.652  36.478  1.00  0.00    -0.237 OA
ATOM     77  O   UNL A   1      46.229  25.187  38.202  1.00  0.00    -0.237 OA
ATOM     78  O   UNL A   1      43.807  25.115  37.742  1.00  0.00    -0.744 OA
ENDBRANCH  71  75
ENDBRANCH  54  68
BRANCH  55  79
ATOM     79  C   UNL A   1      36.460  31.097  29.282  1.00  0.00     0.023 A 
ATOM     80  C   UNL A   1      36.019  32.428  29.375  1.00  0.00     0.031 A 
ATOM     81  C   UNL A   1      35.683  30.199  28.528  1.00  0.00     0.131 A 
ATOM     82  C   UNL A   1      34.813  32.810  28.763  1.00  0.00     0.055 A 
ATOM     83  C   UNL A   1      34.517  30.597  27.874  1.00  0.00     0.041 A 
ATOM     84  F   UNL A   1      36.052  28.913  28.414  1.00  0.00    -0.206 F 
ATOM     85  C   UNL A   1      34.068  31.907  28.001  1.00  0.00     0.022 A 
BRANCH  82  86
ATOM     86  S   UNL A   1      34.183  34.487  29.051  1.00  0.00     0.124 S 
ATOM     87  O   UNL A   1      32.775  34.339  28.702  1.00  0.00    -0.237 OA
ATOM     88  O   UNL A   1      34.477  34.681  30.467  1.00  0.00    -0.237 OA
ATOM     89  O   UNL A   1      34.971  35.308  28.135  1.00  0.00    -0.744 OA
ENDBRANCH  82  86
ENDBRANCH  55  79
BRANCH  67  90
ATOM     90  C   UNL A   1      38.769  32.120  35.789  1.00  0.00     0.023 A 
ATOM     91  C   UNL A   1      38.204  31.555  36.946  1.00  0.00     0.031 A 
ATOM     92  C   UNL A   1      38.843  33.522  35.707  1.00  0.00     0.131 A 
ATOM     93  C   UNL A   1      37.689  32.389  37.951  1.00  0.00     0.055 A 
ATOM     94  C   UNL A   1      38.382  34.345  36.736  1.00  0.00     0.041 A 
ATOM     95  F   UNL A   1      39.369  34.116  34.624  1.00  0.00    -0.206 F 
ATOM     96  C   UNL A   1      37.789  33.779  37.860  1.00  0.00     0.022 A 
BRANCH  93  97
ATOM     97  S   UNL A   1      36.803  31.635  39.344  1.00  0.00     0.124 S 
ATOM     98  O   UNL A   1      35.886  32.701  39.733  1.00  0.00    -0.237 OA
ATOM     99  O   UNL A   1      36.193  30.462  38.726  1.00  0.00    -0.237 OA
ATOM    100  O   UNL A   1      37.862  31.346  40.308  1.00  0.00    -0.744 OA
ENDBRANCH  93  97
ENDBRANCH  67  90
ENDBRANCH  41  42
ENDBRANCH  34  36
ENDBRANCH  33  34
ENDBRANCH  32  33
ENDBRANCH  31  32
ENDBRANCH  30  31
ENDBRANCH   1  30
TORSDOF 23
ENDMDL
MODEL 3
REMARK VINA RESULT:      -9.9      2.928      9.614
REMARK SMILES C[NH2+][C@]1(C(=O)OCCOCCOCCOC(=O)c2ccc(-c3c4nc(c(-c5cc(S(=O)(=O)[O-])ccc5F)c5ccc([nH]5)c(-c5cc(S(=O)(=O)[O-])ccc5F)c5nc(c(-c6cc(S(=O)(=O)[O-])ccc6F)c6ccc3[nH]6)C=C5)C=C4)cc2)CCC[C@H]([N@H+]2CCC[C@@H]2C2CCCC2)C1
REMARK SMILES IDX 11 1 10 2 9 3 8 4 7 5 6 6 4 7 5 8 3 9 81 10 95 11 82 12
REMARK SMILES IDX 84 13 83 14 2 15 1 16 85 19 86 20 89 21 87 23 88 24 90 25
REMARK SMILES IDX 91 26 94 27 92 28 93 29 12 30 13 31 14 32 15 33 16 34 17 35
REMARK SMILES IDX 18 36 19 37 80 38 20 39 79 40 21 41 22 42 23 43 73 44 24 45
REMARK SMILES IDX 78 46 72 47 74 48 25 49 77 50 71 51 70 52 26 54 58 55 38 56
REMARK SMILES IDX 57 57 39 58 42 59 56 60 75 61 40 62 41 63 55 65 76 66 43 67
REMARK SMILES IDX 27 68 28 69 36 70 29 71 35 72 37 73 34 74 30 75 31 76 32 77
REMARK SMILES IDX 33 78 59 79 60 80 68 81 61 82 67 83 69 84 66 85 62 86 63 87
REMARK SMILES IDX 64 88 65 89 44 90 45 91 53 92 46 93 52 94 54 95 51 96 47 97
REMARK SMILES IDX 48 98 49 99 50 100
REMARK H PARENT 2 17 2 18 85 22 74 53 42 64
REMARK Flexibility Score: inf
ROOT
ATOM      1  C   UNL A   1      31.375  30.967  25.817  1.00  0.00     0.188 C 
ENDROOT
BRANCH   1   2
ATOM      2  C   UNL A   1      31.435  29.675  24.978  1.00  0.00     0.188 C 
BRANCH   2   3
ATOM      3  O   UNL A   1      30.559  29.551  23.857  1.00  0.00    -0.376 OA
BRANCH   3   4
ATOM      4  C   UNL A   1      30.530  28.310  23.159  1.00  0.00     0.202 C 
BRANCH   4   5
ATOM      5  C   UNL A   1      30.486  27.043  24.031  1.00  0.00     0.261 C 
BRANCH   5   6
ATOM      6  O   UNL A   1      31.397  26.065  23.511  1.00  0.00    -0.459 OA
BRANCH   6   7
ATOM      7  C   UNL A   1      31.015  24.753  23.359  1.00  0.00     0.368 C 
ATOM      8  O   UNL A   1      29.882  24.386  23.096  1.00  0.00    -0.245 OA
BRANCH   7   9
ATOM      9  C   UNL A   1      32.317  23.846  23.571  1.00  0.00     0.199 C 
ATOM     10  C   UNL A   1      33.439  24.965  23.651  1.00  0.00     0.081 C 
ATOM     11  C   UNL A   1      32.268  23.014  24.855  1.00  0.00     0.146 C 
ATOM     12  C   UNL A   1      34.452  24.980  24.799  1.00  0.00     0.013 C 
ATOM     13  C   UNL A   1      33.611  22.762  25.590  1.00  0.00     0.191 C 
ATOM     14  C   UNL A   1      34.093  24.155  26.011  1.00  0.00     0.065 C 
BRANCH   9  15
ATOM     15  N   UNL A   1      32.398  23.010  22.321  1.00  0.00    -0.334 N 
ATOM     16  C   UNL A   1      33.033  23.507  21.103  1.00  0.00     0.331 C 
ATOM     17  H   UNL A   1      32.897  22.158  22.577  1.00  0.00     0.347 HD
ATOM     18  H   UNL A   1      31.418  22.943  22.042  1.00  0.00     0.347 HD
ENDBRANCH   9  15
BRANCH  13  19
ATOM     19  N   UNL A   1      34.824  21.994  25.204  1.00  0.00    -0.330 N 
ATOM     20  C   UNL A   1      36.034  22.670  25.709  1.00  0.00     0.262 C 
ATOM     21  C   UNL A   1      35.111  20.548  25.363  1.00  0.00     0.187 C 
ATOM     22  H   UNL A   1      34.553  21.993  24.221  1.00  0.00     0.348 HD
ATOM     23  C   UNL A   1      37.140  21.872  25.068  1.00  0.00     0.067 C 
ATOM     24  C   UNL A   1      36.645  20.445  25.169  1.00  0.00     0.071 C 
BRANCH  21  25
ATOM     25  C   UNL A   1      34.383  19.500  24.491  1.00  0.00     0.047 C 
ATOM     26  C   UNL A   1      34.873  18.047  24.438  1.00  0.00     0.010 C 
ATOM     27  C   UNL A   1      32.911  19.247  24.863  1.00  0.00     0.010 C 
ATOM     28  C   UNL A   1      33.809  17.399  23.550  1.00  0.00     0.001 C 
ATOM     29  C   UNL A   1      32.498  18.050  23.995  1.00  0.00     0.001 C 
ENDBRANCH  21  25
ENDBRANCH  13  19
ENDBRANCH   7   9
ENDBRANCH   6   7
ENDBRANCH   5   6
ENDBRANCH   4   5
ENDBRANCH   3   4
ENDBRANCH   2   3
ENDBRANCH   1   2
BRANCH   1  30
ATOM     30  O   UNL A   1      31.925  30.799  27.120  1.00  0.00    -0.376 OA
BRANCH  30  31
ATOM     31  C   UNL A   1      32.748  29.650  27.273  1.00  0.00     0.202 C 
BRANCH  31  32
ATOM     32  C   UNL A   1      34.237  30.003  27.216  1.00  0.00     0.261 C 
BRANCH  32  33
ATOM     33  O   UNL A   1      34.528  31.383  27.510  1.00  0.00    -0.460 OA
BRANCH  33  34
ATOM     34  C   UNL A   1      34.934  31.649  28.772  1.00  0.00     0.338 C 
ATOM     35  O   UNL A   1      34.318  32.259  29.623  1.00  0.00    -0.246 OA
BRANCH  34  36
ATOM     36  C   UNL A   1      36.212  30.946  29.006  1.00  0.00     0.060 A 
ATOM     37  C   UNL A   1      36.227  29.849  29.871  1.00  0.00     0.016 A 
ATOM     38  C   UNL A   1      37.397  31.399  28.427  1.00  0.00     0.016 A 
ATOM     39  C   UNL A   1      37.435  29.232  30.206  1.00  0.00     0.010 A 
ATOM     40  C   UNL A   1      38.606  30.773  28.754  1.00  0.00     0.010 A 
ATOM     41  C   UNL A   1      38.641  29.702  29.670  1.00  0.00    -0.014 A 
BRANCH  41  42
ATOM     42  C   UNL A   1      39.945  29.182  30.167  1.00  0.00     0.031 A 
ATOM     43  C   UNL A   1      40.582  28.015  29.456  1.00  0.00     0.074 A 
ATOM     44  C   UNL A   1      40.574  29.744  31.217  1.00  0.00     0.049 A 
ATOM     45  N   UNL A   1      41.625  27.301  29.793  1.00  0.00    -0.248 NA
ATOM     46  C   UNL A   1      39.949  27.603  28.195  1.00  0.00     0.031 C 
ATOM     47  C   UNL A   1      40.115  30.925  31.945  1.00  0.00     0.029 A 
ATOM     48  N   UNL A   1      41.736  29.386  31.861  1.00  0.00    -0.354 N 
ATOM     49  C   UNL A   1      41.761  26.337  28.798  1.00  0.00     0.074 A 
ATOM     50  C   UNL A   1      40.676  26.548  27.862  1.00  0.00     0.031 C 
ATOM     51  C   UNL A   1      40.981  31.190  32.939  1.00  0.00     0.029 A 
ATOM     52  C   UNL A   1      42.020  30.162  32.962  1.00  0.00     0.049 A 
ATOM     53  H   UNL A   1      42.311  28.644  31.562  1.00  0.00     0.167 HD
ATOM     54  C   UNL A   1      42.702  25.367  28.676  1.00  0.00     0.034 A 
ATOM     55  C   UNL A   1      42.975  30.031  33.907  1.00  0.00     0.034 A 
ATOM     56  C   UNL A   1      43.777  25.166  29.617  1.00  0.00     0.049 A 
ATOM     57  C   UNL A   1      43.949  28.879  33.813  1.00  0.00     0.074 A 
ATOM     58  C   UNL A   1      44.772  24.203  29.600  1.00  0.00     0.029 A 
ATOM     59  N   UNL A   1      43.998  25.940  30.750  1.00  0.00    -0.354 N 
ATOM     60  N   UNL A   1      44.037  27.940  32.898  1.00  0.00    -0.248 NA
ATOM     61  C   UNL A   1      44.950  28.766  34.884  1.00  0.00     0.031 C 
ATOM     62  C   UNL A   1      45.549  24.351  30.755  1.00  0.00     0.029 A 
ATOM     63  C   UNL A   1      45.093  25.458  31.452  1.00  0.00     0.049 A 
ATOM     64  H   UNL A   1      43.457  26.717  31.016  1.00  0.00     0.167 HD
ATOM     65  C   UNL A   1      45.118  27.143  33.272  1.00  0.00     0.074 A 
ATOM     66  C   UNL A   1      45.660  27.720  34.485  1.00  0.00     0.031 C 
ATOM     67  C   UNL A   1      45.621  26.037  32.666  1.00  0.00     0.034 A 
BRANCH  54  68
ATOM     68  C   UNL A   1      42.559  24.410  27.516  1.00  0.00     0.023 A 
ATOM     69  C   UNL A   1      41.853  23.200  27.631  1.00  0.00     0.031 A 
ATOM     70  C   UNL A   1      43.182  24.692  26.286  1.00  0.00     0.131 A 
ATOM     71  C   UNL A   1      41.853  22.285  26.567  1.00  0.00     0.055 A 
ATOM     72  C   UNL A   1      43.108  23.815  25.203  1.00  0.00     0.041 A 
ATOM     73  F   UNL A   1      43.890  25.821  26.123  1.00  0.00    -0.206 F 
ATOM     74  C   UNL A   1      42.456  22.595  25.345  1.00  0.00     0.022 A 
BRANCH  71  75
ATOM     75  S   UNL A   1      41.192  20.619  26.855  1.00  0.00     0.124 S 
ATOM     76  O   UNL A   1      40.790  20.700  28.257  1.00  0.00    -0.237 OA
ATOM     77  O   UNL A   1      40.108  20.539  25.882  1.00  0.00    -0.237 OA
ATOM     78  O   UNL A   1      42.334  19.747  26.591  1.00  0.00    -0.744 OA
ENDBRANCH  71  75
ENDBRANCH  54  68
BRANCH  55  79
ATOM     79  C   UNL A   1      43.024  30.965  35.072  1.00  0.00     0.023 A 
ATOM     80  C   UNL A   1      43.808  32.131  35.044  1.00  0.00     0.031 A 
ATOM     81  C   UNL A   1      42.335  30.666  36.262  1.00  0.00     0.131 A 
ATOM     82  C   UNL A   1      43.917  32.929  36.195  1.00  0.00     0.055 A 
ATOM     83  C   UNL A   1      42.400  31.494  37.384  1.00  0.00     0.041 A 
ATOM     84  F   UNL A   1      41.579  29.560  36.349  1.00  0.00    -0.206 F 
ATOM     85  C   UNL A   1      43.207  32.627  37.358  1.00  0.00     0.022 A 
BRANCH  82  86
ATOM     86  S   UNL A   1      45.075  34.326  36.178  1.00  0.00     0.124 S 
ATOM     87  O   UNL A   1      44.270  35.372  35.556  1.00  0.00    -0.237 OA
ATOM     88  O   UNL A   1      45.363  34.497  37.598  1.00  0.00    -0.237 OA
ATOM     89  O   UNL A   1      46.190  33.834  35.372  1.00  0.00    -0.744 OA
ENDBRANCH  82  86
ENDBRANCH  55  79
BRANCH  67  90
ATOM     90  C   UNL A   1      46.851  25.410  33.281  1.00  0.00     0.023 A 
ATOM     91  C   UNL A   1      46.764  24.385  34.239  1.00  0.00     0.031 A 
ATOM     92  C   UNL A   1      48.131  25.854  32.902  1.00  0.00     0.131 A 
ATOM     93  C   UNL A   1      47.934  23.874  34.824  1.00  0.00     0.055 A 
ATOM     94  C   UNL A   1      49.292  25.301  33.444  1.00  0.00     0.041 A 
ATOM     95  F   UNL A   1      48.274  26.832  31.993  1.00  0.00    -0.206 F 
ATOM     96  C   UNL A   1      49.197  24.314  34.420  1.00  0.00     0.022 A 
BRANCH  93  97
ATOM     97  S   UNL A   1      47.783  22.685  36.187  1.00  0.00     0.124 S 
ATOM     98  O   UNL A   1      48.265  23.464  37.323  1.00  0.00    -0.237 OA
ATOM     99  O   UNL A   1      46.355  22.384  36.180  1.00  0.00    -0.237 OA
ATOM    100  O   UNL A   1      48.650  21.583  35.779  1.00  0.00    -0.744 OA
ENDBRANCH  93  97
ENDBRANCH  67  90
ENDBRANCH  41  42
ENDBRANCH  34  36
ENDBRANCH  33  34
ENDBRANCH  32  33
ENDBRANCH  31  32
ENDBRANCH  30  31
ENDBRANCH   1  30
TORSDOF 23
ENDMDL
