MODEL 1
REMARK VINA RESULT:      -8.4      0.000      0.000
REMARK SMILES CC(C)[C@H](C[NH+](C)C)NC(=O)c1csc(/C=C/C(=O)OCCOCCOCCOC(=O)c2ccc(-c3c4nc(c(-c5cc(S(=O)(=O)[O-])ccc5F)c5ccc([nH]5)c(-c5cc(S(=O)(=O)[O-])ccc5F)c5nc(c(-c6cc(S(=O)(=O)[O-])ccc6F)c6ccc3[nH]6)C=C5)C=C4)cc2)c1
REMARK SMILES IDX 24 1 23 2 22 3 21 4 20 5 18 6 19 7 17 8 16 9 15 10 12 11
REMARK SMILES IDX 13 12 95 13 14 14 10 15 9 16 11 18 4 19 2 20 1 21 3 22 5 23
REMARK SMILES IDX 6 24 7 25 8 26 25 28 26 29 27 30 28 31 29 32 30 33 31 34
REMARK SMILES IDX 32 35 33 36 94 37 34 38 93 39 35 40 36 41 37 42 87 43 38 44
REMARK SMILES IDX 92 45 86 46 88 47 39 48 91 49 85 50 84 51 40 53 72 54 52 55
REMARK SMILES IDX 71 56 53 57 56 58 70 59 89 60 54 61 55 62 69 64 90 65 57 66
REMARK SMILES IDX 41 67 42 68 50 69 43 70 49 71 51 72 48 73 44 74 45 75 46 76
REMARK SMILES IDX 47 77 73 78 74 79 82 80 75 81 81 82 83 83 80 84 76 85 77 86
REMARK SMILES IDX 78 87 79 88 58 89 59 90 67 91 60 92 66 93 68 94 65 95 61 96
REMARK SMILES IDX 62 97 63 98 64 99
REMARK H PARENT 9 17 6 27 88 52 56 63
REMARK Flexibility Score: inf
ROOT
ATOM      1  C   UNL A   1      34.154  31.787  28.222  1.00  0.00     0.188 C 
ENDROOT
BRANCH   1   2
ATOM      2  O   UNL A   1      33.076  31.431  27.362  1.00  0.00    -0.376 OA
BRANCH   2   3
ATOM      3  C   UNL A   1      33.141  30.238  26.594  1.00  0.00     0.202 C 
BRANCH   3   4
ATOM      4  C   UNL A   1      32.138  29.988  25.455  1.00  0.00     0.261 C 
BRANCH   4   5
ATOM      5  O   UNL A   1      31.153  28.972  25.703  1.00  0.00    -0.460 OA
BRANCH   5   6
ATOM      6  C   UNL A   1      31.578  27.930  26.457  1.00  0.00     0.330 C 
ATOM      7  O   UNL A   1      31.472  27.823  27.670  1.00  0.00    -0.247 OA
BRANCH   6   8
ATOM      8  C   UNL A   1      32.103  26.818  25.639  1.00  0.00     0.095 C 
ATOM      9  C   UNL A   1      33.212  26.845  24.883  1.00  0.00     0.026 C 
BRANCH   9  10
ATOM     10  C   UNL A   1      33.653  25.701  24.144  1.00  0.00     0.028 A 
ATOM     11  C   UNL A   1      34.803  23.712  23.554  1.00  0.00     0.051 A 
ATOM     12  C   UNL A   1      33.868  23.814  22.547  1.00  0.00     0.079 A 
ATOM     13  C   UNL A   1      34.667  24.816  24.470  1.00  0.00     0.033 A 
ATOM     14  S   UNL A   1      32.954  25.246  22.634  1.00  0.00    -0.144 S 
BRANCH  11  15
ATOM     15  C   UNL A   1      35.714  22.593  23.744  1.00  0.00     0.252 C 
ATOM     16  N   UNL A   1      35.300  21.470  24.405  1.00  0.00    -0.343 N 
ATOM     17  H   UNL A   1      36.027  20.841  24.622  1.00  0.00     0.164 HD
ATOM     18  O   UNL A   1      36.846  22.608  23.261  1.00  0.00    -0.269 OA
BRANCH  16  19
ATOM     19  C   UNL A   1      33.969  21.021  24.853  1.00  0.00     0.139 C 
BRANCH  19  20
ATOM     20  C   UNL A   1      33.551  21.921  26.066  1.00  0.00     0.011 C 
ATOM     21  C   UNL A   1      32.055  22.268  25.961  1.00  0.00     0.010 C 
ATOM     22  C   UNL A   1      33.826  21.370  27.463  1.00  0.00     0.010 C 
ENDBRANCH  19  20
BRANCH  19  23
ATOM     23  C   UNL A   1      33.906  19.462  25.042  1.00  0.00     0.287 C 
BRANCH  23  24
ATOM     24  N   UNL A   1      32.609  18.777  24.795  1.00  0.00    -0.338 N 
ATOM     25  C   UNL A   1      32.475  18.495  23.356  1.00  0.00     0.332 C 
ATOM     26  C   UNL A   1      32.565  17.481  25.495  1.00  0.00     0.332 C 
ATOM     27  H   UNL A   1      31.862  19.384  25.129  1.00  0.00     0.347 HD
ENDBRANCH  23  24
ENDBRANCH  19  23
ENDBRANCH  16  19
ENDBRANCH  11  15
ENDBRANCH   9  10
ENDBRANCH   6   8
ENDBRANCH   5   6
ENDBRANCH   4   5
ENDBRANCH   3   4
ENDBRANCH   2   3
ENDBRANCH   1   2
BRANCH   1  28
ATOM     28  C   UNL A   1      34.727  33.220  28.189  1.00  0.00     0.188 C 
BRANCH  28  29
ATOM     29  O   UNL A   1      35.467  33.566  29.344  1.00  0.00    -0.376 OA
BRANCH  29  30
ATOM     30  C   UNL A   1      34.731  33.823  30.531  1.00  0.00     0.202 C 
BRANCH  30  31
ATOM     31  C   UNL A   1      34.691  32.784  31.670  1.00  0.00     0.261 C 
BRANCH  31  32
ATOM     32  O   UNL A   1      35.776  31.847  31.750  1.00  0.00    -0.460 OA
BRANCH  32  33
ATOM     33  C   UNL A   1      36.656  32.018  32.767  1.00  0.00     0.338 C 
ATOM     34  O   UNL A   1      36.389  32.086  33.949  1.00  0.00    -0.246 OA
BRANCH  33  35
ATOM     35  C   UNL A   1      38.029  31.921  32.217  1.00  0.00     0.060 A 
ATOM     36  C   UNL A   1      38.191  31.908  30.827  1.00  0.00     0.016 A 
ATOM     37  C   UNL A   1      39.142  31.809  33.057  1.00  0.00     0.016 A 
ATOM     38  C   UNL A   1      39.462  31.742  30.273  1.00  0.00     0.010 A 
ATOM     39  C   UNL A   1      40.414  31.630  32.498  1.00  0.00     0.010 A 
ATOM     40  C   UNL A   1      40.577  31.559  31.102  1.00  0.00    -0.014 A 
BRANCH  40  41
ATOM     41  C   UNL A   1      41.867  31.135  30.492  1.00  0.00     0.031 A 
ATOM     42  C   UNL A   1      42.920  32.176  30.217  1.00  0.00     0.074 A 
ATOM     43  C   UNL A   1      42.130  29.836  30.258  1.00  0.00     0.049 A 
ATOM     44  N   UNL A   1      44.133  32.032  29.749  1.00  0.00    -0.248 NA
ATOM     45  C   UNL A   1      42.553  33.569  30.514  1.00  0.00     0.031 C 
ATOM     46  C   UNL A   1      41.207  28.730  30.513  1.00  0.00     0.029 A 
ATOM     47  N   UNL A   1      43.256  29.224  29.764  1.00  0.00    -0.354 N 
ATOM     48  C   UNL A   1      44.677  33.313  29.698  1.00  0.00     0.074 A 
ATOM     49  C   UNL A   1      43.642  34.223  30.138  1.00  0.00     0.031 C 
ATOM     50  C   UNL A   1      41.808  27.574  30.181  1.00  0.00     0.029 A 
ATOM     51  C   UNL A   1      43.144  27.857  29.660  1.00  0.00     0.049 A 
ATOM     52  H   UNL A   1      44.068  29.719  29.507  1.00  0.00     0.167 HD
ATOM     53  C   UNL A   1      45.928  33.693  29.333  1.00  0.00     0.034 A 
ATOM     54  C   UNL A   1      44.015  26.940  29.188  1.00  0.00     0.034 A 
ATOM     55  C   UNL A   1      46.947  32.776  28.878  1.00  0.00     0.049 A 
ATOM     56  C   UNL A   1      45.374  27.397  28.714  1.00  0.00     0.074 A 
ATOM     57  C   UNL A   1      48.247  33.054  28.493  1.00  0.00     0.029 A 
ATOM     58  N   UNL A   1      46.779  31.404  28.732  1.00  0.00    -0.354 N 
ATOM     59  N   UNL A   1      45.883  28.609  28.692  1.00  0.00    -0.248 NA
ATOM     60  C   UNL A   1      46.284  26.356  28.219  1.00  0.00     0.031 C 
ATOM     61  C   UNL A   1      48.835  31.869  28.037  1.00  0.00     0.029 A 
ATOM     62  C   UNL A   1      47.938  30.830  28.229  1.00  0.00     0.049 A 
ATOM     63  H   UNL A   1      45.956  30.911  28.953  1.00  0.00     0.167 HD
ATOM     64  C   UNL A   1      47.185  28.466  28.213  1.00  0.00     0.074 A 
ATOM     65  C   UNL A   1      47.387  27.051  27.986  1.00  0.00     0.031 C 
ATOM     66  C   UNL A   1      48.128  29.418  27.986  1.00  0.00     0.034 A 
BRANCH  53  67
ATOM     67  C   UNL A   1      46.239  35.172  29.363  1.00  0.00     0.023 A 
ATOM     68  C   UNL A   1      45.990  36.007  28.258  1.00  0.00     0.031 A 
ATOM     69  C   UNL A   1      46.820  35.753  30.505  1.00  0.00     0.131 A 
ATOM     70  C   UNL A   1      46.385  37.353  28.292  1.00  0.00     0.055 A 
ATOM     71  C   UNL A   1      47.132  37.112  30.564  1.00  0.00     0.041 A 
ATOM     72  F   UNL A   1      47.105  35.004  31.582  1.00  0.00    -0.206 F 
ATOM     73  C   UNL A   1      46.930  37.918  29.448  1.00  0.00     0.022 A 
BRANCH  70  74
ATOM     74  S   UNL A   1      46.316  38.318  26.758  1.00  0.00     0.124 S 
ATOM     75  O   UNL A   1      47.135  39.478  27.101  1.00  0.00    -0.237 OA
ATOM     76  O   UNL A   1      46.890  37.399  25.781  1.00  0.00    -0.237 OA
ATOM     77  O   UNL A   1      44.892  38.597  26.591  1.00  0.00    -0.744 OA
ENDBRANCH  70  74
ENDBRANCH  53  67
BRANCH  54  78
ATOM     78  C   UNL A   1      43.631  25.499  29.110  1.00  0.00     0.023 A 
ATOM     79  C   UNL A   1      42.787  25.020  28.094  1.00  0.00     0.031 A 
ATOM     80  C   UNL A   1      44.051  24.590  30.097  1.00  0.00     0.131 A 
ATOM     81  C   UNL A   1      42.349  23.687  28.118  1.00  0.00     0.055 A 
ATOM     82  C   UNL A   1      43.662  23.248  30.081  1.00  0.00     0.041 A 
ATOM     83  F   UNL A   1      44.852  24.994  31.096  1.00  0.00    -0.206 F 
ATOM     84  C   UNL A   1      42.794  22.793  29.095  1.00  0.00     0.022 A 
BRANCH  81  85
ATOM     85  S   UNL A   1      41.107  23.157  26.904  1.00  0.00     0.124 S 
ATOM     86  O   UNL A   1      41.944  22.618  25.839  1.00  0.00    -0.237 OA
ATOM     87  O   UNL A   1      40.333  22.184  27.668  1.00  0.00    -0.237 OA
ATOM     88  O   UNL A   1      40.401  24.396  26.578  1.00  0.00    -0.744 OA
ENDBRANCH  81  85
ENDBRANCH  54  78
BRANCH  66  89
ATOM     89  C   UNL A   1      49.483  28.941  27.509  1.00  0.00     0.023 A 
ATOM     90  C   UNL A   1      49.804  28.864  26.141  1.00  0.00     0.031 A 
ATOM     91  C   UNL A   1      50.452  28.512  28.435  1.00  0.00     0.131 A 
ATOM     92  C   UNL A   1      51.019  28.286  25.738  1.00  0.00     0.055 A 
ATOM     93  C   UNL A   1      51.691  28.015  28.029  1.00  0.00     0.041 A 
ATOM     94  F   UNL A   1      50.205  28.558  29.754  1.00  0.00    -0.206 F 
ATOM     95  C   UNL A   1      51.972  27.878  26.674  1.00  0.00     0.022 A 
BRANCH  92  96
ATOM     96  S   UNL A   1      51.271  27.936  23.975  1.00  0.00     0.124 S 
ATOM     97  O   UNL A   1      51.949  26.645  24.017  1.00  0.00    -0.237 OA
ATOM     98  O   UNL A   1      49.904  27.923  23.462  1.00  0.00    -0.237 OA
ATOM     99  O   UNL A   1      52.094  29.054  23.519  1.00  0.00    -0.744 OA
ENDBRANCH  92  96
ENDBRANCH  66  89
ENDBRANCH  40  41
ENDBRANCH  33  35
ENDBRANCH  32  33
ENDBRANCH  31  32
ENDBRANCH  30  31
ENDBRANCH  29  30
ENDBRANCH  28  29
ENDBRANCH   1  28
TORSDOF 26
ENDMDL
MODEL 2
REMARK VINA RESULT:      -8.2      6.767     11.513
REMARK SMILES CC(C)[C@H](C[NH+](C)C)NC(=O)c1csc(/C=C/C(=O)OCCOCCOCCOC(=O)c2ccc(-c3c4nc(c(-c5cc(S(=O)(=O)[O-])ccc5F)c5ccc([nH]5)c(-c5cc(S(=O)(=O)[O-])ccc5F)c5nc(c(-c6cc(S(=O)(=O)[O-])ccc6F)c6ccc3[nH]6)C=C5)C=C4)cc2)c1
REMARK SMILES IDX 24 1 23 2 22 3 21 4 20 5 18 6 19 7 17 8 16 9 15 10 12 11
REMARK SMILES IDX 13 12 95 13 14 14 10 15 9 16 11 18 4 19 2 20 1 21 3 22 5 23
REMARK SMILES IDX 6 24 7 25 8 26 25 28 26 29 27 30 28 31 29 32 30 33 31 34
REMARK SMILES IDX 32 35 33 36 94 37 34 38 93 39 35 40 36 41 37 42 87 43 38 44
REMARK SMILES IDX 92 45 86 46 88 47 39 48 91 49 85 50 84 51 40 53 72 54 52 55
REMARK SMILES IDX 71 56 53 57 56 58 70 59 89 60 54 61 55 62 69 64 90 65 57 66
REMARK SMILES IDX 41 67 42 68 50 69 43 70 49 71 51 72 48 73 44 74 45 75 46 76
REMARK SMILES IDX 47 77 73 78 74 79 82 80 75 81 81 82 83 83 80 84 76 85 77 86
REMARK SMILES IDX 78 87 79 88 58 89 59 90 67 91 60 92 66 93 68 94 65 95 61 96
REMARK SMILES IDX 62 97 63 98 64 99
REMARK H PARENT 9 17 6 27 88 52 56 63
REMARK Flexibility Score: inf
ROOT
ATOM      1  C   UNL A   1      34.899  33.633  32.922  1.00  0.00     0.188 C 
ENDROOT
BRANCH   1   2
ATOM      2  O   UNL A   1      35.474  33.949  34.185  1.00  0.00    -0.376 OA
BRANCH   2   3
ATOM      3  C   UNL A   1      36.649  33.280  34.621  1.00  0.00     0.202 C 
BRANCH   3   4
ATOM      4  C   UNL A   1      37.324  33.669  35.947  1.00  0.00     0.261 C 
BRANCH   4   5
ATOM      5  O   UNL A   1      36.737  33.111  37.134  1.00  0.00    -0.460 OA
BRANCH   5   6
ATOM      6  C   UNL A   1      37.511  32.213  37.789  1.00  0.00     0.330 C 
ATOM      7  O   UNL A   1      38.400  31.531  37.301  1.00  0.00    -0.247 OA
BRANCH   6   8
ATOM      8  C   UNL A   1      37.262  32.208  39.244  1.00  0.00     0.095 C 
ATOM      9  C   UNL A   1      36.862  31.157  39.977  1.00  0.00     0.026 C 
BRANCH   9  10
ATOM     10  C   UNL A   1      36.673  31.248  41.393  1.00  0.00     0.028 A 
ATOM     11  C   UNL A   1      35.626  31.386  43.517  1.00  0.00     0.051 A 
ATOM     12  C   UNL A   1      36.946  31.186  43.858  1.00  0.00     0.079 A 
ATOM     13  C   UNL A   1      35.485  31.423  42.084  1.00  0.00     0.033 A 
ATOM     14  S   UNL A   1      37.985  31.173  42.511  1.00  0.00    -0.144 S 
BRANCH  11  15
ATOM     15  C   UNL A   1      34.513  31.428  44.454  1.00  0.00     0.252 C 
ATOM     16  N   UNL A   1      33.931  32.621  44.781  1.00  0.00    -0.343 N 
ATOM     17  H   UNL A   1      33.300  32.566  45.536  1.00  0.00     0.164 HD
ATOM     18  O   UNL A   1      34.035  30.393  44.918  1.00  0.00    -0.269 OA
BRANCH  16  19
ATOM     19  C   UNL A   1      34.069  33.976  44.216  1.00  0.00     0.139 C 
BRANCH  19  20
ATOM     20  C   UNL A   1      34.955  34.811  45.201  1.00  0.00     0.011 C 
ATOM     21  C   UNL A   1      34.072  35.408  46.311  1.00  0.00     0.010 C 
ATOM     22  C   UNL A   1      36.133  34.090  45.853  1.00  0.00     0.010 C 
ENDBRANCH  19  20
BRANCH  19  23
ATOM     23  C   UNL A   1      32.682  34.579  43.787  1.00  0.00     0.287 C 
BRANCH  23  24
ATOM     24  N   UNL A   1      32.531  35.069  42.391  1.00  0.00    -0.338 N 
ATOM     25  C   UNL A   1      33.232  34.153  41.476  1.00  0.00     0.332 C 
ATOM     26  C   UNL A   1      31.112  35.076  41.994  1.00  0.00     0.332 C 
ATOM     27  H   UNL A   1      32.916  36.013  42.344  1.00  0.00     0.347 HD
ENDBRANCH  23  24
ENDBRANCH  19  23
ENDBRANCH  16  19
ENDBRANCH  11  15
ENDBRANCH   9  10
ENDBRANCH   6   8
ENDBRANCH   5   6
ENDBRANCH   4   5
ENDBRANCH   3   4
ENDBRANCH   2   3
ENDBRANCH   1   2
BRANCH   1  28
ATOM     28  C   UNL A   1      34.304  34.754  32.042  1.00  0.00     0.188 C 
BRANCH  28  29
ATOM     29  O   UNL A   1      33.619  34.281  30.900  1.00  0.00    -0.376 OA
BRANCH  29  30
ATOM     30  C   UNL A   1      34.350  33.461  30.000  1.00  0.00     0.202 C 
BRANCH  30  31
ATOM     31  C   UNL A   1      34.180  33.623  28.476  1.00  0.00     0.261 C 
BRANCH  31  32
ATOM     32  O   UNL A   1      34.937  32.745  27.628  1.00  0.00    -0.460 OA
BRANCH  32  33
ATOM     33  C   UNL A   1      34.789  31.415  27.841  1.00  0.00     0.338 C 
ATOM     34  O   UNL A   1      33.902  30.708  27.408  1.00  0.00    -0.246 OA
BRANCH  33  35
ATOM     35  C   UNL A   1      35.998  30.917  28.539  1.00  0.00     0.060 A 
ATOM     36  C   UNL A   1      37.206  31.596  28.348  1.00  0.00     0.016 A 
ATOM     37  C   UNL A   1      35.952  29.775  29.345  1.00  0.00     0.016 A 
ATOM     38  C   UNL A   1      38.380  31.112  28.928  1.00  0.00     0.010 A 
ATOM     39  C   UNL A   1      37.134  29.285  29.917  1.00  0.00     0.010 A 
ATOM     40  C   UNL A   1      38.362  29.930  29.682  1.00  0.00    -0.014 A 
BRANCH  40  41
ATOM     41  C   UNL A   1      39.655  29.305  30.073  1.00  0.00     0.031 A 
ATOM     42  C   UNL A   1      40.368  29.813  31.300  1.00  0.00     0.074 A 
ATOM     43  C   UNL A   1      40.150  28.253  29.396  1.00  0.00     0.049 A 
ATOM     44  N   UNL A   1      41.469  29.385  31.862  1.00  0.00    -0.248 NA
ATOM     45  C   UNL A   1      39.750  30.958  31.986  1.00  0.00     0.031 C 
ATOM     46  C   UNL A   1      39.537  27.648  28.214  1.00  0.00     0.029 A 
ATOM     47  N   UNL A   1      41.277  27.498  29.613  1.00  0.00    -0.354 N 
ATOM     48  C   UNL A   1      41.676  30.203  32.969  1.00  0.00     0.074 A 
ATOM     49  C   UNL A   1      40.610  31.182  32.968  1.00  0.00     0.031 C 
ATOM     50  C   UNL A   1      40.291  26.609  27.814  1.00  0.00     0.029 A 
ATOM     51  C   UNL A   1      41.456  26.493  28.689  1.00  0.00     0.049 A 
ATOM     52  H   UNL A   1      41.898  27.661  30.358  1.00  0.00     0.167 HD
ATOM     53  C   UNL A   1      42.654  30.135  33.907  1.00  0.00     0.034 A 
ATOM     54  C   UNL A   1      42.452  25.592  28.559  1.00  0.00     0.034 A 
ATOM     55  C   UNL A   1      43.723  29.163  33.885  1.00  0.00     0.049 A 
ATOM     56  C   UNL A   1      43.572  25.586  29.572  1.00  0.00     0.074 A 
ATOM     57  C   UNL A   1      44.758  29.002  34.790  1.00  0.00     0.029 A 
ATOM     58  N   UNL A   1      43.904  28.197  32.904  1.00  0.00    -0.354 N 
ATOM     59  N   UNL A   1      43.744  26.352  30.626  1.00  0.00    -0.248 NA
ATOM     60  C   UNL A   1      44.624  24.577  29.386  1.00  0.00     0.031 C 
ATOM     61  C   UNL A   1      45.608  27.997  34.312  1.00  0.00     0.029 A 
ATOM     62  C   UNL A   1      45.053  27.462  33.161  1.00  0.00     0.049 A 
ATOM     63  H   UNL A   1      43.304  28.055  32.136  1.00  0.00     0.167 HD
ATOM     64  C   UNL A   1      44.905  25.892  31.246  1.00  0.00     0.074 A 
ATOM     65  C   UNL A   1      45.373  24.768  30.461  1.00  0.00     0.031 C 
ATOM     66  C   UNL A   1      45.525  26.353  32.364  1.00  0.00     0.034 A 
BRANCH  53  67
ATOM     67  C   UNL A   1      42.637  31.177  35.003  1.00  0.00     0.023 A 
ATOM     68  C   UNL A   1      43.352  32.383  34.893  1.00  0.00     0.031 A 
ATOM     69  C   UNL A   1      41.916  30.948  36.188  1.00  0.00     0.131 A 
ATOM     70  C   UNL A   1      43.389  33.278  35.973  1.00  0.00     0.055 A 
ATOM     71  C   UNL A   1      41.888  31.881  37.226  1.00  0.00     0.041 A 
ATOM     72  F   UNL A   1      41.234  29.805  36.364  1.00  0.00    -0.206 F 
ATOM     73  C   UNL A   1      42.640  33.048  37.130  1.00  0.00     0.022 A 
BRANCH  70  74
ATOM     74  S   UNL A   1      44.548  34.672  35.908  1.00  0.00     0.124 S 
ATOM     75  O   UNL A   1      45.064  34.564  34.545  1.00  0.00    -0.237 OA
ATOM     76  O   UNL A   1      43.682  35.815  36.174  1.00  0.00    -0.237 OA
ATOM     77  O   UNL A   1      45.515  34.364  36.959  1.00  0.00    -0.744 OA
ENDBRANCH  70  74
ENDBRANCH  53  67
BRANCH  54  78
ATOM     78  C   UNL A   1      42.461  24.632  27.415  1.00  0.00     0.023 A 
ATOM     79  C   UNL A   1      41.646  23.488  27.412  1.00  0.00     0.031 A 
ATOM     80  C   UNL A   1      43.342  24.812  26.334  1.00  0.00     0.131 A 
ATOM     81  C   UNL A   1      41.766  22.545  26.379  1.00  0.00     0.055 A 
ATOM     82  C   UNL A   1      43.413  23.902  25.277  1.00  0.00     0.041 A 
ATOM     83  F   UNL A   1      44.150  25.883  26.288  1.00  0.00    -0.206 F 
ATOM     84  C   UNL A   1      42.632  22.752  25.304  1.00  0.00     0.022 A 
BRANCH  81  85
ATOM     85  S   UNL A   1      40.841  20.988  26.511  1.00  0.00     0.124 S 
ATOM     86  O   UNL A   1      39.570  21.345  25.892  1.00  0.00    -0.237 OA
ATOM     87  O   UNL A   1      41.686  20.068  25.757  1.00  0.00    -0.237 OA
ATOM     88  O   UNL A   1      40.788  20.745  27.952  1.00  0.00    -0.744 OA
ENDBRANCH  81  85
ENDBRANCH  54  78
BRANCH  66  89
ATOM     89  C   UNL A   1      46.756  25.602  32.825  1.00  0.00     0.023 A 
ATOM     90  C   UNL A   1      46.692  24.609  33.819  1.00  0.00     0.031 A 
ATOM     91  C   UNL A   1      48.021  25.920  32.296  1.00  0.00     0.131 A 
ATOM     92  C   UNL A   1      47.874  24.037  34.316  1.00  0.00     0.055 A 
ATOM     93  C   UNL A   1      49.185  25.287  32.737  1.00  0.00     0.041 A 
ATOM     94  F   UNL A   1      48.150  26.861  31.347  1.00  0.00    -0.206 F 
ATOM     95  C   UNL A   1      49.118  24.356  33.769  1.00  0.00     0.022 A 
BRANCH  92  96
ATOM     96  S   UNL A   1      47.775  22.982  35.790  1.00  0.00     0.124 S 
ATOM     97  O   UNL A   1      48.397  23.824  36.806  1.00  0.00    -0.237 OA
ATOM     98  O   UNL A   1      46.336  22.774  35.927  1.00  0.00    -0.237 OA
ATOM     99  O   UNL A   1      48.540  21.795  35.413  1.00  0.00    -0.744 OA
ENDBRANCH  92  96
ENDBRANCH  66  89
ENDBRANCH  40  41
ENDBRANCH  33  35
ENDBRANCH  32  33
ENDBRANCH  31  32
ENDBRANCH  30  31
ENDBRANCH  29  30
ENDBRANCH  28  29
ENDBRANCH   1  28
TORSDOF 26
ENDMDL
MODEL 3
REMARK VINA RESULT:      -8.0      5.031      9.597
REMARK SMILES CC(C)[C@H](C[NH+](C)C)NC(=O)c1csc(/C=C/C(=O)OCCOCCOCCOC(=O)c2ccc(-c3c4nc(c(-c5cc(S(=O)(=O)[O-])ccc5F)c5ccc([nH]5)c(-c5cc(S(=O)(=O)[O-])ccc5F)c5nc(c(-c6cc(S(=O)(=O)[O-])ccc6F)c6ccc3[nH]6)C=C5)C=C4)cc2)c1
REMARK SMILES IDX 24 1 23 2 22 3 21 4 20 5 18 6 19 7 17 8 16 9 15 10 12 11
REMARK SMILES IDX 13 12 95 13 14 14 10 15 9 16 11 18 4 19 2 20 1 21 3 22 5 23
REMARK SMILES IDX 6 24 7 25 8 26 25 28 26 29 27 30 28 31 29 32 30 33 31 34
REMARK SMILES IDX 32 35 33 36 94 37 34 38 93 39 35 40 36 41 37 42 87 43 38 44
REMARK SMILES IDX 92 45 86 46 88 47 39 48 91 49 85 50 84 51 40 53 72 54 52 55
REMARK SMILES IDX 71 56 53 57 56 58 70 59 89 60 54 61 55 62 69 64 90 65 57 66
REMARK SMILES IDX 41 67 42 68 50 69 43 70 49 71 51 72 48 73 44 74 45 75 46 76
REMARK SMILES IDX 47 77 73 78 74 79 82 80 75 81 81 82 83 83 80 84 76 85 77 86
REMARK SMILES IDX 78 87 79 88 58 89 59 90 67 91 60 92 66 93 68 94 65 95 61 96
REMARK SMILES IDX 62 97 63 98 64 99
REMARK H PARENT 9 17 6 27 88 52 56 63
REMARK Flexibility Score: inf
ROOT
ATOM      1  C   UNL A   1      38.168  34.550  33.026  1.00  0.00     0.188 C 
ENDROOT
BRANCH   1   2
ATOM      2  O   UNL A   1      39.265  34.331  33.908  1.00  0.00    -0.376 OA
BRANCH   2   3
ATOM      3  C   UNL A   1      40.185  35.379  34.175  1.00  0.00     0.202 C 
BRANCH   3   4
ATOM      4  C   UNL A   1      41.699  35.138  34.054  1.00  0.00     0.261 C 
BRANCH   4   5
ATOM      5  O   UNL A   1      42.157  34.668  32.776  1.00  0.00    -0.460 OA
BRANCH   5   6
ATOM      6  C   UNL A   1      42.870  35.567  32.055  1.00  0.00     0.330 C 
ATOM      7  O   UNL A   1      43.465  36.539  32.496  1.00  0.00    -0.247 OA
BRANCH   6   8
ATOM      8  C   UNL A   1      42.978  35.191  30.632  1.00  0.00     0.095 C 
ATOM      9  C   UNL A   1      43.216  36.026  29.608  1.00  0.00     0.026 C 
BRANCH   9  10
ATOM     10  C   UNL A   1      43.328  35.558  28.260  1.00  0.00     0.028 A 
ATOM     11  C   UNL A   1      43.903  34.228  26.382  1.00  0.00     0.051 A 
ATOM     12  C   UNL A   1      43.014  35.127  25.836  1.00  0.00     0.079 A 
ATOM     13  C   UNL A   1      44.078  34.493  27.787  1.00  0.00     0.033 A 
ATOM     14  S   UNL A   1      42.511  36.317  26.943  1.00  0.00    -0.144 S 
BRANCH  11  15
ATOM     15  C   UNL A   1      44.490  33.095  25.680  1.00  0.00     0.252 C 
ATOM     16  N   UNL A   1      45.322  32.231  26.337  1.00  0.00    -0.343 N 
ATOM     17  H   UNL A   1      45.791  31.598  25.746  1.00  0.00     0.164 HD
ATOM     18  O   UNL A   1      44.200  32.856  24.508  1.00  0.00    -0.269 OA
BRANCH  16  19
ATOM     19  C   UNL A   1      45.649  32.069  27.766  1.00  0.00     0.139 C 
BRANCH  19  20
ATOM     20  C   UNL A   1      47.194  32.272  27.922  1.00  0.00     0.011 C 
ATOM     21  C   UNL A   1      47.790  32.757  26.588  1.00  0.00     0.010 C 
ATOM     22  C   UNL A   1      47.660  33.212  29.032  1.00  0.00     0.010 C 
ENDBRANCH  19  20
BRANCH  19  23
ATOM     23  C   UNL A   1      45.017  30.763  28.369  1.00  0.00     0.287 C 
BRANCH  23  24
ATOM     24  N   UNL A   1      45.880  29.887  29.206  1.00  0.00    -0.338 N 
ATOM     25  C   UNL A   1      45.401  29.920  30.598  1.00  0.00     0.332 C 
ATOM     26  C   UNL A   1      45.794  28.488  28.752  1.00  0.00     0.332 C 
ATOM     27  H   UNL A   1      46.839  30.224  29.132  1.00  0.00     0.347 HD
ENDBRANCH  23  24
ENDBRANCH  19  23
ENDBRANCH  16  19
ENDBRANCH  11  15
ENDBRANCH   9  10
ENDBRANCH   6   8
ENDBRANCH   5   6
ENDBRANCH   4   5
ENDBRANCH   3   4
ENDBRANCH   2   3
ENDBRANCH   1   2
BRANCH   1  28
ATOM     28  C   UNL A   1      36.751  34.082  33.424  1.00  0.00     0.188 C 
BRANCH  28  29
ATOM     29  O   UNL A   1      35.714  34.747  32.730  1.00  0.00    -0.376 OA
BRANCH  29  30
ATOM     30  C   UNL A   1      35.378  34.254  31.442  1.00  0.00     0.202 C 
BRANCH  30  31
ATOM     31  C   UNL A   1      34.922  32.792  31.255  1.00  0.00     0.261 C 
BRANCH  31  32
ATOM     32  O   UNL A   1      34.180  32.476  30.067  1.00  0.00    -0.460 OA
BRANCH  32  33
ATOM     33  C   UNL A   1      34.852  32.549  28.892  1.00  0.00     0.338 C 
ATOM     34  O   UNL A   1      34.562  33.237  27.935  1.00  0.00    -0.246 OA
BRANCH  33  35
ATOM     35  C   UNL A   1      36.116  31.787  29.029  1.00  0.00     0.060 A 
ATOM     36  C   UNL A   1      36.050  30.462  29.472  1.00  0.00     0.016 A 
ATOM     37  C   UNL A   1      37.354  32.378  28.758  1.00  0.00     0.016 A 
ATOM     38  C   UNL A   1      37.224  29.737  29.686  1.00  0.00     0.010 A 
ATOM     39  C   UNL A   1      38.531  31.652  28.985  1.00  0.00     0.010 A 
ATOM     40  C   UNL A   1      38.474  30.339  29.486  1.00  0.00    -0.014 A 
BRANCH  40  41
ATOM     41  C   UNL A   1      39.697  29.635  29.959  1.00  0.00     0.031 A 
ATOM     42  C   UNL A   1      40.355  30.095  31.234  1.00  0.00     0.074 A 
ATOM     43  C   UNL A   1      40.172  28.556  29.309  1.00  0.00     0.049 A 
ATOM     44  N   UNL A   1      41.389  29.598  31.865  1.00  0.00    -0.248 NA
ATOM     45  C   UNL A   1      39.764  31.274  31.885  1.00  0.00     0.031 C 
ATOM     46  C   UNL A   1      39.604  27.993  28.084  1.00  0.00     0.029 A 
ATOM     47  N   UNL A   1      41.233  27.733  29.596  1.00  0.00    -0.354 N 
ATOM     48  C   UNL A   1      41.570  30.399  32.989  1.00  0.00     0.074 A 
ATOM     49  C   UNL A   1      40.569  31.443  32.924  1.00  0.00     0.031 C 
ATOM     50  C   UNL A   1      40.319  26.911  27.729  1.00  0.00     0.029 A 
ATOM     51  C   UNL A   1      41.413  26.722  28.679  1.00  0.00     0.049 A 
ATOM     52  H   UNL A   1      41.812  27.855  30.382  1.00  0.00     0.167 HD
ATOM     53  C   UNL A   1      42.477  30.270  33.990  1.00  0.00     0.034 A 
ATOM     54  C   UNL A   1      42.358  25.761  28.610  1.00  0.00     0.034 A 
ATOM     55  C   UNL A   1      43.483  29.235  34.034  1.00  0.00     0.049 A 
ATOM     56  C   UNL A   1      43.406  25.684  29.696  1.00  0.00     0.074 A 
ATOM     57  C   UNL A   1      44.444  29.008  35.004  1.00  0.00     0.029 A 
ATOM     58  N   UNL A   1      43.671  28.262  33.060  1.00  0.00    -0.354 N 
ATOM     59  N   UNL A   1      43.553  26.435  30.764  1.00  0.00    -0.248 NA
ATOM     60  C   UNL A   1      44.405  24.614  29.574  1.00  0.00     0.031 C 
ATOM     61  C   UNL A   1      45.262  27.954  34.578  1.00  0.00     0.029 A 
ATOM     62  C   UNL A   1      44.753  27.457  33.389  1.00  0.00     0.049 A 
ATOM     63  H   UNL A   1      43.117  28.158  32.252  1.00  0.00     0.167 HD
ATOM     64  C   UNL A   1      44.639  25.904  31.457  1.00  0.00     0.074 A 
ATOM     65  C   UNL A   1      45.090  24.756  30.698  1.00  0.00     0.031 C 
ATOM     66  C   UNL A   1      45.210  26.323  32.617  1.00  0.00     0.034 A 
BRANCH  53  67
ATOM     67  C   UNL A   1      42.450  31.308  35.089  1.00  0.00     0.023 A 
ATOM     68  C   UNL A   1      41.318  31.499  35.903  1.00  0.00     0.031 A 
ATOM     69  C   UNL A   1      43.564  32.137  35.310  1.00  0.00     0.131 A 
ATOM     70  C   UNL A   1      41.300  32.539  36.846  1.00  0.00     0.055 A 
ATOM     71  C   UNL A   1      43.570  33.114  36.307  1.00  0.00     0.041 A 
ATOM     72  F   UNL A   1      44.664  32.020  34.550  1.00  0.00    -0.206 F 
ATOM     73  C   UNL A   1      42.428  33.331  37.072  1.00  0.00     0.022 A 
BRANCH  70  74
ATOM     74  S   UNL A   1      39.732  32.941  37.665  1.00  0.00     0.124 S 
ATOM     75  O   UNL A   1      38.771  32.217  36.837  1.00  0.00    -0.237 OA
ATOM     76  O   UNL A   1      39.936  32.416  39.011  1.00  0.00    -0.237 OA
ATOM     77  O   UNL A   1      39.657  34.396  37.567  1.00  0.00    -0.744 OA
ENDBRANCH  70  74
ENDBRANCH  53  67
BRANCH  54  78
ATOM     78  C   UNL A   1      42.386  24.806  27.463  1.00  0.00     0.023 A 
ATOM     79  C   UNL A   1      41.620  23.628  27.471  1.00  0.00     0.031 A 
ATOM     80  C   UNL A   1      43.238  25.026  26.366  1.00  0.00     0.131 A 
ATOM     81  C   UNL A   1      41.759  22.694  26.433  1.00  0.00     0.055 A 
ATOM     82  C   UNL A   1      43.327  24.122  25.305  1.00  0.00     0.041 A 
ATOM     83  F   UNL A   1      43.999  26.130  26.308  1.00  0.00    -0.206 F 
ATOM     84  C   UNL A   1      42.596  22.940  25.342  1.00  0.00     0.022 A 
BRANCH  81  85
ATOM     85  S   UNL A   1      40.903  21.100  26.577  1.00  0.00     0.124 S 
ATOM     86  O   UNL A   1      39.601  21.409  25.999  1.00  0.00    -0.237 OA
ATOM     87  O   UNL A   1      41.763  20.222  25.790  1.00  0.00    -0.237 OA
ATOM     88  O   UNL A   1      40.903  20.842  28.016  1.00  0.00    -0.744 OA
ENDBRANCH  81  85
ENDBRANCH  54  78
BRANCH  66  89
ATOM     89  C   UNL A   1      46.359  25.497  33.154  1.00  0.00     0.023 A 
ATOM     90  C   UNL A   1      47.697  25.786  32.829  1.00  0.00     0.031 A 
ATOM     91  C   UNL A   1      46.108  24.375  33.965  1.00  0.00     0.131 A 
ATOM     92  C   UNL A   1      48.720  24.913  33.234  1.00  0.00     0.055 A 
ATOM     93  C   UNL A   1      47.139  23.558  34.434  1.00  0.00     0.041 A 
ATOM     94  F   UNL A   1      44.853  24.046  34.308  1.00  0.00    -0.206 F 
ATOM     95  C   UNL A   1      48.452  23.812  34.050  1.00  0.00     0.022 A 
BRANCH  92  96
ATOM     96  S   UNL A   1      50.386  25.154  32.555  1.00  0.00     0.124 S 
ATOM     97  O   UNL A   1      50.164  26.214  31.578  1.00  0.00    -0.237 OA
ATOM     98  O   UNL A   1      51.154  25.528  33.739  1.00  0.00    -0.237 OA
ATOM     99  O   UNL A   1      50.717  23.848  31.989  1.00  0.00    -0.744 OA
ENDBRANCH  92  96
ENDBRANCH  66  89
ENDBRANCH  40  41
ENDBRANCH  33  35
ENDBRANCH  32  33
ENDBRANCH  31  32
ENDBRANCH  30  31
ENDBRANCH  29  30
ENDBRANCH  28  29
ENDBRANCH   1  28
TORSDOF 26
ENDMDL
