MODEL 1
REMARK VINA RESULT:     -10.5      0.000      0.000
REMARK SMILES C[C@@]1(CN2C(=O)c3ccc(C(=O)OCCOCCOCCOC(=O)c4ccc(-c5c6nc(c(-c7cc(S(=O)(=O)[O-])ccc7F)c7ccc([nH]7)c(-c7cc(S(=O)(=O)[O-])ccc7F)c7nc(c(-c8cc(S(=O)(=O)[O-])ccc8F)c8ccc5[nH]8)C=C7)C=C6)cc4)cc3C2=O)CCCO1
REMARK SMILES IDX 18 1 17 2 16 3 15 4 14 5 13 6 11 7 12 8 10 9 4 10 5 11 90 12
REMARK SMILES IDX 6 13 7 14 89 15 91 16 8 17 88 18 9 19 3 20 2 21 1 22 92 23
REMARK SMILES IDX 95 24 93 25 94 26 19 27 20 28 21 29 22 30 23 31 24 32 25 33
REMARK SMILES IDX 26 34 87 35 27 36 86 37 28 38 29 39 30 40 80 41 31 42 85 43
REMARK SMILES IDX 79 44 81 45 32 46 84 47 78 48 77 49 33 51 65 52 45 53 64 54
REMARK SMILES IDX 46 55 49 56 63 57 82 58 47 59 48 60 62 62 83 63 50 64 34 65
REMARK SMILES IDX 35 66 43 67 36 68 42 69 44 70 41 71 37 72 38 73 39 74 40 75
REMARK SMILES IDX 66 76 67 77 75 78 68 79 74 80 76 81 73 82 69 83 70 84 71 85
REMARK SMILES IDX 72 86 51 87 52 88 60 89 53 90 59 91 61 92 58 93 54 94 55 95
REMARK SMILES IDX 56 96 57 97
REMARK H PARENT 81 50 49 61
REMARK Flexibility Score: inf
ROOT
ATOM      1  C   UNL A   1      34.637  30.353  27.772  1.00  0.00     0.188 C 
ENDROOT
BRANCH   1   2
ATOM      2  C   UNL A   1      34.466  29.127  26.851  1.00  0.00     0.188 C 
BRANCH   2   3
ATOM      3  O   UNL A   1      33.174  28.781  26.376  1.00  0.00    -0.376 OA
BRANCH   3   4
ATOM      4  C   UNL A   1      32.899  28.778  24.983  1.00  0.00     0.202 C 
BRANCH   4   5
ATOM      5  C   UNL A   1      32.058  27.675  24.316  1.00  0.00     0.261 C 
BRANCH   5   6
ATOM      6  O   UNL A   1      30.891  27.248  25.035  1.00  0.00    -0.460 OA
BRANCH   6   7
ATOM      7  C   UNL A   1      30.382  26.046  24.663  1.00  0.00     0.338 C 
ATOM      8  O   UNL A   1      29.426  25.852  23.932  1.00  0.00    -0.246 OA
BRANCH   7   9
ATOM      9  C   UNL A   1      31.263  24.954  25.143  1.00  0.00     0.060 A 
ATOM     10  N   UNL A   1      33.687  21.060  24.915  1.00  0.00    -0.271 N 
ATOM     11  C   UNL A   1      33.714  21.693  26.129  1.00  0.00     0.261 C 
ATOM     12  C   UNL A   1      33.045  21.813  23.974  1.00  0.00     0.261 C 
ATOM     13  O   UNL A   1      34.281  21.389  27.156  1.00  0.00    -0.269 OA
ATOM     14  C   UNL A   1      32.899  22.900  25.985  1.00  0.00     0.053 A 
ATOM     15  C   UNL A   1      32.479  22.966  24.670  1.00  0.00     0.054 A 
ATOM     16  O   UNL A   1      32.970  21.664  22.767  1.00  0.00    -0.269 OA
ATOM     17  C   UNL A   1      32.535  23.855  26.919  1.00  0.00     0.015 A 
ATOM     18  C   UNL A   1      31.664  23.982  24.212  1.00  0.00     0.030 A 
ATOM     19  C   UNL A   1      31.705  24.897  26.486  1.00  0.00     0.016 A 
BRANCH  10  20
ATOM     20  C   UNL A   1      34.322  19.777  24.634  1.00  0.00     0.164 C 
BRANCH  20  21
ATOM     21  C   UNL A   1      33.358  18.555  24.722  1.00  0.00     0.084 C 
ATOM     22  C   UNL A   1      32.592  18.502  26.045  1.00  0.00     0.044 C 
ATOM     23  C   UNL A   1      34.113  17.241  24.495  1.00  0.00     0.039 C 
ATOM     24  O   UNL A   1      32.388  18.629  23.655  1.00  0.00    -0.373 OA
ATOM     25  C   UNL A   1      34.069  17.076  22.997  1.00  0.00     0.031 C 
ATOM     26  C   UNL A   1      32.725  17.671  22.638  1.00  0.00     0.161 C 
ENDBRANCH  20  21
ENDBRANCH  10  20
ENDBRANCH   7   9
ENDBRANCH   6   7
ENDBRANCH   5   6
ENDBRANCH   4   5
ENDBRANCH   3   4
ENDBRANCH   2   3
ENDBRANCH   1   2
BRANCH   1  27
ATOM     27  O   UNL A   1      34.196  31.572  27.222  1.00  0.00    -0.376 OA
BRANCH  27  28
ATOM     28  C   UNL A   1      32.830  31.934  27.334  1.00  0.00     0.202 C 
BRANCH  28  29
ATOM     29  C   UNL A   1      32.278  33.375  27.428  1.00  0.00     0.261 C 
BRANCH  29  30
ATOM     30  O   UNL A   1      33.164  34.436  27.791  1.00  0.00    -0.460 OA
BRANCH  30  31
ATOM     31  C   UNL A   1      33.287  34.688  29.118  1.00  0.00     0.338 C 
ATOM     32  O   UNL A   1      32.497  35.292  29.821  1.00  0.00    -0.246 OA
BRANCH  31  33
ATOM     33  C   UNL A   1      34.448  33.929  29.630  1.00  0.00     0.060 A 
ATOM     34  C   UNL A   1      34.230  32.940  30.598  1.00  0.00     0.016 A 
ATOM     35  C   UNL A   1      35.739  34.198  29.171  1.00  0.00     0.016 A 
ATOM     36  C   UNL A   1      35.308  32.232  31.128  1.00  0.00     0.010 A 
ATOM     37  C   UNL A   1      36.821  33.500  29.721  1.00  0.00     0.010 A 
ATOM     38  C   UNL A   1      36.614  32.536  30.724  1.00  0.00    -0.014 A 
BRANCH  38  39
ATOM     39  C   UNL A   1      37.760  31.971  31.481  1.00  0.00     0.031 A 
ATOM     40  C   UNL A   1      38.560  30.859  30.859  1.00  0.00     0.074 A 
ATOM     41  C   UNL A   1      38.112  32.461  32.682  1.00  0.00     0.049 A 
ATOM     42  N   UNL A   1      39.594  30.209  31.328  1.00  0.00    -0.248 NA
ATOM     43  C   UNL A   1      38.122  30.417  29.528  1.00  0.00     0.031 C 
ATOM     44  C   UNL A   1      37.439  33.558  33.374  1.00  0.00     0.029 A 
ATOM     45  N   UNL A   1      39.124  32.093  33.535  1.00  0.00    -0.354 N 
ATOM     46  C   UNL A   1      39.930  29.277  30.351  1.00  0.00     0.074 A 
ATOM     47  C   UNL A   1      38.952  29.415  29.292  1.00  0.00     0.031 C 
ATOM     48  C   UNL A   1      38.051  33.769  34.551  1.00  0.00     0.029 A 
ATOM     49  C   UNL A   1      39.136  32.801  34.712  1.00  0.00     0.049 A 
ATOM     50  H   UNL A   1      39.779  31.389  33.321  1.00  0.00     0.167 HD
ATOM     51  C   UNL A   1      40.964  28.398  30.333  1.00  0.00     0.034 A 
ATOM     52  C   UNL A   1      39.913  32.667  35.806  1.00  0.00     0.034 A 
ATOM     53  C   UNL A   1      41.914  28.257  31.413  1.00  0.00     0.049 A 
ATOM     54  C   UNL A   1      41.009  31.631  35.805  1.00  0.00     0.074 A 
ATOM     55  C   UNL A   1      43.009  27.415  31.495  1.00  0.00     0.029 A 
ATOM     56  N   UNL A   1      41.868  28.958  32.614  1.00  0.00    -0.354 N 
ATOM     57  N   UNL A   1      41.339  30.772  34.866  1.00  0.00    -0.248 NA
ATOM     58  C   UNL A   1      41.849  31.560  37.006  1.00  0.00     0.031 C 
ATOM     59  C   UNL A   1      43.567  27.540  32.774  1.00  0.00     0.029 A 
ATOM     60  C   UNL A   1      42.885  28.535  33.459  1.00  0.00     0.049 A 
ATOM     61  H   UNL A   1      41.207  29.654  32.833  1.00  0.00     0.167 HD
ATOM     62  C   UNL A   1      42.440  30.073  35.358  1.00  0.00     0.074 A 
ATOM     63  C   UNL A   1      42.730  30.631  36.664  1.00  0.00     0.031 C 
ATOM     64  C   UNL A   1      43.151  29.068  34.778  1.00  0.00     0.034 A 
BRANCH  51  65
ATOM     65  C   UNL A   1      41.063  27.483  29.132  1.00  0.00     0.023 A 
ATOM     66  C   UNL A   1      41.987  27.714  28.095  1.00  0.00     0.031 A 
ATOM     67  C   UNL A   1      40.169  26.409  28.979  1.00  0.00     0.131 A 
ATOM     68  C   UNL A   1      41.918  26.962  26.912  1.00  0.00     0.055 A 
ATOM     69  C   UNL A   1      40.175  25.597  27.843  1.00  0.00     0.041 A 
ATOM     70  F   UNL A   1      39.248  26.146  29.920  1.00  0.00    -0.206 F 
ATOM     71  C   UNL A   1      41.036  25.887  26.790  1.00  0.00     0.022 A 
BRANCH  68  72
ATOM     72  S   UNL A   1      42.846  27.543  25.464  1.00  0.00     0.124 S 
ATOM     73  O   UNL A   1      42.058  28.705  25.055  1.00  0.00    -0.237 OA
ATOM     74  O   UNL A   1      44.160  27.829  26.026  1.00  0.00    -0.237 OA
ATOM     75  O   UNL A   1      42.791  26.409  24.544  1.00  0.00    -0.744 OA
ENDBRANCH  68  72
ENDBRANCH  51  65
BRANCH  52  76
ATOM     76  C   UNL A   1      39.653  33.510  37.009  1.00  0.00     0.023 A 
ATOM     77  C   UNL A   1      38.928  33.025  38.109  1.00  0.00     0.031 A 
ATOM     78  C   UNL A   1      40.123  34.835  37.060  1.00  0.00     0.131 A 
ATOM     79  C   UNL A   1      38.675  33.867  39.204  1.00  0.00     0.055 A 
ATOM     80  C   UNL A   1      39.914  35.651  38.173  1.00  0.00     0.041 A 
ATOM     81  F   UNL A   1      40.816  35.351  36.032  1.00  0.00    -0.206 F 
ATOM     82  C   UNL A   1      39.179  35.170  39.251  1.00  0.00     0.022 A 
BRANCH  79  83
ATOM     83  S   UNL A   1      37.624  33.257  40.553  1.00  0.00     0.124 S 
ATOM     84  O   UNL A   1      36.439  32.811  39.829  1.00  0.00    -0.237 OA
ATOM     85  O   UNL A   1      38.451  32.206  41.136  1.00  0.00    -0.237 OA
ATOM     86  O   UNL A   1      37.433  34.436  41.396  1.00  0.00    -0.744 OA
ENDBRANCH  79  83
ENDBRANCH  52  76
BRANCH  64  87
ATOM     87  C   UNL A   1      44.338  28.532  35.551  1.00  0.00     0.023 A 
ATOM     88  C   UNL A   1      44.216  27.454  36.448  1.00  0.00     0.031 A 
ATOM     89  C   UNL A   1      45.603  29.133  35.419  1.00  0.00     0.131 A 
ATOM     90  C   UNL A   1      45.311  27.073  37.239  1.00  0.00     0.055 A 
ATOM     91  C   UNL A   1      46.710  28.694  36.148  1.00  0.00     0.041 A 
ATOM     92  F   UNL A   1      45.786  30.170  34.586  1.00  0.00    -0.206 F 
ATOM     93  C   UNL A   1      46.563  27.671  37.080  1.00  0.00     0.022 A 
BRANCH  90  94
ATOM     94  S   UNL A   1      45.039  25.885  38.585  1.00  0.00     0.124 S 
ATOM     95  O   UNL A   1      46.397  25.672  39.076  1.00  0.00    -0.237 OA
ATOM     96  O   UNL A   1      44.146  26.618  39.473  1.00  0.00    -0.237 OA
ATOM     97  O   UNL A   1      44.437  24.736  37.910  1.00  0.00    -0.744 OA
ENDBRANCH  90  94
ENDBRANCH  64  87
ENDBRANCH  38  39
ENDBRANCH  31  33
ENDBRANCH  30  31
ENDBRANCH  29  30
ENDBRANCH  28  29
ENDBRANCH  27  28
ENDBRANCH   1  27
TORSDOF 22
ENDMDL
MODEL 2
REMARK VINA RESULT:     -10.3      1.545      7.832
REMARK SMILES C[C@@]1(CN2C(=O)c3ccc(C(=O)OCCOCCOCCOC(=O)c4ccc(-c5c6nc(c(-c7cc(S(=O)(=O)[O-])ccc7F)c7ccc([nH]7)c(-c7cc(S(=O)(=O)[O-])ccc7F)c7nc(c(-c8cc(S(=O)(=O)[O-])ccc8F)c8ccc5[nH]8)C=C7)C=C6)cc4)cc3C2=O)CCCO1
REMARK SMILES IDX 18 1 17 2 16 3 15 4 14 5 13 6 11 7 12 8 10 9 4 10 5 11 90 12
REMARK SMILES IDX 6 13 7 14 89 15 91 16 8 17 88 18 9 19 3 20 2 21 1 22 92 23
REMARK SMILES IDX 95 24 93 25 94 26 19 27 20 28 21 29 22 30 23 31 24 32 25 33
REMARK SMILES IDX 26 34 87 35 27 36 86 37 28 38 29 39 30 40 80 41 31 42 85 43
REMARK SMILES IDX 79 44 81 45 32 46 84 47 78 48 77 49 33 51 65 52 45 53 64 54
REMARK SMILES IDX 46 55 49 56 63 57 82 58 47 59 48 60 62 62 83 63 50 64 34 65
REMARK SMILES IDX 35 66 43 67 36 68 42 69 44 70 41 71 37 72 38 73 39 74 40 75
REMARK SMILES IDX 66 76 67 77 75 78 68 79 74 80 76 81 73 82 69 83 70 84 71 85
REMARK SMILES IDX 72 86 51 87 52 88 60 89 53 90 59 91 61 92 58 93 54 94 55 95
REMARK SMILES IDX 56 96 57 97
REMARK H PARENT 81 50 49 61
REMARK Flexibility Score: inf
ROOT
ATOM      1  C   UNL A   1      35.278  34.271  28.731  1.00  0.00     0.188 C 
ENDROOT
BRANCH   1   2
ATOM      2  C   UNL A   1      35.828  32.837  28.586  1.00  0.00     0.188 C 
BRANCH   2   3
ATOM      3  O   UNL A   1      35.479  32.063  27.449  1.00  0.00    -0.376 OA
BRANCH   3   4
ATOM      4  C   UNL A   1      34.353  31.199  27.488  1.00  0.00     0.202 C 
BRANCH   4   5
ATOM      5  C   UNL A   1      34.495  29.668  27.546  1.00  0.00     0.261 C 
BRANCH   5   6
ATOM      6  O   UNL A   1      34.330  28.970  26.303  1.00  0.00    -0.460 OA
BRANCH   6   7
ATOM      7  C   UNL A   1      33.053  28.866  25.855  1.00  0.00     0.338 C 
ATOM      8  O   UNL A   1      32.388  29.742  25.331  1.00  0.00    -0.246 OA
BRANCH   7   9
ATOM      9  C   UNL A   1      32.604  27.455  25.936  1.00  0.00     0.060 A 
ATOM     10  N   UNL A   1      33.013  22.883  26.099  1.00  0.00    -0.271 N 
ATOM     11  C   UNL A   1      31.728  23.355  26.138  1.00  0.00     0.261 C 
ATOM     12  C   UNL A   1      33.921  23.902  26.163  1.00  0.00     0.261 C 
ATOM     13  O   UNL A   1      30.679  22.755  26.212  1.00  0.00    -0.269 OA
ATOM     14  C   UNL A   1      31.821  24.815  26.087  1.00  0.00     0.053 A 
ATOM     15  C   UNL A   1      33.162  25.148  26.089  1.00  0.00     0.054 A 
ATOM     16  O   UNL A   1      35.128  23.868  26.321  1.00  0.00    -0.269 OA
ATOM     17  C   UNL A   1      30.828  25.776  26.026  1.00  0.00     0.015 A 
ATOM     18  C   UNL A   1      33.591  26.459  26.019  1.00  0.00     0.030 A 
ATOM     19  C   UNL A   1      31.230  27.116  25.950  1.00  0.00     0.016 A 
BRANCH  10  20
ATOM     20  C   UNL A   1      33.378  21.471  26.066  1.00  0.00     0.164 C 
BRANCH  20  21
ATOM     21  C   UNL A   1      33.576  20.897  24.631  1.00  0.00     0.084 C 
ATOM     22  C   UNL A   1      33.919  21.979  23.605  1.00  0.00     0.044 C 
ATOM     23  C   UNL A   1      32.340  20.112  24.177  1.00  0.00     0.039 C 
ATOM     24  O   UNL A   1      34.656  19.939  24.639  1.00  0.00    -0.373 OA
ATOM     25  C   UNL A   1      32.611  18.721  24.692  1.00  0.00     0.031 C 
ATOM     26  C   UNL A   1      34.115  18.610  24.569  1.00  0.00     0.161 C 
ENDBRANCH  20  21
ENDBRANCH  10  20
ENDBRANCH   7   9
ENDBRANCH   6   7
ENDBRANCH   5   6
ENDBRANCH   4   5
ENDBRANCH   3   4
ENDBRANCH   2   3
ENDBRANCH   1   2
BRANCH   1  27
ATOM     27  O   UNL A   1      33.886  34.354  28.930  1.00  0.00    -0.376 OA
BRANCH  27  28
ATOM     28  C   UNL A   1      33.267  35.626  29.012  1.00  0.00     0.202 C 
BRANCH  28  29
ATOM     29  C   UNL A   1      32.621  36.241  30.274  1.00  0.00     0.261 C 
BRANCH  29  30
ATOM     30  O   UNL A   1      32.443  35.424  31.433  1.00  0.00    -0.460 OA
BRANCH  30  31
ATOM     31  C   UNL A   1      33.168  35.768  32.527  1.00  0.00     0.338 C 
ATOM     32  O   UNL A   1      32.822  36.514  33.425  1.00  0.00    -0.246 OA
BRANCH  31  33
ATOM     33  C   UNL A   1      34.382  34.925  32.565  1.00  0.00     0.060 A 
ATOM     34  C   UNL A   1      34.273  33.612  33.042  1.00  0.00     0.016 A 
ATOM     35  C   UNL A   1      35.616  35.427  32.148  1.00  0.00     0.016 A 
ATOM     36  C   UNL A   1      35.406  32.803  33.126  1.00  0.00     0.010 A 
ATOM     37  C   UNL A   1      36.755  34.619  32.253  1.00  0.00     0.010 A 
ATOM     38  C   UNL A   1      36.660  33.315  32.771  1.00  0.00    -0.014 A 
BRANCH  38  39
ATOM     39  C   UNL A   1      37.884  32.544  33.113  1.00  0.00     0.031 A 
ATOM     40  C   UNL A   1      38.566  32.816  34.426  1.00  0.00     0.074 A 
ATOM     41  C   UNL A   1      38.359  31.591  32.293  1.00  0.00     0.049 A 
ATOM     42  N   UNL A   1      39.642  32.276  34.937  1.00  0.00    -0.248 NA
ATOM     43  C   UNL A   1      37.949  33.848  35.270  1.00  0.00     0.031 C 
ATOM     44  C   UNL A   1      37.770  31.210  31.012  1.00  0.00     0.029 A 
ATOM     45  N   UNL A   1      39.455  30.772  32.418  1.00  0.00    -0.354 N 
ATOM     46  C   UNL A   1      39.836  32.904  36.163  1.00  0.00     0.074 A 
ATOM     47  C   UNL A   1      38.794  33.904  36.286  1.00  0.00     0.031 C 
ATOM     48  C   UNL A   1      38.515  30.237  30.463  1.00  0.00     0.029 A 
ATOM     49  C   UNL A   1      39.653  29.950  31.335  1.00  0.00     0.049 A 
ATOM     50  H   UNL A   1      40.041  30.774  33.209  1.00  0.00     0.167 HD
ATOM     51  C   UNL A   1      40.785  32.663  37.103  1.00  0.00     0.034 A 
ATOM     52  C   UNL A   1      40.652  29.085  31.064  1.00  0.00     0.034 A 
ATOM     53  C   UNL A   1      41.833  31.680  36.949  1.00  0.00     0.049 A 
ATOM     54  C   UNL A   1      41.746  28.884  32.083  1.00  0.00     0.074 A 
ATOM     55  C   UNL A   1      42.834  31.338  37.841  1.00  0.00     0.029 A 
ATOM     56  N   UNL A   1      42.033  30.897  35.816  1.00  0.00    -0.354 N 
ATOM     57  N   UNL A   1      41.907  29.462  33.253  1.00  0.00    -0.248 NA
ATOM     58  C   UNL A   1      42.782  27.900  31.751  1.00  0.00     0.031 C 
ATOM     59  C   UNL A   1      43.688  30.421  37.215  1.00  0.00     0.029 A 
ATOM     60  C   UNL A   1      43.166  30.109  35.969  1.00  0.00     0.049 A 
ATOM     61  H   UNL A   1      41.454  30.902  35.020  1.00  0.00     0.167 HD
ATOM     62  C   UNL A   1      43.053  28.893  33.805  1.00  0.00     0.074 A 
ATOM     63  C   UNL A   1      43.524  27.911  32.849  1.00  0.00     0.031 C 
ATOM     64  C   UNL A   1      43.655  29.154  34.997  1.00  0.00     0.034 A 
BRANCH  51  65
ATOM     65  C   UNL A   1      40.758  33.532  38.341  1.00  0.00     0.023 A 
ATOM     66  C   UNL A   1      39.908  33.253  39.428  1.00  0.00     0.031 A 
ATOM     67  C   UNL A   1      41.534  34.703  38.406  1.00  0.00     0.131 A 
ATOM     68  C   UNL A   1      39.769  34.184  40.468  1.00  0.00     0.055 A 
ATOM     69  C   UNL A   1      41.469  35.574  39.496  1.00  0.00     0.041 A 
ATOM     70  F   UNL A   1      42.350  35.041  37.394  1.00  0.00    -0.206 F 
ATOM     71  C   UNL A   1      40.564  35.330  40.524  1.00  0.00     0.022 A 
BRANCH  68  72
ATOM     72  S   UNL A   1      38.389  33.981  41.631  1.00  0.00     0.124 S 
ATOM     73  O   UNL A   1      38.287  35.321  42.206  1.00  0.00    -0.237 OA
ATOM     74  O   UNL A   1      37.296  33.577  40.755  1.00  0.00    -0.237 OA
ATOM     75  O   UNL A   1      38.866  32.952  42.552  1.00  0.00    -0.744 OA
ENDBRANCH  68  72
ENDBRANCH  51  65
BRANCH  52  76
ATOM     76  C   UNL A   1      40.684  28.377  29.752  1.00  0.00     0.023 A 
ATOM     77  C   UNL A   1      41.601  28.722  28.747  1.00  0.00     0.031 A 
ATOM     78  C   UNL A   1      39.770  27.340  29.485  1.00  0.00     0.131 A 
ATOM     79  C   UNL A   1      41.569  28.051  27.513  1.00  0.00     0.055 A 
ATOM     80  C   UNL A   1      39.777  26.642  28.277  1.00  0.00     0.041 A 
ATOM     81  F   UNL A   1      38.867  26.974  30.410  1.00  0.00    -0.206 F 
ATOM     82  C   UNL A   1      40.676  27.002  27.279  1.00  0.00     0.022 A 
BRANCH  79  83
ATOM     83  S   UNL A   1      42.677  28.607  26.187  1.00  0.00     0.124 S 
ATOM     84  O   UNL A   1      42.897  30.003  26.546  1.00  0.00    -0.237 OA
ATOM     85  O   UNL A   1      43.822  27.717  26.348  1.00  0.00    -0.237 OA
ATOM     86  O   UNL A   1      41.891  28.392  24.973  1.00  0.00    -0.744 OA
ENDBRANCH  79  83
ENDBRANCH  52  76
BRANCH  64  87
ATOM     87  C   UNL A   1      44.879  28.331  35.343  1.00  0.00     0.023 A 
ATOM     88  C   UNL A   1      44.778  27.075  35.969  1.00  0.00     0.031 A 
ATOM     89  C   UNL A   1      46.168  28.828  35.078  1.00  0.00     0.131 A 
ATOM     90  C   UNL A   1      45.938  26.404  36.387  1.00  0.00     0.055 A 
ATOM     91  C   UNL A   1      47.320  28.117  35.422  1.00  0.00     0.041 A 
ATOM     92  F   UNL A   1      46.335  30.024  34.489  1.00  0.00    -0.206 F 
ATOM     93  C   UNL A   1      47.209  26.907  36.099  1.00  0.00     0.022 A 
BRANCH  90  94
ATOM     94  S   UNL A   1      45.763  24.940  37.446  1.00  0.00     0.124 S 
ATOM     95  O   UNL A   1      47.100  24.359  37.379  1.00  0.00    -0.237 OA
ATOM     96  O   UNL A   1      45.383  25.525  38.727  1.00  0.00    -0.237 OA
ATOM     97  O   UNL A   1      44.715  24.163  36.784  1.00  0.00    -0.744 OA
ENDBRANCH  90  94
ENDBRANCH  64  87
ENDBRANCH  38  39
ENDBRANCH  31  33
ENDBRANCH  30  31
ENDBRANCH  29  30
ENDBRANCH  28  29
ENDBRANCH  27  28
ENDBRANCH   1  27
TORSDOF 22
ENDMDL
MODEL 3
REMARK VINA RESULT:     -10.1      5.012      8.032
REMARK SMILES C[C@@]1(CN2C(=O)c3ccc(C(=O)OCCOCCOCCOC(=O)c4ccc(-c5c6nc(c(-c7cc(S(=O)(=O)[O-])ccc7F)c7ccc([nH]7)c(-c7cc(S(=O)(=O)[O-])ccc7F)c7nc(c(-c8cc(S(=O)(=O)[O-])ccc8F)c8ccc5[nH]8)C=C7)C=C6)cc4)cc3C2=O)CCCO1
REMARK SMILES IDX 18 1 17 2 16 3 15 4 14 5 13 6 11 7 12 8 10 9 4 10 5 11 90 12
REMARK SMILES IDX 6 13 7 14 89 15 91 16 8 17 88 18 9 19 3 20 2 21 1 22 92 23
REMARK SMILES IDX 95 24 93 25 94 26 19 27 20 28 21 29 22 30 23 31 24 32 25 33
REMARK SMILES IDX 26 34 87 35 27 36 86 37 28 38 29 39 30 40 80 41 31 42 85 43
REMARK SMILES IDX 79 44 81 45 32 46 84 47 78 48 77 49 33 51 65 52 45 53 64 54
REMARK SMILES IDX 46 55 49 56 63 57 82 58 47 59 48 60 62 62 83 63 50 64 34 65
REMARK SMILES IDX 35 66 43 67 36 68 42 69 44 70 41 71 37 72 38 73 39 74 40 75
REMARK SMILES IDX 66 76 67 77 75 78 68 79 74 80 76 81 73 82 69 83 70 84 71 85
REMARK SMILES IDX 72 86 51 87 52 88 60 89 53 90 59 91 61 92 58 93 54 94 55 95
REMARK SMILES IDX 56 96 57 97
REMARK H PARENT 81 50 49 61
REMARK Flexibility Score: inf
ROOT
ATOM      1  C   UNL A   1      35.220  24.521  24.748  1.00  0.00     0.188 C 
ENDROOT
BRANCH   1   2
ATOM      2  C   UNL A   1      34.343  25.561  24.020  1.00  0.00     0.188 C 
BRANCH   2   3
ATOM      3  O   UNL A   1      33.659  26.551  24.772  1.00  0.00    -0.376 OA
BRANCH   3   4
ATOM      4  C   UNL A   1      32.405  27.049  24.328  1.00  0.00     0.202 C 
BRANCH   4   5
ATOM      5  C   UNL A   1      31.353  27.608  25.303  1.00  0.00     0.261 C 
BRANCH   5   6
ATOM      6  O   UNL A   1      30.255  26.738  25.614  1.00  0.00    -0.460 OA
BRANCH   6   7
ATOM      7  C   UNL A   1      30.115  25.658  24.804  1.00  0.00     0.338 C 
ATOM      8  O   UNL A   1      29.494  25.606  23.757  1.00  0.00    -0.246 OA
BRANCH   7   9
ATOM      9  C   UNL A   1      30.978  24.551  25.285  1.00  0.00     0.060 A 
ATOM     10  N   UNL A   1      33.496  20.720  25.009  1.00  0.00    -0.271 N 
ATOM     11  C   UNL A   1      33.411  21.273  26.259  1.00  0.00     0.261 C 
ATOM     12  C   UNL A   1      32.915  21.522  24.068  1.00  0.00     0.261 C 
ATOM     13  O   UNL A   1      33.900  20.913  27.307  1.00  0.00    -0.269 OA
ATOM     14  C   UNL A   1      32.585  22.474  26.125  1.00  0.00     0.053 A 
ATOM     15  C   UNL A   1      32.271  22.618  24.787  1.00  0.00     0.054 A 
ATOM     16  O   UNL A   1      32.941  21.450  22.852  1.00  0.00    -0.269 OA
ATOM     17  C   UNL A   1      32.127  23.360  27.085  1.00  0.00     0.015 A 
ATOM     18  C   UNL A   1      31.473  23.648  24.330  1.00  0.00     0.030 A 
ATOM     19  C   UNL A   1      31.312  24.415  26.653  1.00  0.00     0.016 A 
BRANCH  10  20
ATOM     20  C   UNL A   1      34.178  19.468  24.700  1.00  0.00     0.164 C 
BRANCH  20  21
ATOM     21  C   UNL A   1      33.237  18.228  24.636  1.00  0.00     0.084 C 
ATOM     22  C   UNL A   1      32.538  17.947  25.967  1.00  0.00     0.044 C 
ATOM     23  C   UNL A   1      33.999  16.983  24.166  1.00  0.00     0.039 C 
ATOM     24  O   UNL A   1      32.215  18.450  23.640  1.00  0.00    -0.373 OA
ATOM     25  C   UNL A   1      33.883  17.058  22.664  1.00  0.00     0.031 C 
ATOM     26  C   UNL A   1      32.515  17.674  22.468  1.00  0.00     0.161 C 
ENDBRANCH  20  21
ENDBRANCH  10  20
ENDBRANCH   7   9
ENDBRANCH   6   7
ENDBRANCH   5   6
ENDBRANCH   4   5
ENDBRANCH   3   4
ENDBRANCH   2   3
ENDBRANCH   1   2
BRANCH   1  27
ATOM     27  O   UNL A   1      35.914  23.636  23.900  1.00  0.00    -0.376 OA
BRANCH  27  28
ATOM     28  C   UNL A   1      36.462  22.443  24.434  1.00  0.00     0.202 C 
BRANCH  28  29
ATOM     29  C   UNL A   1      37.354  22.338  25.692  1.00  0.00     0.261 C 
BRANCH  29  30
ATOM     30  O   UNL A   1      38.770  22.484  25.554  1.00  0.00    -0.460 OA
BRANCH  30  31
ATOM     31  C   UNL A   1      39.483  22.537  26.706  1.00  0.00     0.338 C 
ATOM     32  O   UNL A   1      40.062  21.613  27.247  1.00  0.00    -0.246 OA
BRANCH  31  33
ATOM     33  C   UNL A   1      39.622  23.955  27.102  1.00  0.00     0.060 A 
ATOM     34  C   UNL A   1      40.122  24.868  26.165  1.00  0.00     0.016 A 
ATOM     35  C   UNL A   1      39.275  24.377  28.387  1.00  0.00     0.016 A 
ATOM     36  C   UNL A   1      40.301  26.205  26.519  1.00  0.00     0.010 A 
ATOM     37  C   UNL A   1      39.474  25.716  28.746  1.00  0.00     0.010 A 
ATOM     38  C   UNL A   1      40.017  26.629  27.823  1.00  0.00    -0.014 A 
BRANCH  38  39
ATOM     39  C   UNL A   1      40.458  27.978  28.262  1.00  0.00     0.031 A 
ATOM     40  C   UNL A   1      41.926  28.307  28.226  1.00  0.00     0.074 A 
ATOM     41  C   UNL A   1      39.570  28.910  28.648  1.00  0.00     0.049 A 
ATOM     42  N   UNL A   1      42.544  29.409  28.562  1.00  0.00    -0.248 NA
ATOM     43  C   UNL A   1      42.813  27.235  27.753  1.00  0.00     0.031 C 
ATOM     44  C   UNL A   1      38.121  28.727  28.694  1.00  0.00     0.029 A 
ATOM     45  N   UNL A   1      39.762  30.200  29.080  1.00  0.00    -0.354 N 
ATOM     46  C   UNL A   1      43.897  29.165  28.345  1.00  0.00     0.074 A 
ATOM     47  C   UNL A   1      44.005  27.790  27.902  1.00  0.00     0.031 C 
ATOM     48  C   UNL A   1      37.554  29.860  29.139  1.00  0.00     0.029 A 
ATOM     49  C   UNL A   1      38.599  30.836  29.443  1.00  0.00     0.049 A 
ATOM     50  H   UNL A   1      40.648  30.628  29.125  1.00  0.00     0.167 HD
ATOM     51  C   UNL A   1      44.948  30.011  28.489  1.00  0.00     0.034 A 
ATOM     52  C   UNL A   1      38.402  32.056  29.983  1.00  0.00     0.034 A 
ATOM     53  C   UNL A   1      44.823  31.371  28.960  1.00  0.00     0.049 A 
ATOM     54  C   UNL A   1      39.588  32.958  30.215  1.00  0.00     0.074 A 
ATOM     55  C   UNL A   1      45.815  32.322  29.127  1.00  0.00     0.029 A 
ATOM     56  N   UNL A   1      43.634  31.970  29.365  1.00  0.00    -0.354 N 
ATOM     57  N   UNL A   1      40.862  32.731  29.981  1.00  0.00    -0.248 NA
ATOM     58  C   UNL A   1      39.307  34.288  30.766  1.00  0.00     0.031 C 
ATOM     59  C   UNL A   1      45.242  33.457  29.716  1.00  0.00     0.029 A 
ATOM     60  C   UNL A   1      43.874  33.258  29.824  1.00  0.00     0.049 A 
ATOM     61  H   UNL A   1      42.748  31.540  29.331  1.00  0.00     0.167 HD
ATOM     62  C   UNL A   1      41.530  33.901  30.337  1.00  0.00     0.074 A 
ATOM     63  C   UNL A   1      40.514  34.836  30.777  1.00  0.00     0.031 C 
ATOM     64  C   UNL A   1      42.862  34.178  30.297  1.00  0.00     0.034 A 
BRANCH  51  65
ATOM     65  C   UNL A   1      46.324  29.449  28.198  1.00  0.00     0.023 A 
ATOM     66  C   UNL A   1      47.104  28.838  29.197  1.00  0.00     0.031 A 
ATOM     67  C   UNL A   1      46.898  29.598  26.923  1.00  0.00     0.131 A 
ATOM     68  C   UNL A   1      48.443  28.507  28.938  1.00  0.00     0.055 A 
ATOM     69  C   UNL A   1      48.197  29.170  26.643  1.00  0.00     0.041 A 
ATOM     70  F   UNL A   1      46.216  30.192  25.930  1.00  0.00    -0.206 F 
ATOM     71  C   UNL A   1      48.987  28.643  27.660  1.00  0.00     0.022 A 
BRANCH  68  72
ATOM     72  S   UNL A   1      49.519  28.097  30.342  1.00  0.00     0.124 S 
ATOM     73  O   UNL A   1      48.608  27.345  31.203  1.00  0.00    -0.237 OA
ATOM     74  O   UNL A   1      50.582  27.327  29.709  1.00  0.00    -0.237 OA
ATOM     75  O   UNL A   1      49.916  29.404  30.862  1.00  0.00    -0.744 OA
ENDBRANCH  68  72
ENDBRANCH  51  65
BRANCH  52  76
ATOM     76  C   UNL A   1      37.027  32.477  30.383  1.00  0.00     0.023 A 
ATOM     77  C   UNL A   1      36.135  33.057  29.467  1.00  0.00     0.031 A 
ATOM     78  C   UNL A   1      36.594  32.311  31.712  1.00  0.00     0.131 A 
ATOM     79  C   UNL A   1      34.864  33.472  29.898  1.00  0.00     0.055 A 
ATOM     80  C   UNL A   1      35.312  32.677  32.123  1.00  0.00     0.041 A 
ATOM     81  F   UNL A   1      37.410  31.767  32.630  1.00  0.00    -0.206 F 
ATOM     82  C   UNL A   1      34.441  33.268  31.214  1.00  0.00     0.022 A 
BRANCH  79  83
ATOM     83  S   UNL A   1      33.783  34.339  28.725  1.00  0.00     0.124 S 
ATOM     84  O   UNL A   1      34.655  35.405  28.247  1.00  0.00    -0.237 OA
ATOM     85  O   UNL A   1      33.469  33.288  27.762  1.00  0.00    -0.237 OA
ATOM     86  O   UNL A   1      32.661  34.775  29.555  1.00  0.00    -0.744 OA
ENDBRANCH  79  83
ENDBRANCH  52  76
BRANCH  64  87
ATOM     87  C   UNL A   1      43.286  35.571  30.713  1.00  0.00     0.023 A 
ATOM     88  C   UNL A   1      43.435  36.614  29.779  1.00  0.00     0.031 A 
ATOM     89  C   UNL A   1      43.585  35.851  32.059  1.00  0.00     0.131 A 
ATOM     90  C   UNL A   1      43.953  37.852  30.188  1.00  0.00     0.055 A 
ATOM     91  C   UNL A   1      44.021  37.112  32.473  1.00  0.00     0.041 A 
ATOM     92  F   UNL A   1      43.471  34.899  32.999  1.00  0.00    -0.206 F 
ATOM     93  C   UNL A   1      44.227  38.116  31.532  1.00  0.00     0.022 A 
BRANCH  90  94
ATOM     94  S   UNL A   1      44.406  39.067  28.917  1.00  0.00     0.124 S 
ATOM     95  O   UNL A   1      45.769  38.664  28.588  1.00  0.00    -0.237 OA
ATOM     96  O   UNL A   1      43.403  38.829  27.886  1.00  0.00    -0.237 OA
ATOM     97  O   UNL A   1      44.289  40.349  29.612  1.00  0.00    -0.744 OA
ENDBRANCH  90  94
ENDBRANCH  64  87
ENDBRANCH  38  39
ENDBRANCH  31  33
ENDBRANCH  30  31
ENDBRANCH  29  30
ENDBRANCH  28  29
ENDBRANCH  27  28
ENDBRANCH   1  27
TORSDOF 22
ENDMDL
