MODEL 1
REMARK VINA RESULT:      -7.7      0.000      0.000
REMARK SMILES COc1cccc(NC(=O)[C@@H]2[C@@H](C(=O)OCCOCCOCCOC(=O)c3ccc(-c4c5nc(c(-c6cc(S(=O)(=O)[O-])ccc6F)c6ccc([nH]6)c(-c6cc(S(=O)(=O)[O-])ccc6F)c6nc(c(-c7cc(S(=O)(=O)[O-])ccc7F)c7ccc4[nH]7)C=C6)C=C5)cc3)[C@H]3C=C[C@@H]2C3)c1
REMARK SMILES IDX 19 1 18 2 17 3 16 4 15 5 13 6 14 7 12 8 11 9 93 10 90 11
REMARK SMILES IDX 92 12 94 13 91 14 9 15 8 16 10 18 7 19 3 20 4 21 95 22 5 23
REMARK SMILES IDX 6 24 2 25 1 26 20 27 21 28 22 29 23 30 24 31 25 32 26 33
REMARK SMILES IDX 27 34 28 35 89 36 29 37 88 38 30 39 31 40 32 41 82 42 33 43
REMARK SMILES IDX 87 44 81 45 83 46 34 47 86 48 80 49 79 50 35 52 67 53 47 54
REMARK SMILES IDX 66 55 48 56 51 57 65 58 84 59 49 60 50 61 64 63 85 64 52 65
REMARK SMILES IDX 36 66 37 67 45 68 38 69 44 70 46 71 43 72 39 73 40 74 41 75
REMARK SMILES IDX 42 76 68 77 69 78 77 79 70 80 76 81 78 82 75 83 71 84 72 85
REMARK SMILES IDX 73 86 74 87 53 88 54 89 62 90 55 91 61 92 63 93 60 94 56 95
REMARK SMILES IDX 57 96 58 97 59 98
REMARK H PARENT 8 17 83 51 51 62
REMARK Flexibility Score: inf
ROOT
ATOM      1  C   UNL A   1      37.668  32.829  37.156  1.00  0.00     0.188 C 
ENDROOT
BRANCH   1   2
ATOM      2  O   UNL A   1      38.742  32.120  36.554  1.00  0.00    -0.376 OA
BRANCH   2   3
ATOM      3  C   UNL A   1      38.433  31.627  35.246  1.00  0.00     0.202 C 
BRANCH   3   4
ATOM      4  C   UNL A   1      38.624  30.107  35.096  1.00  0.00     0.261 C 
BRANCH   4   5
ATOM      5  O   UNL A   1      39.098  29.757  33.768  1.00  0.00    -0.463 OA
BRANCH   5   6
ATOM      6  C   UNL A   1      38.200  29.236  32.892  1.00  0.00     0.310 C 
ATOM      7  O   UNL A   1      37.444  28.324  33.207  1.00  0.00    -0.252 OA
BRANCH   6   8
ATOM      8  C   UNL A   1      38.313  29.824  31.457  1.00  0.00     0.119 C 
ATOM      9  C   UNL A   1      37.341  29.368  30.278  1.00  0.00     0.100 C 
ATOM     10  C   UNL A   1      38.367  28.715  29.276  1.00  0.00     0.025 C 
ATOM     11  C   UNL A   1      39.716  29.369  30.923  1.00  0.00     0.027 C 
ATOM     12  C   UNL A   1      38.936  27.461  29.888  1.00  0.00    -0.027 C 
ATOM     13  C   UNL A   1      39.593  29.633  29.433  1.00  0.00     0.017 C 
ATOM     14  C   UNL A   1      39.770  27.852  30.858  1.00  0.00    -0.027 C 
BRANCH   9  15
ATOM     15  C   UNL A   1      36.594  30.446  29.432  1.00  0.00     0.228 C 
ATOM     16  N   UNL A   1      36.403  31.741  29.835  1.00  0.00    -0.326 N 
ATOM     17  H   UNL A   1      35.537  32.114  29.553  1.00  0.00     0.169 HD
ATOM     18  O   UNL A   1      35.980  30.132  28.403  1.00  0.00    -0.274 OA
BRANCH  16  19
ATOM     19  C   UNL A   1      37.188  32.643  30.568  1.00  0.00     0.044 A 
ATOM     20  C   UNL A   1      37.443  34.162  32.456  1.00  0.00     0.120 A 
ATOM     21  C   UNL A   1      38.669  34.583  31.939  1.00  0.00     0.046 A 
ATOM     22  C   UNL A   1      36.705  33.181  31.776  1.00  0.00     0.072 A 
ATOM     23  C   UNL A   1      39.124  34.086  30.730  1.00  0.00     0.006 A 
ATOM     24  C   UNL A   1      38.362  33.148  30.044  1.00  0.00     0.026 A 
BRANCH  20  25
ATOM     25  O   UNL A   1      37.092  34.829  33.596  1.00  0.00    -0.497 OA
ATOM     26  C   UNL A   1      35.902  34.436  34.259  1.00  0.00     0.278 C 
ENDBRANCH  20  25
ENDBRANCH  16  19
ENDBRANCH   9  15
ENDBRANCH   6   8
ENDBRANCH   5   6
ENDBRANCH   4   5
ENDBRANCH   3   4
ENDBRANCH   2   3
ENDBRANCH   1   2
BRANCH   1  27
ATOM     27  C   UNL A   1      37.505  32.575  38.640  1.00  0.00     0.188 C 
BRANCH  27  28
ATOM     28  O   UNL A   1      38.751  32.410  39.317  1.00  0.00    -0.376 OA
BRANCH  28  29
ATOM     29  C   UNL A   1      38.872  33.238  40.473  1.00  0.00     0.202 C 
BRANCH  29  30
ATOM     30  C   UNL A   1      40.220  33.964  40.589  1.00  0.00     0.261 C 
BRANCH  30  31
ATOM     31  O   UNL A   1      40.284  35.093  39.697  1.00  0.00    -0.460 OA
BRANCH  31  32
ATOM     32  C   UNL A   1      41.536  35.479  39.323  1.00  0.00     0.338 C 
ATOM     33  O   UNL A   1      42.378  35.991  40.029  1.00  0.00    -0.246 OA
BRANCH  32  34
ATOM     34  C   UNL A   1      41.814  34.952  37.957  1.00  0.00     0.060 A 
ATOM     35  C   UNL A   1      40.765  34.965  37.022  1.00  0.00     0.016 A 
ATOM     36  C   UNL A   1      43.085  34.519  37.569  1.00  0.00     0.016 A 
ATOM     37  C   UNL A   1      40.973  34.516  35.716  1.00  0.00     0.010 A 
ATOM     38  C   UNL A   1      43.290  34.058  36.265  1.00  0.00     0.010 A 
ATOM     39  C   UNL A   1      42.229  34.022  35.342  1.00  0.00    -0.014 A 
BRANCH  39  40
ATOM     40  C   UNL A   1      42.384  33.245  34.087  1.00  0.00     0.031 A 
ATOM     41  C   UNL A   1      42.448  31.745  34.203  1.00  0.00     0.074 A 
ATOM     42  C   UNL A   1      42.471  33.839  32.882  1.00  0.00     0.049 A 
ATOM     43  N   UNL A   1      42.703  30.846  33.291  1.00  0.00    -0.248 NA
ATOM     44  C   UNL A   1      42.199  31.190  35.544  1.00  0.00     0.031 C 
ATOM     45  C   UNL A   1      42.362  35.276  32.635  1.00  0.00     0.029 A 
ATOM     46  N   UNL A   1      42.686  33.300  31.637  1.00  0.00    -0.354 N 
ATOM     47  C   UNL A   1      42.664  29.621  33.950  1.00  0.00     0.074 A 
ATOM     48  C   UNL A   1      42.394  29.897  35.343  1.00  0.00     0.031 C 
ATOM     49  C   UNL A   1      42.520  35.505  31.319  1.00  0.00     0.029 A 
ATOM     50  C   UNL A   1      42.794  34.239  30.636  1.00  0.00     0.049 A 
ATOM     51  H   UNL A   1      42.755  32.331  31.475  1.00  0.00     0.167 HD
ATOM     52  C   UNL A   1      42.837  28.379  33.437  1.00  0.00     0.034 A 
ATOM     53  C   UNL A   1      43.112  34.093  29.332  1.00  0.00     0.034 A 
ATOM     54  C   UNL A   1      43.115  28.122  32.047  1.00  0.00     0.049 A 
ATOM     55  C   UNL A   1      43.399  32.703  28.802  1.00  0.00     0.074 A 
ATOM     56  C   UNL A   1      43.302  26.905  31.416  1.00  0.00     0.029 A 
ATOM     57  N   UNL A   1      43.259  29.102  31.072  1.00  0.00    -0.354 N 
ATOM     58  N   UNL A   1      43.366  31.550  29.435  1.00  0.00    -0.248 NA
ATOM     59  C   UNL A   1      43.762  32.594  27.383  1.00  0.00     0.031 C 
ATOM     60  C   UNL A   1      43.637  27.152  30.081  1.00  0.00     0.029 A 
ATOM     61  C   UNL A   1      43.568  28.518  29.854  1.00  0.00     0.049 A 
ATOM     62  H   UNL A   1      43.157  30.069  31.225  1.00  0.00     0.167 HD
ATOM     63  C   UNL A   1      43.665  30.582  28.477  1.00  0.00     0.074 A 
ATOM     64  C   UNL A   1      43.863  31.283  27.227  1.00  0.00     0.031 C 
ATOM     65  C   UNL A   1      43.762  29.234  28.615  1.00  0.00     0.034 A 
BRANCH  52  66
ATOM     66  C   UNL A   1      42.794  27.217  34.402  1.00  0.00     0.023 A 
ATOM     67  C   UNL A   1      43.954  26.722  35.023  1.00  0.00     0.031 A 
ATOM     68  C   UNL A   1      41.573  26.574  34.676  1.00  0.00     0.131 A 
ATOM     69  C   UNL A   1      43.879  25.579  35.832  1.00  0.00     0.055 A 
ATOM     70  C   UNL A   1      41.494  25.488  35.549  1.00  0.00     0.041 A 
ATOM     71  F   UNL A   1      40.438  26.982  34.088  1.00  0.00    -0.206 F 
ATOM     72  C   UNL A   1      42.653  24.975  36.122  1.00  0.00     0.022 A 
BRANCH  69  73
ATOM     73  S   UNL A   1      45.423  24.803  36.384  1.00  0.00     0.124 S 
ATOM     74  O   UNL A   1      45.003  23.418  36.581  1.00  0.00    -0.237 OA
ATOM     75  O   UNL A   1      46.318  25.044  35.256  1.00  0.00    -0.237 OA
ATOM     76  O   UNL A   1      45.753  25.527  37.609  1.00  0.00    -0.744 OA
ENDBRANCH  69  73
ENDBRANCH  52  66
BRANCH  53  77
ATOM     77  C   UNL A   1      43.237  35.280  28.433  1.00  0.00     0.023 A 
ATOM     78  C   UNL A   1      44.485  35.877  28.183  1.00  0.00     0.031 A 
ATOM     79  C   UNL A   1      42.097  35.893  27.879  1.00  0.00     0.131 A 
ATOM     80  C   UNL A   1      44.559  37.073  27.453  1.00  0.00     0.055 A 
ATOM     81  C   UNL A   1      42.183  37.048  27.099  1.00  0.00     0.041 A 
ATOM     82  F   UNL A   1      40.876  35.378  28.094  1.00  0.00    -0.206 F 
ATOM     83  C   UNL A   1      43.418  37.655  26.896  1.00  0.00     0.022 A 
BRANCH  80  84
ATOM     84  S   UNL A   1      46.156  37.928  27.342  1.00  0.00     0.124 S 
ATOM     85  O   UNL A   1      45.808  39.104  26.551  1.00  0.00    -0.237 OA
ATOM     86  O   UNL A   1      46.470  38.169  28.746  1.00  0.00    -0.237 OA
ATOM     87  O   UNL A   1      47.017  36.956  26.670  1.00  0.00    -0.744 OA
ENDBRANCH  80  84
ENDBRANCH  53  77
BRANCH  65  88
ATOM     88  C   UNL A   1      44.033  28.425  27.367  1.00  0.00     0.023 A 
ATOM     89  C   UNL A   1      45.331  28.258  26.853  1.00  0.00     0.031 A 
ATOM     90  C   UNL A   1      42.969  27.809  26.684  1.00  0.00     0.131 A 
ATOM     91  C   UNL A   1      45.524  27.543  25.662  1.00  0.00     0.055 A 
ATOM     92  C   UNL A   1      43.175  27.041  25.538  1.00  0.00     0.041 A 
ATOM     93  F   UNL A   1      41.707  27.936  27.128  1.00  0.00    -0.206 F 
ATOM     94  C   UNL A   1      44.457  26.917  25.012  1.00  0.00     0.022 A 
BRANCH  91  95
ATOM     95  S   UNL A   1      47.177  27.520  24.915  1.00  0.00     0.124 S 
ATOM     96  O   UNL A   1      47.853  28.588  25.645  1.00  0.00    -0.237 OA
ATOM     97  O   UNL A   1      47.632  26.165  25.203  1.00  0.00    -0.237 OA
ATOM     98  O   UNL A   1      46.920  27.801  23.504  1.00  0.00    -0.744 OA
ENDBRANCH  91  95
ENDBRANCH  65  88
ENDBRANCH  39  40
ENDBRANCH  32  34
ENDBRANCH  31  32
ENDBRANCH  30  31
ENDBRANCH  29  30
ENDBRANCH  28  29
ENDBRANCH  27  28
ENDBRANCH   1  27
TORSDOF 23
ENDMDL
MODEL 2
REMARK VINA RESULT:      -7.0      6.232     12.588
REMARK SMILES COc1cccc(NC(=O)[C@@H]2[C@@H](C(=O)OCCOCCOCCOC(=O)c3ccc(-c4c5nc(c(-c6cc(S(=O)(=O)[O-])ccc6F)c6ccc([nH]6)c(-c6cc(S(=O)(=O)[O-])ccc6F)c6nc(c(-c7cc(S(=O)(=O)[O-])ccc7F)c7ccc4[nH]7)C=C6)C=C5)cc3)[C@H]3C=C[C@@H]2C3)c1
REMARK SMILES IDX 19 1 18 2 17 3 16 4 15 5 13 6 14 7 12 8 11 9 93 10 90 11
REMARK SMILES IDX 92 12 94 13 91 14 9 15 8 16 10 18 7 19 3 20 4 21 95 22 5 23
REMARK SMILES IDX 6 24 2 25 1 26 20 27 21 28 22 29 23 30 24 31 25 32 26 33
REMARK SMILES IDX 27 34 28 35 89 36 29 37 88 38 30 39 31 40 32 41 82 42 33 43
REMARK SMILES IDX 87 44 81 45 83 46 34 47 86 48 80 49 79 50 35 52 67 53 47 54
REMARK SMILES IDX 66 55 48 56 51 57 65 58 84 59 49 60 50 61 64 63 85 64 52 65
REMARK SMILES IDX 36 66 37 67 45 68 38 69 44 70 46 71 43 72 39 73 40 74 41 75
REMARK SMILES IDX 42 76 68 77 69 78 77 79 70 80 76 81 78 82 75 83 71 84 72 85
REMARK SMILES IDX 73 86 74 87 53 88 54 89 62 90 55 91 61 92 63 93 60 94 56 95
REMARK SMILES IDX 57 96 58 97 59 98
REMARK H PARENT 8 17 83 51 51 62
REMARK Flexibility Score: inf
ROOT
ATOM      1  C   UNL A   1      42.224  21.445  26.088  1.00  0.00     0.188 C 
ENDROOT
BRANCH   1   2
ATOM      2  O   UNL A   1      41.283  22.385  26.589  1.00  0.00    -0.376 OA
BRANCH   2   3
ATOM      3  C   UNL A   1      39.998  21.815  26.854  1.00  0.00     0.202 C 
BRANCH   3   4
ATOM      4  C   UNL A   1      39.073  21.772  25.625  1.00  0.00     0.261 C 
BRANCH   4   5
ATOM      5  O   UNL A   1      37.673  21.825  26.008  1.00  0.00    -0.463 OA
BRANCH   5   6
ATOM      6  C   UNL A   1      37.039  23.024  25.925  1.00  0.00     0.310 C 
ATOM      7  O   UNL A   1      37.658  24.075  25.805  1.00  0.00    -0.252 OA
BRANCH   6   8
ATOM      8  C   UNL A   1      35.498  22.931  26.112  1.00  0.00     0.119 C 
ATOM      9  C   UNL A   1      34.659  21.673  25.604  1.00  0.00     0.100 C 
ATOM     10  C   UNL A   1      33.729  22.346  24.524  1.00  0.00     0.025 C 
ATOM     11  C   UNL A   1      34.898  24.097  25.251  1.00  0.00     0.027 C 
ATOM     12  C   UNL A   1      34.567  22.814  23.363  1.00  0.00    -0.027 C 
ATOM     13  C   UNL A   1      33.431  23.712  25.168  1.00  0.00     0.017 C 
ATOM     14  C   UNL A   1      35.248  23.885  23.788  1.00  0.00    -0.027 C 
BRANCH   9  15
ATOM     15  C   UNL A   1      33.676  20.955  26.581  1.00  0.00     0.228 C 
ATOM     16  N   UNL A   1      32.949  19.841  26.256  1.00  0.00    -0.326 N 
ATOM     17  H   UNL A   1      32.052  19.828  26.663  1.00  0.00     0.169 HD
ATOM     18  O   UNL A   1      33.376  21.467  27.668  1.00  0.00    -0.274 OA
BRANCH  16  19
ATOM     19  C   UNL A   1      33.219  18.717  25.463  1.00  0.00     0.044 A 
ATOM     20  C   UNL A   1      32.938  16.338  25.017  1.00  0.00     0.120 A 
ATOM     21  C   UNL A   1      33.892  16.425  24.003  1.00  0.00     0.046 A 
ATOM     22  C   UNL A   1      32.590  17.488  25.742  1.00  0.00     0.072 A 
ATOM     23  C   UNL A   1      34.541  17.623  23.757  1.00  0.00     0.006 A 
ATOM     24  C   UNL A   1      34.220  18.745  24.513  1.00  0.00     0.026 A 
BRANCH  20  25
ATOM     25  O   UNL A   1      32.475  15.065  25.200  1.00  0.00    -0.497 OA
ATOM     26  C   UNL A   1      31.999  14.707  26.487  1.00  0.00     0.278 C 
ENDBRANCH  20  25
ENDBRANCH  16  19
ENDBRANCH   9  15
ENDBRANCH   6   8
ENDBRANCH   5   6
ENDBRANCH   4   5
ENDBRANCH   3   4
ENDBRANCH   2   3
ENDBRANCH   1   2
BRANCH   1  27
ATOM     27  C   UNL A   1      43.367  22.059  25.307  1.00  0.00     0.188 C 
BRANCH  27  28
ATOM     28  O   UNL A   1      44.517  22.313  26.112  1.00  0.00    -0.376 OA
BRANCH  28  29
ATOM     29  C   UNL A   1      45.589  22.910  25.383  1.00  0.00     0.202 C 
BRANCH  29  30
ATOM     30  C   UNL A   1      45.282  24.317  24.849  1.00  0.00     0.261 C 
BRANCH  30  31
ATOM     31  O   UNL A   1      44.682  25.142  25.865  1.00  0.00    -0.460 OA
BRANCH  31  32
ATOM     32  C   UNL A   1      43.537  25.785  25.503  1.00  0.00     0.338 C 
ATOM     33  O   UNL A   1      42.675  25.366  24.760  1.00  0.00    -0.246 OA
BRANCH  32  34
ATOM     34  C   UNL A   1      43.376  26.998  26.354  1.00  0.00     0.060 A 
ATOM     35  C   UNL A   1      42.694  28.098  25.809  1.00  0.00     0.016 A 
ATOM     36  C   UNL A   1      43.816  27.041  27.680  1.00  0.00     0.016 A 
ATOM     37  C   UNL A   1      42.483  29.250  26.570  1.00  0.00     0.010 A 
ATOM     38  C   UNL A   1      43.615  28.198  28.438  1.00  0.00     0.010 A 
ATOM     39  C   UNL A   1      42.978  29.320  27.877  1.00  0.00    -0.014 A 
BRANCH  39  40
ATOM     40  C   UNL A   1      43.058  30.627  28.578  1.00  0.00     0.031 A 
ATOM     41  C   UNL A   1      44.199  31.540  28.214  1.00  0.00     0.074 A 
ATOM     42  C   UNL A   1      42.159  30.998  29.508  1.00  0.00     0.049 A 
ATOM     43  N   UNL A   1      44.572  32.668  28.755  1.00  0.00    -0.248 NA
ATOM     44  C   UNL A   1      45.041  31.104  27.087  1.00  0.00     0.031 C 
ATOM     45  C   UNL A   1      40.980  30.229  29.901  1.00  0.00     0.029 A 
ATOM     46  N   UNL A   1      42.110  32.119  30.302  1.00  0.00    -0.354 N 
ATOM     47  C   UNL A   1      45.703  33.068  28.049  1.00  0.00     0.074 A 
ATOM     48  C   UNL A   1      45.971  32.045  27.063  1.00  0.00     0.031 C 
ATOM     49  C   UNL A   1      40.328  30.897  30.870  1.00  0.00     0.029 A 
ATOM     50  C   UNL A   1      41.069  32.114  31.203  1.00  0.00     0.049 A 
ATOM     51  H   UNL A   1      42.758  32.856  30.232  1.00  0.00     0.167 HD
ATOM     52  C   UNL A   1      46.447  34.189  28.207  1.00  0.00     0.034 A 
ATOM     53  C   UNL A   1      40.776  32.975  32.201  1.00  0.00     0.034 A 
ATOM     54  C   UNL A   1      46.170  35.195  29.202  1.00  0.00     0.049 A 
ATOM     55  C   UNL A   1      41.680  34.171  32.424  1.00  0.00     0.074 A 
ATOM     56  C   UNL A   1      46.852  36.373  29.448  1.00  0.00     0.029 A 
ATOM     57  N   UNL A   1      45.132  35.135  30.124  1.00  0.00    -0.354 N 
ATOM     58  N   UNL A   1      42.750  34.538  31.754  1.00  0.00    -0.248 NA
ATOM     59  C   UNL A   1      41.334  35.068  33.534  1.00  0.00     0.031 C 
ATOM     60  C   UNL A   1      46.278  36.984  30.567  1.00  0.00     0.029 A 
ATOM     61  C   UNL A   1      45.179  36.237  30.964  1.00  0.00     0.049 A 
ATOM     62  H   UNL A   1      44.463  34.415  30.174  1.00  0.00     0.167 HD
ATOM     63  C   UNL A   1      43.176  35.729  32.340  1.00  0.00     0.074 A 
ATOM     64  C   UNL A   1      42.244  36.022  33.406  1.00  0.00     0.031 C 
ATOM     65  C   UNL A   1      44.239  36.514  32.023  1.00  0.00     0.034 A 
BRANCH  52  66
ATOM     66  C   UNL A   1      47.663  34.346  27.327  1.00  0.00     0.023 A 
ATOM     67  C   UNL A   1      48.939  33.921  27.737  1.00  0.00     0.031 A 
ATOM     68  C   UNL A   1      47.548  34.962  26.068  1.00  0.00     0.131 A 
ATOM     69  C   UNL A   1      50.055  34.178  26.928  1.00  0.00     0.055 A 
ATOM     70  C   UNL A   1      48.651  35.139  25.231  1.00  0.00     0.041 A 
ATOM     71  F   UNL A   1      46.361  35.417  25.635  1.00  0.00    -0.206 F 
ATOM     72  C   UNL A   1      49.916  34.759  25.665  1.00  0.00     0.022 A 
BRANCH  69  73
ATOM     73  S   UNL A   1      51.710  33.876  27.609  1.00  0.00     0.124 S 
ATOM     74  O   UNL A   1      52.242  35.234  27.702  1.00  0.00    -0.237 OA
ATOM     75  O   UNL A   1      51.414  33.218  28.877  1.00  0.00    -0.237 OA
ATOM     76  O   UNL A   1      52.347  33.033  26.600  1.00  0.00    -0.744 OA
ENDBRANCH  69  73
ENDBRANCH  52  66
BRANCH  53  77
ATOM     77  C   UNL A   1      39.615  32.732  33.111  1.00  0.00     0.023 A 
ATOM     78  C   UNL A   1      38.332  33.212  32.797  1.00  0.00     0.031 A 
ATOM     79  C   UNL A   1      39.789  32.093  34.353  1.00  0.00     0.131 A 
ATOM     80  C   UNL A   1      37.290  33.097  33.732  1.00  0.00     0.055 A 
ATOM     81  C   UNL A   1      38.734  31.924  35.252  1.00  0.00     0.041 A 
ATOM     82  F   UNL A   1      40.994  31.626  34.715  1.00  0.00    -0.206 F 
ATOM     83  C   UNL A   1      37.479  32.442  34.951  1.00  0.00     0.022 A 
BRANCH  80  84
ATOM     84  S   UNL A   1      35.713  33.923  33.382  1.00  0.00     0.124 S 
ATOM     85  O   UNL A   1      35.594  33.736  31.940  1.00  0.00    -0.237 OA
ATOM     86  O   UNL A   1      34.782  33.161  34.207  1.00  0.00    -0.237 OA
ATOM     87  O   UNL A   1      35.945  35.300  33.816  1.00  0.00    -0.744 OA
ENDBRANCH  80  84
ENDBRANCH  53  77
BRANCH  65  88
ATOM     88  C   UNL A   1      44.409  37.799  32.800  1.00  0.00     0.023 A 
ATOM     89  C   UNL A   1      43.629  38.939  32.539  1.00  0.00     0.031 A 
ATOM     90  C   UNL A   1      45.370  37.879  33.825  1.00  0.00     0.131 A 
ATOM     91  C   UNL A   1      43.861  40.124  33.252  1.00  0.00     0.055 A 
ATOM     92  C   UNL A   1      45.551  39.040  34.577  1.00  0.00     0.041 A 
ATOM     93  F   UNL A   1      46.147  36.823  34.118  1.00  0.00    -0.206 F 
ATOM     94  C   UNL A   1      44.803  40.177  34.283  1.00  0.00     0.022 A 
BRANCH  91  95
ATOM     95  S   UNL A   1      42.983  41.631  32.752  1.00  0.00     0.124 S 
ATOM     96  O   UNL A   1      43.969  42.667  33.043  1.00  0.00    -0.237 OA
ATOM     97  O   UNL A   1      42.717  41.383  31.339  1.00  0.00    -0.237 OA
ATOM     98  O   UNL A   1      41.801  41.641  33.613  1.00  0.00    -0.744 OA
ENDBRANCH  91  95
ENDBRANCH  65  88
ENDBRANCH  39  40
ENDBRANCH  32  34
ENDBRANCH  31  32
ENDBRANCH  30  31
ENDBRANCH  29  30
ENDBRANCH  28  29
ENDBRANCH  27  28
ENDBRANCH   1  27
TORSDOF 23
ENDMDL
MODEL 3
REMARK VINA RESULT:      -6.6      5.392      9.815
REMARK SMILES COc1cccc(NC(=O)[C@@H]2[C@@H](C(=O)OCCOCCOCCOC(=O)c3ccc(-c4c5nc(c(-c6cc(S(=O)(=O)[O-])ccc6F)c6ccc([nH]6)c(-c6cc(S(=O)(=O)[O-])ccc6F)c6nc(c(-c7cc(S(=O)(=O)[O-])ccc7F)c7ccc4[nH]7)C=C6)C=C5)cc3)[C@H]3C=C[C@@H]2C3)c1
REMARK SMILES IDX 19 1 18 2 17 3 16 4 15 5 13 6 14 7 12 8 11 9 93 10 90 11
REMARK SMILES IDX 92 12 94 13 91 14 9 15 8 16 10 18 7 19 3 20 4 21 95 22 5 23
REMARK SMILES IDX 6 24 2 25 1 26 20 27 21 28 22 29 23 30 24 31 25 32 26 33
REMARK SMILES IDX 27 34 28 35 89 36 29 37 88 38 30 39 31 40 32 41 82 42 33 43
REMARK SMILES IDX 87 44 81 45 83 46 34 47 86 48 80 49 79 50 35 52 67 53 47 54
REMARK SMILES IDX 66 55 48 56 51 57 65 58 84 59 49 60 50 61 64 63 85 64 52 65
REMARK SMILES IDX 36 66 37 67 45 68 38 69 44 70 46 71 43 72 39 73 40 74 41 75
REMARK SMILES IDX 42 76 68 77 69 78 77 79 70 80 76 81 78 82 75 83 71 84 72 85
REMARK SMILES IDX 73 86 74 87 53 88 54 89 62 90 55 91 61 92 63 93 60 94 56 95
REMARK SMILES IDX 57 96 58 97 59 98
REMARK H PARENT 8 17 83 51 51 62
REMARK Flexibility Score: inf
ROOT
ATOM      1  C   UNL A   1      34.694  31.761  28.038  1.00  0.00     0.188 C 
ENDROOT
BRANCH   1   2
ATOM      2  O   UNL A   1      33.287  31.844  27.858  1.00  0.00    -0.376 OA
BRANCH   2   3
ATOM      3  C   UNL A   1      32.731  30.702  27.199  1.00  0.00     0.202 C 
BRANCH   3   4
ATOM      4  C   UNL A   1      33.713  30.000  26.243  1.00  0.00     0.261 C 
BRANCH   4   5
ATOM      5  O   UNL A   1      33.083  29.677  24.974  1.00  0.00    -0.463 OA
BRANCH   5   6
ATOM      6  C   UNL A   1      33.059  28.374  24.593  1.00  0.00     0.310 C 
ATOM      7  O   UNL A   1      34.020  27.842  24.049  1.00  0.00    -0.252 OA
BRANCH   6   8
ATOM      8  C   UNL A   1      31.682  27.685  24.808  1.00  0.00     0.119 C 
ATOM      9  C   UNL A   1      31.463  26.129  24.531  1.00  0.00     0.100 C 
ATOM     10  C   UNL A   1      30.407  26.177  23.362  1.00  0.00     0.025 C 
ATOM     11  C   UNL A   1      30.712  28.345  23.767  1.00  0.00     0.027 C 
ATOM     12  C   UNL A   1      31.050  26.758  22.129  1.00  0.00    -0.027 C 
ATOM     13  C   UNL A   1      29.538  27.382  23.766  1.00  0.00     0.017 C 
ATOM     14  C   UNL A   1      31.207  28.066  22.358  1.00  0.00    -0.027 C 
BRANCH   9  15
ATOM     15  C   UNL A   1      30.800  25.236  25.626  1.00  0.00     0.228 C 
ATOM     16  N   UNL A   1      30.707  23.872  25.550  1.00  0.00    -0.326 N 
ATOM     17  H   UNL A   1      29.872  23.515  25.930  1.00  0.00     0.169 HD
ATOM     18  O   UNL A   1      30.166  25.743  26.560  1.00  0.00    -0.274 OA
BRANCH  16  19
ATOM     19  C   UNL A   1      31.557  22.879  25.041  1.00  0.00     0.044 A 
ATOM     20  C   UNL A   1      32.247  20.544  24.944  1.00  0.00     0.120 A 
ATOM     21  C   UNL A   1      33.356  20.913  24.182  1.00  0.00     0.046 A 
ATOM     22  C   UNL A   1      31.338  21.527  25.365  1.00  0.00     0.072 A 
ATOM     23  C   UNL A   1      33.595  22.247  23.899  1.00  0.00     0.006 A 
ATOM     24  C   UNL A   1      32.711  23.215  24.361  1.00  0.00     0.026 A 
BRANCH  20  25
ATOM     25  O   UNL A   1      32.218  19.206  25.223  1.00  0.00    -0.497 OA
ATOM     26  C   UNL A   1      33.306  18.410  24.785  1.00  0.00     0.278 C 
ENDBRANCH  20  25
ENDBRANCH  16  19
ENDBRANCH   9  15
ENDBRANCH   6   8
ENDBRANCH   5   6
ENDBRANCH   4   5
ENDBRANCH   3   4
ENDBRANCH   2   3
ENDBRANCH   1   2
BRANCH   1  27
ATOM     27  C   UNL A   1      35.409  33.096  28.010  1.00  0.00     0.188 C 
BRANCH  27  28
ATOM     28  O   UNL A   1      34.588  34.157  27.523  1.00  0.00    -0.376 OA
BRANCH  28  29
ATOM     29  C   UNL A   1      34.400  35.201  28.477  1.00  0.00     0.202 C 
BRANCH  29  30
ATOM     30  C   UNL A   1      33.639  34.772  29.740  1.00  0.00     0.261 C 
BRANCH  30  31
ATOM     31  O   UNL A   1      34.429  34.986  30.924  1.00  0.00    -0.460 OA
BRANCH  31  32
ATOM     32  C   UNL A   1      34.462  33.948  31.807  1.00  0.00     0.338 C 
ATOM     33  O   UNL A   1      33.536  33.535  32.473  1.00  0.00    -0.246 OA
BRANCH  32  34
ATOM     34  C   UNL A   1      35.757  33.227  31.656  1.00  0.00     0.060 A 
ATOM     35  C   UNL A   1      35.802  31.872  32.022  1.00  0.00     0.016 A 
ATOM     36  C   UNL A   1      36.888  33.835  31.104  1.00  0.00     0.016 A 
ATOM     37  C   UNL A   1      36.979  31.135  31.872  1.00  0.00     0.010 A 
ATOM     38  C   UNL A   1      38.069  33.101  30.964  1.00  0.00     0.010 A 
ATOM     39  C   UNL A   1      38.131  31.758  31.379  1.00  0.00    -0.014 A 
BRANCH  39  40
ATOM     40  C   UNL A   1      39.455  31.101  31.518  1.00  0.00     0.031 A 
ATOM     41  C   UNL A   1      40.357  31.587  32.622  1.00  0.00     0.074 A 
ATOM     42  C   UNL A   1      39.855  30.112  30.698  1.00  0.00     0.049 A 
ATOM     43  N   UNL A   1      41.599  31.278  32.884  1.00  0.00    -0.248 NA
ATOM     44  C   UNL A   1      39.771  32.569  33.549  1.00  0.00     0.031 C 
ATOM     45  C   UNL A   1      39.050  29.515  29.634  1.00  0.00     0.029 A 
ATOM     46  N   UNL A   1      41.053  29.442  30.629  1.00  0.00    -0.354 N 
ATOM     47  C   UNL A   1      41.949  32.042  33.994  1.00  0.00     0.074 A 
ATOM     48  C   UNL A   1      40.800  32.851  34.333  1.00  0.00     0.031 C 
ATOM     49  C   UNL A   1      39.781  28.573  29.011  1.00  0.00     0.029 A 
ATOM     50  C   UNL A   1      41.122  28.535  29.595  1.00  0.00     0.049 A 
ATOM     51  H   UNL A   1      41.793  29.596  31.259  1.00  0.00     0.167 HD
ATOM     52  C   UNL A   1      43.124  32.063  34.669  1.00  0.00     0.034 A 
ATOM     53  C   UNL A   1      42.160  27.792  29.154  1.00  0.00     0.034 A 
ATOM     54  C   UNL A   1      44.263  31.256  34.311  1.00  0.00     0.049 A 
ATOM     55  C   UNL A   1      43.493  27.906  29.865  1.00  0.00     0.074 A 
ATOM     56  C   UNL A   1      45.500  31.192  34.927  1.00  0.00     0.029 A 
ATOM     57  N   UNL A   1      44.309  30.382  33.233  1.00  0.00    -0.354 N 
ATOM     58  N   UNL A   1      43.817  28.636  30.910  1.00  0.00    -0.248 NA
ATOM     59  C   UNL A   1      44.599  27.095  29.337  1.00  0.00     0.031 C 
ATOM     60  C   UNL A   1      46.318  30.342  34.177  1.00  0.00     0.029 A 
ATOM     61  C   UNL A   1      45.565  29.802  33.145  1.00  0.00     0.049 A 
ATOM     62  H   UNL A   1      43.560  30.201  32.621  1.00  0.00     0.167 HD
ATOM     63  C   UNL A   1      45.151  28.336  31.184  1.00  0.00     0.074 A 
ATOM     64  C   UNL A   1      45.566  27.355  30.205  1.00  0.00     0.031 C 
ATOM     65  C   UNL A   1      45.961  28.823  32.160  1.00  0.00     0.034 A 
BRANCH  52  66
ATOM     66  C   UNL A   1      43.247  33.036  35.817  1.00  0.00     0.023 A 
ATOM     67  C   UNL A   1      42.846  32.703  37.122  1.00  0.00     0.031 A 
ATOM     68  C   UNL A   1      43.746  34.332  35.592  1.00  0.00     0.131 A 
ATOM     69  C   UNL A   1      42.886  33.672  38.135  1.00  0.00     0.055 A 
ATOM     70  C   UNL A   1      43.861  35.266  36.623  1.00  0.00     0.041 A 
ATOM     71  F   UNL A   1      44.115  34.719  34.361  1.00  0.00    -0.206 F 
ATOM     72  C   UNL A   1      43.417  34.943  37.901  1.00  0.00     0.022 A 
BRANCH  69  73
ATOM     73  S   UNL A   1      42.099  33.299  39.726  1.00  0.00     0.124 S 
ATOM     74  O   UNL A   1      41.733  31.895  39.552  1.00  0.00    -0.237 OA
ATOM     75  O   UNL A   1      43.171  33.566  40.679  1.00  0.00    -0.237 OA
ATOM     76  O   UNL A   1      40.972  34.227  39.778  1.00  0.00    -0.744 OA
ENDBRANCH  69  73
ENDBRANCH  52  66
BRANCH  53  77
ATOM     77  C   UNL A   1      42.021  26.911  27.954  1.00  0.00     0.023 A 
ATOM     78  C   UNL A   1      41.757  25.537  28.087  1.00  0.00     0.031 A 
ATOM     79  C   UNL A   1      42.239  27.413  26.658  1.00  0.00     0.131 A 
ATOM     80  C   UNL A   1      41.774  24.706  26.956  1.00  0.00     0.055 A 
ATOM     81  C   UNL A   1      42.191  26.593  25.529  1.00  0.00     0.041 A 
ATOM     82  F   UNL A   1      42.510  28.714  26.469  1.00  0.00    -0.206 F 
ATOM     83  C   UNL A   1      41.974  25.227  25.676  1.00  0.00     0.022 A 
BRANCH  80  84
ATOM     84  S   UNL A   1      41.650  22.911  27.193  1.00  0.00     0.124 S 
ATOM     85  O   UNL A   1      42.689  22.422  26.293  1.00  0.00    -0.237 OA
ATOM     86  O   UNL A   1      41.921  22.774  28.619  1.00  0.00    -0.237 OA
ATOM     87  O   UNL A   1      40.279  22.607  26.788  1.00  0.00    -0.744 OA
ENDBRANCH  80  84
ENDBRANCH  53  77
BRANCH  65  88
ATOM     88  C   UNL A   1      47.357  28.251  32.255  1.00  0.00     0.023 A 
ATOM     89  C   UNL A   1      47.653  27.133  33.054  1.00  0.00     0.031 A 
ATOM     90  C   UNL A   1      48.408  28.838  31.526  1.00  0.00     0.131 A 
ATOM     91  C   UNL A   1      48.975  26.673  33.149  1.00  0.00     0.055 A 
ATOM     92  C   UNL A   1      49.708  28.334  31.571  1.00  0.00     0.041 A 
ATOM     93  F   UNL A   1      48.185  29.909  30.747  1.00  0.00    -0.206 F 
ATOM     94  C   UNL A   1      50.000  27.253  32.397  1.00  0.00     0.022 A 
BRANCH  91  95
ATOM     95  S   UNL A   1      49.359  25.363  34.344  1.00  0.00     0.124 S 
ATOM     96  O   UNL A   1      49.291  24.165  33.512  1.00  0.00    -0.237 OA
ATOM     97  O   UNL A   1      50.688  25.742  34.808  1.00  0.00    -0.237 OA
ATOM     98  O   UNL A   1      48.296  25.485  35.340  1.00  0.00    -0.744 OA
ENDBRANCH  91  95
ENDBRANCH  65  88
ENDBRANCH  39  40
ENDBRANCH  32  34
ENDBRANCH  31  32
ENDBRANCH  30  31
ENDBRANCH  29  30
ENDBRANCH  28  29
ENDBRANCH  27  28
ENDBRANCH   1  27
TORSDOF 23
ENDMDL
