MODEL 1
REMARK VINA RESULT:     -10.2      0.000      0.000
REMARK SMILES CS(=O)(=O)c1ccc(C2=NN(c3ccc(C(=O)OCCOCCOCCOC(=O)c4ccc(-c5c6nc(c(-c7cc(S(=O)(=O)[O-])ccc7F)c7ccc([nH]7)c(-c7cc(S(=O)(=O)[O-])ccc7F)c7nc(c(-c8cc(S(=O)(=O)[O-])ccc8F)c8ccc5[nH]8)C=C7)C=C6)cc4)cc3)[C@H](c3ccccc3)C2)cc1
REMARK SMILES IDX 22 1 21 2 20 3 19 4 18 5 16 6 17 7 15 8 12 9 13 10 94 11
REMARK SMILES IDX 14 12 93 13 11 14 9 15 10 16 102 17 95 18 8 19 5 20 6 21
REMARK SMILES IDX 104 22 7 23 103 24 2 25 1 26 3 27 4 28 96 29 97 30 101 31
REMARK SMILES IDX 98 32 100 33 99 34 23 35 24 36 25 37 26 38 27 39 28 40 29 41
REMARK SMILES IDX 30 42 31 43 92 44 32 45 91 46 33 47 34 48 35 49 85 50 36 51
REMARK SMILES IDX 90 52 84 53 86 54 37 55 89 56 83 57 82 58 38 60 70 61 50 62
REMARK SMILES IDX 69 63 51 64 54 65 68 66 87 67 52 68 53 69 67 71 88 72 55 73
REMARK SMILES IDX 39 74 40 75 48 76 41 77 47 78 49 79 46 80 42 81 43 82 44 83
REMARK SMILES IDX 45 84 71 85 72 86 80 87 73 88 79 89 81 90 78 91 74 92 75 93
REMARK SMILES IDX 76 94 77 95 56 96 57 97 65 98 58 99 64 100 66 101 63 102
REMARK SMILES IDX 59 103 60 104 61 105 62 106
REMARK H PARENT 86 59 54 70
REMARK Flexibility Score: inf
ROOT
ATOM      1  C   UNL A   1      43.498  23.658  27.108  1.00  0.00     0.188 C 
ENDROOT
BRANCH   1   2
ATOM      2  O   UNL A   1      42.483  23.255  26.205  1.00  0.00    -0.376 OA
BRANCH   2   3
ATOM      3  C   UNL A   1      41.730  22.080  26.449  1.00  0.00     0.202 C 
BRANCH   3   4
ATOM      4  C   UNL A   1      40.336  22.105  27.099  1.00  0.00     0.261 C 
BRANCH   4   5
ATOM      5  O   UNL A   1      39.303  22.722  26.325  1.00  0.00    -0.460 OA
BRANCH   5   6
ATOM      6  C   UNL A   1      38.512  21.872  25.622  1.00  0.00     0.338 C 
ATOM      7  O   UNL A   1      38.710  20.683  25.439  1.00  0.00    -0.246 OA
BRANCH   6   8
ATOM      8  C   UNL A   1      37.270  22.557  25.186  1.00  0.00     0.060 A 
ATOM      9  C   UNL A   1      34.781  23.685  24.548  1.00  0.00     0.060 A 
ATOM     10  C   UNL A   1      35.397  23.986  25.768  1.00  0.00     0.029 A 
ATOM     11  C   UNL A   1      35.497  22.942  23.597  1.00  0.00     0.029 A 
ATOM     12  C   UNL A   1      36.635  23.421  26.089  1.00  0.00     0.018 A 
ATOM     13  C   UNL A   1      36.723  22.357  23.916  1.00  0.00     0.018 A 
BRANCH   9  14
ATOM     14  N   UNL A   1      33.420  23.913  24.340  1.00  0.00    -0.257 N 
ATOM     15  C   UNL A   1      31.708  25.178  24.360  1.00  0.00     0.071 C 
ATOM     16  N   UNL A   1      32.960  25.147  24.017  1.00  0.00    -0.176 NA
ATOM     17  C   UNL A   1      31.207  23.969  25.106  1.00  0.00     0.091 C 
ATOM     18  C   UNL A   1      32.431  23.049  25.007  1.00  0.00     0.144 C 
BRANCH  15  19
ATOM     19  C   UNL A   1      30.805  26.297  24.017  1.00  0.00    -0.002 A 
ATOM     20  C   UNL A   1      29.193  28.433  23.210  1.00  0.00     0.067 A 
ATOM     21  C   UNL A   1      30.578  28.599  23.296  1.00  0.00     0.021 A 
ATOM     22  C   UNL A   1      28.604  27.209  23.547  1.00  0.00     0.021 A 
ATOM     23  C   UNL A   1      31.382  27.533  23.706  1.00  0.00     0.011 A 
ATOM     24  C   UNL A   1      29.415  26.137  23.944  1.00  0.00     0.011 A 
BRANCH  20  25
ATOM     25  S   UNL A   1      28.232  29.819  22.645  1.00  0.00     0.175 S 
ATOM     26  C   UNL A   1      28.872  31.265  23.438  1.00  0.00     0.163 C 
ATOM     27  O   UNL A   1      26.884  29.605  23.140  1.00  0.00    -0.224 OA
ATOM     28  O   UNL A   1      28.489  29.963  21.226  1.00  0.00    -0.224 OA
ENDBRANCH  20  25
ENDBRANCH  15  19
BRANCH  18  29
ATOM     29  C   UNL A   1      32.288  21.722  24.259  1.00  0.00    -0.023 A 
ATOM     30  C   UNL A   1      32.071  21.612  22.880  1.00  0.00     0.006 A 
ATOM     31  C   UNL A   1      32.456  20.524  24.987  1.00  0.00     0.006 A 
ATOM     32  C   UNL A   1      32.050  20.359  22.254  1.00  0.00     0.000 A 
ATOM     33  C   UNL A   1      32.494  19.279  24.356  1.00  0.00     0.000 A 
ATOM     34  C   UNL A   1      32.286  19.196  22.986  1.00  0.00     0.000 A 
ENDBRANCH  18  29
ENDBRANCH   9  14
ENDBRANCH   6   8
ENDBRANCH   5   6
ENDBRANCH   4   5
ENDBRANCH   3   4
ENDBRANCH   2   3
ENDBRANCH   1   2
BRANCH   1  35
ATOM     35  C   UNL A   1      44.809  22.849  27.201  1.00  0.00     0.188 C 
BRANCH  35  36
ATOM     36  O   UNL A   1      45.153  22.055  26.091  1.00  0.00    -0.376 OA
BRANCH  36  37
ATOM     37  C   UNL A   1      45.860  22.629  25.007  1.00  0.00     0.202 C 
BRANCH  37  38
ATOM     38  C   UNL A   1      45.875  24.121  24.606  1.00  0.00     0.261 C 
BRANCH  38  39
ATOM     39  O   UNL A   1      47.038  24.902  24.885  1.00  0.00    -0.460 OA
BRANCH  39  40
ATOM     40  C   UNL A   1      47.395  24.996  26.191  1.00  0.00     0.338 C 
ATOM     41  O   UNL A   1      48.139  24.246  26.804  1.00  0.00    -0.246 OA
BRANCH  40  42
ATOM     42  C   UNL A   1      46.872  26.268  26.726  1.00  0.00     0.060 A 
ATOM     43  C   UNL A   1      46.282  27.191  25.851  1.00  0.00     0.016 A 
ATOM     44  C   UNL A   1      46.960  26.544  28.091  1.00  0.00     0.016 A 
ATOM     45  C   UNL A   1      45.769  28.393  26.344  1.00  0.00     0.010 A 
ATOM     46  C   UNL A   1      46.471  27.760  28.577  1.00  0.00     0.010 A 
ATOM     47  C   UNL A   1      45.884  28.697  27.706  1.00  0.00    -0.014 A 
BRANCH  47  48
ATOM     48  C   UNL A   1      45.532  30.049  28.209  1.00  0.00     0.031 A 
ATOM     49  C   UNL A   1      46.580  31.126  28.173  1.00  0.00     0.074 A 
ATOM     50  C   UNL A   1      44.308  30.315  28.699  1.00  0.00     0.049 A 
ATOM     51  N   UNL A   1      46.544  32.340  28.656  1.00  0.00    -0.248 NA
ATOM     52  C   UNL A   1      47.842  30.776  27.504  1.00  0.00     0.031 C 
ATOM     53  C   UNL A   1      43.190  29.374  28.734  1.00  0.00     0.029 A 
ATOM     54  N   UNL A   1      43.806  31.456  29.277  1.00  0.00    -0.354 N 
ATOM     55  C   UNL A   1      47.782  32.901  28.359  1.00  0.00     0.074 A 
ATOM     56  C   UNL A   1      48.555  31.876  27.688  1.00  0.00     0.031 C 
ATOM     57  C   UNL A   1      42.136  29.973  29.316  1.00  0.00     0.029 A 
ATOM     58  C   UNL A   1      42.519  31.319  29.742  1.00  0.00     0.049 A 
ATOM     59  H   UNL A   1      44.320  32.292  29.351  1.00  0.00     0.167 HD
ATOM     60  C   UNL A   1      48.228  34.156  28.617  1.00  0.00     0.034 A 
ATOM     61  C   UNL A   1      41.754  32.168  30.460  1.00  0.00     0.034 A 
ATOM     62  C   UNL A   1      47.452  35.156  29.307  1.00  0.00     0.049 A 
ATOM     63  C   UNL A   1      42.318  33.515  30.851  1.00  0.00     0.074 A 
ATOM     64  C   UNL A   1      47.801  36.461  29.610  1.00  0.00     0.029 A 
ATOM     65  N   UNL A   1      46.175  34.960  29.824  1.00  0.00    -0.354 N 
ATOM     66  N   UNL A   1      43.487  34.041  30.560  1.00  0.00    -0.248 NA
ATOM     67  C   UNL A   1      41.460  34.382  31.669  1.00  0.00     0.031 C 
ATOM     68  C   UNL A   1      46.778  37.023  30.382  1.00  0.00     0.029 A 
ATOM     69  C   UNL A   1      45.747  36.102  30.483  1.00  0.00     0.049 A 
ATOM     70  H   UNL A   1      45.653  34.131  29.733  1.00  0.00     0.167 HD
ATOM     71  C   UNL A   1      43.489  35.309  31.138  1.00  0.00     0.074 A 
ATOM     72  C   UNL A   1      42.200  35.475  31.777  1.00  0.00     0.031 C 
ATOM     73  C   UNL A   1      44.465  36.253  31.136  1.00  0.00     0.034 A 
BRANCH  60  74
ATOM     74  C   UNL A   1      49.643  34.484  28.202  1.00  0.00     0.023 A 
ATOM     75  C   UNL A   1      49.958  34.873  26.888  1.00  0.00     0.031 A 
ATOM     76  C   UNL A   1      50.699  34.367  29.124  1.00  0.00     0.131 A 
ATOM     77  C   UNL A   1      51.298  35.047  26.513  1.00  0.00     0.055 A 
ATOM     78  C   UNL A   1      52.022  34.630  28.767  1.00  0.00     0.041 A 
ATOM     79  F   UNL A   1      50.464  33.976  30.387  1.00  0.00    -0.206 F 
ATOM     80  C   UNL A   1      52.331  34.955  27.449  1.00  0.00     0.022 A 
BRANCH  77  81
ATOM     81  S   UNL A   1      51.685  35.230  24.751  1.00  0.00     0.124 S 
ATOM     82  O   UNL A   1      53.111  35.547  24.794  1.00  0.00    -0.237 OA
ATOM     83  O   UNL A   1      51.337  33.920  24.214  1.00  0.00    -0.237 OA
ATOM     84  O   UNL A   1      50.824  36.331  24.324  1.00  0.00    -0.744 OA
ENDBRANCH  77  81
ENDBRANCH  60  74
BRANCH  61  85
ATOM     85  C   UNL A   1      40.389  31.763  30.910  1.00  0.00     0.023 A 
ATOM     86  C   UNL A   1      39.243  32.214  30.238  1.00  0.00     0.031 A 
ATOM     87  C   UNL A   1      40.209  30.967  32.056  1.00  0.00     0.131 A 
ATOM     88  C   UNL A   1      37.968  31.904  30.739  1.00  0.00     0.055 A 
ATOM     89  C   UNL A   1      38.941  30.612  32.516  1.00  0.00     0.041 A 
ATOM     90  F   UNL A   1      41.271  30.519  32.746  1.00  0.00    -0.206 F 
ATOM     91  C   UNL A   1      37.810  31.092  31.864  1.00  0.00     0.022 A 
BRANCH  88  92
ATOM     92  S   UNL A   1      36.517  32.654  29.949  1.00  0.00     0.124 S 
ATOM     93  O   UNL A   1      36.247  33.780  30.836  1.00  0.00    -0.237 OA
ATOM     94  O   UNL A   1      37.030  32.989  28.626  1.00  0.00    -0.237 OA
ATOM     95  O   UNL A   1      35.523  31.584  29.978  1.00  0.00    -0.744 OA
ENDBRANCH  88  92
ENDBRANCH  61  85
BRANCH  73  96
ATOM     96  C   UNL A   1      44.162  37.567  31.819  1.00  0.00     0.023 A 
ATOM     97  C   UNL A   1      43.706  38.688  31.102  1.00  0.00     0.031 A 
ATOM     98  C   UNL A   1      44.331  37.701  33.209  1.00  0.00     0.131 A 
ATOM     99  C   UNL A   1      43.485  39.904  31.768  1.00  0.00     0.055 A 
ATOM    100  C   UNL A   1      44.045  38.893  33.876  1.00  0.00     0.041 A 
ATOM    101  F   UNL A   1      44.771  36.668  33.947  1.00  0.00    -0.206 F 
ATOM    102  C   UNL A   1      43.631  40.007  33.153  1.00  0.00     0.022 A 
BRANCH  99 103
ATOM    103  S   UNL A   1      43.096  41.378  30.785  1.00  0.00     0.124 S 
ATOM    104  O   UNL A   1      43.939  42.391  31.411  1.00  0.00    -0.237 OA
ATOM    105  O   UNL A   1      43.483  40.970  29.439  1.00  0.00    -0.237 OA
ATOM    106  O   UNL A   1      41.659  41.557  30.989  1.00  0.00    -0.744 OA
ENDBRANCH  99 103
ENDBRANCH  73  96
ENDBRANCH  47  48
ENDBRANCH  40  42
ENDBRANCH  39  40
ENDBRANCH  38  39
ENDBRANCH  37  38
ENDBRANCH  36  37
ENDBRANCH  35  36
ENDBRANCH   1  35
TORSDOF 24
ENDMDL
MODEL 2
REMARK VINA RESULT:     -10.2      5.642     12.248
REMARK SMILES CS(=O)(=O)c1ccc(C2=NN(c3ccc(C(=O)OCCOCCOCCOC(=O)c4ccc(-c5c6nc(c(-c7cc(S(=O)(=O)[O-])ccc7F)c7ccc([nH]7)c(-c7cc(S(=O)(=O)[O-])ccc7F)c7nc(c(-c8cc(S(=O)(=O)[O-])ccc8F)c8ccc5[nH]8)C=C7)C=C6)cc4)cc3)[C@H](c3ccccc3)C2)cc1
REMARK SMILES IDX 22 1 21 2 20 3 19 4 18 5 16 6 17 7 15 8 12 9 13 10 94 11
REMARK SMILES IDX 14 12 93 13 11 14 9 15 10 16 102 17 95 18 8 19 5 20 6 21
REMARK SMILES IDX 104 22 7 23 103 24 2 25 1 26 3 27 4 28 96 29 97 30 101 31
REMARK SMILES IDX 98 32 100 33 99 34 23 35 24 36 25 37 26 38 27 39 28 40 29 41
REMARK SMILES IDX 30 42 31 43 92 44 32 45 91 46 33 47 34 48 35 49 85 50 36 51
REMARK SMILES IDX 90 52 84 53 86 54 37 55 89 56 83 57 82 58 38 60 70 61 50 62
REMARK SMILES IDX 69 63 51 64 54 65 68 66 87 67 52 68 53 69 67 71 88 72 55 73
REMARK SMILES IDX 39 74 40 75 48 76 41 77 47 78 49 79 46 80 42 81 43 82 44 83
REMARK SMILES IDX 45 84 71 85 72 86 80 87 73 88 79 89 81 90 78 91 74 92 75 93
REMARK SMILES IDX 76 94 77 95 56 96 57 97 65 98 58 99 64 100 66 101 63 102
REMARK SMILES IDX 59 103 60 104 61 105 62 106
REMARK H PARENT 86 59 54 70
REMARK Flexibility Score: inf
ROOT
ATOM      1  C   UNL A   1      33.667  34.893  30.046  1.00  0.00     0.188 C 
ENDROOT
BRANCH   1   2
ATOM      2  O   UNL A   1      33.729  33.571  29.540  1.00  0.00    -0.376 OA
BRANCH   2   3
ATOM      3  C   UNL A   1      34.978  32.979  29.229  1.00  0.00     0.202 C 
BRANCH   3   4
ATOM      4  C   UNL A   1      35.116  31.515  28.779  1.00  0.00     0.261 C 
BRANCH   4   5
ATOM      5  O   UNL A   1      36.449  30.994  28.768  1.00  0.00    -0.460 OA
BRANCH   5   6
ATOM      6  C   UNL A   1      36.688  29.981  29.638  1.00  0.00     0.338 C 
ATOM      7  O   UNL A   1      35.912  29.542  30.470  1.00  0.00    -0.246 OA
BRANCH   6   8
ATOM      8  C   UNL A   1      38.012  29.365  29.370  1.00  0.00     0.060 A 
ATOM      9  C   UNL A   1      40.378  28.016  28.695  1.00  0.00     0.060 A 
ATOM     10  C   UNL A   1      39.748  28.844  27.759  1.00  0.00     0.029 A 
ATOM     11  C   UNL A   1      39.893  27.998  30.011  1.00  0.00     0.029 A 
ATOM     12  C   UNL A   1      38.567  29.513  28.092  1.00  0.00     0.018 A 
ATOM     13  C   UNL A   1      38.703  28.646  30.348  1.00  0.00     0.018 A 
BRANCH   9  14
ATOM     14  N   UNL A   1      41.320  27.060  28.310  1.00  0.00    -0.257 N 
ATOM     15  C   UNL A   1      41.991  25.047  28.162  1.00  0.00     0.071 C 
ATOM     16  N   UNL A   1      40.944  25.796  27.998  1.00  0.00    -0.176 NA
ATOM     17  C   UNL A   1      43.195  25.729  28.759  1.00  0.00     0.091 C 
ATOM     18  C   UNL A   1      42.710  27.185  28.780  1.00  0.00     0.144 C 
BRANCH  15  19
ATOM     19  C   UNL A   1      42.037  23.625  27.761  1.00  0.00    -0.002 A 
ATOM     20  C   UNL A   1      42.187  20.991  26.834  1.00  0.00     0.067 A 
ATOM     21  C   UNL A   1      41.433  21.936  26.131  1.00  0.00     0.021 A 
ATOM     22  C   UNL A   1      42.849  21.350  28.013  1.00  0.00     0.021 A 
ATOM     23  C   UNL A   1      41.354  23.250  26.598  1.00  0.00     0.011 A 
ATOM     24  C   UNL A   1      42.779  22.673  28.472  1.00  0.00     0.011 A 
BRANCH  20  25
ATOM     25  S   UNL A   1      42.276  19.346  26.163  1.00  0.00     0.175 S 
ATOM     26  C   UNL A   1      43.621  19.315  25.015  1.00  0.00     0.163 C 
ATOM     27  O   UNL A   1      41.049  19.149  25.412  1.00  0.00    -0.224 OA
ATOM     28  O   UNL A   1      42.629  18.462  27.257  1.00  0.00    -0.224 OA
ENDBRANCH  20  25
ENDBRANCH  15  19
BRANCH  18  29
ATOM     29  C   UNL A   1      43.468  28.218  27.944  1.00  0.00    -0.023 A 
ATOM     30  C   UNL A   1      44.685  27.971  27.295  1.00  0.00     0.006 A 
ATOM     31  C   UNL A   1      42.875  29.484  27.748  1.00  0.00     0.006 A 
ATOM     32  C   UNL A   1      45.266  28.939  26.466  1.00  0.00     0.000 A 
ATOM     33  C   UNL A   1      43.423  30.427  26.876  1.00  0.00     0.000 A 
ATOM     34  C   UNL A   1      44.625  30.155  26.237  1.00  0.00     0.000 A 
ENDBRANCH  18  29
ENDBRANCH   9  14
ENDBRANCH   6   8
ENDBRANCH   5   6
ENDBRANCH   4   5
ENDBRANCH   3   4
ENDBRANCH   2   3
ENDBRANCH   1   2
BRANCH   1  35
ATOM     35  C   UNL A   1      34.038  35.170  31.518  1.00  0.00     0.188 C 
BRANCH  35  36
ATOM     36  O   UNL A   1      33.333  34.455  32.503  1.00  0.00    -0.376 OA
BRANCH  36  37
ATOM     37  C   UNL A   1      33.988  33.440  33.243  1.00  0.00     0.202 C 
BRANCH  37  38
ATOM     38  C   UNL A   1      35.163  33.634  34.227  1.00  0.00     0.261 C 
BRANCH  38  39
ATOM     39  O   UNL A   1      36.490  33.332  33.789  1.00  0.00    -0.460 OA
BRANCH  39  40
ATOM     40  C   UNL A   1      37.324  32.815  34.726  1.00  0.00     0.338 C 
ATOM     41  O   UNL A   1      37.095  32.680  35.918  1.00  0.00    -0.246 OA
BRANCH  40  42
ATOM     42  C   UNL A   1      38.512  32.270  34.042  1.00  0.00     0.060 A 
ATOM     43  C   UNL A   1      39.765  32.353  34.668  1.00  0.00     0.016 A 
ATOM     44  C   UNL A   1      38.388  31.674  32.786  1.00  0.00     0.016 A 
ATOM     45  C   UNL A   1      40.897  31.829  34.040  1.00  0.00     0.010 A 
ATOM     46  C   UNL A   1      39.528  31.177  32.147  1.00  0.00     0.010 A 
ATOM     47  C   UNL A   1      40.790  31.262  32.764  1.00  0.00    -0.014 A 
BRANCH  47  48
ATOM     48  C   UNL A   1      42.008  30.890  32.001  1.00  0.00     0.031 A 
ATOM     49  C   UNL A   1      42.642  29.553  32.263  1.00  0.00     0.074 A 
ATOM     50  C   UNL A   1      42.549  31.727  31.097  1.00  0.00     0.049 A 
ATOM     51  N   UNL A   1      43.763  29.057  31.808  1.00  0.00    -0.248 NA
ATOM     52  C   UNL A   1      41.909  28.658  33.172  1.00  0.00     0.031 C 
ATOM     53  C   UNL A   1      41.997  33.024  30.711  1.00  0.00     0.029 A 
ATOM     54  N   UNL A   1      43.698  31.614  30.352  1.00  0.00    -0.354 N 
ATOM     55  C   UNL A   1      43.877  27.795  32.380  1.00  0.00     0.074 A 
ATOM     56  C   UNL A   1      42.728  27.621  33.244  1.00  0.00     0.031 C 
ATOM     57  C   UNL A   1      42.815  33.593  29.808  1.00  0.00     0.029 A 
ATOM     58  C   UNL A   1      43.974  32.727  29.592  1.00  0.00     0.049 A 
ATOM     59  H   UNL A   1      44.269  30.812  30.361  1.00  0.00     0.167 HD
ATOM     60  C   UNL A   1      44.848  26.865  32.195  1.00  0.00     0.034 A 
ATOM     61  C   UNL A   1      45.053  33.026  28.840  1.00  0.00     0.034 A 
ATOM     62  C   UNL A   1      45.998  27.065  31.348  1.00  0.00     0.049 A 
ATOM     63  C   UNL A   1      46.187  32.030  28.751  1.00  0.00     0.074 A 
ATOM     64  C   UNL A   1      47.034  26.187  31.080  1.00  0.00     0.029 A 
ATOM     65  N   UNL A   1      46.279  28.232  30.646  1.00  0.00    -0.354 N 
ATOM     66  N   UNL A   1      46.284  30.835  29.289  1.00  0.00    -0.248 NA
ATOM     67  C   UNL A   1      47.357  32.425  27.955  1.00  0.00     0.031 C 
ATOM     68  C   UNL A   1      47.980  26.851  30.291  1.00  0.00     0.029 A 
ATOM     69  C   UNL A   1      47.493  28.112  29.987  1.00  0.00     0.049 A 
ATOM     70  H   UNL A   1      45.700  29.027  30.621  1.00  0.00     0.167 HD
ATOM     71  C   UNL A   1      47.514  30.328  28.871  1.00  0.00     0.074 A 
ATOM     72  C   UNL A   1      48.112  31.338  28.024  1.00  0.00     0.031 C 
ATOM     73  C   UNL A   1      48.094  29.134  29.158  1.00  0.00     0.034 A 
BRANCH  60  74
ATOM     74  C   UNL A   1      44.729  25.579  32.978  1.00  0.00     0.023 A 
ATOM     75  C   UNL A   1      45.177  25.476  34.306  1.00  0.00     0.031 A 
ATOM     76  C   UNL A   1      44.196  24.426  32.373  1.00  0.00     0.131 A 
ATOM     77  C   UNL A   1      45.163  24.232  34.955  1.00  0.00     0.055 A 
ATOM     78  C   UNL A   1      44.101  23.213  33.055  1.00  0.00     0.041 A 
ATOM     79  F   UNL A   1      43.774  24.456  31.099  1.00  0.00    -0.206 F 
ATOM     80  C   UNL A   1      44.603  23.105  34.349  1.00  0.00     0.022 A 
BRANCH  77  81
ATOM     81  S   UNL A   1      46.037  24.072  36.536  1.00  0.00     0.124 S 
ATOM     82  O   UNL A   1      45.898  25.418  37.087  1.00  0.00    -0.237 OA
ATOM     83  O   UNL A   1      45.279  23.024  37.210  1.00  0.00    -0.237 OA
ATOM     84  O   UNL A   1      47.396  23.706  36.141  1.00  0.00    -0.744 OA
ENDBRANCH  77  81
ENDBRANCH  60  74
BRANCH  61  85
ATOM     85  C   UNL A   1      45.154  34.346  28.149  1.00  0.00     0.023 A 
ATOM     86  C   UNL A   1      45.727  35.456  28.789  1.00  0.00     0.031 A 
ATOM     87  C   UNL A   1      44.623  34.532  26.859  1.00  0.00     0.131 A 
ATOM     88  C   UNL A   1      45.718  36.711  28.158  1.00  0.00     0.055 A 
ATOM     89  C   UNL A   1      44.670  35.767  26.212  1.00  0.00     0.041 A 
ATOM     90  F   UNL A   1      44.051  33.507  26.205  1.00  0.00    -0.206 F 
ATOM     91  C   UNL A   1      45.210  36.870  26.867  1.00  0.00     0.022 A 
BRANCH  88  92
ATOM     92  S   UNL A   1      46.303  38.155  29.088  1.00  0.00     0.124 S 
ATOM     93  O   UNL A   1      47.690  37.792  29.356  1.00  0.00    -0.237 OA
ATOM     94  O   UNL A   1      46.096  39.237  28.132  1.00  0.00    -0.237 OA
ATOM     95  O   UNL A   1      45.428  38.183  30.257  1.00  0.00    -0.744 OA
ENDBRANCH  88  92
ENDBRANCH  61  85
BRANCH  73  96
ATOM     96  C   UNL A   1      49.432  28.840  28.519  1.00  0.00     0.023 A 
ATOM     97  C   UNL A   1      49.535  28.348  27.206  1.00  0.00     0.031 A 
ATOM     98  C   UNL A   1      50.623  29.058  29.235  1.00  0.00     0.131 A 
ATOM     99  C   UNL A   1      50.795  28.040  26.669  1.00  0.00     0.055 A 
ATOM    100  C   UNL A   1      51.877  28.815  28.673  1.00  0.00     0.041 A 
ATOM    101  F   UNL A   1      50.589  29.520  30.495  1.00  0.00    -0.206 F 
ATOM    102  C   UNL A   1      51.967  28.291  27.387  1.00  0.00     0.022 A 
BRANCH  99 103
ATOM    103  S   UNL A   1      50.879  27.217  25.055  1.00  0.00     0.124 S 
ATOM    104  O   UNL A   1      52.315  27.011  24.894  1.00  0.00    -0.237 OA
ATOM    105  O   UNL A   1      50.083  26.014  25.274  1.00  0.00    -0.237 OA
ATOM    106  O   UNL A   1      50.287  28.194  24.142  1.00  0.00    -0.744 OA
ENDBRANCH  99 103
ENDBRANCH  73  96
ENDBRANCH  47  48
ENDBRANCH  40  42
ENDBRANCH  39  40
ENDBRANCH  38  39
ENDBRANCH  37  38
ENDBRANCH  36  37
ENDBRANCH  35  36
ENDBRANCH   1  35
TORSDOF 24
ENDMDL
MODEL 3
REMARK VINA RESULT:     -10.0      6.187     12.590
REMARK SMILES CS(=O)(=O)c1ccc(C2=NN(c3ccc(C(=O)OCCOCCOCCOC(=O)c4ccc(-c5c6nc(c(-c7cc(S(=O)(=O)[O-])ccc7F)c7ccc([nH]7)c(-c7cc(S(=O)(=O)[O-])ccc7F)c7nc(c(-c8cc(S(=O)(=O)[O-])ccc8F)c8ccc5[nH]8)C=C7)C=C6)cc4)cc3)[C@H](c3ccccc3)C2)cc1
REMARK SMILES IDX 22 1 21 2 20 3 19 4 18 5 16 6 17 7 15 8 12 9 13 10 94 11
REMARK SMILES IDX 14 12 93 13 11 14 9 15 10 16 102 17 95 18 8 19 5 20 6 21
REMARK SMILES IDX 104 22 7 23 103 24 2 25 1 26 3 27 4 28 96 29 97 30 101 31
REMARK SMILES IDX 98 32 100 33 99 34 23 35 24 36 25 37 26 38 27 39 28 40 29 41
REMARK SMILES IDX 30 42 31 43 92 44 32 45 91 46 33 47 34 48 35 49 85 50 36 51
REMARK SMILES IDX 90 52 84 53 86 54 37 55 89 56 83 57 82 58 38 60 70 61 50 62
REMARK SMILES IDX 69 63 51 64 54 65 68 66 87 67 52 68 53 69 67 71 88 72 55 73
REMARK SMILES IDX 39 74 40 75 48 76 41 77 47 78 49 79 46 80 42 81 43 82 44 83
REMARK SMILES IDX 45 84 71 85 72 86 80 87 73 88 79 89 81 90 78 91 74 92 75 93
REMARK SMILES IDX 76 94 77 95 56 96 57 97 65 98 58 99 64 100 66 101 63 102
REMARK SMILES IDX 59 103 60 104 61 105 62 106
REMARK H PARENT 86 59 54 70
REMARK Flexibility Score: inf
ROOT
ATOM      1  C   UNL A   1      34.342  33.661  29.811  1.00  0.00     0.188 C 
ENDROOT
BRANCH   1   2
ATOM      2  O   UNL A   1      34.711  32.295  29.891  1.00  0.00    -0.376 OA
BRANCH   2   3
ATOM      3  C   UNL A   1      36.061  31.903  29.706  1.00  0.00     0.202 C 
BRANCH   3   4
ATOM      4  C   UNL A   1      36.484  30.436  29.525  1.00  0.00     0.261 C 
BRANCH   4   5
ATOM      5  O   UNL A   1      37.888  30.213  29.355  1.00  0.00    -0.460 OA
BRANCH   5   6
ATOM      6  C   UNL A   1      38.349  29.018  29.802  1.00  0.00     0.338 C 
ATOM      7  O   UNL A   1      37.772  28.258  30.562  1.00  0.00    -0.246 OA
BRANCH   6   8
ATOM      8  C   UNL A   1      39.632  28.674  29.141  1.00  0.00     0.060 A 
ATOM      9  C   UNL A   1      41.927  27.794  27.788  1.00  0.00     0.060 A 
ATOM     10  C   UNL A   1      40.854  28.338  27.073  1.00  0.00     0.029 A 
ATOM     11  C   UNL A   1      41.895  27.841  29.190  1.00  0.00     0.029 A 
ATOM     12  C   UNL A   1      39.708  28.773  27.746  1.00  0.00     0.018 A 
ATOM     13  C   UNL A   1      40.748  28.254  29.870  1.00  0.00     0.018 A 
BRANCH   9  14
ATOM     14  N   UNL A   1      42.908  27.023  27.161  1.00  0.00    -0.257 N 
ATOM     15  C   UNL A   1      44.659  26.831  25.967  1.00  0.00     0.071 C 
ATOM     16  N   UNL A   1      44.151  27.518  26.944  1.00  0.00    -0.176 NA
ATOM     17  C   UNL A   1      43.724  25.853  25.303  1.00  0.00     0.091 C 
ATOM     18  C   UNL A   1      42.505  25.956  26.230  1.00  0.00     0.144 C 
BRANCH  15  19
ATOM     19  C   UNL A   1      46.069  26.953  25.542  1.00  0.00    -0.002 A 
ATOM     20  C   UNL A   1      48.685  27.121  24.568  1.00  0.00     0.067 A 
ATOM     21  C   UNL A   1      47.992  25.907  24.503  1.00  0.00     0.021 A 
ATOM     22  C   UNL A   1      48.084  28.248  25.140  1.00  0.00     0.021 A 
ATOM     23  C   UNL A   1      46.689  25.823  24.995  1.00  0.00     0.011 A 
ATOM     24  C   UNL A   1      46.769  28.163  25.621  1.00  0.00     0.011 A 
BRANCH  20  25
ATOM     25  S   UNL A   1      50.328  27.168  23.889  1.00  0.00     0.175 S 
ATOM     26  C   UNL A   1      50.212  26.693  22.189  1.00  0.00     0.163 C 
ATOM     27  O   UNL A   1      51.082  26.141  24.584  1.00  0.00    -0.224 OA
ATOM     28  O   UNL A   1      50.757  28.553  23.916  1.00  0.00    -0.224 OA
ENDBRANCH  20  25
ENDBRANCH  15  19
BRANCH  18  29
ATOM     29  C   UNL A   1      42.067  24.709  26.999  1.00  0.00    -0.023 A 
ATOM     30  C   UNL A   1      40.940  23.939  26.682  1.00  0.00     0.006 A 
ATOM     31  C   UNL A   1      42.885  24.255  28.057  1.00  0.00     0.006 A 
ATOM     32  C   UNL A   1      40.662  22.753  27.374  1.00  0.00     0.000 A 
ATOM     33  C   UNL A   1      42.641  23.044  28.708  1.00  0.00     0.000 A 
ATOM     34  C   UNL A   1      41.523  22.294  28.369  1.00  0.00     0.000 A 
ENDBRANCH  18  29
ENDBRANCH   9  14
ENDBRANCH   6   8
ENDBRANCH   5   6
ENDBRANCH   4   5
ENDBRANCH   3   4
ENDBRANCH   2   3
ENDBRANCH   1   2
BRANCH   1  35
ATOM     35  C   UNL A   1      34.563  34.588  31.024  1.00  0.00     0.188 C 
BRANCH  35  36
ATOM     36  O   UNL A   1      33.596  34.548  32.046  1.00  0.00    -0.376 OA
BRANCH  36  37
ATOM     37  C   UNL A   1      33.705  33.589  33.082  1.00  0.00     0.202 C 
BRANCH  37  38
ATOM     38  C   UNL A   1      34.779  33.554  34.193  1.00  0.00     0.261 C 
BRANCH  38  39
ATOM     39  O   UNL A   1      36.139  33.304  33.834  1.00  0.00    -0.460 OA
BRANCH  39  40
ATOM     40  C   UNL A   1      36.974  32.977  34.852  1.00  0.00     0.338 C 
ATOM     41  O   UNL A   1      36.750  33.082  36.048  1.00  0.00    -0.246 OA
BRANCH  40  42
ATOM     42  C   UNL A   1      38.155  32.298  34.285  1.00  0.00     0.060 A 
ATOM     43  C   UNL A   1      39.426  32.577  34.809  1.00  0.00     0.016 A 
ATOM     44  C   UNL A   1      38.006  31.385  33.240  1.00  0.00     0.016 A 
ATOM     45  C   UNL A   1      40.553  31.932  34.293  1.00  0.00     0.010 A 
ATOM     46  C   UNL A   1      39.139  30.763  32.707  1.00  0.00     0.010 A 
ATOM     47  C   UNL A   1      40.420  31.041  33.221  1.00  0.00    -0.014 A 
BRANCH  47  48
ATOM     48  C   UNL A   1      41.621  30.508  32.531  1.00  0.00     0.031 A 
ATOM     49  C   UNL A   1      42.314  29.309  33.114  1.00  0.00     0.074 A 
ATOM     50  C   UNL A   1      42.097  31.084  31.412  1.00  0.00     0.049 A 
ATOM     51  N   UNL A   1      43.435  28.738  32.758  1.00  0.00    -0.248 NA
ATOM     52  C   UNL A   1      41.649  28.674  34.262  1.00  0.00     0.031 C 
ATOM     53  C   UNL A   1      41.481  32.213  30.716  1.00  0.00     0.029 A 
ATOM     54  N   UNL A   1      43.220  30.804  30.671  1.00  0.00    -0.354 N 
ATOM     55  C   UNL A   1      43.618  27.681  33.642  1.00  0.00     0.074 A 
ATOM     56  C   UNL A   1      42.509  27.717  34.573  1.00  0.00     0.031 C 
ATOM     57  C   UNL A   1      42.243  32.538  29.657  1.00  0.00     0.029 A 
ATOM     58  C   UNL A   1      43.425  31.677  29.629  1.00  0.00     0.049 A 
ATOM     59  H   UNL A   1      43.820  30.049  30.870  1.00  0.00     0.167 HD
ATOM     60  C   UNL A   1      44.616  26.761  33.670  1.00  0.00     0.034 A 
ATOM     61  C   UNL A   1      44.464  31.789  28.775  1.00  0.00     0.034 A 
ATOM     62  C   UNL A   1      45.725  26.755  32.748  1.00  0.00     0.049 A 
ATOM     63  C   UNL A   1      45.630  30.836  28.905  1.00  0.00     0.074 A 
ATOM     64  C   UNL A   1      46.782  25.864  32.678  1.00  0.00     0.029 A 
ATOM     65  N   UNL A   1      45.936  27.695  31.745  1.00  0.00    -0.354 N 
ATOM     66  N   UNL A   1      45.792  29.833  29.739  1.00  0.00    -0.248 NA
ATOM     67  C   UNL A   1      46.754  31.031  27.979  1.00  0.00     0.031 C 
ATOM     68  C   UNL A   1      47.672  26.314  31.697  1.00  0.00     0.029 A 
ATOM     69  C   UNL A   1      47.128  27.434  31.088  1.00  0.00     0.049 A 
ATOM     70  H   UNL A   1      45.326  28.439  31.534  1.00  0.00     0.167 HD
ATOM     71  C   UNL A   1      47.023  29.265  29.417  1.00  0.00     0.074 A 
ATOM     72  C   UNL A   1      47.551  30.024  28.303  1.00  0.00     0.031 C 
ATOM     73  C   UNL A   1      47.658  28.208  29.988  1.00  0.00     0.034 A 
BRANCH  60  74
ATOM     74  C   UNL A   1      44.574  25.732  34.774  1.00  0.00     0.023 A 
ATOM     75  C   UNL A   1      45.031  26.020  36.072  1.00  0.00     0.031 A 
ATOM     76  C   UNL A   1      44.109  24.430  34.515  1.00  0.00     0.131 A 
ATOM     77  C   UNL A   1      45.091  25.000  37.034  1.00  0.00     0.055 A 
ATOM     78  C   UNL A   1      44.087  23.445  35.502  1.00  0.00     0.041 A 
ATOM     79  F   UNL A   1      43.683  24.088  33.288  1.00  0.00    -0.206 F 
ATOM     80  C   UNL A   1      44.597  23.722  36.767  1.00  0.00     0.022 A 
BRANCH  77  81
ATOM     81  S   UNL A   1      45.976  25.326  38.583  1.00  0.00     0.124 S 
ATOM     82  O   UNL A   1      46.656  24.052  38.807  1.00  0.00    -0.237 OA
ATOM     83  O   UNL A   1      46.831  26.452  38.227  1.00  0.00    -0.237 OA
ATOM     84  O   UNL A   1      44.907  25.627  39.532  1.00  0.00    -0.744 OA
ENDBRANCH  77  81
ENDBRANCH  60  74
BRANCH  61  85
ATOM     85  C   UNL A   1      44.489  32.875  27.750  1.00  0.00     0.023 A 
ATOM     86  C   UNL A   1      44.781  34.200  28.108  1.00  0.00     0.031 A 
ATOM     87  C   UNL A   1      44.161  32.613  26.407  1.00  0.00     0.131 A 
ATOM     88  C   UNL A   1      44.699  35.220  27.146  1.00  0.00     0.055 A 
ATOM     89  C   UNL A   1      44.139  33.621  25.443  1.00  0.00     0.041 A 
ATOM     90  F   UNL A   1      43.860  31.365  26.012  1.00  0.00    -0.206 F 
ATOM     91  C   UNL A   1      44.397  34.937  25.812  1.00  0.00     0.022 A 
BRANCH  88  92
ATOM     92  S   UNL A   1      44.905  36.941  27.684  1.00  0.00     0.124 S 
ATOM     93  O   UNL A   1      43.684  37.558  27.179  1.00  0.00    -0.237 OA
ATOM     94  O   UNL A   1      44.999  36.798  29.133  1.00  0.00    -0.237 OA
ATOM     95  O   UNL A   1      46.138  37.359  27.020  1.00  0.00    -0.744 OA
ENDBRANCH  88  92
ENDBRANCH  61  85
BRANCH  73  96
ATOM     96  C   UNL A   1      48.982  27.788  29.391  1.00  0.00     0.023 A 
ATOM     97  C   UNL A   1      50.192  28.396  29.768  1.00  0.00     0.031 A 
ATOM     98  C   UNL A   1      49.033  26.760  28.431  1.00  0.00     0.131 A 
ATOM     99  C   UNL A   1      51.393  28.011  29.152  1.00  0.00     0.055 A 
ATOM    100  C   UNL A   1      50.238  26.334  27.871  1.00  0.00     0.041 A 
ATOM    101  F   UNL A   1      47.910  26.146  28.026  1.00  0.00    -0.206 F 
ATOM    102  C   UNL A   1      51.426  26.969  28.222  1.00  0.00     0.022 A 
BRANCH  99 103
ATOM    103  S   UNL A   1      52.900  28.954  29.511  1.00  0.00     0.124 S 
ATOM    104  O   UNL A   1      53.728  27.957  30.182  1.00  0.00    -0.237 OA
ATOM    105  O   UNL A   1      53.342  29.358  28.180  1.00  0.00    -0.237 OA
ATOM    106  O   UNL A   1      52.428  30.043  30.364  1.00  0.00    -0.744 OA
ENDBRANCH  99 103
ENDBRANCH  73  96
ENDBRANCH  47  48
ENDBRANCH  40  42
ENDBRANCH  39  40
ENDBRANCH  38  39
ENDBRANCH  37  38
ENDBRANCH  36  37
ENDBRANCH  35  36
ENDBRANCH   1  35
TORSDOF 24
ENDMDL
