MODEL 1
REMARK VINA RESULT:      -9.8      0.000      0.000
REMARK SMILES COc1ccc(CSc2ncccc2C(=O)OCCOCCOCCOC(=O)c2ccc(-c3c4nc(c(-c5cc(S(=O)(=O)[O-])ccc5F)c5ccc([nH]5)c(-c5cc(S(=O)(=O)[O-])ccc5F)c5nc(c(-c6cc(S(=O)(=O)[O-])ccc6F)c6ccc3[nH]6)C=C5)C=C4)cc2)cc1
REMARK SMILES IDX 21 1 20 2 19 3 18 4 17 5 15 6 16 7 14 8 9 9 10 10 11 11
REMARK SMILES IDX 13 12 12 13 8 14 7 15 6 16 3 17 4 18 93 19 5 20 92 21 2 22
REMARK SMILES IDX 1 23 22 24 23 25 24 26 25 27 26 28 27 29 28 30 29 31 30 32
REMARK SMILES IDX 91 33 31 34 90 35 32 36 33 37 34 38 84 39 35 40 89 41 83 42
REMARK SMILES IDX 85 43 36 44 88 45 82 46 81 47 37 49 69 50 49 51 68 52 50 53
REMARK SMILES IDX 53 54 67 55 86 56 51 57 52 58 66 60 87 61 54 62 38 63 39 64
REMARK SMILES IDX 47 65 40 66 46 67 48 68 45 69 41 70 42 71 43 72 44 73 70 74
REMARK SMILES IDX 71 75 79 76 72 77 78 78 80 79 77 80 73 81 74 82 75 83 76 84
REMARK SMILES IDX 55 85 56 86 64 87 57 88 63 89 65 90 62 91 58 92 59 93 60 94
REMARK SMILES IDX 61 95
REMARK H PARENT 85 48 53 59
REMARK Flexibility Score: inf
ROOT
ATOM      1  C   UNL A   1      33.333  26.013  25.837  1.00  0.00     0.188 C 
ENDROOT
BRANCH   1   2
ATOM      2  O   UNL A   1      34.345  25.184  25.276  1.00  0.00    -0.376 OA
BRANCH   2   3
ATOM      3  C   UNL A   1      34.447  25.213  23.856  1.00  0.00     0.202 C 
BRANCH   3   4
ATOM      4  C   UNL A   1      34.351  23.825  23.219  1.00  0.00     0.261 C 
BRANCH   4   5
ATOM      5  O   UNL A   1      33.096  23.606  22.555  1.00  0.00    -0.460 OA
BRANCH   5   6
ATOM      6  C   UNL A   1      32.354  22.573  23.017  1.00  0.00     0.340 C 
ATOM      7  O   UNL A   1      32.136  21.546  22.407  1.00  0.00    -0.246 OA
BRANCH   6   8
ATOM      8  C   UNL A   1      31.832  22.926  24.346  1.00  0.00     0.092 A 
ATOM      9  C   UNL A   1      30.934  23.962  24.611  1.00  0.00     0.111 A 
ATOM     10  N   UNL A   1      30.470  24.158  25.880  1.00  0.00    -0.249 NA
ATOM     11  C   UNL A   1      30.861  23.333  26.873  1.00  0.00     0.112 A 
ATOM     12  C   UNL A   1      32.220  22.077  25.402  1.00  0.00     0.020 A 
ATOM     13  C   UNL A   1      31.718  22.273  26.681  1.00  0.00     0.021 A 
BRANCH   9  14
ATOM     14  S   UNL A   1      29.971  24.945  23.478  1.00  0.00    -0.101 SA
BRANCH  14  15
ATOM     15  C   UNL A   1      30.948  26.414  23.061  1.00  0.00     0.112 C 
BRANCH  15  16
ATOM     16  C   UNL A   1      30.197  27.690  22.810  1.00  0.00    -0.037 A 
ATOM     17  C   UNL A   1      28.703  30.039  22.361  1.00  0.00     0.118 A 
ATOM     18  C   UNL A   1      30.077  30.010  22.110  1.00  0.00     0.047 A 
ATOM     19  C   UNL A   1      28.087  28.906  22.883  1.00  0.00     0.047 A 
ATOM     20  C   UNL A   1      30.822  28.846  22.331  1.00  0.00     0.008 A 
ATOM     21  C   UNL A   1      28.836  27.758  23.132  1.00  0.00     0.008 A 
BRANCH  17  22
ATOM     22  O   UNL A   1      28.073  31.216  22.065  1.00  0.00    -0.497 OA
ATOM     23  C   UNL A   1      28.029  32.184  23.106  1.00  0.00     0.278 C 
ENDBRANCH  17  22
ENDBRANCH  15  16
ENDBRANCH  14  15
ENDBRANCH   9  14
ENDBRANCH   6   8
ENDBRANCH   5   6
ENDBRANCH   4   5
ENDBRANCH   3   4
ENDBRANCH   2   3
ENDBRANCH   1   2
BRANCH   1  24
ATOM     24  C   UNL A   1      33.653  27.523  25.884  1.00  0.00     0.188 C 
BRANCH  24  25
ATOM     25  O   UNL A   1      32.790  28.412  26.581  1.00  0.00    -0.376 OA
BRANCH  25  26
ATOM     26  C   UNL A   1      31.897  29.226  25.835  1.00  0.00     0.202 C 
BRANCH  26  27
ATOM     27  C   UNL A   1      31.952  30.746  26.036  1.00  0.00     0.261 C 
BRANCH  27  28
ATOM     28  O   UNL A   1      32.238  31.163  27.381  1.00  0.00    -0.460 OA
BRANCH  28  29
ATOM     29  C   UNL A   1      33.072  32.231  27.484  1.00  0.00     0.338 C 
ATOM     30  O   UNL A   1      32.765  33.407  27.393  1.00  0.00    -0.246 OA
BRANCH  29  31
ATOM     31  C   UNL A   1      34.418  31.785  27.903  1.00  0.00     0.060 A 
ATOM     32  C   UNL A   1      34.596  30.430  28.218  1.00  0.00     0.016 A 
ATOM     33  C   UNL A   1      35.472  32.689  28.057  1.00  0.00     0.016 A 
ATOM     34  C   UNL A   1      35.815  29.981  28.724  1.00  0.00     0.010 A 
ATOM     35  C   UNL A   1      36.686  32.240  28.592  1.00  0.00     0.010 A 
ATOM     36  C   UNL A   1      36.850  30.892  28.960  1.00  0.00    -0.014 A 
BRANCH  36  37
ATOM     37  C   UNL A   1      38.018  30.477  29.778  1.00  0.00     0.031 A 
ATOM     38  C   UNL A   1      38.981  29.478  29.196  1.00  0.00     0.074 A 
ATOM     39  C   UNL A   1      38.233  30.987  31.004  1.00  0.00     0.049 A 
ATOM     40  N   UNL A   1      40.038  28.925  29.734  1.00  0.00    -0.248 NA
ATOM     41  C   UNL A   1      38.708  29.044  27.818  1.00  0.00     0.031 C 
ATOM     42  C   UNL A   1      37.404  32.001  31.654  1.00  0.00     0.029 A 
ATOM     43  N   UNL A   1      39.213  30.709  31.924  1.00  0.00    -0.354 N 
ATOM     44  C   UNL A   1      40.558  28.078  28.760  1.00  0.00     0.074 A 
ATOM     45  C   UNL A   1      39.674  28.163  27.616  1.00  0.00     0.031 C 
ATOM     46  C   UNL A   1      37.900  32.243  32.880  1.00  0.00     0.029 A 
ATOM     47  C   UNL A   1      39.058  31.380  33.113  1.00  0.00     0.049 A 
ATOM     48  H   UNL A   1      39.956  30.087  31.748  1.00  0.00     0.167 HD
ATOM     49  C   UNL A   1      41.672  27.306  28.813  1.00  0.00     0.034 A 
ATOM     50  C   UNL A   1      39.753  31.286  34.265  1.00  0.00     0.034 A 
ATOM     51  C   UNL A   1      42.529  27.210  29.969  1.00  0.00     0.049 A 
ATOM     52  C   UNL A   1      40.931  30.342  34.341  1.00  0.00     0.074 A 
ATOM     53  C   UNL A   1      43.685  26.466  30.129  1.00  0.00     0.029 A 
ATOM     54  N   UNL A   1      42.310  27.865  31.175  1.00  0.00    -0.354 N 
ATOM     55  N   UNL A   1      41.418  29.549  33.413  1.00  0.00    -0.248 NA
ATOM     56  C   UNL A   1      41.654  30.285  35.619  1.00  0.00     0.031 C 
ATOM     57  C   UNL A   1      44.123  26.614  31.450  1.00  0.00     0.029 A 
ATOM     58  C   UNL A   1      43.287  27.512  32.095  1.00  0.00     0.049 A 
ATOM     59  H   UNL A   1      41.569  28.489  31.352  1.00  0.00     0.167 HD
ATOM     60  C   UNL A   1      42.523  28.924  33.989  1.00  0.00     0.074 A 
ATOM     61  C   UNL A   1      42.632  29.436  35.340  1.00  0.00     0.031 C 
ATOM     62  C   UNL A   1      43.375  28.015  33.446  1.00  0.00     0.034 A 
BRANCH  49  63
ATOM     63  C   UNL A   1      41.977  26.461  27.598  1.00  0.00     0.023 A 
ATOM     64  C   UNL A   1      41.571  25.118  27.508  1.00  0.00     0.031 A 
ATOM     65  C   UNL A   1      42.738  26.991  26.540  1.00  0.00     0.131 A 
ATOM     66  C   UNL A   1      41.994  24.329  26.429  1.00  0.00     0.055 A 
ATOM     67  C   UNL A   1      43.088  26.222  25.428  1.00  0.00     0.041 A 
ATOM     68  F   UNL A   1      43.174  28.259  26.580  1.00  0.00    -0.206 F 
ATOM     69  C   UNL A   1      42.731  24.877  25.377  1.00  0.00     0.022 A 
BRANCH  66  70
ATOM     70  S   UNL A   1      41.710  22.538  26.499  1.00  0.00     0.124 S 
ATOM     71  O   UNL A   1      40.267  22.458  26.287  1.00  0.00    -0.237 OA
ATOM     72  O   UNL A   1      42.545  22.044  25.411  1.00  0.00    -0.237 OA
ATOM     73  O   UNL A   1      42.156  22.172  27.842  1.00  0.00    -0.744 OA
ENDBRANCH  66  70
ENDBRANCH  49  63
BRANCH  50  74
ATOM     74  C   UNL A   1      39.330  32.065  35.463  1.00  0.00     0.023 A 
ATOM     75  C   UNL A   1      38.608  31.466  36.507  1.00  0.00     0.031 A 
ATOM     76  C   UNL A   1      39.604  33.442  35.554  1.00  0.00     0.131 A 
ATOM     77  C   UNL A   1      38.153  32.250  37.580  1.00  0.00     0.055 A 
ATOM     78  C   UNL A   1      39.191  34.206  36.645  1.00  0.00     0.041 A 
ATOM     79  F   UNL A   1      40.289  34.063  34.580  1.00  0.00    -0.206 F 
ATOM     80  C   UNL A   1      38.450  33.612  37.662  1.00  0.00     0.022 A 
BRANCH  77  81
ATOM     81  S   UNL A   1      37.102  31.476  38.840  1.00  0.00     0.124 S 
ATOM     82  O   UNL A   1      36.917  30.136  38.292  1.00  0.00    -0.237 OA
ATOM     83  O   UNL A   1      37.936  31.571  40.034  1.00  0.00    -0.237 OA
ATOM     84  O   UNL A   1      35.906  32.316  38.850  1.00  0.00    -0.744 OA
ENDBRANCH  77  81
ENDBRANCH  50  74
BRANCH  62  85
ATOM     85  C   UNL A   1      44.528  27.552  34.306  1.00  0.00     0.023 A 
ATOM     86  C   UNL A   1      45.757  28.236  34.332  1.00  0.00     0.031 A 
ATOM     87  C   UNL A   1      44.393  26.405  35.108  1.00  0.00     0.131 A 
ATOM     88  C   UNL A   1      46.817  27.739  35.107  1.00  0.00     0.055 A 
ATOM     89  C   UNL A   1      45.432  25.947  35.919  1.00  0.00     0.041 A 
ATOM     90  F   UNL A   1      43.243  25.712  35.122  1.00  0.00    -0.206 F 
ATOM     91  C   UNL A   1      46.656  26.608  35.914  1.00  0.00     0.022 A 
BRANCH  88  92
ATOM     92  S   UNL A   1      48.439  28.543  34.989  1.00  0.00     0.124 S 
ATOM     93  O   UNL A   1      49.092  27.758  33.947  1.00  0.00    -0.237 OA
ATOM     94  O   UNL A   1      48.084  29.911  34.628  1.00  0.00    -0.237 OA
ATOM     95  O   UNL A   1      49.001  28.383  36.330  1.00  0.00    -0.744 OA
ENDBRANCH  88  92
ENDBRANCH  62  85
ENDBRANCH  36  37
ENDBRANCH  29  31
ENDBRANCH  28  29
ENDBRANCH  27  28
ENDBRANCH  26  27
ENDBRANCH  25  26
ENDBRANCH  24  25
ENDBRANCH   1  24
TORSDOF 24
ENDMDL
MODEL 2
REMARK VINA RESULT:      -9.7      5.300      8.392
REMARK SMILES COc1ccc(CSc2ncccc2C(=O)OCCOCCOCCOC(=O)c2ccc(-c3c4nc(c(-c5cc(S(=O)(=O)[O-])ccc5F)c5ccc([nH]5)c(-c5cc(S(=O)(=O)[O-])ccc5F)c5nc(c(-c6cc(S(=O)(=O)[O-])ccc6F)c6ccc3[nH]6)C=C5)C=C4)cc2)cc1
REMARK SMILES IDX 21 1 20 2 19 3 18 4 17 5 15 6 16 7 14 8 9 9 10 10 11 11
REMARK SMILES IDX 13 12 12 13 8 14 7 15 6 16 3 17 4 18 93 19 5 20 92 21 2 22
REMARK SMILES IDX 1 23 22 24 23 25 24 26 25 27 26 28 27 29 28 30 29 31 30 32
REMARK SMILES IDX 91 33 31 34 90 35 32 36 33 37 34 38 84 39 35 40 89 41 83 42
REMARK SMILES IDX 85 43 36 44 88 45 82 46 81 47 37 49 69 50 49 51 68 52 50 53
REMARK SMILES IDX 53 54 67 55 86 56 51 57 52 58 66 60 87 61 54 62 38 63 39 64
REMARK SMILES IDX 47 65 40 66 46 67 48 68 45 69 41 70 42 71 43 72 44 73 70 74
REMARK SMILES IDX 71 75 79 76 72 77 78 78 80 79 77 80 73 81 74 82 75 83 76 84
REMARK SMILES IDX 55 85 56 86 64 87 57 88 63 89 65 90 62 91 58 92 59 93 60 94
REMARK SMILES IDX 61 95
REMARK H PARENT 85 48 53 59
REMARK Flexibility Score: inf
ROOT
ATOM      1  C   UNL A   1      35.080  21.977  24.853  1.00  0.00     0.188 C 
ENDROOT
BRANCH   1   2
ATOM      2  O   UNL A   1      35.600  22.818  23.830  1.00  0.00    -0.376 OA
BRANCH   2   3
ATOM      3  C   UNL A   1      35.095  24.148  23.811  1.00  0.00     0.202 C 
BRANCH   3   4
ATOM      4  C   UNL A   1      33.916  24.330  22.852  1.00  0.00     0.261 C 
BRANCH   4   5
ATOM      5  O   UNL A   1      33.024  25.378  23.264  1.00  0.00    -0.460 OA
BRANCH   5   6
ATOM      6  C   UNL A   1      31.720  25.033  23.380  1.00  0.00     0.340 C 
ATOM      7  O   UNL A   1      30.864  25.264  22.549  1.00  0.00    -0.246 OA
BRANCH   6   8
ATOM      8  C   UNL A   1      31.518  24.382  24.683  1.00  0.00     0.092 A 
ATOM      9  C   UNL A   1      31.440  25.042  25.911  1.00  0.00     0.111 A 
ATOM     10  N   UNL A   1      31.189  24.337  27.053  1.00  0.00    -0.249 NA
ATOM     11  C   UNL A   1      30.991  23.004  26.989  1.00  0.00     0.112 A 
ATOM     12  C   UNL A   1      31.303  22.990  24.645  1.00  0.00     0.020 A 
ATOM     13  C   UNL A   1      31.022  22.291  25.812  1.00  0.00     0.021 A 
BRANCH   9  14
ATOM     14  S   UNL A   1      31.282  26.784  26.254  1.00  0.00    -0.101 SA
BRANCH  14  15
ATOM     15  C   UNL A   1      32.852  27.574  25.809  1.00  0.00     0.112 C 
BRANCH  15  16
ATOM     16  C   UNL A   1      33.160  28.898  26.449  1.00  0.00    -0.037 A 
ATOM     17  C   UNL A   1      33.650  31.416  27.619  1.00  0.00     0.118 A 
ATOM     18  C   UNL A   1      34.638  30.429  27.613  1.00  0.00     0.047 A 
ATOM     19  C   UNL A   1      32.400  31.124  27.083  1.00  0.00     0.047 A 
ATOM     20  C   UNL A   1      34.400  29.178  27.032  1.00  0.00     0.008 A 
ATOM     21  C   UNL A   1      32.153  29.868  26.534  1.00  0.00     0.008 A 
BRANCH  17  22
ATOM     22  O   UNL A   1      34.013  32.612  28.174  1.00  0.00    -0.497 OA
ATOM     23  C   UNL A   1      34.780  32.543  29.370  1.00  0.00     0.278 C 
ENDBRANCH  17  22
ENDBRANCH  15  16
ENDBRANCH  14  15
ENDBRANCH   9  14
ENDBRANCH   6   8
ENDBRANCH   5   6
ENDBRANCH   4   5
ENDBRANCH   3   4
ENDBRANCH   2   3
ENDBRANCH   1   2
BRANCH   1  24
ATOM     24  C   UNL A   1      36.109  21.076  25.569  1.00  0.00     0.188 C 
BRANCH  24  25
ATOM     25  O   UNL A   1      37.232  20.573  24.857  1.00  0.00    -0.376 OA
BRANCH  25  26
ATOM     26  C   UNL A   1      38.531  20.782  25.390  1.00  0.00     0.202 C 
BRANCH  26  27
ATOM     27  C   UNL A   1      39.441  19.565  25.597  1.00  0.00     0.261 C 
BRANCH  27  28
ATOM     28  O   UNL A   1      40.452  19.736  26.603  1.00  0.00    -0.460 OA
BRANCH  28  29
ATOM     29  C   UNL A   1      41.731  19.637  26.154  1.00  0.00     0.338 C 
ATOM     30  O   UNL A   1      42.227  18.689  25.571  1.00  0.00    -0.246 OA
BRANCH  29  31
ATOM     31  C   UNL A   1      42.426  20.932  26.314  1.00  0.00     0.060 A 
ATOM     32  C   UNL A   1      42.784  21.333  27.610  1.00  0.00     0.016 A 
ATOM     33  C   UNL A   1      42.661  21.776  25.226  1.00  0.00     0.016 A 
ATOM     34  C   UNL A   1      43.340  22.593  27.827  1.00  0.00     0.010 A 
ATOM     35  C   UNL A   1      43.195  23.051  25.450  1.00  0.00     0.010 A 
ATOM     36  C   UNL A   1      43.503  23.477  26.755  1.00  0.00    -0.014 A 
BRANCH  36  37
ATOM     37  C   UNL A   1      43.797  24.908  27.024  1.00  0.00     0.031 A 
ATOM     38  C   UNL A   1      45.199  25.406  26.797  1.00  0.00     0.074 A 
ATOM     39  C   UNL A   1      42.839  25.753  27.444  1.00  0.00     0.049 A 
ATOM     40  N   UNL A   1      45.709  26.591  27.012  1.00  0.00    -0.248 NA
ATOM     41  C   UNL A   1      46.154  24.427  26.257  1.00  0.00     0.031 C 
ATOM     42  C   UNL A   1      41.434  25.405  27.646  1.00  0.00     0.029 A 
ATOM     43  N   UNL A   1      42.911  27.081  27.784  1.00  0.00    -0.354 N 
ATOM     44  C   UNL A   1      47.044  26.502  26.632  1.00  0.00     0.074 A 
ATOM     45  C   UNL A   1      47.270  25.135  26.213  1.00  0.00     0.031 C 
ATOM     46  C   UNL A   1      40.780  26.489  28.099  1.00  0.00     0.029 A 
ATOM     47  C   UNL A   1      41.726  27.596  28.250  1.00  0.00     0.049 A 
ATOM     48  H   UNL A   1      43.736  27.614  27.704  1.00  0.00     0.167 HD
ATOM     49  C   UNL A   1      47.992  27.472  26.626  1.00  0.00     0.034 A 
ATOM     50  C   UNL A   1      41.443  28.811  28.763  1.00  0.00     0.034 A 
ATOM     51  C   UNL A   1      47.761  28.824  27.072  1.00  0.00     0.049 A 
ATOM     52  C   UNL A   1      42.538  29.849  28.847  1.00  0.00     0.074 A 
ATOM     53  C   UNL A   1      48.646  29.888  27.103  1.00  0.00     0.029 A 
ATOM     54  N   UNL A   1      46.559  29.295  27.587  1.00  0.00    -0.354 N 
ATOM     55  N   UNL A   1      43.797  29.757  28.480  1.00  0.00    -0.248 NA
ATOM     56  C   UNL A   1      42.171  31.156  29.411  1.00  0.00     0.031 C 
ATOM     57  C   UNL A   1      48.002  30.978  27.701  1.00  0.00     0.029 A 
ATOM     58  C   UNL A   1      46.691  30.621  27.973  1.00  0.00     0.049 A 
ATOM     59  H   UNL A   1      45.733  28.765  27.666  1.00  0.00     0.167 HD
ATOM     60  C   UNL A   1      44.361  31.005  28.741  1.00  0.00     0.074 A 
ATOM     61  C   UNL A   1      43.305  31.831  29.290  1.00  0.00     0.031 C 
ATOM     62  C   UNL A   1      45.635  31.430  28.537  1.00  0.00     0.034 A 
BRANCH  49  63
ATOM     63  C   UNL A   1      49.379  27.071  26.180  1.00  0.00     0.023 A 
ATOM     64  C   UNL A   1      49.897  27.459  24.932  1.00  0.00     0.031 A 
ATOM     65  C   UNL A   1      50.170  26.238  26.991  1.00  0.00     0.131 A 
ATOM     66  C   UNL A   1      51.130  26.950  24.496  1.00  0.00     0.055 A 
ATOM     67  C   UNL A   1      51.433  25.800  26.586  1.00  0.00     0.041 A 
ATOM     68  F   UNL A   1      49.720  25.816  28.183  1.00  0.00    -0.206 F 
ATOM     69  C   UNL A   1      51.912  26.141  25.324  1.00  0.00     0.022 A 
BRANCH  66  70
ATOM     70  S   UNL A   1      51.622  27.224  22.772  1.00  0.00     0.124 S 
ATOM     71  O   UNL A   1      52.790  26.354  22.655  1.00  0.00    -0.237 OA
ATOM     72  O   UNL A   1      50.435  26.805  22.035  1.00  0.00    -0.237 OA
ATOM     73  O   UNL A   1      51.914  28.655  22.721  1.00  0.00    -0.744 OA
ENDBRANCH  66  70
ENDBRANCH  49  63
BRANCH  50  74
ATOM     74  C   UNL A   1      40.081  29.105  29.289  1.00  0.00     0.023 A 
ATOM     75  C   UNL A   1      39.774  28.954  30.651  1.00  0.00     0.031 A 
ATOM     76  C   UNL A   1      39.047  29.497  28.420  1.00  0.00     0.131 A 
ATOM     77  C   UNL A   1      38.459  29.159  31.098  1.00  0.00     0.055 A 
ATOM     78  C   UNL A   1      37.752  29.745  28.876  1.00  0.00     0.041 A 
ATOM     79  F   UNL A   1      39.287  29.652  27.108  1.00  0.00    -0.206 F 
ATOM     80  C   UNL A   1      37.449  29.565  30.222  1.00  0.00     0.022 A 
BRANCH  77  81
ATOM     81  S   UNL A   1      38.066  28.818  32.836  1.00  0.00     0.124 S 
ATOM     82  O   UNL A   1      38.203  27.367  32.893  1.00  0.00    -0.237 OA
ATOM     83  O   UNL A   1      39.090  29.586  33.537  1.00  0.00    -0.237 OA
ATOM     84  O   UNL A   1      36.702  29.322  32.983  1.00  0.00    -0.744 OA
ENDBRANCH  77  81
ENDBRANCH  50  74
BRANCH  62  85
ATOM     85  C   UNL A   1      45.942  32.872  28.870  1.00  0.00     0.023 A 
ATOM     86  C   UNL A   1      45.764  33.905  27.932  1.00  0.00     0.031 A 
ATOM     87  C   UNL A   1      46.424  33.214  30.147  1.00  0.00     0.131 A 
ATOM     88  C   UNL A   1      46.111  35.223  28.269  1.00  0.00     0.055 A 
ATOM     89  C   UNL A   1      46.714  34.533  30.495  1.00  0.00     0.041 A 
ATOM     90  F   UNL A   1      46.613  32.268  31.081  1.00  0.00    -0.206 F 
ATOM     91  C   UNL A   1      46.570  35.546  29.551  1.00  0.00     0.022 A 
BRANCH  88  92
ATOM     92  S   UNL A   1      46.033  36.504  26.988  1.00  0.00     0.124 S 
ATOM     93  O   UNL A   1      46.512  35.787  25.811  1.00  0.00    -0.237 OA
ATOM     94  O   UNL A   1      44.618  36.858  26.986  1.00  0.00    -0.237 OA
ATOM     95  O   UNL A   1      46.930  37.546  27.487  1.00  0.00    -0.744 OA
ENDBRANCH  88  92
ENDBRANCH  62  85
ENDBRANCH  36  37
ENDBRANCH  29  31
ENDBRANCH  28  29
ENDBRANCH  27  28
ENDBRANCH  26  27
ENDBRANCH  25  26
ENDBRANCH  24  25
ENDBRANCH   1  24
TORSDOF 24
ENDMDL
MODEL 3
REMARK VINA RESULT:      -9.6      5.442     10.381
REMARK SMILES COc1ccc(CSc2ncccc2C(=O)OCCOCCOCCOC(=O)c2ccc(-c3c4nc(c(-c5cc(S(=O)(=O)[O-])ccc5F)c5ccc([nH]5)c(-c5cc(S(=O)(=O)[O-])ccc5F)c5nc(c(-c6cc(S(=O)(=O)[O-])ccc6F)c6ccc3[nH]6)C=C5)C=C4)cc2)cc1
REMARK SMILES IDX 21 1 20 2 19 3 18 4 17 5 15 6 16 7 14 8 9 9 10 10 11 11
REMARK SMILES IDX 13 12 12 13 8 14 7 15 6 16 3 17 4 18 93 19 5 20 92 21 2 22
REMARK SMILES IDX 1 23 22 24 23 25 24 26 25 27 26 28 27 29 28 30 29 31 30 32
REMARK SMILES IDX 91 33 31 34 90 35 32 36 33 37 34 38 84 39 35 40 89 41 83 42
REMARK SMILES IDX 85 43 36 44 88 45 82 46 81 47 37 49 69 50 49 51 68 52 50 53
REMARK SMILES IDX 53 54 67 55 86 56 51 57 52 58 66 60 87 61 54 62 38 63 39 64
REMARK SMILES IDX 47 65 40 66 46 67 48 68 45 69 41 70 42 71 43 72 44 73 70 74
REMARK SMILES IDX 71 75 79 76 72 77 78 78 80 79 77 80 73 81 74 82 75 83 76 84
REMARK SMILES IDX 55 85 56 86 64 87 57 88 63 89 65 90 62 91 58 92 59 93 60 94
REMARK SMILES IDX 61 95
REMARK H PARENT 85 48 53 59
REMARK Flexibility Score: inf
ROOT
ATOM      1  C   UNL A   1      34.677  22.078  24.598  1.00  0.00     0.188 C 
ENDROOT
BRANCH   1   2
ATOM      2  O   UNL A   1      35.142  23.009  23.628  1.00  0.00    -0.376 OA
BRANCH   2   3
ATOM      3  C   UNL A   1      34.557  24.306  23.691  1.00  0.00     0.202 C 
BRANCH   3   4
ATOM      4  C   UNL A   1      33.462  24.521  22.644  1.00  0.00     0.261 C 
BRANCH   4   5
ATOM      5  O   UNL A   1      32.414  25.386  23.111  1.00  0.00    -0.460 OA
BRANCH   5   6
ATOM      6  C   UNL A   1      31.233  24.786  23.392  1.00  0.00     0.340 C 
ATOM      7  O   UNL A   1      30.277  24.750  22.644  1.00  0.00    -0.246 OA
BRANCH   6   8
ATOM      8  C   UNL A   1      31.297  24.235  24.754  1.00  0.00     0.092 A 
ATOM      9  C   UNL A   1      31.317  24.989  25.929  1.00  0.00     0.111 A 
ATOM     10  N   UNL A   1      31.316  24.365  27.143  1.00  0.00    -0.249 NA
ATOM     11  C   UNL A   1      31.268  23.019  27.206  1.00  0.00     0.112 A 
ATOM     12  C   UNL A   1      31.243  22.830  24.849  1.00  0.00     0.020 A 
ATOM     13  C   UNL A   1      31.215  22.212  26.092  1.00  0.00     0.021 A 
BRANCH   9  14
ATOM     14  S   UNL A   1      31.007  26.729  26.166  1.00  0.00    -0.101 SA
BRANCH  14  15
ATOM     15  C   UNL A   1      32.399  27.636  25.442  1.00  0.00     0.112 C 
BRANCH  15  16
ATOM     16  C   UNL A   1      32.887  28.850  26.181  1.00  0.00    -0.037 A 
ATOM     17  C   UNL A   1      33.883  31.075  27.597  1.00  0.00     0.118 A 
ATOM     18  C   UNL A   1      32.628  31.123  26.986  1.00  0.00     0.047 A 
ATOM     19  C   UNL A   1      34.660  29.930  27.456  1.00  0.00     0.047 A 
ATOM     20  C   UNL A   1      32.129  30.020  26.283  1.00  0.00     0.008 A 
ATOM     21  C   UNL A   1      34.176  28.845  26.730  1.00  0.00     0.008 A 
BRANCH  17  22
ATOM     22  O   UNL A   1      34.244  32.196  28.293  1.00  0.00    -0.497 OA
ATOM     23  C   UNL A   1      34.928  31.981  29.521  1.00  0.00     0.278 C 
ENDBRANCH  17  22
ENDBRANCH  15  16
ENDBRANCH  14  15
ENDBRANCH   9  14
ENDBRANCH   6   8
ENDBRANCH   5   6
ENDBRANCH   4   5
ENDBRANCH   3   4
ENDBRANCH   2   3
ENDBRANCH   1   2
BRANCH   1  24
ATOM     24  C   UNL A   1      35.771  21.341  25.400  1.00  0.00     0.188 C 
BRANCH  24  25
ATOM     25  O   UNL A   1      36.912  20.815  24.733  1.00  0.00    -0.376 OA
BRANCH  25  26
ATOM     26  C   UNL A   1      38.198  21.057  25.281  1.00  0.00     0.202 C 
BRANCH  26  27
ATOM     27  C   UNL A   1      39.113  19.858  25.558  1.00  0.00     0.261 C 
BRANCH  27  28
ATOM     28  O   UNL A   1      40.113  20.086  26.564  1.00  0.00    -0.460 OA
BRANCH  28  29
ATOM     29  C   UNL A   1      41.385  19.795  26.184  1.00  0.00     0.338 C 
ATOM     30  O   UNL A   1      41.758  18.799  25.588  1.00  0.00    -0.246 OA
BRANCH  29  31
ATOM     31  C   UNL A   1      42.268  20.952  26.441  1.00  0.00     0.060 A 
ATOM     32  C   UNL A   1      42.388  21.411  27.761  1.00  0.00     0.016 A 
ATOM     33  C   UNL A   1      42.912  21.626  25.400  1.00  0.00     0.016 A 
ATOM     34  C   UNL A   1      43.119  22.565  28.041  1.00  0.00     0.010 A 
ATOM     35  C   UNL A   1      43.623  22.800  25.680  1.00  0.00     0.010 A 
ATOM     36  C   UNL A   1      43.699  23.293  26.996  1.00  0.00    -0.014 A 
BRANCH  36  37
ATOM     37  C   UNL A   1      44.202  24.666  27.252  1.00  0.00     0.031 A 
ATOM     38  C   UNL A   1      43.232  25.703  27.752  1.00  0.00     0.074 A 
ATOM     39  C   UNL A   1      45.494  24.986  27.064  1.00  0.00     0.049 A 
ATOM     40  N   UNL A   1      43.420  26.975  27.994  1.00  0.00    -0.248 NA
ATOM     41  C   UNL A   1      41.861  25.236  28.006  1.00  0.00     0.031 C 
ATOM     42  C   UNL A   1      46.541  24.059  26.638  1.00  0.00     0.029 A 
ATOM     43  N   UNL A   1      46.143  26.188  27.200  1.00  0.00    -0.354 N 
ATOM     44  C   UNL A   1      42.192  27.461  28.433  1.00  0.00     0.074 A 
ATOM     45  C   UNL A   1      41.261  26.353  28.382  1.00  0.00     0.031 C 
ATOM     46  C   UNL A   1      47.698  24.734  26.525  1.00  0.00     0.029 A 
ATOM     47  C   UNL A   1      47.467  26.144  26.838  1.00  0.00     0.049 A 
ATOM     48  H   UNL A   1      45.699  27.006  27.526  1.00  0.00     0.167 HD
ATOM     49  C   UNL A   1      41.873  28.712  28.847  1.00  0.00     0.034 A 
ATOM     50  C   UNL A   1      48.380  27.133  26.745  1.00  0.00     0.034 A 
ATOM     51  C   UNL A   1      42.804  29.814  28.867  1.00  0.00     0.049 A 
ATOM     52  C   UNL A   1      47.979  28.544  27.110  1.00  0.00     0.074 A 
ATOM     53  C   UNL A   1      42.591  31.120  29.272  1.00  0.00     0.029 A 
ATOM     54  N   UNL A   1      44.126  29.743  28.443  1.00  0.00    -0.354 N 
ATOM     55  N   UNL A   1      46.817  28.993  27.529  1.00  0.00    -0.248 NA
ATOM     56  C   UNL A   1      49.016  29.579  26.993  1.00  0.00     0.031 C 
ATOM     57  C   UNL A   1      43.758  31.852  29.027  1.00  0.00     0.029 A 
ATOM     58  C   UNL A   1      44.727  30.989  28.541  1.00  0.00     0.049 A 
ATOM     59  H   UNL A   1      44.572  28.927  28.120  1.00  0.00     0.167 HD
ATOM     60  C   UNL A   1      46.995  30.357  27.754  1.00  0.00     0.074 A 
ATOM     61  C   UNL A   1      48.376  30.654  27.430  1.00  0.00     0.031 C 
ATOM     62  C   UNL A   1      46.100  31.278  28.197  1.00  0.00     0.034 A 
BRANCH  49  63
ATOM     63  C   UNL A   1      40.436  28.956  29.246  1.00  0.00     0.023 A 
ATOM     64  C   UNL A   1      40.026  28.927  30.590  1.00  0.00     0.031 A 
ATOM     65  C   UNL A   1      39.453  29.160  28.262  1.00  0.00     0.131 A 
ATOM     66  C   UNL A   1      38.662  29.016  30.908  1.00  0.00     0.055 A 
ATOM     67  C   UNL A   1      38.107  29.330  28.590  1.00  0.00     0.041 A 
ATOM     68  F   UNL A   1      39.781  29.174  26.960  1.00  0.00    -0.206 F 
ATOM     69  C   UNL A   1      37.702  29.241  29.919  1.00  0.00     0.022 A 
BRANCH  66  70
ATOM     70  S   UNL A   1      38.144  28.671  32.612  1.00  0.00     0.124 S 
ATOM     71  O   UNL A   1      36.834  29.318  32.660  1.00  0.00    -0.237 OA
ATOM     72  O   UNL A   1      38.140  27.214  32.652  1.00  0.00    -0.237 OA
ATOM     73  O   UNL A   1      39.176  29.315  33.422  1.00  0.00    -0.744 OA
ENDBRANCH  66  70
ENDBRANCH  49  63
BRANCH  50  74
ATOM     74  C   UNL A   1      49.750  26.844  26.236  1.00  0.00     0.023 A 
ATOM     75  C   UNL A   1      50.158  27.257  24.958  1.00  0.00     0.031 A 
ATOM     76  C   UNL A   1      50.659  26.102  27.011  1.00  0.00     0.131 A 
ATOM     77  C   UNL A   1      51.427  26.895  24.479  1.00  0.00     0.055 A 
ATOM     78  C   UNL A   1      51.937  25.784  26.549  1.00  0.00     0.041 A 
ATOM     79  F   UNL A   1      50.317  25.680  28.239  1.00  0.00    -0.206 F 
ATOM     80  C   UNL A   1      52.323  26.172  25.270  1.00  0.00     0.022 A 
BRANCH  77  81
ATOM     81  S   UNL A   1      51.869  27.321  22.771  1.00  0.00     0.124 S 
ATOM     82  O   UNL A   1      53.152  26.645  22.618  1.00  0.00    -0.237 OA
ATOM     83  O   UNL A   1      50.753  26.757  22.018  1.00  0.00    -0.237 OA
ATOM     84  O   UNL A   1      51.930  28.781  22.789  1.00  0.00    -0.744 OA
ENDBRANCH  77  81
ENDBRANCH  50  74
BRANCH  62  85
ATOM     85  C   UNL A   1      46.605  32.688  28.399  1.00  0.00     0.023 A 
ATOM     86  C   UNL A   1      46.786  33.574  27.321  1.00  0.00     0.031 A 
ATOM     87  C   UNL A   1      46.913  33.148  29.692  1.00  0.00     0.131 A 
ATOM     88  C   UNL A   1      47.306  34.857  27.552  1.00  0.00     0.055 A 
ATOM     89  C   UNL A   1      47.377  34.444  29.921  1.00  0.00     0.041 A 
ATOM     90  F   UNL A   1      46.760  32.345  30.757  1.00  0.00    -0.206 F 
ATOM     91  C   UNL A   1      47.587  35.303  28.847  1.00  0.00     0.022 A 
BRANCH  88  92
ATOM     92  S   UNL A   1      47.689  35.915  26.128  1.00  0.00     0.124 S 
ATOM     93  O   UNL A   1      47.793  34.942  25.046  1.00  0.00    -0.237 OA
ATOM     94  O   UNL A   1      46.532  36.803  26.079  1.00  0.00    -0.237 OA
ATOM     95  O   UNL A   1      48.947  36.558  26.506  1.00  0.00    -0.744 OA
ENDBRANCH  88  92
ENDBRANCH  62  85
ENDBRANCH  36  37
ENDBRANCH  29  31
ENDBRANCH  28  29
ENDBRANCH  27  28
ENDBRANCH  26  27
ENDBRANCH  25  26
ENDBRANCH  24  25
ENDBRANCH   1  24
TORSDOF 24
ENDMDL
