MODEL 1
REMARK VINA RESULT:     -10.7      0.000      0.000
REMARK SMILES O=C(OCCOCCOCCOC(=O)c1ccc(F)c(S(=O)(=O)N2CCOc3ccccc32)c1)c1ccc(-c2c3nc(c(-c4cc(S(=O)(=O)[O-])ccc4F)c4ccc([nH]4)c(-c4cc(S(=O)(=O)[O-])ccc4F)c4nc(c(-c5cc(S(=O)(=O)[O-])ccc5F)c5ccc2[nH]5)C=C4)C=C3)cc1
REMARK SMILES IDX 7 1 6 2 5 3 4 4 3 5 2 6 1 7 35 8 36 9 97 10 37 11 96 12
REMARK SMILES IDX 38 13 39 14 40 15 90 16 41 17 95 18 89 19 91 20 42 21 94 22
REMARK SMILES IDX 88 23 87 24 43 26 75 27 55 28 74 29 56 30 59 31 73 32 92 33
REMARK SMILES IDX 57 34 58 35 72 37 93 38 60 39 44 40 45 41 53 42 46 43 52 44
REMARK SMILES IDX 54 45 51 46 47 47 48 48 49 49 50 50 76 51 77 52 85 53 78 54
REMARK SMILES IDX 84 55 86 56 83 57 79 58 80 59 81 60 82 61 61 62 62 63 70 64
REMARK SMILES IDX 63 65 69 66 71 67 68 68 64 69 65 70 66 71 67 72 8 73 9 74
REMARK SMILES IDX 10 75 11 76 12 77 13 78 14 79 15 80 16 81 34 82 17 83 20 84
REMARK SMILES IDX 18 85 19 86 21 87 22 88 23 89 24 90 25 91 33 92 26 93 28 94
REMARK SMILES IDX 32 95 27 96 29 97 31 98 30 99
REMARK H PARENT 91 25 59 36
REMARK Flexibility Score: inf
ROOT
ATOM      1  C   UNL A   1      40.265  21.506  26.377  1.00  0.00     0.188 C 
ENDROOT
BRANCH   1   2
ATOM      2  O   UNL A   1      41.573  21.421  26.952  1.00  0.00    -0.376 OA
BRANCH   2   3
ATOM      3  C   UNL A   1      42.472  20.554  26.252  1.00  0.00     0.202 C 
BRANCH   3   4
ATOM      4  C   UNL A   1      43.539  21.256  25.399  1.00  0.00     0.261 C 
BRANCH   4   5
ATOM      5  O   UNL A   1      43.077  22.498  24.851  1.00  0.00    -0.460 OA
BRANCH   5   6
ATOM      6  C   UNL A   1      43.667  23.714  24.983  1.00  0.00     0.338 C 
ATOM      7  O   UNL A   1      44.669  23.954  24.312  1.00  0.00    -0.246 OA
BRANCH   6   8
ATOM      8  C   UNL A   1      43.141  24.784  25.884  1.00  0.00     0.060 A 
ATOM      9  C   UNL A   1      43.068  26.146  25.570  1.00  0.00     0.016 A 
ATOM     10  C   UNL A   1      42.623  24.370  27.115  1.00  0.00     0.016 A 
ATOM     11  C   UNL A   1      42.595  27.086  26.482  1.00  0.00     0.010 A 
ATOM     12  C   UNL A   1      42.105  25.302  28.015  1.00  0.00     0.010 A 
ATOM     13  C   UNL A   1      42.105  26.674  27.714  1.00  0.00    -0.014 A 
BRANCH  13  14
ATOM     14  C   UNL A   1      41.727  27.668  28.745  1.00  0.00     0.031 A 
ATOM     15  C   UNL A   1      42.605  27.776  29.954  1.00  0.00     0.074 A 
ATOM     16  C   UNL A   1      40.673  28.493  28.599  1.00  0.00     0.049 A 
ATOM     17  N   UNL A   1      42.378  28.364  31.094  1.00  0.00    -0.248 NA
ATOM     18  C   UNL A   1      43.928  27.131  29.855  1.00  0.00     0.031 C 
ATOM     19  C   UNL A   1      39.851  28.612  27.396  1.00  0.00     0.029 A 
ATOM     20  N   UNL A   1      40.111  29.395  29.468  1.00  0.00    -0.354 N 
ATOM     21  C   UNL A   1      43.521  28.151  31.853  1.00  0.00     0.074 A 
ATOM     22  C   UNL A   1      44.422  27.343  31.063  1.00  0.00     0.031 C 
ATOM     23  C   UNL A   1      38.884  29.519  27.611  1.00  0.00     0.029 A 
ATOM     24  C   UNL A   1      38.962  29.982  28.985  1.00  0.00     0.049 A 
ATOM     25  H   UNL A   1      40.491  29.601  30.352  1.00  0.00     0.167 HD
ATOM     26  C   UNL A   1      43.795  28.611  33.093  1.00  0.00     0.034 A 
ATOM     27  C   UNL A   1      38.049  30.764  29.595  1.00  0.00     0.034 A 
ATOM     28  C   UNL A   1      42.892  29.437  33.846  1.00  0.00     0.049 A 
ATOM     29  C   UNL A   1      38.292  31.128  31.034  1.00  0.00     0.074 A 
ATOM     30  C   UNL A   1      43.024  29.907  35.139  1.00  0.00     0.029 A 
ATOM     31  N   UNL A   1      41.691  29.935  33.356  1.00  0.00    -0.354 N 
ATOM     32  N   UNL A   1      39.310  30.807  31.798  1.00  0.00    -0.248 NA
ATOM     33  C   UNL A   1      37.273  31.954  31.690  1.00  0.00     0.031 C 
ATOM     34  C   UNL A   1      41.885  30.659  35.443  1.00  0.00     0.029 A 
ATOM     35  C   UNL A   1      41.068  30.702  34.323  1.00  0.00     0.049 A 
ATOM     36  H   UNL A   1      41.336  29.766  32.454  1.00  0.00     0.167 HD
ATOM     37  C   UNL A   1      39.070  31.420  33.020  1.00  0.00     0.074 A 
ATOM     38  C   UNL A   1      37.816  32.136  32.886  1.00  0.00     0.031 C 
ATOM     39  C   UNL A   1      39.817  31.399  34.153  1.00  0.00     0.034 A 
BRANCH  26  40
ATOM     40  C   UNL A   1      45.099  28.189  33.705  1.00  0.00     0.023 A 
ATOM     41  C   UNL A   1      45.182  27.078  34.562  1.00  0.00     0.031 A 
ATOM     42  C   UNL A   1      46.266  28.933  33.462  1.00  0.00     0.131 A 
ATOM     43  C   UNL A   1      46.400  26.767  35.180  1.00  0.00     0.055 A 
ATOM     44  C   UNL A   1      47.489  28.581  34.034  1.00  0.00     0.041 A 
ATOM     45  F   UNL A   1      46.229  30.022  32.679  1.00  0.00    -0.206 F 
ATOM     46  C   UNL A   1      47.560  27.496  34.903  1.00  0.00     0.022 A 
BRANCH  43  47
ATOM     47  S   UNL A   1      46.442  25.436  36.411  1.00  0.00     0.124 S 
ATOM     48  O   UNL A   1      46.387  24.249  35.561  1.00  0.00    -0.237 OA
ATOM     49  O   UNL A   1      47.707  25.670  37.096  1.00  0.00    -0.237 OA
ATOM     50  O   UNL A   1      45.246  25.678  37.215  1.00  0.00    -0.744 OA
ENDBRANCH  43  47
ENDBRANCH  26  40
BRANCH  27  51
ATOM     51  C   UNL A   1      36.802  31.192  28.894  1.00  0.00     0.023 A 
ATOM     52  C   UNL A   1      35.873  30.256  28.413  1.00  0.00     0.031 A 
ATOM     53  C   UNL A   1      36.551  32.554  28.642  1.00  0.00     0.131 A 
ATOM     54  C   UNL A   1      34.756  30.689  27.678  1.00  0.00     0.055 A 
ATOM     55  C   UNL A   1      35.416  32.983  27.949  1.00  0.00     0.041 A 
ATOM     56  F   UNL A   1      37.409  33.492  29.068  1.00  0.00    -0.206 F 
ATOM     57  C   UNL A   1      34.515  32.047  27.452  1.00  0.00     0.022 A 
BRANCH  54  58
ATOM     58  S   UNL A   1      33.647  29.444  26.962  1.00  0.00     0.124 S 
ATOM     59  O   UNL A   1      32.421  29.667  27.718  1.00  0.00    -0.237 OA
ATOM     60  O   UNL A   1      33.619  29.841  25.557  1.00  0.00    -0.237 OA
ATOM     61  O   UNL A   1      34.332  28.182  27.236  1.00  0.00    -0.744 OA
ENDBRANCH  54  58
ENDBRANCH  27  51
BRANCH  39  62
ATOM     62  C   UNL A   1      39.304  32.208  35.308  1.00  0.00     0.023 A 
ATOM     63  C   UNL A   1      39.729  33.528  35.516  1.00  0.00     0.031 A 
ATOM     64  C   UNL A   1      38.383  31.646  36.210  1.00  0.00     0.131 A 
ATOM     65  C   UNL A   1      39.272  34.234  36.635  1.00  0.00     0.055 A 
ATOM     66  C   UNL A   1      37.886  32.374  37.289  1.00  0.00     0.041 A 
ATOM     67  F   UNL A   1      37.952  30.385  36.049  1.00  0.00    -0.206 F 
ATOM     68  C   UNL A   1      38.339  33.673  37.513  1.00  0.00     0.022 A 
BRANCH  65  69
ATOM     69  S   UNL A   1      39.971  35.871  36.967  1.00  0.00     0.124 S 
ATOM     70  O   UNL A   1      39.225  36.281  38.152  1.00  0.00    -0.237 OA
ATOM     71  O   UNL A   1      41.384  35.573  37.177  1.00  0.00    -0.237 OA
ATOM     72  O   UNL A   1      39.671  36.624  35.751  1.00  0.00    -0.744 OA
ENDBRANCH  65  69
ENDBRANCH  39  62
ENDBRANCH  13  14
ENDBRANCH   6   8
ENDBRANCH   5   6
ENDBRANCH   4   5
ENDBRANCH   3   4
ENDBRANCH   2   3
ENDBRANCH   1   2
BRANCH   1  73
ATOM     73  C   UNL A   1      39.524  22.767  26.826  1.00  0.00     0.188 C 
BRANCH  73  74
ATOM     74  O   UNL A   1      38.184  22.906  26.360  1.00  0.00    -0.376 OA
BRANCH  74  75
ATOM     75  C   UNL A   1      37.822  22.152  25.208  1.00  0.00     0.202 C 
BRANCH  75  76
ATOM     76  C   UNL A   1      36.783  22.754  24.249  1.00  0.00     0.261 C 
BRANCH  76  77
ATOM     77  O   UNL A   1      35.785  21.859  23.721  1.00  0.00    -0.460 OA
BRANCH  77  78
ATOM     78  C   UNL A   1      35.202  21.066  24.654  1.00  0.00     0.338 C 
ATOM     79  O   UNL A   1      35.416  19.878  24.847  1.00  0.00    -0.246 OA
BRANCH  78  80
ATOM     80  C   UNL A   1      34.103  21.760  25.348  1.00  0.00     0.061 A 
ATOM     81  C   UNL A   1      34.202  21.804  26.741  1.00  0.00     0.019 A 
ATOM     82  C   UNL A   1      33.133  22.524  24.677  1.00  0.00     0.041 A 
ATOM     83  C   UNL A   1      33.346  22.626  27.465  1.00  0.00     0.041 A 
ATOM     84  C   UNL A   1      32.270  23.360  25.424  1.00  0.00     0.124 A 
ATOM     85  C   UNL A   1      32.390  23.398  26.808  1.00  0.00     0.143 A 
ATOM     86  F   UNL A   1      31.620  24.165  27.580  1.00  0.00    -0.205 F 
BRANCH  84  87
ATOM     87  S   UNL A   1      31.084  24.368  24.549  1.00  0.00     0.267 S 
ATOM     88  O   UNL A   1      31.074  23.846  23.195  1.00  0.00    -0.201 OA
ATOM     89  O   UNL A   1      29.879  24.307  25.351  1.00  0.00    -0.201 OA
BRANCH  87  90
ATOM     90  N   UNL A   1      31.695  25.948  24.486  1.00  0.00    -0.259 N 
ATOM     91  C   UNL A   1      33.162  26.121  24.642  1.00  0.00     0.177 C 
ATOM     92  C   UNL A   1      31.072  26.996  23.701  1.00  0.00     0.094 A 
ATOM     93  C   UNL A   1      33.756  26.536  23.305  1.00  0.00     0.252 C 
ATOM     94  C   UNL A   1      31.881  27.904  22.985  1.00  0.00     0.143 A 
ATOM     95  C   UNL A   1      29.704  27.250  23.768  1.00  0.00     0.031 A 
ATOM     96  O   UNL A   1      33.249  27.806  22.878  1.00  0.00    -0.489 OA
ATOM     97  C   UNL A   1      31.323  29.025  22.361  1.00  0.00     0.049 A 
ATOM     98  C   UNL A   1      29.139  28.355  23.116  1.00  0.00     0.002 A 
ATOM     99  C   UNL A   1      29.950  29.246  22.419  1.00  0.00     0.004 A 
ENDBRANCH  87  90
ENDBRANCH  84  87
ENDBRANCH  78  80
ENDBRANCH  77  78
ENDBRANCH  76  77
ENDBRANCH  75  76
ENDBRANCH  74  75
ENDBRANCH  73  74
ENDBRANCH   1  73
TORSDOF 22
ENDMDL
MODEL 2
REMARK VINA RESULT:     -10.7      2.333      2.726
REMARK SMILES O=C(OCCOCCOCCOC(=O)c1ccc(F)c(S(=O)(=O)N2CCOc3ccccc32)c1)c1ccc(-c2c3nc(c(-c4cc(S(=O)(=O)[O-])ccc4F)c4ccc([nH]4)c(-c4cc(S(=O)(=O)[O-])ccc4F)c4nc(c(-c5cc(S(=O)(=O)[O-])ccc5F)c5ccc2[nH]5)C=C4)C=C3)cc1
REMARK SMILES IDX 7 1 6 2 5 3 4 4 3 5 2 6 1 7 35 8 36 9 97 10 37 11 96 12
REMARK SMILES IDX 38 13 39 14 40 15 90 16 41 17 95 18 89 19 91 20 42 21 94 22
REMARK SMILES IDX 88 23 87 24 43 26 75 27 55 28 74 29 56 30 59 31 73 32 92 33
REMARK SMILES IDX 57 34 58 35 72 37 93 38 60 39 44 40 45 41 53 42 46 43 52 44
REMARK SMILES IDX 54 45 51 46 47 47 48 48 49 49 50 50 76 51 77 52 85 53 78 54
REMARK SMILES IDX 84 55 86 56 83 57 79 58 80 59 81 60 82 61 61 62 62 63 70 64
REMARK SMILES IDX 63 65 69 66 71 67 68 68 64 69 65 70 66 71 67 72 8 73 9 74
REMARK SMILES IDX 10 75 11 76 12 77 13 78 14 79 15 80 16 81 34 82 17 83 20 84
REMARK SMILES IDX 18 85 19 86 21 87 22 88 23 89 24 90 25 91 33 92 26 93 28 94
REMARK SMILES IDX 32 95 27 96 29 97 31 98 30 99
REMARK H PARENT 91 25 59 36
REMARK Flexibility Score: inf
ROOT
ATOM      1  C   UNL A   1      40.367  20.812  26.316  1.00  0.00     0.188 C 
ENDROOT
BRANCH   1   2
ATOM      2  O   UNL A   1      41.679  20.861  26.885  1.00  0.00    -0.376 OA
BRANCH   2   3
ATOM      3  C   UNL A   1      42.716  20.378  26.022  1.00  0.00     0.202 C 
BRANCH   3   4
ATOM      4  C   UNL A   1      43.705  21.439  25.518  1.00  0.00     0.261 C 
BRANCH   4   5
ATOM      5  O   UNL A   1      43.048  22.606  25.005  1.00  0.00    -0.460 OA
BRANCH   5   6
ATOM      6  C   UNL A   1      43.507  23.883  25.048  1.00  0.00     0.338 C 
ATOM      7  O   UNL A   1      44.409  24.206  24.276  1.00  0.00    -0.246 OA
BRANCH   6   8
ATOM      8  C   UNL A   1      42.950  24.921  25.966  1.00  0.00     0.060 A 
ATOM      9  C   UNL A   1      42.930  26.298  25.718  1.00  0.00     0.016 A 
ATOM     10  C   UNL A   1      42.346  24.462  27.140  1.00  0.00     0.016 A 
ATOM     11  C   UNL A   1      42.423  27.206  26.644  1.00  0.00     0.010 A 
ATOM     12  C   UNL A   1      41.794  25.362  28.052  1.00  0.00     0.010 A 
ATOM     13  C   UNL A   1      41.845  26.747  27.821  1.00  0.00    -0.014 A 
BRANCH  13  14
ATOM     14  C   UNL A   1      41.427  27.699  28.876  1.00  0.00     0.031 A 
ATOM     15  C   UNL A   1      42.284  27.794  30.100  1.00  0.00     0.074 A 
ATOM     16  C   UNL A   1      40.353  28.500  28.738  1.00  0.00     0.049 A 
ATOM     17  N   UNL A   1      42.026  28.341  31.253  1.00  0.00    -0.248 NA
ATOM     18  C   UNL A   1      43.625  27.188  30.001  1.00  0.00     0.031 C 
ATOM     19  C   UNL A   1      39.545  28.633  27.527  1.00  0.00     0.029 A 
ATOM     20  N   UNL A   1      39.754  29.360  29.625  1.00  0.00    -0.354 N 
ATOM     21  C   UNL A   1      43.163  28.137  32.022  1.00  0.00     0.074 A 
ATOM     22  C   UNL A   1      44.096  27.377  31.222  1.00  0.00     0.031 C 
ATOM     23  C   UNL A   1      38.550  29.507  27.755  1.00  0.00     0.029 A 
ATOM     24  C   UNL A   1      38.597  29.931  29.143  1.00  0.00     0.049 A 
ATOM     25  H   UNL A   1      40.117  29.550  30.520  1.00  0.00     0.167 HD
ATOM     26  C   UNL A   1      43.407  28.566  33.280  1.00  0.00     0.034 A 
ATOM     27  C   UNL A   1      37.655  30.670  29.761  1.00  0.00     0.034 A 
ATOM     28  C   UNL A   1      42.471  29.345  34.043  1.00  0.00     0.049 A 
ATOM     29  C   UNL A   1      37.867  30.997  31.214  1.00  0.00     0.074 A 
ATOM     30  C   UNL A   1      42.572  29.779  35.351  1.00  0.00     0.029 A 
ATOM     31  N   UNL A   1      41.265  29.825  33.551  1.00  0.00    -0.354 N 
ATOM     32  N   UNL A   1      38.883  30.681  31.983  1.00  0.00    -0.248 NA
ATOM     33  C   UNL A   1      36.818  31.776  31.879  1.00  0.00     0.031 C 
ATOM     34  C   UNL A   1      41.409  30.492  35.660  1.00  0.00     0.029 A 
ATOM     35  C   UNL A   1      40.607  30.547  34.530  1.00  0.00     0.049 A 
ATOM     36  H   UNL A   1      40.927  29.674  32.638  1.00  0.00     0.167 HD
ATOM     37  C   UNL A   1      38.609  31.250  33.219  1.00  0.00     0.074 A 
ATOM     38  C   UNL A   1      37.338  31.936  33.088  1.00  0.00     0.031 C 
ATOM     39  C   UNL A   1      39.341  31.215  34.362  1.00  0.00     0.034 A 
BRANCH  26  40
ATOM     40  C   UNL A   1      44.713  28.161  33.898  1.00  0.00     0.023 A 
ATOM     41  C   UNL A   1      45.868  28.950  33.757  1.00  0.00     0.031 A 
ATOM     42  C   UNL A   1      44.815  26.948  34.601  1.00  0.00     0.131 A 
ATOM     43  C   UNL A   1      47.087  28.495  34.277  1.00  0.00     0.055 A 
ATOM     44  C   UNL A   1      46.020  26.530  35.167  1.00  0.00     0.041 A 
ATOM     45  F   UNL A   1      43.748  26.144  34.731  1.00  0.00    -0.206 F 
ATOM     46  C   UNL A   1      47.166  27.303  35.002  1.00  0.00     0.022 A 
BRANCH  43  47
ATOM     47  S   UNL A   1      48.592  29.446  33.935  1.00  0.00     0.124 S 
ATOM     48  O   UNL A   1      48.041  30.761  33.615  1.00  0.00    -0.237 OA
ATOM     49  O   UNL A   1      49.326  29.352  35.192  1.00  0.00    -0.237 OA
ATOM     50  O   UNL A   1      49.196  28.737  32.810  1.00  0.00    -0.744 OA
ENDBRANCH  43  47
ENDBRANCH  26  40
BRANCH  27  51
ATOM     51  C   UNL A   1      36.407  31.086  29.055  1.00  0.00     0.023 A 
ATOM     52  C   UNL A   1      35.943  32.410  29.104  1.00  0.00     0.031 A 
ATOM     53  C   UNL A   1      35.623  30.142  28.364  1.00  0.00     0.131 A 
ATOM     54  C   UNL A   1      34.717  32.747  28.505  1.00  0.00     0.055 A 
ATOM     55  C   UNL A   1      34.427  30.492  27.732  1.00  0.00     0.041 A 
ATOM     56  F   UNL A   1      36.012  28.860  28.293  1.00  0.00    -0.206 F 
ATOM     57  C   UNL A   1      33.962  31.800  27.810  1.00  0.00     0.022 A 
BRANCH  54  58
ATOM     58  S   UNL A   1      34.087  34.438  28.700  1.00  0.00     0.124 S 
ATOM     59  O   UNL A   1      34.779  35.140  27.627  1.00  0.00    -0.237 OA
ATOM     60  O   UNL A   1      32.651  34.244  28.523  1.00  0.00    -0.237 OA
ATOM     61  O   UNL A   1      34.500  34.800  30.055  1.00  0.00    -0.744 OA
ENDBRANCH  54  58
ENDBRANCH  27  51
BRANCH  39  62
ATOM     62  C   UNL A   1      38.790  31.975  35.533  1.00  0.00     0.023 A 
ATOM     63  C   UNL A   1      38.227  31.308  36.632  1.00  0.00     0.031 A 
ATOM     64  C   UNL A   1      38.830  33.380  35.545  1.00  0.00     0.131 A 
ATOM     65  C   UNL A   1      37.674  32.051  37.681  1.00  0.00     0.055 A 
ATOM     66  C   UNL A   1      38.331  34.113  36.620  1.00  0.00     0.041 A 
ATOM     67  F   UNL A   1      39.359  34.057  34.513  1.00  0.00    -0.206 F 
ATOM     68  C   UNL A   1      37.739  33.448  37.692  1.00  0.00     0.022 A 
BRANCH  65  69
ATOM     69  S   UNL A   1      36.803  31.165  38.999  1.00  0.00     0.124 S 
ATOM     70  O   UNL A   1      36.706  29.819  38.442  1.00  0.00    -0.237 OA
ATOM     71  O   UNL A   1      37.706  31.321  40.133  1.00  0.00    -0.237 OA
ATOM     72  O   UNL A   1      35.535  31.883  39.113  1.00  0.00    -0.744 OA
ENDBRANCH  65  69
ENDBRANCH  39  62
ENDBRANCH  13  14
ENDBRANCH   6   8
ENDBRANCH   5   6
ENDBRANCH   4   5
ENDBRANCH   3   4
ENDBRANCH   2   3
ENDBRANCH   1   2
BRANCH   1  73
ATOM     73  C   UNL A   1      39.703  22.190  26.294  1.00  0.00     0.188 C 
BRANCH  73  74
ATOM     74  O   UNL A   1      38.277  22.199  26.318  1.00  0.00    -0.376 OA
BRANCH  74  75
ATOM     75  C   UNL A   1      37.611  21.728  25.152  1.00  0.00     0.202 C 
BRANCH  75  76
ATOM     76  C   UNL A   1      36.132  22.102  24.966  1.00  0.00     0.261 C 
BRANCH  76  77
ATOM     77  O   UNL A   1      35.205  21.019  24.756  1.00  0.00    -0.460 OA
BRANCH  77  78
ATOM     78  C   UNL A   1      34.020  21.172  25.397  1.00  0.00     0.338 C 
ATOM     79  O   UNL A   1      33.586  20.491  26.315  1.00  0.00    -0.246 OA
BRANCH  78  80
ATOM     80  C   UNL A   1      33.175  22.187  24.743  1.00  0.00     0.061 A 
ATOM     81  C   UNL A   1      32.671  21.833  23.488  1.00  0.00     0.019 A 
ATOM     82  C   UNL A   1      32.709  23.338  25.401  1.00  0.00     0.041 A 
ATOM     83  C   UNL A   1      31.687  22.617  22.897  1.00  0.00     0.041 A 
ATOM     84  C   UNL A   1      31.705  24.127  24.790  1.00  0.00     0.124 A 
ATOM     85  C   UNL A   1      31.209  23.754  23.547  1.00  0.00     0.143 A 
ATOM     86  F   UNL A   1      30.259  24.440  22.912  1.00  0.00    -0.205 F 
BRANCH  84  87
ATOM     87  S   UNL A   1      31.084  25.552  25.668  1.00  0.00     0.267 S 
ATOM     88  O   UNL A   1      29.668  25.597  25.356  1.00  0.00    -0.201 OA
ATOM     89  O   UNL A   1      31.512  25.362  27.039  1.00  0.00    -0.201 OA
BRANCH  87  90
ATOM     90  N   UNL A   1      31.803  26.930  24.991  1.00  0.00    -0.259 N 
ATOM     91  C   UNL A   1      33.286  26.954  24.902  1.00  0.00     0.177 C 
ATOM     92  C   UNL A   1      31.151  27.731  23.974  1.00  0.00     0.094 A 
ATOM     93  C   UNL A   1      33.695  26.825  23.443  1.00  0.00     0.252 C 
ATOM     94  C   UNL A   1      31.909  28.240  22.897  1.00  0.00     0.143 A 
ATOM     95  C   UNL A   1      29.836  28.167  24.111  1.00  0.00     0.031 A 
ATOM     96  O   UNL A   1      33.232  27.936  22.668  1.00  0.00    -0.489 OA
ATOM     97  C   UNL A   1      31.353  29.154  21.996  1.00  0.00     0.049 A 
ATOM     98  C   UNL A   1      29.267  29.058  23.191  1.00  0.00     0.002 A 
ATOM     99  C   UNL A   1      30.029  29.557  22.138  1.00  0.00     0.004 A 
ENDBRANCH  87  90
ENDBRANCH  84  87
ENDBRANCH  78  80
ENDBRANCH  77  78
ENDBRANCH  76  77
ENDBRANCH  75  76
ENDBRANCH  74  75
ENDBRANCH  73  74
ENDBRANCH   1  73
TORSDOF 22
ENDMDL
MODEL 3
REMARK VINA RESULT:     -10.3      5.348     11.796
REMARK SMILES O=C(OCCOCCOCCOC(=O)c1ccc(F)c(S(=O)(=O)N2CCOc3ccccc32)c1)c1ccc(-c2c3nc(c(-c4cc(S(=O)(=O)[O-])ccc4F)c4ccc([nH]4)c(-c4cc(S(=O)(=O)[O-])ccc4F)c4nc(c(-c5cc(S(=O)(=O)[O-])ccc5F)c5ccc2[nH]5)C=C4)C=C3)cc1
REMARK SMILES IDX 7 1 6 2 5 3 4 4 3 5 2 6 1 7 35 8 36 9 97 10 37 11 96 12
REMARK SMILES IDX 38 13 39 14 40 15 90 16 41 17 95 18 89 19 91 20 42 21 94 22
REMARK SMILES IDX 88 23 87 24 43 26 75 27 55 28 74 29 56 30 59 31 73 32 92 33
REMARK SMILES IDX 57 34 58 35 72 37 93 38 60 39 44 40 45 41 53 42 46 43 52 44
REMARK SMILES IDX 54 45 51 46 47 47 48 48 49 49 50 50 76 51 77 52 85 53 78 54
REMARK SMILES IDX 84 55 86 56 83 57 79 58 80 59 81 60 82 61 61 62 62 63 70 64
REMARK SMILES IDX 63 65 69 66 71 67 68 68 64 69 65 70 66 71 67 72 8 73 9 74
REMARK SMILES IDX 10 75 11 76 12 77 13 78 14 79 15 80 16 81 34 82 17 83 20 84
REMARK SMILES IDX 18 85 19 86 21 87 22 88 23 89 24 90 25 91 33 92 26 93 28 94
REMARK SMILES IDX 32 95 27 96 29 97 31 98 30 99
REMARK H PARENT 91 25 59 36
REMARK Flexibility Score: inf
ROOT
ATOM      1  C   UNL A   1      36.190  34.336  34.294  1.00  0.00     0.188 C 
ENDROOT
BRANCH   1   2
ATOM      2  O   UNL A   1      36.117  33.305  35.283  1.00  0.00    -0.376 OA
BRANCH   2   3
ATOM      3  C   UNL A   1      37.383  32.918  35.829  1.00  0.00     0.202 C 
BRANCH   3   4
ATOM      4  C   UNL A   1      37.924  31.562  35.352  1.00  0.00     0.261 C 
BRANCH   4   5
ATOM      5  O   UNL A   1      37.751  31.366  33.942  1.00  0.00    -0.460 OA
BRANCH   5   6
ATOM      6  C   UNL A   1      37.835  30.190  33.269  1.00  0.00     0.338 C 
ATOM      7  O   UNL A   1      36.804  29.706  32.805  1.00  0.00    -0.246 OA
BRANCH   6   8
ATOM      8  C   UNL A   1      39.125  29.471  33.038  1.00  0.00     0.060 A 
ATOM      9  C   UNL A   1      39.251  28.167  32.549  1.00  0.00     0.016 A 
ATOM     10  C   UNL A   1      40.297  30.194  33.278  1.00  0.00     0.016 A 
ATOM     11  C   UNL A   1      40.493  27.555  32.396  1.00  0.00     0.010 A 
ATOM     12  C   UNL A   1      41.547  29.603  33.083  1.00  0.00     0.010 A 
ATOM     13  C   UNL A   1      41.655  28.268  32.658  1.00  0.00    -0.014 A 
BRANCH  13  14
ATOM     14  C   UNL A   1      42.974  27.594  32.634  1.00  0.00     0.031 A 
ATOM     15  C   UNL A   1      43.597  27.249  33.951  1.00  0.00     0.074 A 
ATOM     16  C   UNL A   1      43.583  27.244  31.484  1.00  0.00     0.049 A 
ATOM     17  N   UNL A   1      44.821  26.896  34.222  1.00  0.00    -0.248 NA
ATOM     18  C   UNL A   1      42.707  27.308  35.125  1.00  0.00     0.031 C 
ATOM     19  C   UNL A   1      43.001  27.360  30.148  1.00  0.00     0.029 A 
ATOM     20  N   UNL A   1      44.828  26.714  31.253  1.00  0.00    -0.354 N 
ATOM     21  C   UNL A   1      44.854  26.702  35.596  1.00  0.00     0.074 A 
ATOM     22  C   UNL A   1      43.541  27.019  36.110  1.00  0.00     0.031 C 
ATOM     23  C   UNL A   1      43.894  26.931  29.240  1.00  0.00     0.029 A 
ATOM     24  C   UNL A   1      45.134  26.591  29.916  1.00  0.00     0.049 A 
ATOM     25  H   UNL A   1      45.444  26.448  31.973  1.00  0.00     0.167 HD
ATOM     26  C   UNL A   1      45.889  26.277  36.353  1.00  0.00     0.034 A 
ATOM     27  C   UNL A   1      46.295  26.287  29.302  1.00  0.00     0.034 A 
ATOM     28  C   UNL A   1      47.177  25.941  35.812  1.00  0.00     0.049 A 
ATOM     29  C   UNL A   1      47.483  25.979  30.170  1.00  0.00     0.074 A 
ATOM     30  C   UNL A   1      48.326  25.566  36.483  1.00  0.00     0.029 A 
ATOM     31  N   UNL A   1      47.477  25.919  34.456  1.00  0.00    -0.354 N 
ATOM     32  N   UNL A   1      47.548  25.933  31.481  1.00  0.00    -0.248 NA
ATOM     33  C   UNL A   1      48.745  25.680  29.486  1.00  0.00     0.031 C 
ATOM     34  C   UNL A   1      49.330  25.354  35.533  1.00  0.00     0.029 A 
ATOM     35  C   UNL A   1      48.794  25.544  34.268  1.00  0.00     0.049 A 
ATOM     36  H   UNL A   1      46.844  26.139  33.734  1.00  0.00     0.167 HD
ATOM     37  C   UNL A   1      48.855  25.569  31.779  1.00  0.00     0.074 A 
ATOM     38  C   UNL A   1      49.538  25.399  30.511  1.00  0.00     0.031 C 
ATOM     39  C   UNL A   1      49.441  25.387  32.989  1.00  0.00     0.034 A 
BRANCH  26  40
ATOM     40  C   UNL A   1      45.663  26.198  37.836  1.00  0.00     0.023 A 
ATOM     41  C   UNL A   1      45.775  27.334  38.655  1.00  0.00     0.031 A 
ATOM     42  C   UNL A   1      45.375  24.963  38.440  1.00  0.00     0.131 A 
ATOM     43  C   UNL A   1      45.641  27.204  40.044  1.00  0.00     0.055 A 
ATOM     44  C   UNL A   1      45.184  24.852  39.818  1.00  0.00     0.041 A 
ATOM     45  F   UNL A   1      45.293  23.845  37.703  1.00  0.00    -0.206 F 
ATOM     46  C   UNL A   1      45.321  25.975  40.629  1.00  0.00     0.022 A 
BRANCH  43  47
ATOM     47  S   UNL A   1      45.958  28.649  41.092  1.00  0.00     0.124 S 
ATOM     48  O   UNL A   1      47.247  29.106  40.579  1.00  0.00    -0.237 OA
ATOM     49  O   UNL A   1      44.817  29.511  40.807  1.00  0.00    -0.237 OA
ATOM     50  O   UNL A   1      45.991  28.090  42.442  1.00  0.00    -0.744 OA
ENDBRANCH  43  47
ENDBRANCH  26  40
BRANCH  27  51
ATOM     51  C   UNL A   1      46.421  26.330  27.815  1.00  0.00     0.023 A 
ATOM     52  C   UNL A   1      46.188  25.192  27.026  1.00  0.00     0.031 A 
ATOM     53  C   UNL A   1      46.836  27.506  27.162  1.00  0.00     0.131 A 
ATOM     54  C   UNL A   1      46.404  25.244  25.638  1.00  0.00     0.055 A 
ATOM     55  C   UNL A   1      47.007  27.564  25.776  1.00  0.00     0.041 A 
ATOM     56  F   UNL A   1      47.083  28.621  27.866  1.00  0.00    -0.206 F 
ATOM     57  C   UNL A   1      46.802  26.425  25.007  1.00  0.00     0.022 A 
BRANCH  54  58
ATOM     58  S   UNL A   1      46.219  23.720  24.669  1.00  0.00     0.124 S 
ATOM     59  O   UNL A   1      47.233  23.897  23.637  1.00  0.00    -0.237 OA
ATOM     60  O   UNL A   1      46.493  22.694  25.671  1.00  0.00    -0.237 OA
ATOM     61  O   UNL A   1      44.835  23.778  24.205  1.00  0.00    -0.744 OA
ENDBRANCH  54  58
ENDBRANCH  27  51
BRANCH  39  62
ATOM     62  C   UNL A   1      50.875  24.947  32.980  1.00  0.00     0.023 A 
ATOM     63  C   UNL A   1      51.217  23.588  32.910  1.00  0.00     0.031 A 
ATOM     64  C   UNL A   1      51.907  25.899  33.044  1.00  0.00     0.131 A 
ATOM     65  C   UNL A   1      52.564  23.211  32.959  1.00  0.00     0.055 A 
ATOM     66  C   UNL A   1      53.248  25.521  33.032  1.00  0.00     0.041 A 
ATOM     67  F   UNL A   1      51.623  27.209  33.113  1.00  0.00    -0.206 F 
ATOM     68  C   UNL A   1      53.582  24.168  33.000  1.00  0.00     0.022 A 
BRANCH  65  69
ATOM     69  S   UNL A   1      52.963  21.446  33.041  1.00  0.00     0.124 S 
ATOM     70  O   UNL A   1      54.073  21.346  32.099  1.00  0.00    -0.237 OA
ATOM     71  O   UNL A   1      53.303  21.265  34.448  1.00  0.00    -0.237 OA
ATOM     72  O   UNL A   1      51.725  20.796  32.614  1.00  0.00    -0.744 OA
ENDBRANCH  65  69
ENDBRANCH  39  62
ENDBRANCH  13  14
ENDBRANCH   6   8
ENDBRANCH   5   6
ENDBRANCH   4   5
ENDBRANCH   3   4
ENDBRANCH   2   3
ENDBRANCH   1   2
BRANCH   1  73
ATOM     73  C   UNL A   1      34.837  35.016  34.076  1.00  0.00     0.188 C 
BRANCH  73  74
ATOM     74  O   UNL A   1      34.880  36.375  33.646  1.00  0.00    -0.376 OA
BRANCH  74  75
ATOM     75  C   UNL A   1      33.652  36.955  33.223  1.00  0.00     0.202 C 
BRANCH  75  76
ATOM     76  C   UNL A   1      32.428  36.036  33.092  1.00  0.00     0.261 C 
BRANCH  76  77
ATOM     77  O   UNL A   1      32.374  35.178  31.936  1.00  0.00    -0.460 OA
BRANCH  77  78
ATOM     78  C   UNL A   1      32.748  35.782  30.780  1.00  0.00     0.338 C 
ATOM     79  O   UNL A   1      32.353  36.855  30.349  1.00  0.00    -0.246 OA
BRANCH  78  80
ATOM     80  C   UNL A   1      33.600  34.903  29.958  1.00  0.00     0.061 A 
ATOM     81  C   UNL A   1      33.206  34.758  28.625  1.00  0.00     0.019 A 
ATOM     82  C   UNL A   1      34.844  34.414  30.392  1.00  0.00     0.041 A 
ATOM     83  C   UNL A   1      34.061  34.142  27.719  1.00  0.00     0.041 A 
ATOM     84  C   UNL A   1      35.708  33.792  29.460  1.00  0.00     0.124 A 
ATOM     85  C   UNL A   1      35.303  33.666  28.136  1.00  0.00     0.143 A 
ATOM     86  F   UNL A   1      36.063  33.100  27.199  1.00  0.00    -0.205 F 
BRANCH  84  87
ATOM     87  S   UNL A   1      37.308  33.232  30.018  1.00  0.00     0.267 S 
ATOM     88  O   UNL A   1      38.239  33.680  28.999  1.00  0.00    -0.201 OA
ATOM     89  O   UNL A   1      37.428  33.733  31.372  1.00  0.00    -0.201 OA
BRANCH  87  90
ATOM     90  N   UNL A   1      37.299  31.536  29.994  1.00  0.00    -0.259 N 
ATOM     91  C   UNL A   1      35.982  30.861  29.862  1.00  0.00     0.177 C 
ATOM     92  C   UNL A   1      38.402  30.757  29.468  1.00  0.00     0.094 A 
ATOM     93  C   UNL A   1      35.888  30.230  28.481  1.00  0.00     0.252 C 
ATOM     94  C   UNL A   1      38.135  29.603  28.699  1.00  0.00     0.143 A 
ATOM     95  C   UNL A   1      39.721  31.003  29.841  1.00  0.00     0.031 A 
ATOM     96  O   UNL A   1      36.877  29.210  28.302  1.00  0.00    -0.489 OA
ATOM     97  C   UNL A   1      39.166  28.736  28.322  1.00  0.00     0.049 A 
ATOM     98  C   UNL A   1      40.759  30.152  29.438  1.00  0.00     0.002 A 
ATOM     99  C   UNL A   1      40.480  29.015  28.685  1.00  0.00     0.004 A 
ENDBRANCH  87  90
ENDBRANCH  84  87
ENDBRANCH  78  80
ENDBRANCH  77  78
ENDBRANCH  76  77
ENDBRANCH  75  76
ENDBRANCH  74  75
ENDBRANCH  73  74
ENDBRANCH   1  73
TORSDOF 22
ENDMDL
