MODEL 1
REMARK VINA RESULT:      -9.9      0.000      0.000
REMARK SMILES CCn1c(=O)n(CC)c2cc(C(=O)OCCOCCOCCOC(=O)c3ccc(-c4c5nc(c(-c6cc(S(=O)(=O)[O-])ccc6F)c6ccc([nH]6)c(-c6cc(S(=O)(=O)[O-])ccc6F)c6nc(c(-c7cc(S(=O)(=O)[O-])ccc7F)c7ccc4[nH]7)C=C6)C=C5)cc3)ccc21
REMARK SMILES IDX 19 1 18 2 17 3 16 4 15 5 14 6 12 7 13 8 11 9 3 10 4 11 91 12
REMARK SMILES IDX 5 13 6 14 9 15 90 16 10 17 89 18 2 19 1 20 7 21 8 22 20 23
REMARK SMILES IDX 21 24 22 25 23 26 24 27 25 28 26 29 27 30 88 31 28 32 87 33
REMARK SMILES IDX 29 34 30 35 31 36 81 37 32 38 86 39 80 40 82 41 33 42 85 43
REMARK SMILES IDX 79 44 78 45 34 47 66 48 46 49 65 50 47 51 50 52 64 53 83 54
REMARK SMILES IDX 48 55 49 56 63 58 84 59 51 60 35 61 36 62 44 63 37 64 43 65
REMARK SMILES IDX 45 66 42 67 38 68 39 69 40 70 41 71 67 72 68 73 76 74 69 75
REMARK SMILES IDX 75 76 77 77 74 78 70 79 71 80 72 81 73 82 52 83 53 84 61 85
REMARK SMILES IDX 54 86 60 87 62 88 59 89 55 90 56 91 57 92 58 93
REMARK H PARENT 82 46 50 57
REMARK Flexibility Score: inf
ROOT
ATOM      1  C   UNL A   1      42.740  18.657  25.993  1.00  0.00     0.188 C 
ENDROOT
BRANCH   1   2
ATOM      2  C   UNL A   1      43.887  18.727  24.974  1.00  0.00     0.188 C 
BRANCH   2   3
ATOM      3  O   UNL A   1      45.125  18.303  25.536  1.00  0.00    -0.376 OA
BRANCH   3   4
ATOM      4  C   UNL A   1      46.170  19.242  25.348  1.00  0.00     0.202 C 
BRANCH   4   5
ATOM      5  C   UNL A   1      45.640  20.685  25.419  1.00  0.00     0.261 C 
BRANCH   5   6
ATOM      6  O   UNL A   1      46.438  21.701  24.734  1.00  0.00    -0.460 OA
BRANCH   6   7
ATOM      7  C   UNL A   1      45.696  22.718  24.225  1.00  0.00     0.338 C 
ATOM      8  O   UNL A   1      44.895  22.503  23.334  1.00  0.00    -0.246 OA
BRANCH   7   9
ATOM      9  C   UNL A   1      45.931  24.088  24.835  1.00  0.00     0.062 A 
ATOM     10  N   UNL A   1      47.005  27.372  27.194  1.00  0.00    -0.292 N 
ATOM     11  C   UNL A   1      48.392  27.419  27.053  1.00  0.00     0.329 A 
ATOM     12  C   UNL A   1      46.487  26.302  26.454  1.00  0.00     0.069 A 
ATOM     13  O   UNL A   1      49.165  28.216  27.562  1.00  0.00    -0.248 OA
ATOM     14  N   UNL A   1      48.739  26.395  26.153  1.00  0.00    -0.292 N 
ATOM     15  C   UNL A   1      47.538  25.729  25.738  1.00  0.00     0.070 A 
ATOM     16  C   UNL A   1      45.190  25.799  26.398  1.00  0.00     0.029 A 
ATOM     17  C   UNL A   1      47.229  24.682  24.866  1.00  0.00     0.044 A 
ATOM     18  C   UNL A   1      44.918  24.669  25.600  1.00  0.00     0.018 A 
BRANCH  10  19
ATOM     19  C   UNL A   1      46.313  28.263  28.073  1.00  0.00     0.124 C 
ATOM     20  C   UNL A   1      45.853  27.568  29.347  1.00  0.00     0.028 C 
ENDBRANCH  10  19
BRANCH  14  21
ATOM     21  C   UNL A   1      50.124  26.307  25.783  1.00  0.00     0.124 C 
ATOM     22  C   UNL A   1      50.511  26.715  24.353  1.00  0.00     0.028 C 
ENDBRANCH  14  21
ENDBRANCH   7   9
ENDBRANCH   6   7
ENDBRANCH   5   6
ENDBRANCH   4   5
ENDBRANCH   3   4
ENDBRANCH   2   3
ENDBRANCH   1   2
BRANCH   1  23
ATOM     23  O   UNL A   1      41.503  19.263  25.630  1.00  0.00    -0.376 OA
BRANCH  23  24
ATOM     24  C   UNL A   1      40.700  19.763  26.693  1.00  0.00     0.202 C 
BRANCH  24  25
ATOM     25  C   UNL A   1      39.983  21.090  26.403  1.00  0.00     0.261 C 
BRANCH  25  26
ATOM     26  O   UNL A   1      40.402  22.122  27.323  1.00  0.00    -0.460 OA
BRANCH  26  27
ATOM     27  C   UNL A   1      41.427  22.920  26.929  1.00  0.00     0.338 C 
ATOM     28  O   UNL A   1      42.210  22.692  26.019  1.00  0.00    -0.246 OA
BRANCH  27  29
ATOM     29  C   UNL A   1      41.207  24.266  27.533  1.00  0.00     0.060 A 
ATOM     30  C   UNL A   1      40.213  25.170  27.132  1.00  0.00     0.016 A 
ATOM     31  C   UNL A   1      42.199  24.707  28.396  1.00  0.00     0.016 A 
ATOM     32  C   UNL A   1      40.267  26.535  27.525  1.00  0.00     0.010 A 
ATOM     33  C   UNL A   1      42.258  26.059  28.742  1.00  0.00     0.010 A 
ATOM     34  C   UNL A   1      41.331  27.030  28.290  1.00  0.00    -0.014 A 
BRANCH  34  35
ATOM     35  C   UNL A   1      41.323  28.420  28.898  1.00  0.00     0.031 A 
ATOM     36  C   UNL A   1      42.332  29.310  28.287  1.00  0.00     0.074 A 
ATOM     37  C   UNL A   1      40.455  29.052  29.761  1.00  0.00     0.049 A 
ATOM     38  N   UNL A   1      43.146  30.024  28.986  1.00  0.00    -0.248 NA
ATOM     39  C   UNL A   1      42.548  29.400  26.837  1.00  0.00     0.031 C 
ATOM     40  C   UNL A   1      39.465  28.450  30.616  1.00  0.00     0.029 A 
ATOM     41  N   UNL A   1      40.139  30.393  29.974  1.00  0.00    -0.354 N 
ATOM     42  C   UNL A   1      43.786  30.852  28.090  1.00  0.00     0.074 A 
ATOM     43  C   UNL A   1      43.478  30.356  26.774  1.00  0.00     0.031 C 
ATOM     44  C   UNL A   1      38.435  29.295  30.888  1.00  0.00     0.029 A 
ATOM     45  C   UNL A   1      38.817  30.624  30.448  1.00  0.00     0.049 A 
ATOM     46  H   UNL A   1      40.780  31.122  29.811  1.00  0.00     0.167 HD
ATOM     47  C   UNL A   1      44.327  32.013  28.528  1.00  0.00     0.034 A 
ATOM     48  C   UNL A   1      38.151  31.782  30.759  1.00  0.00     0.034 A 
ATOM     49  C   UNL A   1      44.439  32.044  29.963  1.00  0.00     0.049 A 
ATOM     50  C   UNL A   1      39.213  32.613  31.366  1.00  0.00     0.074 A 
ATOM     51  C   UNL A   1      45.260  31.426  30.879  1.00  0.00     0.029 A 
ATOM     52  N   UNL A   1      43.346  32.512  30.644  1.00  0.00    -0.354 N 
ATOM     53  N   UNL A   1      39.777  32.331  32.509  1.00  0.00    -0.248 NA
ATOM     54  C   UNL A   1      39.815  33.714  30.626  1.00  0.00     0.031 C 
ATOM     55  C   UNL A   1      44.563  31.426  32.117  1.00  0.00     0.029 A 
ATOM     56  C   UNL A   1      43.340  32.072  31.951  1.00  0.00     0.049 A 
ATOM     57  H   UNL A   1      42.653  33.091  30.251  1.00  0.00     0.167 HD
ATOM     58  C   UNL A   1      41.045  32.829  32.366  1.00  0.00     0.074 A 
ATOM     59  C   UNL A   1      40.934  33.859  31.340  1.00  0.00     0.031 C 
ATOM     60  C   UNL A   1      42.123  32.090  32.753  1.00  0.00     0.034 A 
BRANCH  47  61
ATOM     61  C   UNL A   1      44.439  33.244  27.686  1.00  0.00     0.023 A 
ATOM     62  C   UNL A   1      43.714  34.416  27.972  1.00  0.00     0.031 A 
ATOM     63  C   UNL A   1      45.449  33.342  26.714  1.00  0.00     0.131 A 
ATOM     64  C   UNL A   1      43.974  35.608  27.287  1.00  0.00     0.055 A 
ATOM     65  C   UNL A   1      45.747  34.547  26.072  1.00  0.00     0.041 A 
ATOM     66  F   UNL A   1      46.200  32.278  26.392  1.00  0.00    -0.206 F 
ATOM     67  C   UNL A   1      45.006  35.689  26.355  1.00  0.00     0.022 A 
BRANCH  64  68
ATOM     68  S   UNL A   1      42.976  37.087  27.608  1.00  0.00     0.124 S 
ATOM     69  O   UNL A   1      42.060  36.613  28.639  1.00  0.00    -0.237 OA
ATOM     70  O   UNL A   1      43.993  38.039  28.049  1.00  0.00    -0.237 OA
ATOM     71  O   UNL A   1      42.379  37.380  26.308  1.00  0.00    -0.744 OA
ENDBRANCH  64  68
ENDBRANCH  47  61
BRANCH  48  72
ATOM     72  C   UNL A   1      36.715  32.251  30.931  1.00  0.00     0.023 A 
ATOM     73  C   UNL A   1      35.962  32.877  29.904  1.00  0.00     0.031 A 
ATOM     74  C   UNL A   1      36.162  32.363  32.235  1.00  0.00     0.131 A 
ATOM     75  C   UNL A   1      34.779  33.615  30.216  1.00  0.00     0.055 A 
ATOM     76  C   UNL A   1      35.010  33.104  32.535  1.00  0.00     0.041 A 
ATOM     77  F   UNL A   1      36.759  31.796  33.294  1.00  0.00    -0.206 F 
ATOM     78  C   UNL A   1      34.325  33.751  31.527  1.00  0.00     0.022 A 
BRANCH  75  79
ATOM     79  S   UNL A   1      33.751  34.417  28.941  1.00  0.00     0.124 S 
ATOM     80  O   UNL A   1      34.606  35.488  28.427  1.00  0.00    -0.237 OA
ATOM     81  O   UNL A   1      33.518  33.329  27.999  1.00  0.00    -0.237 OA
ATOM     82  O   UNL A   1      32.594  34.889  29.695  1.00  0.00    -0.744 OA
ENDBRANCH  75  79
ENDBRANCH  48  72
BRANCH  60  83
ATOM     83  C   UNL A   1      41.997  31.097  33.897  1.00  0.00     0.023 A 
ATOM     84  C   UNL A   1      42.317  31.568  35.184  1.00  0.00     0.031 A 
ATOM     85  C   UNL A   1      41.735  29.719  33.783  1.00  0.00     0.131 A 
ATOM     86  C   UNL A   1      42.464  30.684  36.262  1.00  0.00     0.055 A 
ATOM     87  C   UNL A   1      41.812  28.844  34.875  1.00  0.00     0.041 A 
ATOM     88  F   UNL A   1      41.447  29.147  32.612  1.00  0.00    -0.206 F 
ATOM     89  C   UNL A   1      42.206  29.321  36.118  1.00  0.00     0.022 A 
BRANCH  86  90
ATOM     90  S   UNL A   1      43.154  31.265  37.831  1.00  0.00     0.124 S 
ATOM     91  O   UNL A   1      43.895  32.455  37.420  1.00  0.00    -0.237 OA
ATOM     92  O   UNL A   1      41.955  31.518  38.627  1.00  0.00    -0.237 OA
ATOM     93  O   UNL A   1      43.971  30.146  38.291  1.00  0.00    -0.744 OA
ENDBRANCH  86  90
ENDBRANCH  60  83
ENDBRANCH  34  35
ENDBRANCH  27  29
ENDBRANCH  26  27
ENDBRANCH  25  26
ENDBRANCH  24  25
ENDBRANCH  23  24
ENDBRANCH   1  23
TORSDOF 22
ENDMDL
MODEL 2
REMARK VINA RESULT:      -9.9      2.005      2.295
REMARK SMILES CCn1c(=O)n(CC)c2cc(C(=O)OCCOCCOCCOC(=O)c3ccc(-c4c5nc(c(-c6cc(S(=O)(=O)[O-])ccc6F)c6ccc([nH]6)c(-c6cc(S(=O)(=O)[O-])ccc6F)c6nc(c(-c7cc(S(=O)(=O)[O-])ccc7F)c7ccc4[nH]7)C=C6)C=C5)cc3)ccc21
REMARK SMILES IDX 19 1 18 2 17 3 16 4 15 5 14 6 12 7 13 8 11 9 3 10 4 11 91 12
REMARK SMILES IDX 5 13 6 14 9 15 90 16 10 17 89 18 2 19 1 20 7 21 8 22 20 23
REMARK SMILES IDX 21 24 22 25 23 26 24 27 25 28 26 29 27 30 88 31 28 32 87 33
REMARK SMILES IDX 29 34 30 35 31 36 81 37 32 38 86 39 80 40 82 41 33 42 85 43
REMARK SMILES IDX 79 44 78 45 34 47 66 48 46 49 65 50 47 51 50 52 64 53 83 54
REMARK SMILES IDX 48 55 49 56 63 58 84 59 51 60 35 61 36 62 44 63 37 64 43 65
REMARK SMILES IDX 45 66 42 67 38 68 39 69 40 70 41 71 67 72 68 73 76 74 69 75
REMARK SMILES IDX 75 76 77 77 74 78 70 79 71 80 72 81 73 82 52 83 53 84 61 85
REMARK SMILES IDX 54 86 60 87 62 88 59 89 55 90 56 91 57 92 58 93
REMARK H PARENT 82 46 50 57
REMARK Flexibility Score: inf
ROOT
ATOM      1  C   UNL A   1      42.727  18.645  26.225  1.00  0.00     0.188 C 
ENDROOT
BRANCH   1   2
ATOM      2  C   UNL A   1      43.698  18.786  25.043  1.00  0.00     0.188 C 
BRANCH   2   3
ATOM      3  O   UNL A   1      44.945  18.149  25.299  1.00  0.00    -0.376 OA
BRANCH   3   4
ATOM      4  C   UNL A   1      46.042  19.046  25.272  1.00  0.00     0.202 C 
BRANCH   4   5
ATOM      5  C   UNL A   1      45.645  20.392  24.639  1.00  0.00     0.261 C 
BRANCH   5   6
ATOM      6  O   UNL A   1      46.341  21.574  25.144  1.00  0.00    -0.460 OA
BRANCH   6   7
ATOM      7  C   UNL A   1      45.743  22.742  24.797  1.00  0.00     0.338 C 
ATOM      8  O   UNL A   1      45.315  22.897  23.668  1.00  0.00    -0.246 OA
BRANCH   7   9
ATOM      9  C   UNL A   1      45.650  23.796  25.885  1.00  0.00     0.062 A 
ATOM     10  N   UNL A   1      46.320  26.785  28.736  1.00  0.00    -0.292 N 
ATOM     11  C   UNL A   1      46.603  27.904  27.955  1.00  0.00     0.329 A 
ATOM     12  C   UNL A   1      46.073  25.679  27.912  1.00  0.00     0.069 A 
ATOM     13  O   UNL A   1      46.870  29.033  28.340  1.00  0.00    -0.248 OA
ATOM     14  N   UNL A   1      46.468  27.503  26.613  1.00  0.00    -0.292 N 
ATOM     15  C   UNL A   1      46.085  26.121  26.589  1.00  0.00     0.070 A 
ATOM     16  C   UNL A   1      45.876  24.342  28.245  1.00  0.00     0.029 A 
ATOM     17  C   UNL A   1      45.783  25.187  25.594  1.00  0.00     0.044 A 
ATOM     18  C   UNL A   1      45.687  23.392  27.221  1.00  0.00     0.018 A 
BRANCH  10  19
ATOM     19  C   UNL A   1      46.398  26.829  30.163  1.00  0.00     0.124 C 
ATOM     20  C   UNL A   1      47.763  26.395  30.676  1.00  0.00     0.028 C 
ENDBRANCH  10  19
BRANCH  14  21
ATOM     21  C   UNL A   1      46.629  28.526  25.618  1.00  0.00     0.124 C 
ATOM     22  C   UNL A   1      46.778  28.085  24.154  1.00  0.00     0.028 C 
ENDBRANCH  14  21
ENDBRANCH   7   9
ENDBRANCH   6   7
ENDBRANCH   5   6
ENDBRANCH   4   5
ENDBRANCH   3   4
ENDBRANCH   2   3
ENDBRANCH   1   2
BRANCH   1  23
ATOM     23  O   UNL A   1      41.484  19.334  26.139  1.00  0.00    -0.376 OA
BRANCH  23  24
ATOM     24  C   UNL A   1      41.141  20.174  27.236  1.00  0.00     0.202 C 
BRANCH  24  25
ATOM     25  C   UNL A   1      40.305  21.411  26.876  1.00  0.00     0.261 C 
BRANCH  25  26
ATOM     26  O   UNL A   1      40.757  22.575  27.601  1.00  0.00    -0.460 OA
BRANCH  26  27
ATOM     27  C   UNL A   1      41.601  23.418  26.952  1.00  0.00     0.338 C 
ATOM     28  O   UNL A   1      42.200  23.180  25.915  1.00  0.00    -0.246 OA
BRANCH  27  29
ATOM     29  C   UNL A   1      41.380  24.787  27.501  1.00  0.00     0.060 A 
ATOM     30  C   UNL A   1      40.398  25.682  27.051  1.00  0.00     0.016 A 
ATOM     31  C   UNL A   1      42.360  25.254  28.363  1.00  0.00     0.016 A 
ATOM     32  C   UNL A   1      40.456  27.061  27.394  1.00  0.00     0.010 A 
ATOM     33  C   UNL A   1      42.423  26.618  28.659  1.00  0.00     0.010 A 
ATOM     34  C   UNL A   1      41.510  27.577  28.156  1.00  0.00    -0.014 A 
BRANCH  34  35
ATOM     35  C   UNL A   1      41.502  28.988  28.713  1.00  0.00     0.031 A 
ATOM     36  C   UNL A   1      42.666  29.780  28.262  1.00  0.00     0.074 A 
ATOM     37  C   UNL A   1      40.548  29.715  29.390  1.00  0.00     0.049 A 
ATOM     38  N   UNL A   1      43.398  30.465  29.072  1.00  0.00    -0.248 NA
ATOM     39  C   UNL A   1      43.135  29.794  26.870  1.00  0.00     0.031 C 
ATOM     40  C   UNL A   1      39.383  29.220  30.076  1.00  0.00     0.029 A 
ATOM     41  N   UNL A   1      40.302  31.083  29.505  1.00  0.00    -0.354 N 
ATOM     42  C   UNL A   1      44.244  31.208  28.277  1.00  0.00     0.074 A 
ATOM     43  C   UNL A   1      44.131  30.679  26.943  1.00  0.00     0.031 C 
ATOM     44  C   UNL A   1      38.388  30.144  30.137  1.00  0.00     0.029 A 
ATOM     45  C   UNL A   1      38.939  31.424  29.732  1.00  0.00     0.049 A 
ATOM     46  H   UNL A   1      41.014  31.758  29.436  1.00  0.00     0.167 HD
ATOM     47  C   UNL A   1      44.787  32.347  28.769  1.00  0.00     0.034 A 
ATOM     48  C   UNL A   1      38.319  32.637  29.887  1.00  0.00     0.034 A 
ATOM     49  C   UNL A   1      44.651  32.430  30.199  1.00  0.00     0.049 A 
ATOM     50  C   UNL A   1      39.320  33.418  30.647  1.00  0.00     0.074 A 
ATOM     51  C   UNL A   1      45.252  31.797  31.264  1.00  0.00     0.029 A 
ATOM     52  N   UNL A   1      43.495  33.002  30.664  1.00  0.00    -0.354 N 
ATOM     53  N   UNL A   1      39.654  33.146  31.878  1.00  0.00    -0.248 NA
ATOM     54  C   UNL A   1      40.121  34.442  29.991  1.00  0.00     0.031 C 
ATOM     55  C   UNL A   1      44.354  31.898  32.360  1.00  0.00     0.029 A 
ATOM     56  C   UNL A   1      43.231  32.618  31.962  1.00  0.00     0.049 A 
ATOM     57  H   UNL A   1      42.927  33.610  30.139  1.00  0.00     0.167 HD
ATOM     58  C   UNL A   1      40.961  33.549  31.946  1.00  0.00     0.074 A 
ATOM     59  C   UNL A   1      41.108  34.540  30.886  1.00  0.00     0.031 C 
ATOM     60  C   UNL A   1      41.898  32.755  32.537  1.00  0.00     0.034 A 
BRANCH  47  61
ATOM     61  C   UNL A   1      45.135  33.530  27.924  1.00  0.00     0.023 A 
ATOM     62  C   UNL A   1      46.449  33.771  27.478  1.00  0.00     0.031 A 
ATOM     63  C   UNL A   1      44.118  34.315  27.356  1.00  0.00     0.131 A 
ATOM     64  C   UNL A   1      46.718  34.773  26.539  1.00  0.00     0.055 A 
ATOM     65  C   UNL A   1      44.380  35.276  26.376  1.00  0.00     0.041 A 
ATOM     66  F   UNL A   1      42.835  34.141  27.710  1.00  0.00    -0.206 F 
ATOM     67  C   UNL A   1      45.687  35.512  25.964  1.00  0.00     0.022 A 
BRANCH  64  68
ATOM     68  S   UNL A   1      48.424  35.127  26.038  1.00  0.00     0.124 S 
ATOM     69  O   UNL A   1      49.067  35.382  27.322  1.00  0.00    -0.237 OA
ATOM     70  O   UNL A   1      48.801  33.881  25.375  1.00  0.00    -0.237 OA
ATOM     71  O   UNL A   1      48.284  36.280  25.153  1.00  0.00    -0.744 OA
ENDBRANCH  64  68
ENDBRANCH  47  61
BRANCH  48  72
ATOM     72  C   UNL A   1      36.914  33.211  29.790  1.00  0.00     0.023 A 
ATOM     73  C   UNL A   1      36.282  33.930  30.837  1.00  0.00     0.031 A 
ATOM     74  C   UNL A   1      36.048  32.779  28.749  1.00  0.00     0.131 A 
ATOM     75  C   UNL A   1      34.866  34.122  30.837  1.00  0.00     0.055 A 
ATOM     76  C   UNL A   1      34.657  32.957  28.766  1.00  0.00     0.041 A 
ATOM     77  F   UNL A   1      36.519  32.111  27.686  1.00  0.00    -0.206 F 
ATOM     78  C   UNL A   1      34.058  33.611  29.823  1.00  0.00     0.022 A 
BRANCH  75  79
ATOM     79  S   UNL A   1      33.997  35.062  32.136  1.00  0.00     0.124 S 
ATOM     80  O   UNL A   1      33.139  35.980  31.386  1.00  0.00    -0.237 OA
ATOM     81  O   UNL A   1      33.278  34.014  32.850  1.00  0.00    -0.237 OA
ATOM     82  O   UNL A   1      35.084  35.717  32.856  1.00  0.00    -0.744 OA
ENDBRANCH  75  79
ENDBRANCH  48  72
BRANCH  60  83
ATOM     83  C   UNL A   1      41.502  31.822  33.670  1.00  0.00     0.023 A 
ATOM     84  C   UNL A   1      41.382  32.394  34.951  1.00  0.00     0.031 A 
ATOM     85  C   UNL A   1      41.385  30.422  33.599  1.00  0.00     0.131 A 
ATOM     86  C   UNL A   1      41.258  31.591  36.093  1.00  0.00     0.055 A 
ATOM     87  C   UNL A   1      41.189  29.622  34.733  1.00  0.00     0.041 A 
ATOM     88  F   UNL A   1      41.506  29.758  32.447  1.00  0.00    -0.206 F 
ATOM     89  C   UNL A   1      41.152  30.204  35.993  1.00  0.00     0.022 A 
BRANCH  86  90
ATOM     90  S   UNL A   1      41.397  32.323  37.742  1.00  0.00     0.124 S 
ATOM     91  O   UNL A   1      41.963  33.637  37.449  1.00  0.00    -0.237 OA
ATOM     92  O   UNL A   1      40.010  32.328  38.202  1.00  0.00    -0.237 OA
ATOM     93  O   UNL A   1      42.278  31.407  38.460  1.00  0.00    -0.744 OA
ENDBRANCH  86  90
ENDBRANCH  60  83
ENDBRANCH  34  35
ENDBRANCH  27  29
ENDBRANCH  26  27
ENDBRANCH  25  26
ENDBRANCH  24  25
ENDBRANCH  23  24
ENDBRANCH   1  23
TORSDOF 22
ENDMDL
MODEL 3
REMARK VINA RESULT:      -9.8      1.767      2.497
REMARK SMILES CCn1c(=O)n(CC)c2cc(C(=O)OCCOCCOCCOC(=O)c3ccc(-c4c5nc(c(-c6cc(S(=O)(=O)[O-])ccc6F)c6ccc([nH]6)c(-c6cc(S(=O)(=O)[O-])ccc6F)c6nc(c(-c7cc(S(=O)(=O)[O-])ccc7F)c7ccc4[nH]7)C=C6)C=C5)cc3)ccc21
REMARK SMILES IDX 19 1 18 2 17 3 16 4 15 5 14 6 12 7 13 8 11 9 3 10 4 11 91 12
REMARK SMILES IDX 5 13 6 14 9 15 90 16 10 17 89 18 2 19 1 20 7 21 8 22 20 23
REMARK SMILES IDX 21 24 22 25 23 26 24 27 25 28 26 29 27 30 88 31 28 32 87 33
REMARK SMILES IDX 29 34 30 35 31 36 81 37 32 38 86 39 80 40 82 41 33 42 85 43
REMARK SMILES IDX 79 44 78 45 34 47 66 48 46 49 65 50 47 51 50 52 64 53 83 54
REMARK SMILES IDX 48 55 49 56 63 58 84 59 51 60 35 61 36 62 44 63 37 64 43 65
REMARK SMILES IDX 45 66 42 67 38 68 39 69 40 70 41 71 67 72 68 73 76 74 69 75
REMARK SMILES IDX 75 76 77 77 74 78 70 79 71 80 72 81 73 82 52 83 53 84 61 85
REMARK SMILES IDX 54 86 60 87 62 88 59 89 55 90 56 91 57 92 58 93
REMARK H PARENT 82 46 50 57
REMARK Flexibility Score: inf
ROOT
ATOM      1  C   UNL A   1      42.643  18.329  26.180  1.00  0.00     0.188 C 
ENDROOT
BRANCH   1   2
ATOM      2  C   UNL A   1      43.740  18.862  25.245  1.00  0.00     0.188 C 
BRANCH   2   3
ATOM      3  O   UNL A   1      44.940  18.101  25.343  1.00  0.00    -0.376 OA
BRANCH   3   4
ATOM      4  C   UNL A   1      46.096  18.905  25.497  1.00  0.00     0.202 C 
BRANCH   4   5
ATOM      5  C   UNL A   1      46.153  20.009  24.426  1.00  0.00     0.261 C 
BRANCH   5   6
ATOM      6  O   UNL A   1      46.769  21.272  24.831  1.00  0.00    -0.460 OA
BRANCH   6   7
ATOM      7  C   UNL A   1      45.877  22.281  24.994  1.00  0.00     0.338 C 
ATOM      8  O   UNL A   1      44.714  22.125  24.670  1.00  0.00    -0.246 OA
BRANCH   7   9
ATOM      9  C   UNL A   1      46.420  23.566  25.591  1.00  0.00     0.062 A 
ATOM     10  N   UNL A   1      47.009  27.336  27.307  1.00  0.00    -0.292 N 
ATOM     11  C   UNL A   1      46.546  27.162  28.611  1.00  0.00     0.329 A 
ATOM     12  C   UNL A   1      46.871  26.141  26.589  1.00  0.00     0.069 A 
ATOM     13  O   UNL A   1      46.511  27.994  29.506  1.00  0.00    -0.248 OA
ATOM     14  N   UNL A   1      46.171  25.812  28.727  1.00  0.00    -0.292 N 
ATOM     15  C   UNL A   1      46.424  25.160  27.475  1.00  0.00     0.070 A 
ATOM     16  C   UNL A   1      47.080  25.881  25.238  1.00  0.00     0.029 A 
ATOM     17  C   UNL A   1      46.290  23.860  26.982  1.00  0.00     0.044 A 
ATOM     18  C   UNL A   1      46.830  24.589  24.734  1.00  0.00     0.018 A 
BRANCH  10  19
ATOM     19  C   UNL A   1      47.444  28.613  26.832  1.00  0.00     0.124 C 
ATOM     20  C   UNL A   1      46.413  29.267  25.924  1.00  0.00     0.028 C 
ENDBRANCH  10  19
BRANCH  14  21
ATOM     21  C   UNL A   1      45.740  25.375  30.026  1.00  0.00     0.124 C 
ATOM     22  C   UNL A   1      44.528  24.433  30.101  1.00  0.00     0.028 C 
ENDBRANCH  14  21
ENDBRANCH   7   9
ENDBRANCH   6   7
ENDBRANCH   5   6
ENDBRANCH   4   5
ENDBRANCH   3   4
ENDBRANCH   2   3
ENDBRANCH   1   2
BRANCH   1  23
ATOM     23  O   UNL A   1      41.753  19.280  26.755  1.00  0.00    -0.376 OA
BRANCH  23  24
ATOM     24  C   UNL A   1      42.267  20.590  26.968  1.00  0.00     0.202 C 
BRANCH  24  25
ATOM     25  C   UNL A   1      41.514  21.715  26.242  1.00  0.00     0.261 C 
BRANCH  25  26
ATOM     26  O   UNL A   1      41.373  22.878  27.087  1.00  0.00    -0.460 OA
BRANCH  26  27
ATOM     27  C   UNL A   1      40.188  23.539  27.034  1.00  0.00     0.338 C 
ATOM     28  O   UNL A   1      39.081  23.028  26.963  1.00  0.00    -0.246 OA
BRANCH  27  29
ATOM     29  C   UNL A   1      40.440  24.948  27.453  1.00  0.00     0.060 A 
ATOM     30  C   UNL A   1      41.445  25.352  28.344  1.00  0.00     0.016 A 
ATOM     31  C   UNL A   1      39.467  25.866  27.087  1.00  0.00     0.016 A 
ATOM     32  C   UNL A   1      41.420  26.644  28.935  1.00  0.00     0.010 A 
ATOM     33  C   UNL A   1      39.436  27.119  27.706  1.00  0.00     0.010 A 
ATOM     34  C   UNL A   1      40.375  27.541  28.680  1.00  0.00    -0.014 A 
BRANCH  34  35
ATOM     35  C   UNL A   1      40.416  28.991  29.123  1.00  0.00     0.031 A 
ATOM     36  C   UNL A   1      41.680  29.661  28.750  1.00  0.00     0.074 A 
ATOM     37  C   UNL A   1      39.453  29.835  29.631  1.00  0.00     0.049 A 
ATOM     38  N   UNL A   1      42.371  30.359  29.584  1.00  0.00    -0.248 NA
ATOM     39  C   UNL A   1      42.296  29.526  27.424  1.00  0.00     0.031 C 
ATOM     40  C   UNL A   1      38.186  29.480  30.215  1.00  0.00     0.029 A 
ATOM     41  N   UNL A   1      39.303  31.221  29.614  1.00  0.00    -0.354 N 
ATOM     42  C   UNL A   1      43.352  30.974  28.838  1.00  0.00     0.074 A 
ATOM     43  C   UNL A   1      43.344  30.344  27.543  1.00  0.00     0.031 C 
ATOM     44  C   UNL A   1      37.265  30.472  30.093  1.00  0.00     0.029 A 
ATOM     45  C   UNL A   1      37.954  31.672  29.658  1.00  0.00     0.049 A 
ATOM     46  H   UNL A   1      40.069  31.838  29.575  1.00  0.00     0.167 HD
ATOM     47  C   UNL A   1      43.925  32.110  29.300  1.00  0.00     0.034 A 
ATOM     48  C   UNL A   1      37.416  32.934  29.649  1.00  0.00     0.034 A 
ATOM     49  C   UNL A   1      43.642  32.322  30.696  1.00  0.00     0.049 A 
ATOM     50  C   UNL A   1      38.386  33.706  30.457  1.00  0.00     0.074 A 
ATOM     51  C   UNL A   1      44.074  31.740  31.866  1.00  0.00     0.029 A 
ATOM     52  N   UNL A   1      42.491  33.007  30.982  1.00  0.00    -0.354 N 
ATOM     53  N   UNL A   1      38.563  33.515  31.736  1.00  0.00    -0.248 NA
ATOM     54  C   UNL A   1      39.331  34.614  29.822  1.00  0.00     0.031 C 
ATOM     55  C   UNL A   1      43.073  31.993  32.842  1.00  0.00     0.029 A 
ATOM     56  C   UNL A   1      42.059  32.753  32.266  1.00  0.00     0.049 A 
ATOM     57  H   UNL A   1      42.031  33.607  30.351  1.00  0.00     0.167 HD
ATOM     58  C   UNL A   1      39.883  33.832  31.921  1.00  0.00     0.074 A 
ATOM     59  C   UNL A   1      40.219  34.718  30.814  1.00  0.00     0.031 C 
ATOM     60  C   UNL A   1      40.686  33.028  32.674  1.00  0.00     0.034 A 
BRANCH  47  61
ATOM     61  C   UNL A   1      44.454  33.191  28.414  1.00  0.00     0.023 A 
ATOM     62  C   UNL A   1      43.823  34.445  28.304  1.00  0.00     0.031 A 
ATOM     63  C   UNL A   1      45.728  33.069  27.836  1.00  0.00     0.131 A 
ATOM     64  C   UNL A   1      44.434  35.501  27.618  1.00  0.00     0.055 A 
ATOM     65  C   UNL A   1      46.362  34.140  27.201  1.00  0.00     0.041 A 
ATOM     66  F   UNL A   1      46.409  31.914  27.908  1.00  0.00    -0.206 F 
ATOM     67  C   UNL A   1      45.714  35.365  27.087  1.00  0.00     0.022 A 
BRANCH  64  68
ATOM     68  S   UNL A   1      43.574  37.083  27.414  1.00  0.00     0.124 S 
ATOM     69  O   UNL A   1      43.193  37.397  28.787  1.00  0.00    -0.237 OA
ATOM     70  O   UNL A   1      44.625  37.919  26.840  1.00  0.00    -0.237 OA
ATOM     71  O   UNL A   1      42.477  36.758  26.506  1.00  0.00    -0.744 OA
ENDBRANCH  64  68
ENDBRANCH  47  61
BRANCH  48  72
ATOM     72  C   UNL A   1      36.078  33.592  29.350  1.00  0.00     0.023 A 
ATOM     73  C   UNL A   1      35.417  34.475  30.241  1.00  0.00     0.031 A 
ATOM     74  C   UNL A   1      35.277  33.103  28.283  1.00  0.00     0.131 A 
ATOM     75  C   UNL A   1      34.028  34.768  30.080  1.00  0.00     0.055 A 
ATOM     76  C   UNL A   1      33.910  33.382  28.141  1.00  0.00     0.041 A 
ATOM     77  F   UNL A   1      35.784  32.280  27.354  1.00  0.00    -0.206 F 
ATOM     78  C   UNL A   1      33.275  34.200  29.054  1.00  0.00     0.022 A 
BRANCH  75  79
ATOM     79  S   UNL A   1      33.127  35.917  31.173  1.00  0.00     0.124 S 
ATOM     80  O   UNL A   1      32.257  35.040  31.958  1.00  0.00    -0.237 OA
ATOM     81  O   UNL A   1      34.207  36.533  31.934  1.00  0.00    -0.237 OA
ATOM     82  O   UNL A   1      32.413  36.777  30.234  1.00  0.00    -0.744 OA
ENDBRANCH  75  79
ENDBRANCH  48  72
BRANCH  60  83
ATOM     83  C   UNL A   1      40.099  32.221  33.821  1.00  0.00     0.023 A 
ATOM     84  C   UNL A   1      39.874  32.908  35.029  1.00  0.00     0.031 A 
ATOM     85  C   UNL A   1      39.892  30.830  33.847  1.00  0.00     0.131 A 
ATOM     86  C   UNL A   1      39.565  32.216  36.208  1.00  0.00     0.055 A 
ATOM     87  C   UNL A   1      39.513  30.145  35.008  1.00  0.00     0.041 A 
ATOM     88  F   UNL A   1      40.098  30.063  32.773  1.00  0.00    -0.206 F 
ATOM     89  C   UNL A   1      39.374  30.834  36.205  1.00  0.00     0.022 A 
BRANCH  86  90
ATOM     90  S   UNL A   1      39.566  33.078  37.799  1.00  0.00     0.124 S 
ATOM     91  O   UNL A   1      40.976  33.028  38.176  1.00  0.00    -0.237 OA
ATOM     92  O   UNL A   1      39.061  34.402  37.440  1.00  0.00    -0.237 OA
ATOM     93  O   UNL A   1      38.666  32.283  38.630  1.00  0.00    -0.744 OA
ENDBRANCH  86  90
ENDBRANCH  60  83
ENDBRANCH  34  35
ENDBRANCH  27  29
ENDBRANCH  26  27
ENDBRANCH  25  26
ENDBRANCH  24  25
ENDBRANCH  23  24
ENDBRANCH   1  23
TORSDOF 22
ENDMDL
