MODEL 1
REMARK VINA RESULT:      -9.9      0.000      0.000
REMARK SMILES CC(C)Oc1ccc([C@H](O)[C@@H](F)C(=O)OCCOCCOCCOC(=O)c2ccc(-c3c4nc(c(-c5cc(S(=O)(=O)[O-])ccc5F)c5ccc([nH]5)c(-c5cc(S(=O)(=O)[O-])ccc5F)c5nc(c(-c6cc(S(=O)(=O)[O-])ccc6F)c6ccc3[nH]6)C=C5)C=C4)cc2)cc1
REMARK SMILES IDX 19 1 18 2 17 3 16 4 15 5 13 6 14 7 11 8 12 9 9 10 8 11 5 12
REMARK SMILES IDX 6 13 91 14 7 15 90 16 4 17 2 18 1 19 3 20 10 21 20 23 21 24
REMARK SMILES IDX 22 25 23 26 24 27 25 28 26 29 27 30 28 31 89 32 29 33 88 34
REMARK SMILES IDX 30 35 31 36 32 37 82 38 33 39 87 40 81 41 83 42 34 43 86 44
REMARK SMILES IDX 80 45 79 46 35 48 67 49 47 50 66 51 48 52 51 53 65 54 84 55
REMARK SMILES IDX 49 56 50 57 64 59 85 60 52 61 36 62 37 63 45 64 38 65 44 66
REMARK SMILES IDX 46 67 43 68 39 69 40 70 41 71 42 72 68 73 69 74 77 75 70 76
REMARK SMILES IDX 76 77 78 78 75 79 71 80 72 81 73 82 74 83 53 84 54 85 62 86
REMARK SMILES IDX 55 87 61 88 63 89 60 90 56 91 57 92 58 93 59 94
REMARK H PARENT 10 22 83 47 51 58
REMARK Flexibility Score: inf
ROOT
ATOM      1  C   UNL A   1      40.034  21.516  26.578  1.00  0.00     0.188 C 
ENDROOT
BRANCH   1   2
ATOM      2  O   UNL A   1      38.776  22.065  26.190  1.00  0.00    -0.376 OA
BRANCH   2   3
ATOM      3  C   UNL A   1      38.103  21.491  25.073  1.00  0.00     0.202 C 
BRANCH   3   4
ATOM      4  C   UNL A   1      36.573  21.464  25.183  1.00  0.00     0.261 C 
BRANCH   4   5
ATOM      5  O   UNL A   1      36.074  20.123  24.995  1.00  0.00    -0.461 OA
BRANCH   5   6
ATOM      6  C   UNL A   1      34.727  19.955  24.899  1.00  0.00     0.343 C 
ATOM      7  O   UNL A   1      34.206  18.918  24.506  1.00  0.00    -0.249 OA
BRANCH   6   8
ATOM      8  C   UNL A   1      33.967  21.134  25.529  1.00  0.00     0.308 C 
ATOM      9  F   UNL A   1      33.753  20.924  26.871  1.00  0.00    -0.232 F 
BRANCH   8  10
ATOM     10  C   UNL A   1      32.595  21.471  24.890  1.00  0.00     0.190 C 
BRANCH  10  11
ATOM     11  C   UNL A   1      32.219  22.958  24.890  1.00  0.00    -0.016 A 
ATOM     12  C   UNL A   1      31.617  25.751  25.181  1.00  0.00     0.119 A 
ATOM     13  C   UNL A   1      30.612  24.770  25.172  1.00  0.00     0.047 A 
ATOM     14  C   UNL A   1      32.912  25.336  24.910  1.00  0.00     0.047 A 
ATOM     15  C   UNL A   1      30.898  23.399  25.027  1.00  0.00     0.010 A 
ATOM     16  C   UNL A   1      33.208  23.957  24.770  1.00  0.00     0.010 A 
BRANCH  12  17
ATOM     17  O   UNL A   1      31.180  26.987  25.540  1.00  0.00    -0.491 OA
BRANCH  17  18
ATOM     18  C   UNL A   1      31.419  28.254  24.910  1.00  0.00     0.167 C 
ATOM     19  C   UNL A   1      30.427  28.787  23.878  1.00  0.00     0.052 C 
ATOM     20  C   UNL A   1      31.823  29.334  25.896  1.00  0.00     0.052 C 
ENDBRANCH  17  18
ENDBRANCH  12  17
ENDBRANCH  10  11
BRANCH  10  21
ATOM     21  O   UNL A   1      31.544  20.763  25.563  1.00  0.00    -0.385 OA
ATOM     22  H   UNL A   1      31.725  19.810  25.533  1.00  0.00     0.211 HD
ENDBRANCH  10  21
ENDBRANCH   8  10
ENDBRANCH   6   8
ENDBRANCH   5   6
ENDBRANCH   4   5
ENDBRANCH   3   4
ENDBRANCH   2   3
ENDBRANCH   1   2
BRANCH   1  23
ATOM     23  C   UNL A   1      40.292  20.035  26.271  1.00  0.00     0.188 C 
BRANCH  23  24
ATOM     24  O   UNL A   1      41.341  19.857  25.333  1.00  0.00    -0.376 OA
BRANCH  24  25
ATOM     25  C   UNL A   1      42.632  19.788  25.911  1.00  0.00     0.202 C 
BRANCH  25  26
ATOM     26  C   UNL A   1      43.531  20.927  25.394  1.00  0.00     0.261 C 
BRANCH  26  27
ATOM     27  O   UNL A   1      43.588  22.142  26.181  1.00  0.00    -0.460 OA
BRANCH  27  28
ATOM     28  C   UNL A   1      43.246  23.253  25.508  1.00  0.00     0.338 C 
ATOM     29  O   UNL A   1      43.197  23.335  24.291  1.00  0.00    -0.246 OA
BRANCH  28  30
ATOM     30  C   UNL A   1      42.788  24.359  26.343  1.00  0.00     0.060 A 
ATOM     31  C   UNL A   1      43.327  25.630  26.110  1.00  0.00     0.016 A 
ATOM     32  C   UNL A   1      42.026  24.104  27.479  1.00  0.00     0.016 A 
ATOM     33  C   UNL A   1      43.127  26.653  27.030  1.00  0.00     0.010 A 
ATOM     34  C   UNL A   1      41.799  25.142  28.384  1.00  0.00     0.010 A 
ATOM     35  C   UNL A   1      42.350  26.418  28.169  1.00  0.00    -0.014 A 
BRANCH  35  36
ATOM     36  C   UNL A   1      42.062  27.507  29.128  1.00  0.00     0.031 A 
ATOM     37  C   UNL A   1      42.896  27.669  30.362  1.00  0.00     0.074 A 
ATOM     38  C   UNL A   1      41.000  28.302  28.904  1.00  0.00     0.049 A 
ATOM     39  N   UNL A   1      42.634  28.338  31.453  1.00  0.00    -0.248 NA
ATOM     40  C   UNL A   1      44.197  26.985  30.365  1.00  0.00     0.031 C 
ATOM     41  C   UNL A   1      40.180  28.292  27.691  1.00  0.00     0.029 A 
ATOM     42  N   UNL A   1      40.406  29.245  29.702  1.00  0.00    -0.354 N 
ATOM     43  C   UNL A   1      43.725  28.138  32.292  1.00  0.00     0.074 A 
ATOM     44  C   UNL A   1      44.649  27.279  31.577  1.00  0.00     0.031 C 
ATOM     45  C   UNL A   1      39.172  29.164  27.836  1.00  0.00     0.029 A 
ATOM     46  C   UNL A   1      39.223  29.720  29.183  1.00  0.00     0.049 A 
ATOM     47  H   UNL A   1      40.786  29.551  30.556  1.00  0.00     0.167 HD
ATOM     48  C   UNL A   1      43.917  28.623  33.545  1.00  0.00     0.034 A 
ATOM     49  C   UNL A   1      38.250  30.451  29.757  1.00  0.00     0.034 A 
ATOM     50  C   UNL A   1      42.960  29.466  34.226  1.00  0.00     0.049 A 
ATOM     51  C   UNL A   1      38.419  30.869  31.193  1.00  0.00     0.074 A 
ATOM     52  C   UNL A   1      43.025  29.994  35.503  1.00  0.00     0.029 A 
ATOM     53  N   UNL A   1      41.755  29.899  33.682  1.00  0.00    -0.354 N 
ATOM     54  N   UNL A   1      39.413  30.616  32.013  1.00  0.00    -0.248 NA
ATOM     55  C   UNL A   1      37.334  31.662  31.783  1.00  0.00     0.031 C 
ATOM     56  C   UNL A   1      41.836  30.692  35.752  1.00  0.00     0.029 A 
ATOM     57  C   UNL A   1      41.060  30.664  34.606  1.00  0.00     0.049 A 
ATOM     58  H   UNL A   1      41.442  29.692  32.772  1.00  0.00     0.167 HD
ATOM     59  C   UNL A   1      39.086  31.248  33.209  1.00  0.00     0.074 A 
ATOM     60  C   UNL A   1      37.807  31.897  32.998  1.00  0.00     0.031 C 
ATOM     61  C   UNL A   1      39.782  31.296  34.373  1.00  0.00     0.034 A 
BRANCH  48  62
ATOM     62  C   UNL A   1      45.165  28.193  34.277  1.00  0.00     0.023 A 
ATOM     63  C   UNL A   1      45.249  26.962  34.951  1.00  0.00     0.031 A 
ATOM     64  C   UNL A   1      46.289  29.041  34.317  1.00  0.00     0.131 A 
ATOM     65  C   UNL A   1      46.405  26.641  35.683  1.00  0.00     0.055 A 
ATOM     66  C   UNL A   1      47.461  28.683  34.985  1.00  0.00     0.041 A 
ATOM     67  F   UNL A   1      46.260  30.239  33.714  1.00  0.00    -0.206 F 
ATOM     68  C   UNL A   1      47.520  27.482  35.684  1.00  0.00     0.022 A 
BRANCH  65  69
ATOM     69  S   UNL A   1      46.384  25.168  36.740  1.00  0.00     0.124 S 
ATOM     70  O   UNL A   1      44.968  25.071  37.086  1.00  0.00    -0.237 OA
ATOM     71  O   UNL A   1      46.897  24.132  35.850  1.00  0.00    -0.237 OA
ATOM     72  O   UNL A   1      47.265  25.528  37.850  1.00  0.00    -0.744 OA
ENDBRANCH  65  69
ENDBRANCH  48  62
BRANCH  49  73
ATOM     73  C   UNL A   1      37.002  30.761  29.005  1.00  0.00     0.023 A 
ATOM     74  C   UNL A   1      36.533  32.078  28.899  1.00  0.00     0.031 A 
ATOM     75  C   UNL A   1      36.245  29.740  28.400  1.00  0.00     0.131 A 
ATOM     76  C   UNL A   1      35.322  32.335  28.239  1.00  0.00     0.055 A 
ATOM     77  C   UNL A   1      35.072  30.008  27.695  1.00  0.00     0.041 A 
ATOM     78  F   UNL A   1      36.650  28.461  28.470  1.00  0.00    -0.206 F 
ATOM     79  C   UNL A   1      34.597  31.313  27.622  1.00  0.00     0.022 A 
BRANCH  76  80
ATOM     80  S   UNL A   1      34.662  34.023  28.275  1.00  0.00     0.124 S 
ATOM     81  O   UNL A   1      33.227  33.779  28.341  1.00  0.00    -0.237 OA
ATOM     82  O   UNL A   1      35.279  34.562  29.482  1.00  0.00    -0.237 OA
ATOM     83  O   UNL A   1      35.141  34.602  27.022  1.00  0.00    -0.744 OA
ENDBRANCH  76  80
ENDBRANCH  49  73
BRANCH  61  84
ATOM     84  C   UNL A   1      39.193  32.134  35.479  1.00  0.00     0.023 A 
ATOM     85  C   UNL A   1      38.577  31.555  36.602  1.00  0.00     0.031 A 
ATOM     86  C   UNL A   1      39.234  33.537  35.391  1.00  0.00     0.131 A 
ATOM     87  C   UNL A   1      37.984  32.377  37.570  1.00  0.00     0.055 A 
ATOM     88  C   UNL A   1      38.690  34.350  36.385  1.00  0.00     0.041 A 
ATOM     89  F   UNL A   1      39.807  34.139  34.337  1.00  0.00    -0.206 F 
ATOM     90  C   UNL A   1      38.050  33.770  37.477  1.00  0.00     0.022 A 
BRANCH  87  91
ATOM     91  S   UNL A   1      37.055  31.602  38.921  1.00  0.00     0.124 S 
ATOM     92  O   UNL A   1      37.909  31.874  40.073  1.00  0.00    -0.237 OA
ATOM     93  O   UNL A   1      35.787  32.324  38.885  1.00  0.00    -0.237 OA
ATOM     94  O   UNL A   1      36.977  30.198  38.523  1.00  0.00    -0.744 OA
ENDBRANCH  87  91
ENDBRANCH  61  84
ENDBRANCH  35  36
ENDBRANCH  28  30
ENDBRANCH  27  28
ENDBRANCH  26  27
ENDBRANCH  25  26
ENDBRANCH  24  25
ENDBRANCH  23  24
ENDBRANCH   1  23
TORSDOF 25
ENDMDL
MODEL 2
REMARK VINA RESULT:      -9.6      3.442     10.228
REMARK SMILES CC(C)Oc1ccc([C@H](O)[C@@H](F)C(=O)OCCOCCOCCOC(=O)c2ccc(-c3c4nc(c(-c5cc(S(=O)(=O)[O-])ccc5F)c5ccc([nH]5)c(-c5cc(S(=O)(=O)[O-])ccc5F)c5nc(c(-c6cc(S(=O)(=O)[O-])ccc6F)c6ccc3[nH]6)C=C5)C=C4)cc2)cc1
REMARK SMILES IDX 19 1 18 2 17 3 16 4 15 5 13 6 14 7 11 8 12 9 9 10 8 11 5 12
REMARK SMILES IDX 6 13 91 14 7 15 90 16 4 17 2 18 1 19 3 20 10 21 20 23 21 24
REMARK SMILES IDX 22 25 23 26 24 27 25 28 26 29 27 30 28 31 89 32 29 33 88 34
REMARK SMILES IDX 30 35 31 36 32 37 82 38 33 39 87 40 81 41 83 42 34 43 86 44
REMARK SMILES IDX 80 45 79 46 35 48 67 49 47 50 66 51 48 52 51 53 65 54 84 55
REMARK SMILES IDX 49 56 50 57 64 59 85 60 52 61 36 62 37 63 45 64 38 65 44 66
REMARK SMILES IDX 46 67 43 68 39 69 40 70 41 71 42 72 68 73 69 74 77 75 70 76
REMARK SMILES IDX 76 77 78 78 75 79 71 80 72 81 73 82 74 83 53 84 54 85 62 86
REMARK SMILES IDX 55 87 61 88 63 89 60 90 56 91 57 92 58 93 59 94
REMARK H PARENT 10 22 83 47 51 58
REMARK Flexibility Score: inf
ROOT
ATOM      1  C   UNL A   1      34.778  31.396  28.259  1.00  0.00     0.188 C 
ENDROOT
BRANCH   1   2
ATOM      2  O   UNL A   1      33.587  31.310  27.479  1.00  0.00    -0.376 OA
BRANCH   2   3
ATOM      3  C   UNL A   1      33.069  30.017  27.176  1.00  0.00     0.202 C 
BRANCH   3   4
ATOM      4  C   UNL A   1      32.833  29.748  25.684  1.00  0.00     0.261 C 
BRANCH   4   5
ATOM      5  O   UNL A   1      31.509  29.215  25.469  1.00  0.00    -0.461 OA
BRANCH   5   6
ATOM      6  C   UNL A   1      31.280  28.534  24.312  1.00  0.00     0.343 C 
ATOM      7  O   UNL A   1      31.541  28.987  23.204  1.00  0.00    -0.249 OA
BRANCH   6   8
ATOM      8  C   UNL A   1      30.858  27.082  24.589  1.00  0.00     0.308 C 
ATOM      9  F   UNL A   1      29.493  26.938  24.498  1.00  0.00    -0.232 F 
BRANCH   8  10
ATOM     10  C   UNL A   1      31.293  26.503  25.960  1.00  0.00     0.190 C 
BRANCH  10  11
ATOM     11  C   UNL A   1      32.419  25.463  25.905  1.00  0.00    -0.016 A 
ATOM     12  C   UNL A   1      34.594  23.597  26.093  1.00  0.00     0.119 A 
ATOM     13  C   UNL A   1      34.691  24.780  25.342  1.00  0.00     0.047 A 
ATOM     14  C   UNL A   1      33.357  23.291  26.639  1.00  0.00     0.047 A 
ATOM     15  C   UNL A   1      33.628  25.699  25.242  1.00  0.00     0.010 A 
ATOM     16  C   UNL A   1      32.285  24.214  26.549  1.00  0.00     0.010 A 
BRANCH  12  17
ATOM     17  O   UNL A   1      35.775  22.942  26.248  1.00  0.00    -0.491 OA
BRANCH  17  18
ATOM     18  C   UNL A   1      37.050  23.216  25.650  1.00  0.00     0.167 C 
ATOM     19  C   UNL A   1      38.094  24.021  26.423  1.00  0.00     0.052 C 
ATOM     20  C   UNL A   1      37.669  21.994  24.997  1.00  0.00     0.052 C 
ENDBRANCH  17  18
ENDBRANCH  12  17
ENDBRANCH  10  11
BRANCH  10  21
ATOM     21  O   UNL A   1      30.176  25.890  26.620  1.00  0.00    -0.385 OA
ATOM     22  H   UNL A   1      30.232  24.927  26.524  1.00  0.00     0.211 HD
ENDBRANCH  10  21
ENDBRANCH   8  10
ENDBRANCH   6   8
ENDBRANCH   5   6
ENDBRANCH   4   5
ENDBRANCH   3   4
ENDBRANCH   2   3
ENDBRANCH   1   2
BRANCH   1  23
ATOM     23  C   UNL A   1      35.001  32.670  29.083  1.00  0.00     0.188 C 
BRANCH  23  24
ATOM     24  O   UNL A   1      33.805  33.412  29.258  1.00  0.00    -0.376 OA
BRANCH  24  25
ATOM     25  C   UNL A   1      33.990  34.816  29.286  1.00  0.00     0.202 C 
BRANCH  25  26
ATOM     26  C   UNL A   1      32.840  35.511  30.040  1.00  0.00     0.261 C 
BRANCH  26  27
ATOM     27  O   UNL A   1      33.139  36.074  31.341  1.00  0.00    -0.460 OA
BRANCH  27  28
ATOM     28  C   UNL A   1      33.076  35.193  32.353  1.00  0.00     0.338 C 
ATOM     29  O   UNL A   1      32.039  34.722  32.794  1.00  0.00    -0.246 OA
BRANCH  28  30
ATOM     30  C   UNL A   1      34.368  34.707  32.825  1.00  0.00     0.060 A 
ATOM     31  C   UNL A   1      35.511  35.449  32.504  1.00  0.00     0.016 A 
ATOM     32  C   UNL A   1      34.476  33.429  33.366  1.00  0.00     0.016 A 
ATOM     33  C   UNL A   1      36.775  34.905  32.701  1.00  0.00     0.010 A 
ATOM     34  C   UNL A   1      35.746  32.899  33.594  1.00  0.00     0.010 A 
ATOM     35  C   UNL A   1      36.901  33.630  33.259  1.00  0.00    -0.014 A 
BRANCH  35  36
ATOM     36  C   UNL A   1      38.235  33.055  33.544  1.00  0.00     0.031 A 
ATOM     37  C   UNL A   1      38.763  31.921  32.720  1.00  0.00     0.074 A 
ATOM     38  C   UNL A   1      38.929  33.525  34.597  1.00  0.00     0.049 A 
ATOM     39  N   UNL A   1      39.737  31.092  32.985  1.00  0.00    -0.248 NA
ATOM     40  C   UNL A   1      38.104  31.693  31.426  1.00  0.00     0.031 C 
ATOM     41  C   UNL A   1      38.552  34.686  35.405  1.00  0.00     0.029 A 
ATOM     42  N   UNL A   1      40.076  33.063  35.188  1.00  0.00    -0.354 N 
ATOM     43  C   UNL A   1      39.797  30.220  31.903  1.00  0.00     0.074 A 
ATOM     44  C   UNL A   1      38.754  30.625  30.982  1.00  0.00     0.031 C 
ATOM     45  C   UNL A   1      39.433  34.827  36.406  1.00  0.00     0.029 A 
ATOM     46  C   UNL A   1      40.376  33.716  36.361  1.00  0.00     0.049 A 
ATOM     47  H   UNL A   1      40.628  32.340  34.813  1.00  0.00     0.167 HD
ATOM     48  C   UNL A   1      40.643  29.175  31.718  1.00  0.00     0.034 A 
ATOM     49  C   UNL A   1      41.256  33.406  37.332  1.00  0.00     0.034 A 
ATOM     50  C   UNL A   1      41.660  28.797  32.671  1.00  0.00     0.049 A 
ATOM     51  C   UNL A   1      42.094  32.167  37.171  1.00  0.00     0.074 A 
ATOM     52  C   UNL A   1      42.556  27.743  32.613  1.00  0.00     0.029 A 
ATOM     53  N   UNL A   1      41.914  29.462  33.867  1.00  0.00    -0.354 N 
ATOM     54  N   UNL A   1      42.099  31.297  36.188  1.00  0.00    -0.248 NA
ATOM     55  C   UNL A   1      43.038  31.861  38.253  1.00  0.00     0.031 C 
ATOM     56  C   UNL A   1      43.305  27.735  33.797  1.00  0.00     0.029 A 
ATOM     57  C   UNL A   1      42.931  28.826  34.563  1.00  0.00     0.049 A 
ATOM     58  H   UNL A   1      41.439  30.268  34.174  1.00  0.00     0.167 HD
ATOM     59  C   UNL A   1      43.070  30.357  36.519  1.00  0.00     0.074 A 
ATOM     60  C   UNL A   1      43.631  30.772  37.789  1.00  0.00     0.031 C 
ATOM     61  C   UNL A   1      43.470  29.257  35.832  1.00  0.00     0.034 A 
BRANCH  48  62
ATOM     62  C   UNL A   1      40.450  28.331  30.480  1.00  0.00     0.023 A 
ATOM     63  C   UNL A   1      41.277  28.463  29.350  1.00  0.00     0.031 A 
ATOM     64  C   UNL A   1      39.407  27.388  30.423  1.00  0.00     0.131 A 
ATOM     65  C   UNL A   1      41.010  27.710  28.195  1.00  0.00     0.055 A 
ATOM     66  C   UNL A   1      39.192  26.590  29.298  1.00  0.00     0.041 A 
ATOM     67  F   UNL A   1      38.570  27.234  31.461  1.00  0.00    -0.206 F 
ATOM     68  C   UNL A   1      39.988  26.756  28.170  1.00  0.00     0.022 A 
BRANCH  65  69
ATOM     69  S   UNL A   1      41.933  28.083  26.679  1.00  0.00     0.124 S 
ATOM     70  O   UNL A   1      41.041  29.032  26.016  1.00  0.00    -0.237 OA
ATOM     71  O   UNL A   1      43.180  28.634  27.196  1.00  0.00    -0.237 OA
ATOM     72  O   UNL A   1      42.050  26.785  26.019  1.00  0.00    -0.744 OA
ENDBRANCH  65  69
ENDBRANCH  48  62
BRANCH  49  73
ATOM     73  C   UNL A   1      41.327  34.231  38.570  1.00  0.00     0.023 A 
ATOM     74  C   UNL A   1      42.185  35.337  38.650  1.00  0.00     0.031 A 
ATOM     75  C   UNL A   1      40.555  33.912  39.703  1.00  0.00     0.131 A 
ATOM     76  C   UNL A   1      42.281  36.060  39.848  1.00  0.00     0.055 A 
ATOM     77  C   UNL A   1      40.610  34.669  40.873  1.00  0.00     0.041 A 
ATOM     78  F   UNL A   1      39.716  32.864  39.680  1.00  0.00    -0.206 F 
ATOM     79  C   UNL A   1      41.488  35.744  40.954  1.00  0.00     0.022 A 
BRANCH  76  80
ATOM     80  S   UNL A   1      43.528  37.371  39.967  1.00  0.00     0.124 S 
ATOM     81  O   UNL A   1      43.340  37.835  41.337  1.00  0.00    -0.237 OA
ATOM     82  O   UNL A   1      44.761  36.639  39.700  1.00  0.00    -0.237 OA
ATOM     83  O   UNL A   1      43.127  38.316  38.927  1.00  0.00    -0.744 OA
ENDBRANCH  76  80
ENDBRANCH  49  73
BRANCH  61  84
ATOM     84  C   UNL A   1      44.611  28.469  36.423  1.00  0.00     0.023 A 
ATOM     85  C   UNL A   1      44.403  27.475  37.394  1.00  0.00     0.031 A 
ATOM     86  C   UNL A   1      45.930  28.737  36.016  1.00  0.00     0.131 A 
ATOM     87  C   UNL A   1      45.503  26.817  37.962  1.00  0.00     0.055 A 
ATOM     88  C   UNL A   1      47.016  28.041  36.546  1.00  0.00     0.041 A 
ATOM     89  F   UNL A   1      46.182  29.679  35.094  1.00  0.00    -0.206 F 
ATOM     90  C   UNL A   1      46.807  27.082  37.533  1.00  0.00     0.022 A 
BRANCH  87  91
ATOM     91  S   UNL A   1      45.217  25.659  39.328  1.00  0.00     0.124 S 
ATOM     92  O   UNL A   1      44.220  26.369  40.124  1.00  0.00    -0.237 OA
ATOM     93  O   UNL A   1      44.745  24.465  38.634  1.00  0.00    -0.237 OA
ATOM     94  O   UNL A   1      46.532  25.532  39.953  1.00  0.00    -0.744 OA
ENDBRANCH  87  91
ENDBRANCH  61  84
ENDBRANCH  35  36
ENDBRANCH  28  30
ENDBRANCH  27  28
ENDBRANCH  26  27
ENDBRANCH  25  26
ENDBRANCH  24  25
ENDBRANCH  23  24
ENDBRANCH   1  23
TORSDOF 25
ENDMDL
MODEL 3
REMARK VINA RESULT:      -9.1      4.839      5.632
REMARK SMILES CC(C)Oc1ccc([C@H](O)[C@@H](F)C(=O)OCCOCCOCCOC(=O)c2ccc(-c3c4nc(c(-c5cc(S(=O)(=O)[O-])ccc5F)c5ccc([nH]5)c(-c5cc(S(=O)(=O)[O-])ccc5F)c5nc(c(-c6cc(S(=O)(=O)[O-])ccc6F)c6ccc3[nH]6)C=C5)C=C4)cc2)cc1
REMARK SMILES IDX 19 1 18 2 17 3 16 4 15 5 13 6 14 7 11 8 12 9 9 10 8 11 5 12
REMARK SMILES IDX 6 13 91 14 7 15 90 16 4 17 2 18 1 19 3 20 10 21 20 23 21 24
REMARK SMILES IDX 22 25 23 26 24 27 25 28 26 29 27 30 28 31 89 32 29 33 88 34
REMARK SMILES IDX 30 35 31 36 32 37 82 38 33 39 87 40 81 41 83 42 34 43 86 44
REMARK SMILES IDX 80 45 79 46 35 48 67 49 47 50 66 51 48 52 51 53 65 54 84 55
REMARK SMILES IDX 49 56 50 57 64 59 85 60 52 61 36 62 37 63 45 64 38 65 44 66
REMARK SMILES IDX 46 67 43 68 39 69 40 70 41 71 42 72 68 73 69 74 77 75 70 76
REMARK SMILES IDX 76 77 78 78 75 79 71 80 72 81 73 82 74 83 53 84 54 85 62 86
REMARK SMILES IDX 55 87 61 88 63 89 60 90 56 91 57 92 58 93 59 94
REMARK H PARENT 10 22 83 47 51 58
REMARK Flexibility Score: inf
ROOT
ATOM      1  C   UNL A   1      38.330  23.199  26.092  1.00  0.00     0.188 C 
ENDROOT
BRANCH   1   2
ATOM      2  O   UNL A   1      37.742  21.906  25.969  1.00  0.00    -0.376 OA
BRANCH   2   3
ATOM      3  C   UNL A   1      36.926  21.639  24.831  1.00  0.00     0.202 C 
BRANCH   3   4
ATOM      4  C   UNL A   1      35.503  22.208  24.908  1.00  0.00     0.261 C 
BRANCH   4   5
ATOM      5  O   UNL A   1      34.541  21.231  24.458  1.00  0.00    -0.461 OA
BRANCH   5   6
ATOM      6  C   UNL A   1      33.471  20.980  25.261  1.00  0.00     0.343 C 
ATOM      7  O   UNL A   1      33.560  20.843  26.475  1.00  0.00    -0.249 OA
BRANCH   6   8
ATOM      8  C   UNL A   1      32.148  21.094  24.486  1.00  0.00     0.308 C 
ATOM      9  F   UNL A   1      32.376  21.344  23.152  1.00  0.00    -0.232 F 
BRANCH   8  10
ATOM     10  C   UNL A   1      31.158  22.173  24.995  1.00  0.00     0.190 C 
BRANCH  10  11
ATOM     11  C   UNL A   1      31.669  23.618  24.922  1.00  0.00    -0.016 A 
ATOM     12  C   UNL A   1      32.358  26.406  24.916  1.00  0.00     0.119 A 
ATOM     13  C   UNL A   1      32.005  25.724  23.740  1.00  0.00     0.047 A 
ATOM     14  C   UNL A   1      32.493  25.652  26.071  1.00  0.00     0.047 A 
ATOM     15  C   UNL A   1      31.668  24.356  23.734  1.00  0.00     0.010 A 
ATOM     16  C   UNL A   1      32.149  24.277  26.074  1.00  0.00     0.010 A 
BRANCH  12  17
ATOM     17  O   UNL A   1      32.444  27.755  24.768  1.00  0.00    -0.491 OA
BRANCH  17  18
ATOM     18  C   UNL A   1      31.496  28.769  25.128  1.00  0.00     0.167 C 
ATOM     19  C   UNL A   1      31.938  29.948  25.994  1.00  0.00     0.052 C 
ATOM     20  C   UNL A   1      30.656  29.233  23.952  1.00  0.00     0.052 C 
ENDBRANCH  17  18
ENDBRANCH  12  17
ENDBRANCH  10  11
BRANCH  10  21
ATOM     21  O   UNL A   1      30.797  21.915  26.360  1.00  0.00    -0.385 OA
ATOM     22  H   UNL A   1      31.295  22.508  26.944  1.00  0.00     0.211 HD
ENDBRANCH  10  21
ENDBRANCH   8  10
ENDBRANCH   6   8
ENDBRANCH   5   6
ENDBRANCH   4   5
ENDBRANCH   3   4
ENDBRANCH   2   3
ENDBRANCH   1   2
BRANCH   1  23
ATOM     23  C   UNL A   1      39.607  23.326  26.933  1.00  0.00     0.188 C 
BRANCH  23  24
ATOM     24  O   UNL A   1      40.725  22.720  26.305  1.00  0.00    -0.376 OA
BRANCH  24  25
ATOM     25  C   UNL A   1      40.997  21.402  26.748  1.00  0.00     0.202 C 
BRANCH  25  26
ATOM     26  C   UNL A   1      42.285  20.856  26.102  1.00  0.00     0.261 C 
BRANCH  26  27
ATOM     27  O   UNL A   1      43.510  21.597  26.326  1.00  0.00    -0.460 OA
BRANCH  27  28
ATOM     28  C   UNL A   1      43.823  22.458  25.344  1.00  0.00     0.338 C 
ATOM     29  O   UNL A   1      43.856  22.170  24.158  1.00  0.00    -0.246 OA
BRANCH  28  30
ATOM     30  C   UNL A   1      43.997  23.842  25.774  1.00  0.00     0.060 A 
ATOM     31  C   UNL A   1      44.205  24.090  27.136  1.00  0.00     0.016 A 
ATOM     32  C   UNL A   1      43.723  24.884  24.892  1.00  0.00     0.016 A 
ATOM     33  C   UNL A   1      44.117  25.386  27.631  1.00  0.00     0.010 A 
ATOM     34  C   UNL A   1      43.669  26.187  25.386  1.00  0.00     0.010 A 
ATOM     35  C   UNL A   1      43.860  26.446  26.756  1.00  0.00    -0.014 A 
BRANCH  35  36
ATOM     36  C   UNL A   1      43.832  27.843  27.245  1.00  0.00     0.031 A 
ATOM     37  C   UNL A   1      45.103  28.623  27.380  1.00  0.00     0.074 A 
ATOM     38  C   UNL A   1      42.654  28.369  27.627  1.00  0.00     0.049 A 
ATOM     39  N   UNL A   1      45.331  29.716  28.058  1.00  0.00    -0.248 NA
ATOM     40  C   UNL A   1      46.270  28.102  26.655  1.00  0.00     0.031 C 
ATOM     41  C   UNL A   1      41.348  27.733  27.449  1.00  0.00     0.029 A 
ATOM     42  N   UNL A   1      42.369  29.543  28.275  1.00  0.00    -0.354 N 
ATOM     43  C   UNL A   1      46.678  30.006  27.868  1.00  0.00     0.074 A 
ATOM     44  C   UNL A   1      47.212  28.965  27.010  1.00  0.00     0.031 C 
ATOM     45  C   UNL A   1      40.404  28.507  28.003  1.00  0.00     0.029 A 
ATOM     46  C   UNL A   1      41.049  29.642  28.652  1.00  0.00     0.049 A 
ATOM     47  H   UNL A   1      43.038  30.243  28.452  1.00  0.00     0.167 HD
ATOM     48  C   UNL A   1      47.391  31.042  28.377  1.00  0.00     0.034 A 
ATOM     49  C   UNL A   1      40.444  30.501  29.493  1.00  0.00     0.034 A 
ATOM     50  C   UNL A   1      46.821  32.050  29.242  1.00  0.00     0.049 A 
ATOM     51  C   UNL A   1      41.278  31.564  30.155  1.00  0.00     0.074 A 
ATOM     52  C   UNL A   1      47.444  33.129  29.845  1.00  0.00     0.029 A 
ATOM     53  N   UNL A   1      45.486  32.100  29.631  1.00  0.00    -0.354 N 
ATOM     54  N   UNL A   1      42.566  31.793  30.038  1.00  0.00    -0.248 NA
ATOM     55  C   UNL A   1      40.582  32.478  31.069  1.00  0.00     0.031 C 
ATOM     56  C   UNL A   1      46.504  33.789  30.646  1.00  0.00     0.029 A 
ATOM     57  C   UNL A   1      45.275  33.171  30.485  1.00  0.00     0.049 A 
ATOM     58  H   UNL A   1      44.792  31.464  29.341  1.00  0.00     0.167 HD
ATOM     59  C   UNL A   1      42.828  32.900  30.840  1.00  0.00     0.074 A 
ATOM     60  C   UNL A   1      41.563  33.292  31.429  1.00  0.00     0.031 C 
ATOM     61  C   UNL A   1      44.004  33.539  31.063  1.00  0.00     0.034 A 
BRANCH  48  62
ATOM     62  C   UNL A   1      48.870  31.088  28.075  1.00  0.00     0.023 A 
ATOM     63  C   UNL A   1      49.403  31.922  27.077  1.00  0.00     0.031 A 
ATOM     64  C   UNL A   1      49.764  30.268  28.791  1.00  0.00     0.131 A 
ATOM     65  C   UNL A   1      50.775  31.873  26.781  1.00  0.00     0.055 A 
ATOM     66  C   UNL A   1      51.137  30.278  28.541  1.00  0.00     0.041 A 
ATOM     67  F   UNL A   1      49.312  29.432  29.739  1.00  0.00    -0.206 F 
ATOM     68  C   UNL A   1      51.650  31.074  27.523  1.00  0.00     0.022 A 
BRANCH  65  69
ATOM     69  S   UNL A   1      51.385  32.769  25.327  1.00  0.00     0.124 S 
ATOM     70  O   UNL A   1      50.260  33.652  25.030  1.00  0.00    -0.237 OA
ATOM     71  O   UNL A   1      52.589  33.416  25.837  1.00  0.00    -0.237 OA
ATOM     72  O   UNL A   1      51.614  31.713  24.343  1.00  0.00    -0.744 OA
ENDBRANCH  65  69
ENDBRANCH  48  62
BRANCH  49  73
ATOM     73  C   UNL A   1      38.999  30.339  29.818  1.00  0.00     0.023 A 
ATOM     74  C   UNL A   1      38.019  31.050  29.113  1.00  0.00     0.031 A 
ATOM     75  C   UNL A   1      38.579  29.488  30.857  1.00  0.00     0.131 A 
ATOM     76  C   UNL A   1      36.670  30.929  29.480  1.00  0.00     0.055 A 
ATOM     77  C   UNL A   1      37.231  29.326  31.180  1.00  0.00     0.041 A 
ATOM     78  F   UNL A   1      39.477  28.783  31.564  1.00  0.00    -0.206 F 
ATOM     79  C   UNL A   1      36.268  30.060  30.497  1.00  0.00     0.022 A 
BRANCH  76  80
ATOM     80  S   UNL A   1      35.454  31.995  28.662  1.00  0.00     0.124 S 
ATOM     81  O   UNL A   1      34.502  32.239  29.738  1.00  0.00    -0.237 OA
ATOM     82  O   UNL A   1      36.274  33.133  28.259  1.00  0.00    -0.237 OA
ATOM     83  O   UNL A   1      34.959  31.167  27.565  1.00  0.00    -0.744 OA
ENDBRANCH  76  80
ENDBRANCH  49  73
BRANCH  61  84
ATOM     84  C   UNL A   1      43.950  34.768  31.935  1.00  0.00     0.023 A 
ATOM     85  C   UNL A   1      44.007  34.687  33.337  1.00  0.00     0.031 A 
ATOM     86  C   UNL A   1      43.819  36.039  31.345  1.00  0.00     0.131 A 
ATOM     87  C   UNL A   1      43.884  35.854  34.105  1.00  0.00     0.055 A 
ATOM     88  C   UNL A   1      43.752  37.199  32.114  1.00  0.00     0.041 A 
ATOM     89  F   UNL A   1      43.756  36.169  30.011  1.00  0.00    -0.206 F 
ATOM     90  C   UNL A   1      43.774  37.110  33.504  1.00  0.00     0.022 A 
BRANCH  87  91
ATOM     91  S   UNL A   1      43.796  35.703  35.910  1.00  0.00     0.124 S 
ATOM     92  O   UNL A   1      42.887  34.573  36.076  1.00  0.00    -0.237 OA
ATOM     93  O   UNL A   1      45.188  35.458  36.274  1.00  0.00    -0.237 OA
ATOM     94  O   UNL A   1      43.263  36.995  36.338  1.00  0.00    -0.744 OA
ENDBRANCH  87  91
ENDBRANCH  61  84
ENDBRANCH  35  36
ENDBRANCH  28  30
ENDBRANCH  27  28
ENDBRANCH  26  27
ENDBRANCH  25  26
ENDBRANCH  24  25
ENDBRANCH  23  24
ENDBRANCH   1  23
TORSDOF 25
ENDMDL
