MODEL 1
REMARK VINA RESULT:      -9.1      0.000      0.000
REMARK SMILES C[C@H](NC(=O)c1cc(S(=O)(=O)N(C)C)cs1)C(=O)OCCOCCOCCOC(=O)c1ccc(-c2c3nc(c(-c4cc(S(=O)(=O)[O-])ccc4F)c4ccc([nH]4)c(-c4cc(S(=O)(=O)[O-])ccc4F)c4nc(c(-c5cc(S(=O)(=O)[O-])ccc5F)c5ccc2[nH]5)C=C4)C=C3)cc1
REMARK SMILES IDX 23 1 22 2 21 3 20 4 19 5 17 6 18 7 2 8 1 9 3 10 4 11 5 13
REMARK SMILES IDX 6 14 7 15 16 16 8 17 15 18 9 19 10 20 11 21 12 22 13 23
REMARK SMILES IDX 14 24 24 25 25 26 26 27 27 28 28 29 29 30 30 31 31 32 32 33
REMARK SMILES IDX 93 34 33 35 92 36 34 37 35 38 36 39 86 40 37 41 91 42 85 43
REMARK SMILES IDX 87 44 38 45 90 46 84 47 83 48 39 50 71 51 51 52 70 53 52 54
REMARK SMILES IDX 55 55 69 56 88 57 53 58 54 59 68 61 89 62 56 63 40 64 41 65
REMARK SMILES IDX 49 66 42 67 48 68 50 69 47 70 43 71 44 72 45 73 46 74 72 75
REMARK SMILES IDX 73 76 81 77 74 78 80 79 82 80 79 81 75 82 76 83 77 84 78 85
REMARK SMILES IDX 57 86 58 87 66 88 59 89 65 90 67 91 64 92 60 93 61 94 62 95
REMARK SMILES IDX 63 96
REMARK H PARENT 3 12 87 49 55 60
REMARK Flexibility Score: inf
ROOT
ATOM      1  C   UNL A   1      40.878  22.433  27.188  1.00  0.00     0.188 C 
ENDROOT
BRANCH   1   2
ATOM      2  O   UNL A   1      40.024  23.027  26.217  1.00  0.00    -0.376 OA
BRANCH   2   3
ATOM      3  C   UNL A   1      38.704  22.516  26.052  1.00  0.00     0.202 C 
BRANCH   3   4
ATOM      4  C   UNL A   1      37.591  23.508  25.704  1.00  0.00     0.261 C 
BRANCH   4   5
ATOM      5  O   UNL A   1      36.273  23.029  26.040  1.00  0.00    -0.462 OA
BRANCH   5   6
ATOM      6  C   UNL A   1      35.678  22.250  25.096  1.00  0.00     0.328 C 
ATOM      7  O   UNL A   1      35.766  22.432  23.886  1.00  0.00    -0.250 OA
BRANCH   6   8
ATOM      8  C   UNL A   1      34.818  21.126  25.695  1.00  0.00     0.189 C 
ATOM      9  C   UNL A   1      33.775  20.749  24.641  1.00  0.00     0.043 C 
BRANCH   8  10
ATOM     10  N   UNL A   1      34.222  21.402  27.009  1.00  0.00    -0.338 N 
ATOM     11  C   UNL A   1      33.177  22.239  27.342  1.00  0.00     0.262 C 
ATOM     12  H   UNL A   1      34.629  20.917  27.764  1.00  0.00     0.164 HD
ATOM     13  O   UNL A   1      32.785  22.230  28.509  1.00  0.00    -0.268 OA
BRANCH  11  14
ATOM     14  C   UNL A   1      32.666  23.148  26.330  1.00  0.00     0.093 A 
ATOM     15  C   UNL A   1      33.167  24.346  25.854  1.00  0.00     0.047 A 
ATOM     16  S   UNL A   1      31.147  22.784  25.612  1.00  0.00    -0.137 S 
ATOM     17  C   UNL A   1      32.175  25.081  25.136  1.00  0.00     0.094 A 
ATOM     18  C   UNL A   1      31.032  24.342  24.919  1.00  0.00     0.087 A 
BRANCH  17  19
ATOM     19  S   UNL A   1      32.302  26.761  24.726  1.00  0.00     0.243 S 
ATOM     20  O   UNL A   1      31.041  27.330  25.145  1.00  0.00    -0.207 OA
ATOM     21  O   UNL A   1      33.553  27.133  25.352  1.00  0.00    -0.207 OA
BRANCH  19  22
ATOM     22  N   UNL A   1      32.466  26.931  23.040  1.00  0.00    -0.204 NA
ATOM     23  C   UNL A   1      33.440  26.009  22.411  1.00  0.00     0.124 C 
ATOM     24  C   UNL A   1      31.169  26.908  22.319  1.00  0.00     0.124 C 
ENDBRANCH  19  22
ENDBRANCH  17  19
ENDBRANCH  11  14
ENDBRANCH   8  10
ENDBRANCH   6   8
ENDBRANCH   5   6
ENDBRANCH   4   5
ENDBRANCH   3   4
ENDBRANCH   2   3
ENDBRANCH   1   2
BRANCH   1  25
ATOM     25  C   UNL A   1      40.758  20.922  27.455  1.00  0.00     0.188 C 
BRANCH  25  26
ATOM     26  O   UNL A   1      41.289  20.086  26.439  1.00  0.00    -0.376 OA
BRANCH  26  27
ATOM     27  C   UNL A   1      42.367  19.241  26.851  1.00  0.00     0.202 C 
BRANCH  27  28
ATOM     28  C   UNL A   1      43.203  18.630  25.713  1.00  0.00     0.261 C 
BRANCH  28  29
ATOM     29  O   UNL A   1      43.506  19.536  24.637  1.00  0.00    -0.460 OA
BRANCH  29  30
ATOM     30  C   UNL A   1      44.817  19.742  24.366  1.00  0.00     0.338 C 
ATOM     31  O   UNL A   1      45.566  18.995  23.763  1.00  0.00    -0.246 OA
BRANCH  30  32
ATOM     32  C   UNL A   1      45.124  21.143  24.724  1.00  0.00     0.060 A 
ATOM     33  C   UNL A   1      45.452  21.445  26.053  1.00  0.00     0.016 A 
ATOM     34  C   UNL A   1      45.126  22.142  23.749  1.00  0.00     0.016 A 
ATOM     35  C   UNL A   1      45.772  22.755  26.411  1.00  0.00     0.010 A 
ATOM     36  C   UNL A   1      45.422  23.458  24.114  1.00  0.00     0.010 A 
ATOM     37  C   UNL A   1      45.727  23.774  25.450  1.00  0.00    -0.014 A 
BRANCH  37  38
ATOM     38  C   UNL A   1      45.811  25.195  25.869  1.00  0.00     0.031 A 
ATOM     39  C   UNL A   1      47.164  25.849  25.893  1.00  0.00     0.074 A 
ATOM     40  C   UNL A   1      44.714  25.888  26.226  1.00  0.00     0.049 A 
ATOM     41  N   UNL A   1      47.500  27.053  26.274  1.00  0.00    -0.248 NA
ATOM     42  C   UNL A   1      48.289  25.025  25.423  1.00  0.00     0.031 C 
ATOM     43  C   UNL A   1      43.345  25.375  26.212  1.00  0.00     0.029 A 
ATOM     44  N   UNL A   1      44.586  27.176  26.684  1.00  0.00    -0.354 N 
ATOM     45  C   UNL A   1      48.875  27.136  26.086  1.00  0.00     0.074 A 
ATOM     46  C   UNL A   1      49.313  25.848  25.591  1.00  0.00     0.031 C 
ATOM     47  C   UNL A   1      42.516  26.336  26.658  1.00  0.00     0.029 A 
ATOM     48  C   UNL A   1      43.298  27.518  27.023  1.00  0.00     0.049 A 
ATOM     49  H   UNL A   1      45.346  27.797  26.763  1.00  0.00     0.167 HD
ATOM     50  C   UNL A   1      49.699  28.191  26.302  1.00  0.00     0.034 A 
ATOM     51  C   UNL A   1      42.814  28.644  27.587  1.00  0.00     0.034 A 
ATOM     52  C   UNL A   1      49.259  29.458  26.827  1.00  0.00     0.049 A 
ATOM     53  C   UNL A   1      43.765  29.773  27.911  1.00  0.00     0.074 A 
ATOM     54  C   UNL A   1      50.009  30.593  27.084  1.00  0.00     0.029 A 
ATOM     55  N   UNL A   1      47.954  29.755  27.197  1.00  0.00    -0.354 N 
ATOM     56  N   UNL A   1      45.062  29.846  27.714  1.00  0.00    -0.248 NA
ATOM     57  C   UNL A   1      43.185  30.974  28.529  1.00  0.00     0.031 C 
ATOM     58  C   UNL A   1      49.172  31.550  27.668  1.00  0.00     0.029 A 
ATOM     59  C   UNL A   1      47.883  31.041  27.708  1.00  0.00     0.049 A 
ATOM     60  H   UNL A   1      47.190  29.140  27.109  1.00  0.00     0.167 HD
ATOM     61  C   UNL A   1      45.444  31.111  28.157  1.00  0.00     0.074 A 
ATOM     62  C   UNL A   1      44.239  31.770  28.619  1.00  0.00     0.031 C 
ATOM     63  C   UNL A   1      46.675  31.681  28.174  1.00  0.00     0.034 A 
BRANCH  50  64
ATOM     64  C   UNL A   1      51.165  27.983  26.018  1.00  0.00     0.023 A 
ATOM     65  C   UNL A   1      51.680  28.064  24.712  1.00  0.00     0.031 A 
ATOM     66  C   UNL A   1      52.050  27.656  27.059  1.00  0.00     0.131 A 
ATOM     67  C   UNL A   1      53.026  27.753  24.472  1.00  0.00     0.055 A 
ATOM     68  C   UNL A   1      53.407  27.422  26.824  1.00  0.00     0.041 A 
ATOM     69  F   UNL A   1      51.608  27.541  28.321  1.00  0.00    -0.206 F 
ATOM     70  C   UNL A   1      53.899  27.455  25.522  1.00  0.00     0.022 A 
BRANCH  67  71
ATOM     71  S   UNL A   1      53.589  27.608  22.754  1.00  0.00     0.124 S 
ATOM     72  O   UNL A   1      53.870  29.001  22.417  1.00  0.00    -0.237 OA
ATOM     73  O   UNL A   1      54.749  26.733  22.876  1.00  0.00    -0.237 OA
ATOM     74  O   UNL A   1      52.439  27.027  22.064  1.00  0.00    -0.744 OA
ENDBRANCH  67  71
ENDBRANCH  50  64
BRANCH  51  75
ATOM     75  C   UNL A   1      41.367  28.760  27.933  1.00  0.00     0.023 A 
ATOM     76  C   UNL A   1      40.912  28.540  29.242  1.00  0.00     0.031 A 
ATOM     77  C   UNL A   1      40.410  29.024  26.937  1.00  0.00     0.131 A 
ATOM     78  C   UNL A   1      39.534  28.540  29.513  1.00  0.00     0.055 A 
ATOM     79  C   UNL A   1      39.043  29.071  27.221  1.00  0.00     0.041 A 
ATOM     80  F   UNL A   1      40.792  29.241  25.668  1.00  0.00    -0.206 F 
ATOM     81  C   UNL A   1      38.598  28.815  28.513  1.00  0.00     0.022 A 
BRANCH  78  82
ATOM     82  S   UNL A   1      38.978  28.095  31.181  1.00  0.00     0.124 S 
ATOM     83  O   UNL A   1      38.633  26.687  31.015  1.00  0.00    -0.237 OA
ATOM     84  O   UNL A   1      40.167  28.375  31.980  1.00  0.00    -0.237 OA
ATOM     85  O   UNL A   1      37.848  28.992  31.413  1.00  0.00    -0.744 OA
ENDBRANCH  78  82
ENDBRANCH  51  75
BRANCH  63  86
ATOM     86  C   UNL A   1      46.769  33.105  28.666  1.00  0.00     0.023 A 
ATOM     87  C   UNL A   1      46.628  34.202  27.798  1.00  0.00     0.031 A 
ATOM     88  C   UNL A   1      47.009  33.365  30.028  1.00  0.00     0.131 A 
ATOM     89  C   UNL A   1      46.778  35.507  28.292  1.00  0.00     0.055 A 
ATOM     90  C   UNL A   1      47.102  34.667  30.523  1.00  0.00     0.041 A 
ATOM     91  F   UNL A   1      47.153  32.355  30.901  1.00  0.00    -0.206 F 
ATOM     92  C   UNL A   1      46.998  35.747  29.651  1.00  0.00     0.022 A 
BRANCH  89  93
ATOM     93  S   UNL A   1      46.765  36.891  27.118  1.00  0.00     0.124 S 
ATOM     94  O   UNL A   1      45.615  37.666  27.576  1.00  0.00    -0.237 OA
ATOM     95  O   UNL A   1      48.072  37.499  27.337  1.00  0.00    -0.237 OA
ATOM     96  O   UNL A   1      46.595  36.239  25.821  1.00  0.00    -0.744 OA
ENDBRANCH  89  93
ENDBRANCH  63  86
ENDBRANCH  37  38
ENDBRANCH  30  32
ENDBRANCH  29  30
ENDBRANCH  28  29
ENDBRANCH  27  28
ENDBRANCH  26  27
ENDBRANCH  25  26
ENDBRANCH   1  25
TORSDOF 24
ENDMDL
MODEL 2
REMARK VINA RESULT:      -8.6      1.379      7.715
REMARK SMILES C[C@H](NC(=O)c1cc(S(=O)(=O)N(C)C)cs1)C(=O)OCCOCCOCCOC(=O)c1ccc(-c2c3nc(c(-c4cc(S(=O)(=O)[O-])ccc4F)c4ccc([nH]4)c(-c4cc(S(=O)(=O)[O-])ccc4F)c4nc(c(-c5cc(S(=O)(=O)[O-])ccc5F)c5ccc2[nH]5)C=C4)C=C3)cc1
REMARK SMILES IDX 23 1 22 2 21 3 20 4 19 5 17 6 18 7 2 8 1 9 3 10 4 11 5 13
REMARK SMILES IDX 6 14 7 15 16 16 8 17 15 18 9 19 10 20 11 21 12 22 13 23
REMARK SMILES IDX 14 24 24 25 25 26 26 27 27 28 28 29 29 30 30 31 31 32 32 33
REMARK SMILES IDX 93 34 33 35 92 36 34 37 35 38 36 39 86 40 37 41 91 42 85 43
REMARK SMILES IDX 87 44 38 45 90 46 84 47 83 48 39 50 71 51 51 52 70 53 52 54
REMARK SMILES IDX 55 55 69 56 88 57 53 58 54 59 68 61 89 62 56 63 40 64 41 65
REMARK SMILES IDX 49 66 42 67 48 68 50 69 47 70 43 71 44 72 45 73 46 74 72 75
REMARK SMILES IDX 73 76 81 77 74 78 80 79 82 80 79 81 75 82 76 83 77 84 78 85
REMARK SMILES IDX 57 86 58 87 66 88 59 89 65 90 67 91 64 92 60 93 61 94 62 95
REMARK SMILES IDX 63 96
REMARK H PARENT 3 12 87 49 55 60
REMARK Flexibility Score: inf
ROOT
ATOM      1  C   UNL A   1      40.321  22.607  27.056  1.00  0.00     0.188 C 
ENDROOT
BRANCH   1   2
ATOM      2  O   UNL A   1      39.443  23.444  26.312  1.00  0.00    -0.376 OA
BRANCH   2   3
ATOM      3  C   UNL A   1      38.178  22.930  25.904  1.00  0.00     0.202 C 
BRANCH   3   4
ATOM      4  C   UNL A   1      36.931  23.760  26.223  1.00  0.00     0.261 C 
BRANCH   4   5
ATOM      5  O   UNL A   1      35.701  23.106  25.853  1.00  0.00    -0.462 OA
BRANCH   5   6
ATOM      6  C   UNL A   1      35.104  23.581  24.726  1.00  0.00     0.328 C 
ATOM      7  O   UNL A   1      34.988  24.770  24.447  1.00  0.00    -0.250 OA
BRANCH   6   8
ATOM      8  C   UNL A   1      34.527  22.470  23.834  1.00  0.00     0.189 C 
ATOM      9  C   UNL A   1      33.998  23.143  22.566  1.00  0.00     0.043 C 
BRANCH   8  10
ATOM     10  N   UNL A   1      33.534  21.590  24.465  1.00  0.00    -0.338 N 
ATOM     11  C   UNL A   1      32.282  21.891  24.963  1.00  0.00     0.262 C 
ATOM     12  H   UNL A   1      33.802  20.646  24.544  1.00  0.00     0.164 HD
ATOM     13  O   UNL A   1      31.583  20.958  25.358  1.00  0.00    -0.268 OA
BRANCH  11  14
ATOM     14  C   UNL A   1      31.900  23.288  25.082  1.00  0.00     0.093 A 
ATOM     15  C   UNL A   1      31.400  24.172  24.143  1.00  0.00     0.047 A 
ATOM     16  S   UNL A   1      32.160  24.070  26.590  1.00  0.00    -0.137 S 
ATOM     17  C   UNL A   1      31.510  25.525  24.586  1.00  0.00     0.094 A 
ATOM     18  C   UNL A   1      31.897  25.613  25.906  1.00  0.00     0.087 A 
BRANCH  17  19
ATOM     19  S   UNL A   1      31.350  26.911  23.557  1.00  0.00     0.243 S 
ATOM     20  O   UNL A   1      32.231  26.638  22.444  1.00  0.00    -0.207 OA
ATOM     21  O   UNL A   1      29.915  27.002  23.391  1.00  0.00    -0.207 OA
BRANCH  19  22
ATOM     22  N   UNL A   1      31.891  28.302  24.377  1.00  0.00    -0.204 NA
ATOM     23  C   UNL A   1      33.199  28.827  23.921  1.00  0.00     0.124 C 
ATOM     24  C   UNL A   1      30.875  29.382  24.435  1.00  0.00     0.124 C 
ENDBRANCH  19  22
ENDBRANCH  17  19
ENDBRANCH  11  14
ENDBRANCH   8  10
ENDBRANCH   6   8
ENDBRANCH   5   6
ENDBRANCH   4   5
ENDBRANCH   3   4
ENDBRANCH   2   3
ENDBRANCH   1   2
BRANCH   1  25
ATOM     25  C   UNL A   1      40.239  21.084  26.857  1.00  0.00     0.188 C 
BRANCH  25  26
ATOM     26  O   UNL A   1      41.150  20.549  25.909  1.00  0.00    -0.376 OA
BRANCH  26  27
ATOM     27  C   UNL A   1      42.138  19.668  26.450  1.00  0.00     0.202 C 
BRANCH  27  28
ATOM     28  C   UNL A   1      43.202  19.174  25.454  1.00  0.00     0.261 C 
BRANCH  28  29
ATOM     29  O   UNL A   1      43.820  20.212  24.672  1.00  0.00    -0.460 OA
BRANCH  29  30
ATOM     30  C   UNL A   1      45.173  20.204  24.611  1.00  0.00     0.338 C 
ATOM     31  O   UNL A   1      45.879  19.333  24.137  1.00  0.00    -0.246 OA
BRANCH  30  32
ATOM     32  C   UNL A   1      45.638  21.550  25.006  1.00  0.00     0.060 A 
ATOM     33  C   UNL A   1      45.542  21.930  26.352  1.00  0.00     0.016 A 
ATOM     34  C   UNL A   1      46.199  22.414  24.065  1.00  0.00     0.016 A 
ATOM     35  C   UNL A   1      45.998  23.186  26.756  1.00  0.00     0.010 A 
ATOM     36  C   UNL A   1      46.632  23.681  24.466  1.00  0.00     0.010 A 
ATOM     37  C   UNL A   1      46.516  24.080  25.809  1.00  0.00    -0.014 A 
BRANCH  37  38
ATOM     38  C   UNL A   1      46.760  25.496  26.180  1.00  0.00     0.031 A 
ATOM     39  C   UNL A   1      45.575  26.352  26.529  1.00  0.00     0.074 A 
ATOM     40  C   UNL A   1      48.002  26.012  26.203  1.00  0.00     0.049 A 
ATOM     41  N   UNL A   1      45.527  27.623  26.830  1.00  0.00    -0.248 NA
ATOM     42  C   UNL A   1      44.268  25.676  26.538  1.00  0.00     0.031 C 
ATOM     43  C   UNL A   1      49.232  25.274  25.919  1.00  0.00     0.029 A 
ATOM     44  N   UNL A   1      48.430  27.289  26.468  1.00  0.00    -0.354 N 
ATOM     45  C   UNL A   1      44.185  27.902  27.067  1.00  0.00     0.074 A 
ATOM     46  C   UNL A   1      43.452  26.674  26.841  1.00  0.00     0.031 C 
ATOM     47  C   UNL A   1      50.276  26.118  26.009  1.00  0.00     0.029 A 
ATOM     48  C   UNL A   1      49.787  27.461  26.322  1.00  0.00     0.049 A 
ATOM     49  H   UNL A   1      47.822  28.015  26.738  1.00  0.00     0.167 HD
ATOM     50  C   UNL A   1      43.615  29.073  27.444  1.00  0.00     0.034 A 
ATOM     51  C   UNL A   1      50.538  28.578  26.404  1.00  0.00     0.034 A 
ATOM     52  C   UNL A   1      44.349  30.298  27.633  1.00  0.00     0.049 A 
ATOM     53  C   UNL A   1      49.870  29.894  26.730  1.00  0.00     0.074 A 
ATOM     54  C   UNL A   1      43.871  31.540  28.014  1.00  0.00     0.029 A 
ATOM     55  N   UNL A   1      45.716  30.444  27.436  1.00  0.00    -0.354 N 
ATOM     56  N   UNL A   1      48.602  30.142  26.968  1.00  0.00    -0.248 NA
ATOM     57  C   UNL A   1      50.736  31.079  26.801  1.00  0.00     0.031 C 
ATOM     58  C   UNL A   1      44.935  32.448  27.984  1.00  0.00     0.029 A 
ATOM     59  C   UNL A   1      46.093  31.759  27.656  1.00  0.00     0.049 A 
ATOM     60  H   UNL A   1      46.328  29.718  27.177  1.00  0.00     0.167 HD
ATOM     61  C   UNL A   1      48.526  31.505  27.247  1.00  0.00     0.074 A 
ATOM     62  C   UNL A   1      49.877  32.022  27.159  1.00  0.00     0.031 C 
ATOM     63  C   UNL A   1      47.443  32.262  27.556  1.00  0.00     0.034 A 
BRANCH  50  64
ATOM     64  C   UNL A   1      42.118  29.080  27.617  1.00  0.00     0.023 A 
ATOM     65  C   UNL A   1      41.524  29.039  28.891  1.00  0.00     0.031 A 
ATOM     66  C   UNL A   1      41.273  29.083  26.494  1.00  0.00     0.131 A 
ATOM     67  C   UNL A   1      40.131  28.932  29.009  1.00  0.00     0.055 A 
ATOM     68  C   UNL A   1      39.883  29.053  26.620  1.00  0.00     0.041 A 
ATOM     69  F   UNL A   1      41.786  29.096  25.253  1.00  0.00    -0.206 F 
ATOM     70  C   UNL A   1      39.304  28.962  27.883  1.00  0.00     0.022 A 
BRANCH  67  71
ATOM     71  S   UNL A   1      39.422  28.614  30.648  1.00  0.00     0.124 S 
ATOM     72  O   UNL A   1      38.830  27.291  30.462  1.00  0.00    -0.237 OA
ATOM     73  O   UNL A   1      40.593  28.673  31.515  1.00  0.00    -0.237 OA
ATOM     74  O   UNL A   1      38.460  29.700  30.822  1.00  0.00    -0.744 OA
ENDBRANCH  67  71
ENDBRANCH  50  64
BRANCH  51  75
ATOM     75  C   UNL A   1      52.005  28.530  26.132  1.00  0.00     0.023 A 
ATOM     76  C   UNL A   1      52.499  28.454  24.820  1.00  0.00     0.031 A 
ATOM     77  C   UNL A   1      52.931  28.486  27.189  1.00  0.00     0.131 A 
ATOM     78  C   UNL A   1      53.876  28.290  24.600  1.00  0.00     0.055 A 
ATOM     79  C   UNL A   1      54.304  28.373  26.964  1.00  0.00     0.041 A 
ATOM     80  F   UNL A   1      52.511  28.554  28.462  1.00  0.00    -0.206 F 
ATOM     81  C   UNL A   1      54.782  28.260  25.662  1.00  0.00     0.022 A 
BRANCH  78  82
ATOM     82  S   UNL A   1      54.459  28.038  22.901  1.00  0.00     0.124 S 
ATOM     83  O   UNL A   1      54.146  26.630  22.685  1.00  0.00    -0.237 OA
ATOM     84  O   UNL A   1      53.648  28.997  22.158  1.00  0.00    -0.237 OA
ATOM     85  O   UNL A   1      55.883  28.357  22.979  1.00  0.00    -0.744 OA
ENDBRANCH  78  82
ENDBRANCH  51  75
BRANCH  63  86
ATOM     86  C   UNL A   1      47.685  33.718  27.868  1.00  0.00     0.023 A 
ATOM     87  C   UNL A   1      47.805  34.686  26.855  1.00  0.00     0.031 A 
ATOM     88  C   UNL A   1      47.801  34.142  29.205  1.00  0.00     0.131 A 
ATOM     89  C   UNL A   1      48.085  36.019  27.193  1.00  0.00     0.055 A 
ATOM     90  C   UNL A   1      48.024  35.479  29.536  1.00  0.00     0.041 A 
ATOM     91  F   UNL A   1      47.695  33.260  30.212  1.00  0.00    -0.206 F 
ATOM     92  C   UNL A   1      48.179  36.425  28.527  1.00  0.00     0.022 A 
BRANCH  89  93
ATOM     93  S   UNL A   1      48.408  37.207  25.860  1.00  0.00     0.124 S 
ATOM     94  O   UNL A   1      49.011  36.359  24.836  1.00  0.00    -0.237 OA
ATOM     95  O   UNL A   1      47.073  37.715  25.563  1.00  0.00    -0.237 OA
ATOM     96  O   UNL A   1      49.316  38.175  26.476  1.00  0.00    -0.744 OA
ENDBRANCH  89  93
ENDBRANCH  63  86
ENDBRANCH  37  38
ENDBRANCH  30  32
ENDBRANCH  29  30
ENDBRANCH  28  29
ENDBRANCH  27  28
ENDBRANCH  26  27
ENDBRANCH  25  26
ENDBRANCH   1  25
TORSDOF 24
ENDMDL
MODEL 3
REMARK VINA RESULT:      -8.5      4.390     10.253
REMARK SMILES C[C@H](NC(=O)c1cc(S(=O)(=O)N(C)C)cs1)C(=O)OCCOCCOCCOC(=O)c1ccc(-c2c3nc(c(-c4cc(S(=O)(=O)[O-])ccc4F)c4ccc([nH]4)c(-c4cc(S(=O)(=O)[O-])ccc4F)c4nc(c(-c5cc(S(=O)(=O)[O-])ccc5F)c5ccc2[nH]5)C=C4)C=C3)cc1
REMARK SMILES IDX 23 1 22 2 21 3 20 4 19 5 17 6 18 7 2 8 1 9 3 10 4 11 5 13
REMARK SMILES IDX 6 14 7 15 16 16 8 17 15 18 9 19 10 20 11 21 12 22 13 23
REMARK SMILES IDX 14 24 24 25 25 26 26 27 27 28 28 29 29 30 30 31 31 32 32 33
REMARK SMILES IDX 93 34 33 35 92 36 34 37 35 38 36 39 86 40 37 41 91 42 85 43
REMARK SMILES IDX 87 44 38 45 90 46 84 47 83 48 39 50 71 51 51 52 70 53 52 54
REMARK SMILES IDX 55 55 69 56 88 57 53 58 54 59 68 61 89 62 56 63 40 64 41 65
REMARK SMILES IDX 49 66 42 67 48 68 50 69 47 70 43 71 44 72 45 73 46 74 72 75
REMARK SMILES IDX 73 76 81 77 74 78 80 79 82 80 79 81 75 82 76 83 77 84 78 85
REMARK SMILES IDX 57 86 58 87 66 88 59 89 65 90 67 91 64 92 60 93 61 94 62 95
REMARK SMILES IDX 63 96
REMARK H PARENT 3 12 87 49 55 60
REMARK Flexibility Score: inf
ROOT
ATOM      1  C   UNL A   1      32.591  35.785  30.440  1.00  0.00     0.188 C 
ENDROOT
BRANCH   1   2
ATOM      2  O   UNL A   1      33.776  35.157  29.963  1.00  0.00    -0.376 OA
BRANCH   2   3
ATOM      3  C   UNL A   1      34.022  35.121  28.561  1.00  0.00     0.202 C 
BRANCH   3   4
ATOM      4  C   UNL A   1      34.356  33.768  27.927  1.00  0.00     0.261 C 
BRANCH   4   5
ATOM      5  O   UNL A   1      33.272  32.820  28.002  1.00  0.00    -0.462 OA
BRANCH   5   6
ATOM      6  C   UNL A   1      33.573  31.557  27.594  1.00  0.00     0.328 C 
ATOM      7  O   UNL A   1      34.654  31.005  27.773  1.00  0.00    -0.250 OA
BRANCH   6   8
ATOM      8  C   UNL A   1      32.428  30.883  26.821  1.00  0.00     0.189 C 
ATOM      9  C   UNL A   1      31.383  31.963  26.534  1.00  0.00     0.043 C 
BRANCH   8  10
ATOM     10  N   UNL A   1      31.849  29.685  27.445  1.00  0.00    -0.338 N 
ATOM     11  C   UNL A   1      31.885  28.370  27.027  1.00  0.00     0.262 C 
ATOM     12  H   UNL A   1      31.363  29.845  28.287  1.00  0.00     0.164 HD
ATOM     13  O   UNL A   1      31.409  27.517  27.775  1.00  0.00    -0.268 OA
BRANCH  11  14
ATOM     14  C   UNL A   1      32.390  28.080  25.696  1.00  0.00     0.093 A 
ATOM     15  C   UNL A   1      31.728  27.725  24.534  1.00  0.00     0.047 A 
ATOM     16  S   UNL A   1      34.093  28.077  25.462  1.00  0.00    -0.137 S 
ATOM     17  C   UNL A   1      32.625  27.181  23.565  1.00  0.00     0.094 A 
ATOM     18  C   UNL A   1      33.945  27.324  23.935  1.00  0.00     0.087 A 
BRANCH  17  19
ATOM     19  S   UNL A   1      32.132  26.288  22.163  1.00  0.00     0.243 S 
ATOM     20  O   UNL A   1      30.970  26.997  21.675  1.00  0.00    -0.207 OA
ATOM     21  O   UNL A   1      33.360  26.218  21.400  1.00  0.00    -0.207 OA
BRANCH  19  22
ATOM     22  N   UNL A   1      31.681  24.710  22.615  1.00  0.00    -0.204 NA
ATOM     23  C   UNL A   1      32.764  23.899  23.218  1.00  0.00     0.124 C 
ATOM     24  C   UNL A   1      30.456  24.666  23.451  1.00  0.00     0.124 C 
ENDBRANCH  19  22
ENDBRANCH  17  19
ENDBRANCH  11  14
ENDBRANCH   8  10
ENDBRANCH   6   8
ENDBRANCH   5   6
ENDBRANCH   4   5
ENDBRANCH   3   4
ENDBRANCH   2   3
ENDBRANCH   1   2
BRANCH   1  25
ATOM     25  C   UNL A   1      32.381  35.918  31.958  1.00  0.00     0.188 C 
BRANCH  25  26
ATOM     26  O   UNL A   1      33.261  36.819  32.612  1.00  0.00    -0.376 OA
BRANCH  26  27
ATOM     27  C   UNL A   1      34.272  36.202  33.414  1.00  0.00     0.202 C 
BRANCH  27  28
ATOM     28  C   UNL A   1      34.410  34.678  33.252  1.00  0.00     0.261 C 
BRANCH  28  29
ATOM     29  O   UNL A   1      35.426  34.263  32.321  1.00  0.00    -0.460 OA
BRANCH  29  30
ATOM     30  C   UNL A   1      35.406  32.964  31.939  1.00  0.00     0.338 C 
ATOM     31  O   UNL A   1      34.422  32.282  31.715  1.00  0.00    -0.246 OA
BRANCH  30  32
ATOM     32  C   UNL A   1      36.795  32.583  31.608  1.00  0.00     0.060 A 
ATOM     33  C   UNL A   1      37.604  32.036  32.613  1.00  0.00     0.016 A 
ATOM     34  C   UNL A   1      37.282  32.728  30.308  1.00  0.00     0.016 A 
ATOM     35  C   UNL A   1      38.910  31.643  32.320  1.00  0.00     0.010 A 
ATOM     36  C   UNL A   1      38.598  32.357  30.022  1.00  0.00     0.010 A 
ATOM     37  C   UNL A   1      39.425  31.832  31.030  1.00  0.00    -0.014 A 
BRANCH  37  38
ATOM     38  C   UNL A   1      40.877  31.660  30.778  1.00  0.00     0.031 A 
ATOM     39  C   UNL A   1      41.768  32.863  30.913  1.00  0.00     0.074 A 
ATOM     40  C   UNL A   1      41.393  30.467  30.432  1.00  0.00     0.049 A 
ATOM     41  N   UNL A   1      43.050  32.978  30.691  1.00  0.00    -0.248 NA
ATOM     42  C   UNL A   1      41.115  34.105  31.358  1.00  0.00     0.031 C 
ATOM     43  C   UNL A   1      40.639  29.222  30.303  1.00  0.00     0.029 A 
ATOM     44  N   UNL A   1      42.681  30.114  30.114  1.00  0.00    -0.354 N 
ATOM     45  C   UNL A   1      43.363  34.304  30.973  1.00  0.00     0.074 A 
ATOM     46  C   UNL A   1      42.127  34.959  31.348  1.00  0.00     0.031 C 
ATOM     47  C   UNL A   1      41.477  28.244  29.915  1.00  0.00     0.029 A 
ATOM     48  C   UNL A   1      42.818  28.799  29.735  1.00  0.00     0.049 A 
ATOM     49  H   UNL A   1      43.437  30.744  30.152  1.00  0.00     0.167 HD
ATOM     50  C   UNL A   1      44.570  34.918  30.928  1.00  0.00     0.034 A 
ATOM     51  C   UNL A   1      43.895  28.132  29.270  1.00  0.00     0.034 A 
ATOM     52  C   UNL A   1      45.789  34.266  30.521  1.00  0.00     0.049 A 
ATOM     53  C   UNL A   1      45.211  28.862  29.135  1.00  0.00     0.074 A 
ATOM     54  C   UNL A   1      47.065  34.796  30.441  1.00  0.00     0.029 A 
ATOM     55  N   UNL A   1      45.881  32.945  30.105  1.00  0.00    -0.354 N 
ATOM     56  N   UNL A   1      45.499  30.113  29.420  1.00  0.00    -0.248 NA
ATOM     57  C   UNL A   1      46.350  28.089  28.619  1.00  0.00     0.031 C 
ATOM     58  C   UNL A   1      47.915  33.815  29.916  1.00  0.00     0.029 A 
ATOM     59  C   UNL A   1      47.185  32.650  29.737  1.00  0.00     0.049 A 
ATOM     60  H   UNL A   1      45.130  32.309  30.076  1.00  0.00     0.167 HD
ATOM     61  C   UNL A   1      46.856  30.263  29.146  1.00  0.00     0.074 A 
ATOM     62  C   UNL A   1      47.332  28.975  28.685  1.00  0.00     0.031 C 
ATOM     63  C   UNL A   1      47.643  31.363  29.271  1.00  0.00     0.034 A 
BRANCH  50  64
ATOM     64  C   UNL A   1      44.605  36.384  31.280  1.00  0.00     0.023 A 
ATOM     65  C   UNL A   1      44.378  37.379  30.313  1.00  0.00     0.031 A 
ATOM     66  C   UNL A   1      44.912  36.793  32.589  1.00  0.00     0.131 A 
ATOM     67  C   UNL A   1      44.531  38.731  30.652  1.00  0.00     0.055 A 
ATOM     68  C   UNL A   1      44.987  38.143  32.938  1.00  0.00     0.041 A 
ATOM     69  F   UNL A   1      45.162  35.886  33.547  1.00  0.00    -0.206 F 
ATOM     70  C   UNL A   1      44.811  39.121  31.964  1.00  0.00     0.022 A 
BRANCH  67  71
ATOM     71  S   UNL A   1      44.494  39.967  29.325  1.00  0.00     0.124 S 
ATOM     72  O   UNL A   1      44.000  41.145  30.033  1.00  0.00    -0.237 OA
ATOM     73  O   UNL A   1      45.888  40.015  28.900  1.00  0.00    -0.237 OA
ATOM     74  O   UNL A   1      43.563  39.398  28.352  1.00  0.00    -0.744 OA
ENDBRANCH  67  71
ENDBRANCH  50  64
BRANCH  51  75
ATOM     75  C   UNL A   1      43.783  26.705  28.849  1.00  0.00     0.023 A 
ATOM     76  C   UNL A   1      43.618  26.356  27.500  1.00  0.00     0.031 A 
ATOM     77  C   UNL A   1      43.767  25.674  29.805  1.00  0.00     0.131 A 
ATOM     78  C   UNL A   1      43.397  25.015  27.147  1.00  0.00     0.055 A 
ATOM     79  C   UNL A   1      43.595  24.336  29.444  1.00  0.00     0.041 A 
ATOM     80  F   UNL A   1      43.919  25.954  31.109  1.00  0.00    -0.206 F 
ATOM     81  C   UNL A   1      43.395  24.002  28.109  1.00  0.00     0.022 A 
BRANCH  78  82
ATOM     82  S   UNL A   1      43.031  24.623  25.414  1.00  0.00     0.124 S 
ATOM     83  O   UNL A   1      44.366  24.602  24.825  1.00  0.00    -0.237 OA
ATOM     84  O   UNL A   1      42.362  23.331  25.532  1.00  0.00    -0.237 OA
ATOM     85  O   UNL A   1      42.177  25.729  24.988  1.00  0.00    -0.744 OA
ENDBRANCH  78  82
ENDBRANCH  51  75
BRANCH  63  86
ATOM     86  C   UNL A   1      49.108  31.203  28.948  1.00  0.00     0.023 A 
ATOM     87  C   UNL A   1      49.626  31.499  27.676  1.00  0.00     0.031 A 
ATOM     88  C   UNL A   1      49.999  30.740  29.934  1.00  0.00     0.131 A 
ATOM     89  C   UNL A   1      50.987  31.281  27.408  1.00  0.00     0.055 A 
ATOM     90  C   UNL A   1      51.362  30.579  29.677  1.00  0.00     0.041 A 
ATOM     91  F   UNL A   1      49.559  30.441  31.167  1.00  0.00    -0.206 F 
ATOM     92  C   UNL A   1      51.861  30.839  28.405  1.00  0.00     0.022 A 
BRANCH  89  93
ATOM     93  S   UNL A   1      51.588  31.506  25.710  1.00  0.00     0.124 S 
ATOM     94  O   UNL A   1      51.291  30.209  25.108  1.00  0.00    -0.237 OA
ATOM     95  O   UNL A   1      50.784  32.627  25.239  1.00  0.00    -0.237 OA
ATOM     96  O   UNL A   1      53.011  31.795  25.886  1.00  0.00    -0.744 OA
ENDBRANCH  89  93
ENDBRANCH  63  86
ENDBRANCH  37  38
ENDBRANCH  30  32
ENDBRANCH  29  30
ENDBRANCH  28  29
ENDBRANCH  27  28
ENDBRANCH  26  27
ENDBRANCH  25  26
ENDBRANCH   1  25
TORSDOF 24
ENDMDL
