MODEL 1
REMARK VINA RESULT:     -10.8      0.000      0.000
REMARK SMILES Cc1ccc2c(c1)C=C(C(=O)OCCOCCOCCOC(=O)c1ccc(-c3c4nc(c(-c5cc(S(=O)(=O)[O-])ccc5F)c5ccc([nH]5)c(-c5cc(S(=O)(=O)[O-])ccc5F)c5nc(c(-c6cc(S(=O)(=O)[O-])ccc6F)c6ccc3[nH]6)C=C5)C=C4)cc1)[C@@H](C(F)(F)F)O2
REMARK SMILES IDX 17 1 16 2 15 3 14 4 13 5 12 6 10 7 11 8 9 9 1 10 2 11 3 12
REMARK SMILES IDX 7 13 4 14 6 15 5 16 8 17 92 18 87 19 88 20 89 21 90 22 91 23
REMARK SMILES IDX 18 24 19 25 20 26 21 27 22 28 23 29 24 30 25 31 86 32 26 33
REMARK SMILES IDX 85 34 27 35 28 36 29 37 79 38 30 39 84 40 78 41 80 42 31 43
REMARK SMILES IDX 83 44 77 45 76 46 32 48 64 49 44 50 63 51 45 52 48 53 62 54
REMARK SMILES IDX 81 55 46 56 47 57 61 59 82 60 49 61 33 62 34 63 42 64 35 65
REMARK SMILES IDX 41 66 43 67 40 68 36 69 37 70 38 71 39 72 65 73 66 74 74 75
REMARK SMILES IDX 67 76 73 77 75 78 72 79 68 80 69 81 70 82 71 83 50 84 51 85
REMARK SMILES IDX 59 86 52 87 58 88 60 89 57 90 53 91 54 92 55 93 56 94
REMARK H PARENT 80 47 48 58
REMARK Flexibility Score: inf
ROOT
ATOM      1  C   UNL A   1      35.887  21.106  25.362  1.00  0.00     0.188 C 
ENDROOT
BRANCH   1   2
ATOM      2  C   UNL A   1      34.353  21.257  25.453  1.00  0.00     0.188 C 
BRANCH   2   3
ATOM      3  O   UNL A   1      33.704  20.916  24.241  1.00  0.00    -0.376 OA
BRANCH   3   4
ATOM      4  C   UNL A   1      32.335  21.244  24.111  1.00  0.00     0.202 C 
BRANCH   4   5
ATOM      5  C   UNL A   1      31.596  21.797  25.339  1.00  0.00     0.261 C 
BRANCH   5   6
ATOM      6  O   UNL A   1      30.823  22.987  25.126  1.00  0.00    -0.460 OA
BRANCH   6   7
ATOM      7  C   UNL A   1      30.685  23.832  26.171  1.00  0.00     0.338 C 
ATOM      8  O   UNL A   1      30.545  23.517  27.341  1.00  0.00    -0.246 OA
BRANCH   7   9
ATOM      9  C   UNL A   1      30.840  25.219  25.678  1.00  0.00     0.087 C 
ATOM     10  C   UNL A   1      28.189  29.512  22.113  1.00  0.00     0.044 C 
ATOM     11  C   UNL A   1      29.212  28.918  23.037  1.00  0.00    -0.050 A 
ATOM     12  C   UNL A   1      30.346  29.656  23.392  1.00  0.00     0.007 A 
ATOM     13  C   UNL A   1      29.044  27.628  23.562  1.00  0.00     0.015 A 
ATOM     14  C   UNL A   1      31.298  29.113  24.258  1.00  0.00     0.047 A 
ATOM     15  C   UNL A   1      30.010  27.070  24.410  1.00  0.00     0.017 A 
ATOM     16  C   UNL A   1      31.129  27.824  24.766  1.00  0.00     0.128 A 
ATOM     17  C   UNL A   1      29.869  25.706  24.895  1.00  0.00     0.027 C 
ATOM     18  O   UNL A   1      32.111  27.380  25.603  1.00  0.00    -0.475 OA
ATOM     19  C   UNL A   1      32.045  26.019  26.109  1.00  0.00     0.316 C 
BRANCH  19  20
ATOM     20  C   UNL A   1      33.365  25.316  25.761  1.00  0.00     0.430 C 
ATOM     21  F   UNL A   1      33.650  24.335  26.655  1.00  0.00    -0.167 F 
ATOM     22  F   UNL A   1      33.316  24.720  24.546  1.00  0.00    -0.167 F 
ATOM     23  F   UNL A   1      34.414  26.167  25.749  1.00  0.00    -0.167 F 
ENDBRANCH  19  20
ENDBRANCH   7   9
ENDBRANCH   6   7
ENDBRANCH   5   6
ENDBRANCH   4   5
ENDBRANCH   3   4
ENDBRANCH   2   3
ENDBRANCH   1   2
BRANCH   1  24
ATOM     24  O   UNL A   1      36.446  19.830  25.063  1.00  0.00    -0.376 OA
BRANCH  24  25
ATOM     25  C   UNL A   1      37.782  19.761  24.575  1.00  0.00     0.202 C 
BRANCH  25  26
ATOM     26  C   UNL A   1      38.927  19.598  25.582  1.00  0.00     0.261 C 
BRANCH  26  27
ATOM     27  O   UNL A   1      39.587  20.825  25.931  1.00  0.00    -0.460 OA
BRANCH  27  28
ATOM     28  C   UNL A   1      40.385  20.774  27.030  1.00  0.00     0.338 C 
ATOM     29  O   UNL A   1      40.856  19.778  27.551  1.00  0.00    -0.246 OA
BRANCH  28  30
ATOM     30  C   UNL A   1      40.781  22.150  27.394  1.00  0.00     0.060 A 
ATOM     31  C   UNL A   1      41.678  22.389  28.436  1.00  0.00     0.016 A 
ATOM     32  C   UNL A   1      40.225  23.220  26.678  1.00  0.00     0.016 A 
ATOM     33  C   UNL A   1      42.029  23.704  28.752  1.00  0.00     0.010 A 
ATOM     34  C   UNL A   1      40.561  24.534  27.008  1.00  0.00     0.010 A 
ATOM     35  C   UNL A   1      41.478  24.785  28.038  1.00  0.00    -0.014 A 
BRANCH  35  36
ATOM     36  C   UNL A   1      42.000  26.156  28.263  1.00  0.00     0.031 A 
ATOM     37  C   UNL A   1      43.341  26.588  27.757  1.00  0.00     0.074 A 
ATOM     38  C   UNL A   1      41.222  27.019  28.943  1.00  0.00     0.049 A 
ATOM     39  N   UNL A   1      43.864  27.787  27.760  1.00  0.00    -0.248 NA
ATOM     40  C   UNL A   1      44.208  25.551  27.184  1.00  0.00     0.031 C 
ATOM     41  C   UNL A   1      39.919  26.684  29.517  1.00  0.00     0.029 A 
ATOM     42  N   UNL A   1      41.400  28.341  29.260  1.00  0.00    -0.354 N 
ATOM     43  C   UNL A   1      45.111  27.662  27.160  1.00  0.00     0.074 A 
ATOM     44  C   UNL A   1      45.288  26.255  26.859  1.00  0.00     0.031 C 
ATOM     45  C   UNL A   1      39.404  27.777  30.097  1.00  0.00     0.029 A 
ATOM     46  C   UNL A   1      40.344  28.886  29.952  1.00  0.00     0.049 A 
ATOM     47  H   UNL A   1      42.206  28.851  29.015  1.00  0.00     0.167 HD
ATOM     48  C   UNL A   1      46.005  28.639  26.871  1.00  0.00     0.034 A 
ATOM     49  C   UNL A   1      40.144  30.140  30.408  1.00  0.00     0.034 A 
ATOM     50  C   UNL A   1      45.812  30.031  27.199  1.00  0.00     0.049 A 
ATOM     51  C   UNL A   1      41.164  31.202  30.093  1.00  0.00     0.074 A 
ATOM     52  C   UNL A   1      46.634  31.102  26.891  1.00  0.00     0.029 A 
ATOM     53  N   UNL A   1      44.741  30.549  27.915  1.00  0.00    -0.354 N 
ATOM     54  N   UNL A   1      42.277  31.097  29.405  1.00  0.00    -0.248 NA
ATOM     55  C   UNL A   1      40.896  32.559  30.591  1.00  0.00     0.031 C 
ATOM     56  C   UNL A   1      46.103  32.249  27.482  1.00  0.00     0.029 A 
ATOM     57  C   UNL A   1      44.904  31.914  28.092  1.00  0.00     0.049 A 
ATOM     58  H   UNL A   1      43.978  30.024  28.248  1.00  0.00     0.167 HD
ATOM     59  C   UNL A   1      42.828  32.374  29.367  1.00  0.00     0.074 A 
ATOM     60  C   UNL A   1      41.913  33.241  30.080  1.00  0.00     0.031 C 
ATOM     61  C   UNL A   1      43.989  32.784  28.797  1.00  0.00     0.034 A 
BRANCH  48  62
ATOM     62  C   UNL A   1      47.270  28.274  26.131  1.00  0.00     0.023 A 
ATOM     63  C   UNL A   1      47.301  28.293  24.723  1.00  0.00     0.031 A 
ATOM     64  C   UNL A   1      48.382  27.745  26.811  1.00  0.00     0.131 A 
ATOM     65  C   UNL A   1      48.400  27.753  24.043  1.00  0.00     0.055 A 
ATOM     66  C   UNL A   1      49.492  27.245  26.129  1.00  0.00     0.041 A 
ATOM     67  F   UNL A   1      48.398  27.695  28.154  1.00  0.00    -0.206 F 
ATOM     68  C   UNL A   1      49.497  27.234  24.737  1.00  0.00     0.022 A 
BRANCH  65  69
ATOM     69  S   UNL A   1      48.415  27.627  22.232  1.00  0.00     0.124 S 
ATOM     70  O   UNL A   1      49.607  28.400  21.890  1.00  0.00    -0.237 OA
ATOM     71  O   UNL A   1      48.525  26.186  22.027  1.00  0.00    -0.237 OA
ATOM     72  O   UNL A   1      47.149  28.229  21.828  1.00  0.00    -0.744 OA
ENDBRANCH  65  69
ENDBRANCH  48  62
BRANCH  49  73
ATOM     73  C   UNL A   1      38.877  30.444  31.132  1.00  0.00     0.023 A 
ATOM     74  C   UNL A   1      37.783  31.018  30.458  1.00  0.00     0.031 A 
ATOM     75  C   UNL A   1      38.787  30.285  32.525  1.00  0.00     0.131 A 
ATOM     76  C   UNL A   1      36.680  31.480  31.188  1.00  0.00     0.055 A 
ATOM     77  C   UNL A   1      37.654  30.680  33.239  1.00  0.00     0.041 A 
ATOM     78  F   UNL A   1      39.812  29.758  33.213  1.00  0.00    -0.206 F 
ATOM     79  C   UNL A   1      36.602  31.299  32.572  1.00  0.00     0.022 A 
BRANCH  76  80
ATOM     80  S   UNL A   1      35.381  32.459  30.385  1.00  0.00     0.124 S 
ATOM     81  O   UNL A   1      36.060  33.727  30.142  1.00  0.00    -0.237 OA
ATOM     82  O   UNL A   1      35.094  31.657  29.198  1.00  0.00    -0.237 OA
ATOM     83  O   UNL A   1      34.313  32.495  31.380  1.00  0.00    -0.744 OA
ENDBRANCH  76  80
ENDBRANCH  49  73
BRANCH  61  84
ATOM     84  C   UNL A   1      44.375  34.242  28.904  1.00  0.00     0.023 A 
ATOM     85  C   UNL A   1      45.105  34.700  30.019  1.00  0.00     0.031 A 
ATOM     86  C   UNL A   1      43.892  35.197  27.993  1.00  0.00     0.131 A 
ATOM     87  C   UNL A   1      45.290  36.075  30.217  1.00  0.00     0.055 A 
ATOM     88  C   UNL A   1      44.123  36.563  28.167  1.00  0.00     0.041 A 
ATOM     89  F   UNL A   1      43.180  34.815  26.919  1.00  0.00    -0.206 F 
ATOM     90  C   UNL A   1      44.811  37.008  29.292  1.00  0.00     0.022 A 
BRANCH  87  91
ATOM     91  S   UNL A   1      46.075  36.709  31.725  1.00  0.00     0.124 S 
ATOM     92  O   UNL A   1      45.887  38.151  31.580  1.00  0.00    -0.237 OA
ATOM     93  O   UNL A   1      45.279  36.079  32.774  1.00  0.00    -0.237 OA
ATOM     94  O   UNL A   1      47.457  36.250  31.623  1.00  0.00    -0.744 OA
ENDBRANCH  87  91
ENDBRANCH  61  84
ENDBRANCH  35  36
ENDBRANCH  28  30
ENDBRANCH  27  28
ENDBRANCH  26  27
ENDBRANCH  25  26
ENDBRANCH  24  25
ENDBRANCH   1  24
TORSDOF 21
ENDMDL
MODEL 2
REMARK VINA RESULT:     -10.5      4.918      8.515
REMARK SMILES Cc1ccc2c(c1)C=C(C(=O)OCCOCCOCCOC(=O)c1ccc(-c3c4nc(c(-c5cc(S(=O)(=O)[O-])ccc5F)c5ccc([nH]5)c(-c5cc(S(=O)(=O)[O-])ccc5F)c5nc(c(-c6cc(S(=O)(=O)[O-])ccc6F)c6ccc3[nH]6)C=C5)C=C4)cc1)[C@@H](C(F)(F)F)O2
REMARK SMILES IDX 17 1 16 2 15 3 14 4 13 5 12 6 10 7 11 8 9 9 1 10 2 11 3 12
REMARK SMILES IDX 7 13 4 14 6 15 5 16 8 17 92 18 87 19 88 20 89 21 90 22 91 23
REMARK SMILES IDX 18 24 19 25 20 26 21 27 22 28 23 29 24 30 25 31 86 32 26 33
REMARK SMILES IDX 85 34 27 35 28 36 29 37 79 38 30 39 84 40 78 41 80 42 31 43
REMARK SMILES IDX 83 44 77 45 76 46 32 48 64 49 44 50 63 51 45 52 48 53 62 54
REMARK SMILES IDX 81 55 46 56 47 57 61 59 82 60 49 61 33 62 34 63 42 64 35 65
REMARK SMILES IDX 41 66 43 67 40 68 36 69 37 70 38 71 39 72 65 73 66 74 74 75
REMARK SMILES IDX 67 76 73 77 75 78 72 79 68 80 69 81 70 82 71 83 50 84 51 85
REMARK SMILES IDX 59 86 52 87 58 88 60 89 57 90 53 91 54 92 55 93 56 94
REMARK H PARENT 80 47 48 58
REMARK Flexibility Score: inf
ROOT
ATOM      1  C   UNL A   1      31.596  30.187  25.615  1.00  0.00     0.188 C 
ENDROOT
BRANCH   1   2
ATOM      2  C   UNL A   1      32.421  29.217  26.489  1.00  0.00     0.188 C 
BRANCH   2   3
ATOM      3  O   UNL A   1      33.601  28.778  25.843  1.00  0.00    -0.376 OA
BRANCH   3   4
ATOM      4  C   UNL A   1      34.049  27.463  26.107  1.00  0.00     0.202 C 
BRANCH   4   5
ATOM      5  C   UNL A   1      33.648  26.345  25.133  1.00  0.00     0.261 C 
BRANCH   5   6
ATOM      6  O   UNL A   1      33.209  26.769  23.834  1.00  0.00    -0.460 OA
BRANCH   6   7
ATOM      7  C   UNL A   1      32.273  26.014  23.219  1.00  0.00     0.338 C 
ATOM      8  O   UNL A   1      32.414  24.869  22.823  1.00  0.00    -0.246 OA
BRANCH   7   9
ATOM      9  C   UNL A   1      31.000  26.769  23.197  1.00  0.00     0.087 C 
ATOM     10  C   UNL A   1      28.463  32.113  21.417  1.00  0.00     0.044 C 
ATOM     11  C   UNL A   1      28.519  30.739  22.021  1.00  0.00    -0.050 A 
ATOM     12  C   UNL A   1      27.379  30.189  22.616  1.00  0.00     0.007 A 
ATOM     13  C   UNL A   1      29.704  29.989  21.991  1.00  0.00     0.015 A 
ATOM     14  C   UNL A   1      27.422  28.909  23.172  1.00  0.00     0.047 A 
ATOM     15  C   UNL A   1      29.757  28.715  22.571  1.00  0.00     0.017 A 
ATOM     16  C   UNL A   1      28.607  28.174  23.149  1.00  0.00     0.128 A 
ATOM     17  C   UNL A   1      31.005  27.968  22.602  1.00  0.00     0.027 C 
ATOM     18  O   UNL A   1      28.552  26.934  23.717  1.00  0.00    -0.475 OA
ATOM     19  C   UNL A   1      29.766  26.141  23.800  1.00  0.00     0.316 C 
BRANCH  19  20
ATOM     20  C   UNL A   1      29.976  25.742  25.268  1.00  0.00     0.430 C 
ATOM     21  F   UNL A   1      30.647  26.705  25.949  1.00  0.00    -0.167 F 
ATOM     22  F   UNL A   1      28.801  25.565  25.918  1.00  0.00    -0.167 F 
ATOM     23  F   UNL A   1      30.681  24.595  25.393  1.00  0.00    -0.167 F 
ENDBRANCH  19  20
ENDBRANCH   7   9
ENDBRANCH   6   7
ENDBRANCH   5   6
ENDBRANCH   4   5
ENDBRANCH   3   4
ENDBRANCH   2   3
ENDBRANCH   1   2
BRANCH   1  24
ATOM     24  O   UNL A   1      31.285  31.484  26.116  1.00  0.00    -0.376 OA
BRANCH  24  25
ATOM     25  C   UNL A   1      32.208  32.124  26.992  1.00  0.00     0.202 C 
BRANCH  25  26
ATOM     26  C   UNL A   1      32.005  33.608  27.320  1.00  0.00     0.261 C 
BRANCH  26  27
ATOM     27  O   UNL A   1      33.222  34.334  27.555  1.00  0.00    -0.460 OA
BRANCH  27  28
ATOM     28  C   UNL A   1      33.434  34.731  28.837  1.00  0.00     0.338 C 
ATOM     29  O   UNL A   1      32.745  35.490  29.495  1.00  0.00    -0.246 OA
BRANCH  28  30
ATOM     30  C   UNL A   1      34.538  33.930  29.406  1.00  0.00     0.060 A 
ATOM     31  C   UNL A   1      35.869  34.234  29.120  1.00  0.00     0.016 A 
ATOM     32  C   UNL A   1      34.221  32.842  30.233  1.00  0.00     0.016 A 
ATOM     33  C   UNL A   1      36.886  33.454  29.676  1.00  0.00     0.010 A 
ATOM     34  C   UNL A   1      35.237  32.052  30.772  1.00  0.00     0.010 A 
ATOM     35  C   UNL A   1      36.579  32.361  30.509  1.00  0.00    -0.014 A 
BRANCH  35  36
ATOM     36  C   UNL A   1      37.667  31.662  31.235  1.00  0.00     0.031 A 
ATOM     37  C   UNL A   1      38.453  30.552  30.611  1.00  0.00     0.074 A 
ATOM     38  C   UNL A   1      37.940  32.060  32.492  1.00  0.00     0.049 A 
ATOM     39  N   UNL A   1      39.517  29.947  31.073  1.00  0.00    -0.248 NA
ATOM     40  C   UNL A   1      37.989  30.049  29.312  1.00  0.00     0.031 C 
ATOM     41  C   UNL A   1      37.203  33.101  33.209  1.00  0.00     0.029 A 
ATOM     42  N   UNL A   1      38.899  31.653  33.383  1.00  0.00    -0.354 N 
ATOM     43  C   UNL A   1      39.875  29.012  30.110  1.00  0.00     0.074 A 
ATOM     44  C   UNL A   1      38.877  29.092  29.062  1.00  0.00     0.031 C 
ATOM     45  C   UNL A   1      37.751  33.268  34.420  1.00  0.00     0.029 A 
ATOM     46  C   UNL A   1      38.866  32.336  34.576  1.00  0.00     0.049 A 
ATOM     47  H   UNL A   1      39.550  30.940  33.187  1.00  0.00     0.167 HD
ATOM     48  C   UNL A   1      40.950  28.187  30.099  1.00  0.00     0.034 A 
ATOM     49  C   UNL A   1      39.651  32.238  35.669  1.00  0.00     0.034 A 
ATOM     50  C   UNL A   1      41.920  28.114  31.166  1.00  0.00     0.049 A 
ATOM     51  C   UNL A   1      40.827  31.298  35.640  1.00  0.00     0.074 A 
ATOM     52  C   UNL A   1      43.077  27.354  31.217  1.00  0.00     0.029 A 
ATOM     53  N   UNL A   1      41.850  28.806  32.368  1.00  0.00    -0.354 N 
ATOM     54  N   UNL A   1      41.232  30.516  34.667  1.00  0.00    -0.248 NA
ATOM     55  C   UNL A   1      41.667  31.238  36.844  1.00  0.00     0.031 C 
ATOM     56  C   UNL A   1      43.662  27.526  32.472  1.00  0.00     0.029 A 
ATOM     57  C   UNL A   1      42.919  28.458  33.179  1.00  0.00     0.049 A 
ATOM     58  H   UNL A   1      41.145  29.449  32.608  1.00  0.00     0.167 HD
ATOM     59  C   UNL A   1      42.386  29.892  35.130  1.00  0.00     0.074 A 
ATOM     60  C   UNL A   1      42.629  30.406  36.462  1.00  0.00     0.031 C 
ATOM     61  C   UNL A   1      43.168  28.974  34.507  1.00  0.00     0.034 A 
BRANCH  48  62
ATOM     62  C   UNL A   1      41.184  27.308  28.894  1.00  0.00     0.023 A 
ATOM     63  C   UNL A   1      42.184  27.636  27.959  1.00  0.00     0.031 A 
ATOM     64  C   UNL A   1      40.308  26.252  28.584  1.00  0.00     0.131 A 
ATOM     65  C   UNL A   1      42.255  26.944  26.742  1.00  0.00     0.055 A 
ATOM     66  C   UNL A   1      40.408  25.539  27.389  1.00  0.00     0.041 A 
ATOM     67  F   UNL A   1      39.331  25.906  29.439  1.00  0.00    -0.206 F 
ATOM     68  C   UNL A   1      41.376  25.895  26.455  1.00  0.00     0.022 A 
BRANCH  65  69
ATOM     69  S   UNL A   1      43.435  27.430  25.452  1.00  0.00     0.124 S 
ATOM     70  O   UNL A   1      42.542  27.800  24.355  1.00  0.00    -0.237 OA
ATOM     71  O   UNL A   1      44.139  28.541  26.085  1.00  0.00    -0.237 OA
ATOM     72  O   UNL A   1      44.226  26.225  25.227  1.00  0.00    -0.744 OA
ENDBRANCH  65  69
ENDBRANCH  48  62
BRANCH  49  73
ATOM     73  C   UNL A   1      39.375  33.131  36.830  1.00  0.00     0.023 A 
ATOM     74  C   UNL A   1      40.068  34.345  36.986  1.00  0.00     0.031 A 
ATOM     75  C   UNL A   1      38.512  32.724  37.862  1.00  0.00     0.131 A 
ATOM     76  C   UNL A   1      39.944  35.070  38.178  1.00  0.00     0.055 A 
ATOM     77  C   UNL A   1      38.335  33.488  39.017  1.00  0.00     0.041 A 
ATOM     78  F   UNL A   1      37.842  31.565  37.766  1.00  0.00    -0.206 F 
ATOM     79  C   UNL A   1      39.068  34.658  39.187  1.00  0.00     0.022 A 
BRANCH  76  80
ATOM     80  S   UNL A   1      41.022  36.490  38.517  1.00  0.00     0.124 S 
ATOM     81  O   UNL A   1      40.087  37.452  39.089  1.00  0.00    -0.237 OA
ATOM     82  O   UNL A   1      41.988  35.914  39.450  1.00  0.00    -0.237 OA
ATOM     83  O   UNL A   1      41.560  36.835  37.205  1.00  0.00    -0.744 OA
ENDBRANCH  76  80
ENDBRANCH  49  73
BRANCH  61  84
ATOM     84  C   UNL A   1      44.377  28.434  35.236  1.00  0.00     0.023 A 
ATOM     85  C   UNL A   1      44.266  27.273  36.027  1.00  0.00     0.031 A 
ATOM     86  C   UNL A   1      45.587  29.148  35.276  1.00  0.00     0.131 A 
ATOM     87  C   UNL A   1      45.327  26.888  36.856  1.00  0.00     0.055 A 
ATOM     88  C   UNL A   1      46.662  28.731  36.064  1.00  0.00     0.041 A 
ATOM     89  F   UNL A   1      45.742  30.268  34.550  1.00  0.00    -0.206 F 
ATOM     90  C   UNL A   1      46.528  27.605  36.872  1.00  0.00     0.022 A 
BRANCH  87  91
ATOM     91  S   UNL A   1      45.159  25.499  38.012  1.00  0.00     0.124 S 
ATOM     92  O   UNL A   1      43.865  24.940  37.626  1.00  0.00    -0.237 OA
ATOM     93  O   UNL A   1      46.319  24.678  37.677  1.00  0.00    -0.237 OA
ATOM     94  O   UNL A   1      45.195  26.129  39.328  1.00  0.00    -0.744 OA
ENDBRANCH  87  91
ENDBRANCH  61  84
ENDBRANCH  35  36
ENDBRANCH  28  30
ENDBRANCH  27  28
ENDBRANCH  26  27
ENDBRANCH  25  26
ENDBRANCH  24  25
ENDBRANCH   1  24
TORSDOF 21
ENDMDL
MODEL 3
REMARK VINA RESULT:     -10.3      4.715      8.217
REMARK SMILES Cc1ccc2c(c1)C=C(C(=O)OCCOCCOCCOC(=O)c1ccc(-c3c4nc(c(-c5cc(S(=O)(=O)[O-])ccc5F)c5ccc([nH]5)c(-c5cc(S(=O)(=O)[O-])ccc5F)c5nc(c(-c6cc(S(=O)(=O)[O-])ccc6F)c6ccc3[nH]6)C=C5)C=C4)cc1)[C@@H](C(F)(F)F)O2
REMARK SMILES IDX 17 1 16 2 15 3 14 4 13 5 12 6 10 7 11 8 9 9 1 10 2 11 3 12
REMARK SMILES IDX 7 13 4 14 6 15 5 16 8 17 92 18 87 19 88 20 89 21 90 22 91 23
REMARK SMILES IDX 18 24 19 25 20 26 21 27 22 28 23 29 24 30 25 31 86 32 26 33
REMARK SMILES IDX 85 34 27 35 28 36 29 37 79 38 30 39 84 40 78 41 80 42 31 43
REMARK SMILES IDX 83 44 77 45 76 46 32 48 64 49 44 50 63 51 45 52 48 53 62 54
REMARK SMILES IDX 81 55 46 56 47 57 61 59 82 60 49 61 33 62 34 63 42 64 35 65
REMARK SMILES IDX 41 66 43 67 40 68 36 69 37 70 38 71 39 72 65 73 66 74 74 75
REMARK SMILES IDX 67 76 73 77 75 78 72 79 68 80 69 81 70 82 71 83 50 84 51 85
REMARK SMILES IDX 59 86 52 87 58 88 60 89 57 90 53 91 54 92 55 93 56 94
REMARK H PARENT 80 47 48 58
REMARK Flexibility Score: inf
ROOT
ATOM      1  C   UNL A   1      33.159  29.403  26.703  1.00  0.00     0.188 C 
ENDROOT
BRANCH   1   2
ATOM      2  C   UNL A   1      34.086  28.597  25.769  1.00  0.00     0.188 C 
BRANCH   2   3
ATOM      3  O   UNL A   1      33.536  28.429  24.475  1.00  0.00    -0.376 OA
BRANCH   3   4
ATOM      4  C   UNL A   1      32.253  28.969  24.226  1.00  0.00     0.202 C 
BRANCH   4   5
ATOM      5  C   UNL A   1      31.064  28.003  24.115  1.00  0.00     0.261 C 
BRANCH   5   6
ATOM      6  O   UNL A   1      31.190  26.763  24.826  1.00  0.00    -0.460 OA
BRANCH   6   7
ATOM      7  C   UNL A   1      30.985  25.625  24.129  1.00  0.00     0.338 C 
ATOM      8  O   UNL A   1      29.916  25.219  23.706  1.00  0.00    -0.246 OA
BRANCH   7   9
ATOM      9  C   UNL A   1      32.297  24.993  23.862  1.00  0.00     0.087 C 
ATOM     10  C   UNL A   1      37.664  23.465  26.513  1.00  0.00     0.044 C 
ATOM     11  C   UNL A   1      36.645  23.585  25.417  1.00  0.00    -0.050 A 
ATOM     12  C   UNL A   1      36.954  23.150  24.124  1.00  0.00     0.007 A 
ATOM     13  C   UNL A   1      35.375  24.123  25.672  1.00  0.00     0.015 A 
ATOM     14  C   UNL A   1      36.008  23.251  23.102  1.00  0.00     0.047 A 
ATOM     15  C   UNL A   1      34.433  24.250  24.642  1.00  0.00     0.017 A 
ATOM     16  C   UNL A   1      34.751  23.799  23.361  1.00  0.00     0.128 A 
ATOM     17  C   UNL A   1      33.143  24.874  24.894  1.00  0.00     0.027 C 
ATOM     18  O   UNL A   1      33.895  23.857  22.300  1.00  0.00    -0.475 OA
ATOM     19  C   UNL A   1      32.597  24.485  22.473  1.00  0.00     0.316 C 
BRANCH  19  20
ATOM     20  C   UNL A   1      32.452  25.583  21.409  1.00  0.00     0.430 C 
ATOM     21  F   UNL A   1      31.155  25.956  21.261  1.00  0.00    -0.167 F 
ATOM     22  F   UNL A   1      33.135  26.704  21.741  1.00  0.00    -0.167 F 
ATOM     23  F   UNL A   1      32.897  25.186  20.196  1.00  0.00    -0.167 F 
ENDBRANCH  19  20
ENDBRANCH   7   9
ENDBRANCH   6   7
ENDBRANCH   5   6
ENDBRANCH   4   5
ENDBRANCH   3   4
ENDBRANCH   2   3
ENDBRANCH   1   2
BRANCH   1  24
ATOM     24  O   UNL A   1      33.192  30.827  26.661  1.00  0.00    -0.376 OA
BRANCH  24  25
ATOM     25  C   UNL A   1      31.976  31.550  26.822  1.00  0.00     0.202 C 
BRANCH  25  26
ATOM     26  C   UNL A   1      32.037  33.078  26.945  1.00  0.00     0.261 C 
BRANCH  26  27
ATOM     27  O   UNL A   1      32.663  33.550  28.149  1.00  0.00    -0.460 OA
BRANCH  27  28
ATOM     28  C   UNL A   1      33.850  34.190  27.984  1.00  0.00     0.338 C 
ATOM     29  O   UNL A   1      34.021  35.341  27.623  1.00  0.00    -0.246 OA
BRANCH  28  30
ATOM     30  C   UNL A   1      34.929  33.332  28.516  1.00  0.00     0.060 A 
ATOM     31  C   UNL A   1      36.271  33.640  28.287  1.00  0.00     0.016 A 
ATOM     32  C   UNL A   1      34.579  32.189  29.248  1.00  0.00     0.016 A 
ATOM     33  C   UNL A   1      37.265  32.805  28.806  1.00  0.00     0.010 A 
ATOM     34  C   UNL A   1      35.572  31.346  29.749  1.00  0.00     0.010 A 
ATOM     35  C   UNL A   1      36.923  31.656  29.545  1.00  0.00    -0.014 A 
BRANCH  35  36
ATOM     36  C   UNL A   1      37.985  30.889  30.240  1.00  0.00     0.031 A 
ATOM     37  C   UNL A   1      38.822  29.869  29.533  1.00  0.00     0.074 A 
ATOM     38  C   UNL A   1      38.184  31.138  31.548  1.00  0.00     0.049 A 
ATOM     39  N   UNL A   1      39.870  29.226  29.977  1.00  0.00    -0.248 NA
ATOM     40  C   UNL A   1      38.435  29.518  28.161  1.00  0.00     0.031 C 
ATOM     41  C   UNL A   1      37.393  32.078  32.342  1.00  0.00     0.029 A 
ATOM     42  N   UNL A   1      39.103  30.639  32.435  1.00  0.00    -0.354 N 
ATOM     43  C   UNL A   1      40.294  28.415  28.932  1.00  0.00     0.074 A 
ATOM     44  C   UNL A   1      39.351  28.607  27.848  1.00  0.00     0.031 C 
ATOM     45  C   UNL A   1      37.874  32.107  33.592  1.00  0.00     0.029 A 
ATOM     46  C   UNL A   1      38.995  31.176  33.696  1.00  0.00     0.049 A 
ATOM     47  H   UNL A   1      39.776  29.962  32.193  1.00  0.00     0.167 HD
ATOM     48  C   UNL A   1      41.383  27.609  28.882  1.00  0.00     0.034 A 
ATOM     49  C   UNL A   1      39.724  30.958  34.811  1.00  0.00     0.034 A 
ATOM     50  C   UNL A   1      42.297  27.422  29.983  1.00  0.00     0.049 A 
ATOM     51  C   UNL A   1      40.916  30.041  34.735  1.00  0.00     0.074 A 
ATOM     52  C   UNL A   1      43.463  26.675  30.006  1.00  0.00     0.029 A 
ATOM     53  N   UNL A   1      42.153  27.966  31.252  1.00  0.00    -0.354 N 
ATOM     54  N   UNL A   1      41.386  29.385  33.700  1.00  0.00    -0.248 NA
ATOM     55  C   UNL A   1      41.694  29.849  35.967  1.00  0.00     0.031 C 
ATOM     56  C   UNL A   1      43.979  26.704  31.302  1.00  0.00     0.029 A 
ATOM     57  C   UNL A   1      43.184  27.537  32.074  1.00  0.00     0.049 A 
ATOM     58  H   UNL A   1      41.425  28.568  31.528  1.00  0.00     0.167 HD
ATOM     59  C   UNL A   1      42.525  28.724  34.148  1.00  0.00     0.074 A 
ATOM     60  C   UNL A   1      42.689  29.079  35.542  1.00  0.00     0.031 C 
ATOM     61  C   UNL A   1      43.354  27.895  33.464  1.00  0.00     0.034 A 
BRANCH  48  62
ATOM     62  C   UNL A   1      41.695  26.882  27.596  1.00  0.00     0.023 A 
ATOM     63  C   UNL A   1      41.619  25.477  27.538  1.00  0.00     0.031 A 
ATOM     64  C   UNL A   1      42.230  27.564  26.488  1.00  0.00     0.131 A 
ATOM     65  C   UNL A   1      42.112  24.799  26.415  1.00  0.00     0.055 A 
ATOM     66  C   UNL A   1      42.682  26.885  25.355  1.00  0.00     0.041 A 
ATOM     67  F   UNL A   1      42.333  28.903  26.497  1.00  0.00    -0.206 F 
ATOM     68  C   UNL A   1      42.637  25.495  25.322  1.00  0.00     0.022 A 
BRANCH  65  69
ATOM     69  S   UNL A   1      42.165  22.986  26.361  1.00  0.00     0.124 S 
ATOM     70  O   UNL A   1      40.761  22.639  26.574  1.00  0.00    -0.237 OA
ATOM     71  O   UNL A   1      42.673  22.735  25.016  1.00  0.00    -0.237 OA
ATOM     72  O   UNL A   1      43.064  22.628  27.453  1.00  0.00    -0.744 OA
ENDBRANCH  65  69
ENDBRANCH  48  62
BRANCH  49  73
ATOM     73  C   UNL A   1      39.372  31.704  36.053  1.00  0.00     0.023 A 
ATOM     74  C   UNL A   1      38.467  31.164  36.985  1.00  0.00     0.031 A 
ATOM     75  C   UNL A   1      39.834  33.014  36.261  1.00  0.00     0.131 A 
ATOM     76  C   UNL A   1      37.996  31.957  38.039  1.00  0.00     0.055 A 
ATOM     77  C   UNL A   1      39.417  33.776  37.355  1.00  0.00     0.041 A 
ATOM     78  F   UNL A   1      40.685  33.578  35.390  1.00  0.00    -0.206 F 
ATOM     79  C   UNL A   1      38.479  33.254  38.239  1.00  0.00     0.022 A 
BRANCH  76  80
ATOM     80  S   UNL A   1      36.636  31.385  39.095  1.00  0.00     0.124 S 
ATOM     81  O   UNL A   1      35.628  32.418  38.881  1.00  0.00    -0.237 OA
ATOM     82  O   UNL A   1      36.336  30.079  38.512  1.00  0.00    -0.237 OA
ATOM     83  O   UNL A   1      37.228  31.347  40.428  1.00  0.00    -0.744 OA
ENDBRANCH  76  80
ENDBRANCH  49  73
BRANCH  61  84
ATOM     84  C   UNL A   1      44.533  27.286  34.189  1.00  0.00     0.023 A 
ATOM     85  C   UNL A   1      45.802  27.893  34.110  1.00  0.00     0.031 A 
ATOM     86  C   UNL A   1      44.437  26.035  34.822  1.00  0.00     0.131 A 
ATOM     87  C   UNL A   1      46.928  27.228  34.613  1.00  0.00     0.055 A 
ATOM     88  C   UNL A   1      45.554  25.399  35.368  1.00  0.00     0.041 A 
ATOM     89  F   UNL A   1      43.253  25.407  34.915  1.00  0.00    -0.206 F 
ATOM     90  C   UNL A   1      46.809  25.989  35.249  1.00  0.00     0.022 A 
BRANCH  87  91
ATOM     91  S   UNL A   1      48.598  27.900  34.378  1.00  0.00     0.124 S 
ATOM     92  O   UNL A   1      48.524  28.422  33.015  1.00  0.00    -0.237 OA
ATOM     93  O   UNL A   1      48.673  28.910  35.430  1.00  0.00    -0.237 OA
ATOM     94  O   UNL A   1      49.471  26.744  34.553  1.00  0.00    -0.744 OA
ENDBRANCH  87  91
ENDBRANCH  61  84
ENDBRANCH  35  36
ENDBRANCH  28  30
ENDBRANCH  27  28
ENDBRANCH  26  27
ENDBRANCH  25  26
ENDBRANCH  24  25
ENDBRANCH   1  24
TORSDOF 21
ENDMDL
