MODEL 1
REMARK VINA RESULT:      -8.6      0.000      0.000
REMARK SMILES O=C(OCCOCCOCCOC(=O)c1cc(-c2ccn(C(F)F)c(=O)c2)ccc1O)c1ccc(-c2c3nc(c(-c4cc(S(=O)(=O)[O-])ccc4F)c4ccc([nH]4)c(-c4cc(S(=O)(=O)[O-])ccc4F)c4nc(c(-c5cc(S(=O)(=O)[O-])ccc5F)c5ccc2[nH]5)C=C4)C=C3)cc1
REMARK SMILES IDX 7 1 6 2 5 3 4 4 3 5 2 6 1 7 32 8 33 9 94 10 34 11 93 12
REMARK SMILES IDX 35 13 36 14 37 15 87 16 38 17 92 18 86 19 88 20 39 21 91 22
REMARK SMILES IDX 85 23 84 24 40 26 72 27 52 28 71 29 53 30 56 31 70 32 89 33
REMARK SMILES IDX 54 34 55 35 69 37 90 38 57 39 41 40 42 41 50 42 43 43 49 44
REMARK SMILES IDX 51 45 48 46 44 47 45 48 46 49 47 50 73 51 74 52 82 53 75 54
REMARK SMILES IDX 81 55 83 56 80 57 76 58 77 59 78 60 79 61 58 62 59 63 67 64
REMARK SMILES IDX 60 65 66 66 68 67 65 68 61 69 62 70 63 71 64 72 8 73 9 74
REMARK SMILES IDX 10 75 11 76 12 77 13 78 14 79 15 80 16 81 30 82 17 83 29 84
REMARK SMILES IDX 28 85 31 86 18 88 19 89 27 90 20 91 25 92 21 93 26 94 22 95
REMARK SMILES IDX 23 96 24 97
REMARK H PARENT 88 25 56 36 31 87
REMARK Flexibility Score: inf
ROOT
ATOM      1  C   UNL A   1      43.001  22.399  25.328  1.00  0.00     0.188 C 
ENDROOT
BRANCH   1   2
ATOM      2  O   UNL A   1      42.920  21.684  26.568  1.00  0.00    -0.376 OA
BRANCH   2   3
ATOM      3  C   UNL A   1      42.498  20.325  26.421  1.00  0.00     0.202 C 
BRANCH   3   4
ATOM      4  C   UNL A   1      40.976  20.134  26.396  1.00  0.00     0.261 C 
BRANCH   4   5
ATOM      5  O   UNL A   1      40.291  21.121  27.176  1.00  0.00    -0.460 OA
BRANCH   5   6
ATOM      6  C   UNL A   1      39.555  22.170  26.732  1.00  0.00     0.338 C 
ATOM      7  O   UNL A   1      38.614  21.921  25.977  1.00  0.00    -0.246 OA
BRANCH   6   8
ATOM      8  C   UNL A   1      39.817  23.610  27.073  1.00  0.00     0.060 A 
ATOM      9  C   UNL A   1      40.621  23.847  28.199  1.00  0.00     0.016 A 
ATOM     10  C   UNL A   1      39.281  24.729  26.430  1.00  0.00     0.016 A 
ATOM     11  C   UNL A   1      40.860  25.148  28.663  1.00  0.00     0.010 A 
ATOM     12  C   UNL A   1      39.557  26.032  26.856  1.00  0.00     0.010 A 
ATOM     13  C   UNL A   1      40.332  26.257  27.991  1.00  0.00    -0.014 A 
BRANCH  13  14
ATOM     14  C   UNL A   1      40.743  27.635  28.339  1.00  0.00     0.031 A 
ATOM     15  C   UNL A   1      39.774  28.714  28.719  1.00  0.00     0.074 A 
ATOM     16  C   UNL A   1      42.040  27.945  28.160  1.00  0.00     0.049 A 
ATOM     17  N   UNL A   1      40.029  29.912  29.183  1.00  0.00    -0.248 NA
ATOM     18  C   UNL A   1      38.342  28.441  28.539  1.00  0.00     0.031 C 
ATOM     19  C   UNL A   1      43.048  27.015  27.653  1.00  0.00     0.029 A 
ATOM     20  N   UNL A   1      42.718  29.121  28.331  1.00  0.00    -0.354 N 
ATOM     21  C   UNL A   1      38.795  30.503  29.417  1.00  0.00     0.074 A 
ATOM     22  C   UNL A   1      37.795  29.584  28.937  1.00  0.00     0.031 C 
ATOM     23  C   UNL A   1      44.214  27.657  27.541  1.00  0.00     0.029 A 
ATOM     24  C   UNL A   1      44.030  29.050  27.937  1.00  0.00     0.049 A 
ATOM     25  H   UNL A   1      42.306  29.936  28.699  1.00  0.00     0.167 HD
ATOM     26  C   UNL A   1      38.529  31.694  30.003  1.00  0.00     0.034 A 
ATOM     27  C   UNL A   1      44.985  29.999  27.883  1.00  0.00     0.034 A 
ATOM     28  C   UNL A   1      39.548  32.652  30.327  1.00  0.00     0.049 A 
ATOM     29  C   UNL A   1      44.672  31.361  28.427  1.00  0.00     0.074 A 
ATOM     30  C   UNL A   1      39.415  33.855  30.993  1.00  0.00     0.029 A 
ATOM     31  N   UNL A   1      40.872  32.553  29.927  1.00  0.00    -0.354 N 
ATOM     32  N   UNL A   1      43.544  31.798  28.936  1.00  0.00    -0.248 NA
ATOM     33  C   UNL A   1      45.752  32.352  28.419  1.00  0.00     0.031 C 
ATOM     34  C   UNL A   1      40.633  34.532  30.894  1.00  0.00     0.029 A 
ATOM     35  C   UNL A   1      41.546  33.718  30.239  1.00  0.00     0.049 A 
ATOM     36  H   UNL A   1      41.273  31.769  29.485  1.00  0.00     0.167 HD
ATOM     37  C   UNL A   1      43.777  33.114  29.319  1.00  0.00     0.074 A 
ATOM     38  C   UNL A   1      45.163  33.394  28.997  1.00  0.00     0.031 C 
ATOM     39  C   UNL A   1      42.921  34.000  29.888  1.00  0.00     0.034 A 
BRANCH  26  40
ATOM     40  C   UNL A   1      37.107  32.028  30.372  1.00  0.00     0.023 A 
ATOM     41  C   UNL A   1      36.269  32.728  29.485  1.00  0.00     0.031 A 
ATOM     42  C   UNL A   1      36.637  31.783  31.675  1.00  0.00     0.131 A 
ATOM     43  C   UNL A   1      35.005  33.156  29.918  1.00  0.00     0.055 A 
ATOM     44  C   UNL A   1      35.368  32.191  32.093  1.00  0.00     0.041 A 
ATOM     45  F   UNL A   1      37.405  31.135  32.565  1.00  0.00    -0.206 F 
ATOM     46  C   UNL A   1      34.547  32.884  31.213  1.00  0.00     0.022 A 
BRANCH  43  47
ATOM     47  S   UNL A   1      33.916  34.127  28.842  1.00  0.00     0.124 S 
ATOM     48  O   UNL A   1      34.831  35.158  28.357  1.00  0.00    -0.237 OA
ATOM     49  O   UNL A   1      33.507  33.138  27.849  1.00  0.00    -0.237 OA
ATOM     50  O   UNL A   1      32.867  34.596  29.739  1.00  0.00    -0.744 OA
ENDBRANCH  43  47
ENDBRANCH  26  40
BRANCH  27  51
ATOM     51  C   UNL A   1      46.317  29.588  27.361  1.00  0.00     0.023 A 
ATOM     52  C   UNL A   1      46.466  29.248  26.000  1.00  0.00     0.031 A 
ATOM     53  C   UNL A   1      47.348  29.251  28.250  1.00  0.00     0.131 A 
ATOM     54  C   UNL A   1      47.563  28.477  25.596  1.00  0.00     0.055 A 
ATOM     55  C   UNL A   1      48.478  28.550  27.825  1.00  0.00     0.041 A 
ATOM     56  F   UNL A   1      47.235  29.537  29.556  1.00  0.00    -0.206 F 
ATOM     57  C   UNL A   1      48.574  28.133  26.499  1.00  0.00     0.022 A 
BRANCH  54  58
ATOM     58  S   UNL A   1      47.601  27.712  23.948  1.00  0.00     0.124 S 
ATOM     59  O   UNL A   1      49.027  27.722  23.640  1.00  0.00    -0.237 OA
ATOM     60  O   UNL A   1      47.021  26.398  24.214  1.00  0.00    -0.237 OA
ATOM     61  O   UNL A   1      46.774  28.599  23.135  1.00  0.00    -0.744 OA
ENDBRANCH  54  58
ENDBRANCH  27  51
BRANCH  39  62
ATOM     62  C   UNL A   1      43.408  35.398  30.163  1.00  0.00     0.023 A 
ATOM     63  C   UNL A   1      43.751  35.777  31.475  1.00  0.00     0.031 A 
ATOM     64  C   UNL A   1      43.338  36.395  29.175  1.00  0.00     0.131 A 
ATOM     65  C   UNL A   1      43.940  37.129  31.779  1.00  0.00     0.055 A 
ATOM     66  C   UNL A   1      43.586  37.734  29.472  1.00  0.00     0.041 A 
ATOM     67  F   UNL A   1      43.006  36.080  27.912  1.00  0.00    -0.206 F 
ATOM     68  C   UNL A   1      43.867  38.110  30.784  1.00  0.00     0.022 A 
BRANCH  65  69
ATOM     69  S   UNL A   1      44.159  37.673  33.496  1.00  0.00     0.124 S 
ATOM     70  O   UNL A   1      42.847  38.238  33.802  1.00  0.00    -0.237 OA
ATOM     71  O   UNL A   1      44.476  36.421  34.176  1.00  0.00    -0.237 OA
ATOM     72  O   UNL A   1      45.250  38.639  33.422  1.00  0.00    -0.744 OA
ENDBRANCH  65  69
ENDBRANCH  39  62
ENDBRANCH  13  14
ENDBRANCH   6   8
ENDBRANCH   5   6
ENDBRANCH   4   5
ENDBRANCH   3   4
ENDBRANCH   2   3
ENDBRANCH   1   2
BRANCH   1  73
ATOM     73  C   UNL A   1      44.075  23.486  25.385  1.00  0.00     0.188 C 
BRANCH  73  74
ATOM     74  O   UNL A   1      45.426  23.031  25.314  1.00  0.00    -0.376 OA
BRANCH  74  75
ATOM     75  C   UNL A   1      46.319  23.485  26.325  1.00  0.00     0.202 C 
BRANCH  75  76
ATOM     76  C   UNL A   1      45.974  24.775  27.084  1.00  0.00     0.261 C 
BRANCH  76  77
ATOM     77  O   UNL A   1      46.534  24.934  28.396  1.00  0.00    -0.460 OA
BRANCH  77  78
ATOM     78  C   UNL A   1      45.651  24.685  29.394  1.00  0.00     0.342 C 
ATOM     79  O   UNL A   1      44.865  23.745  29.468  1.00  0.00    -0.246 OA
BRANCH  78  80
ATOM     80  C   UNL A   1      45.691  25.744  30.408  1.00  0.00     0.102 A 
ATOM     81  C   UNL A   1      44.522  26.413  30.821  1.00  0.00     0.028 A 
ATOM     82  C   UNL A   1      46.948  26.176  30.832  1.00  0.00     0.130 A 
ATOM     83  C   UNL A   1      44.618  27.537  31.663  1.00  0.00    -0.017 A 
ATOM     84  C   UNL A   1      47.053  27.301  31.631  1.00  0.00     0.048 A 
ATOM     85  C   UNL A   1      45.900  27.961  32.058  1.00  0.00     0.012 A 
BRANCH  82  86
ATOM     86  O   UNL A   1      48.073  25.484  30.481  1.00  0.00    -0.507 OA
ATOM     87  H   UNL A   1      48.441  24.858  31.074  1.00  0.00     0.293 HD
ENDBRANCH  82  86
BRANCH  83  88
ATOM     88  C   UNL A   1      43.452  28.315  32.168  1.00  0.00    -0.011 A 
ATOM     89  C   UNL A   1      43.598  29.388  33.145  1.00  0.00     0.027 A 
ATOM     90  C   UNL A   1      42.205  27.966  31.810  1.00  0.00     0.080 A 
ATOM     91  C   UNL A   1      42.534  29.916  33.760  1.00  0.00     0.095 A 
ATOM     92  C   UNL A   1      41.002  28.568  32.463  1.00  0.00     0.255 A 
ATOM     93  N   UNL A   1      41.256  29.501  33.454  1.00  0.00    -0.258 N 
ATOM     94  O   UNL A   1      39.887  28.198  32.114  1.00  0.00    -0.269 OA
BRANCH  93  95
ATOM     95  C   UNL A   1      40.125  30.007  34.190  1.00  0.00     0.451 C 
ATOM     96  F   UNL A   1      40.310  29.892  35.529  1.00  0.00    -0.185 F 
ATOM     97  F   UNL A   1      39.903  31.314  33.910  1.00  0.00    -0.185 F 
ENDBRANCH  93  95
ENDBRANCH  83  88
ENDBRANCH  78  80
ENDBRANCH  77  78
ENDBRANCH  76  77
ENDBRANCH  75  76
ENDBRANCH  74  75
ENDBRANCH  73  74
ENDBRANCH   1  73
TORSDOF 23
ENDMDL
MODEL 2
REMARK VINA RESULT:      -8.3      4.725     10.845
REMARK SMILES O=C(OCCOCCOCCOC(=O)c1cc(-c2ccn(C(F)F)c(=O)c2)ccc1O)c1ccc(-c2c3nc(c(-c4cc(S(=O)(=O)[O-])ccc4F)c4ccc([nH]4)c(-c4cc(S(=O)(=O)[O-])ccc4F)c4nc(c(-c5cc(S(=O)(=O)[O-])ccc5F)c5ccc2[nH]5)C=C4)C=C3)cc1
REMARK SMILES IDX 7 1 6 2 5 3 4 4 3 5 2 6 1 7 32 8 33 9 94 10 34 11 93 12
REMARK SMILES IDX 35 13 36 14 37 15 87 16 38 17 92 18 86 19 88 20 39 21 91 22
REMARK SMILES IDX 85 23 84 24 40 26 72 27 52 28 71 29 53 30 56 31 70 32 89 33
REMARK SMILES IDX 54 34 55 35 69 37 90 38 57 39 41 40 42 41 50 42 43 43 49 44
REMARK SMILES IDX 51 45 48 46 44 47 45 48 46 49 47 50 73 51 74 52 82 53 75 54
REMARK SMILES IDX 81 55 83 56 80 57 76 58 77 59 78 60 79 61 58 62 59 63 67 64
REMARK SMILES IDX 60 65 66 66 68 67 65 68 61 69 62 70 63 71 64 72 8 73 9 74
REMARK SMILES IDX 10 75 11 76 12 77 13 78 14 79 15 80 16 81 30 82 17 83 29 84
REMARK SMILES IDX 28 85 31 86 18 88 19 89 27 90 20 91 25 92 21 93 26 94 22 95
REMARK SMILES IDX 23 96 24 97
REMARK H PARENT 88 25 56 36 31 87
REMARK Flexibility Score: inf
ROOT
ATOM      1  C   UNL A   1      37.342  22.767  25.399  1.00  0.00     0.188 C 
ENDROOT
BRANCH   1   2
ATOM      2  O   UNL A   1      37.800  21.458  25.037  1.00  0.00    -0.376 OA
BRANCH   2   3
ATOM      3  C   UNL A   1      38.883  20.985  25.843  1.00  0.00     0.202 C 
BRANCH   3   4
ATOM      4  C   UNL A   1      39.510  19.673  25.355  1.00  0.00     0.261 C 
BRANCH   4   5
ATOM      5  O   UNL A   1      40.663  19.302  26.121  1.00  0.00    -0.460 OA
BRANCH   5   6
ATOM      6  C   UNL A   1      41.885  19.890  26.124  1.00  0.00     0.338 C 
ATOM      7  O   UNL A   1      42.858  19.172  25.888  1.00  0.00    -0.246 OA
BRANCH   6   8
ATOM      8  C   UNL A   1      42.140  21.342  26.414  1.00  0.00     0.060 A 
ATOM      9  C   UNL A   1      42.115  21.721  27.765  1.00  0.00     0.016 A 
ATOM     10  C   UNL A   1      42.325  22.359  25.473  1.00  0.00     0.016 A 
ATOM     11  C   UNL A   1      42.252  23.062  28.148  1.00  0.00     0.010 A 
ATOM     12  C   UNL A   1      42.515  23.692  25.851  1.00  0.00     0.010 A 
ATOM     13  C   UNL A   1      42.459  24.064  27.191  1.00  0.00    -0.014 A 
BRANCH  13  14
ATOM     14  C   UNL A   1      42.814  25.445  27.587  1.00  0.00     0.031 A 
ATOM     15  C   UNL A   1      44.227  25.934  27.696  1.00  0.00     0.074 A 
ATOM     16  C   UNL A   1      41.807  26.236  28.000  1.00  0.00     0.049 A 
ATOM     17  N   UNL A   1      44.652  27.157  27.891  1.00  0.00    -0.248 NA
ATOM     18  C   UNL A   1      45.304  24.940  27.603  1.00  0.00     0.031 C 
ATOM     19  C   UNL A   1      40.408  25.817  28.076  1.00  0.00     0.029 A 
ATOM     20  N   UNL A   1      41.805  27.519  28.475  1.00  0.00    -0.354 N 
ATOM     21  C   UNL A   1      46.039  27.088  27.871  1.00  0.00     0.074 A 
ATOM     22  C   UNL A   1      46.385  25.694  27.763  1.00  0.00     0.031 C 
ATOM     23  C   UNL A   1      39.682  26.819  28.580  1.00  0.00     0.029 A 
ATOM     24  C   UNL A   1      40.567  27.938  28.892  1.00  0.00     0.049 A 
ATOM     25  H   UNL A   1      42.610  28.084  28.513  1.00  0.00     0.167 HD
ATOM     26  C   UNL A   1      46.934  28.103  27.913  1.00  0.00     0.034 A 
ATOM     27  C   UNL A   1      40.178  29.088  29.476  1.00  0.00     0.034 A 
ATOM     28  C   UNL A   1      46.561  29.465  28.178  1.00  0.00     0.049 A 
ATOM     29  C   UNL A   1      41.187  30.187  29.634  1.00  0.00     0.074 A 
ATOM     30  C   UNL A   1      47.361  30.591  28.167  1.00  0.00     0.029 A 
ATOM     31  N   UNL A   1      45.299  29.866  28.588  1.00  0.00    -0.354 N 
ATOM     32  N   UNL A   1      42.459  30.182  29.308  1.00  0.00    -0.248 NA
ATOM     33  C   UNL A   1      40.718  31.452  30.209  1.00  0.00     0.031 C 
ATOM     34  C   UNL A   1      46.609  31.650  28.680  1.00  0.00     0.029 A 
ATOM     35  C   UNL A   1      45.320  31.204  28.934  1.00  0.00     0.049 A 
ATOM     36  H   UNL A   1      44.505  29.284  28.628  1.00  0.00     0.167 HD
ATOM     37  C   UNL A   1      42.944  31.445  29.628  1.00  0.00     0.074 A 
ATOM     38  C   UNL A   1      41.820  32.192  30.159  1.00  0.00     0.031 C 
ATOM     39  C   UNL A   1      44.202  31.934  29.490  1.00  0.00     0.034 A 
BRANCH  26  40
ATOM     40  C   UNL A   1      48.386  27.813  27.636  1.00  0.00     0.023 A 
ATOM     41  C   UNL A   1      49.315  27.673  28.682  1.00  0.00     0.031 A 
ATOM     42  C   UNL A   1      48.872  27.831  26.315  1.00  0.00     0.131 A 
ATOM     43  C   UNL A   1      50.681  27.556  28.386  1.00  0.00     0.055 A 
ATOM     44  C   UNL A   1      50.231  27.690  26.026  1.00  0.00     0.041 A 
ATOM     45  F   UNL A   1      48.029  27.980  25.281  1.00  0.00    -0.206 F 
ATOM     46  C   UNL A   1      51.143  27.555  27.065  1.00  0.00     0.022 A 
BRANCH  43  47
ATOM     47  S   UNL A   1      51.927  27.449  29.699  1.00  0.00     0.124 S 
ATOM     48  O   UNL A   1      53.164  27.620  28.939  1.00  0.00    -0.237 OA
ATOM     49  O   UNL A   1      51.563  28.571  30.559  1.00  0.00    -0.237 OA
ATOM     50  O   UNL A   1      51.723  26.122  30.266  1.00  0.00    -0.744 OA
ENDBRANCH  43  47
ENDBRANCH  26  40
BRANCH  27  51
ATOM     51  C   UNL A   1      38.741  29.208  29.842  1.00  0.00     0.023 A 
ATOM     52  C   UNL A   1      37.860  29.929  29.009  1.00  0.00     0.031 A 
ATOM     53  C   UNL A   1      38.313  28.873  31.135  1.00  0.00     0.131 A 
ATOM     54  C   UNL A   1      36.648  30.401  29.529  1.00  0.00     0.055 A 
ATOM     55  C   UNL A   1      37.070  29.281  31.621  1.00  0.00     0.041 A 
ATOM     56  F   UNL A   1      39.130  28.207  31.965  1.00  0.00    -0.206 F 
ATOM     57  C   UNL A   1      36.244  30.074  30.827  1.00  0.00     0.022 A 
BRANCH  54  58
ATOM     58  S   UNL A   1      35.667  31.632  28.620  1.00  0.00     0.124 S 
ATOM     59  O   UNL A   1      35.141  30.843  27.511  1.00  0.00    -0.237 OA
ATOM     60  O   UNL A   1      34.688  32.038  29.626  1.00  0.00    -0.237 OA
ATOM     61  O   UNL A   1      36.643  32.655  28.259  1.00  0.00    -0.744 OA
ENDBRANCH  54  58
ENDBRANCH  27  51
BRANCH  39  62
ATOM     62  C   UNL A   1      44.488  33.334  29.965  1.00  0.00     0.023 A 
ATOM     63  C   UNL A   1      44.821  33.564  31.313  1.00  0.00     0.031 A 
ATOM     64  C   UNL A   1      44.233  34.442  29.140  1.00  0.00     0.131 A 
ATOM     65  C   UNL A   1      44.819  34.870  31.814  1.00  0.00     0.055 A 
ATOM     66  C   UNL A   1      44.291  35.746  29.631  1.00  0.00     0.041 A 
ATOM     67  F   UNL A   1      43.902  34.269  27.849  1.00  0.00    -0.206 F 
ATOM     68  C   UNL A   1      44.564  35.963  30.979  1.00  0.00     0.022 A 
BRANCH  65  69
ATOM     69  S   UNL A   1      45.022  35.184  33.589  1.00  0.00     0.124 S 
ATOM     70  O   UNL A   1      46.468  35.362  33.700  1.00  0.00    -0.237 OA
ATOM     71  O   UNL A   1      44.227  36.394  33.780  1.00  0.00    -0.237 OA
ATOM     72  O   UNL A   1      44.494  33.981  34.223  1.00  0.00    -0.744 OA
ENDBRANCH  65  69
ENDBRANCH  39  62
ENDBRANCH  13  14
ENDBRANCH   6   8
ENDBRANCH   5   6
ENDBRANCH   4   5
ENDBRANCH   3   4
ENDBRANCH   2   3
ENDBRANCH   1   2
BRANCH   1  73
ATOM     73  C   UNL A   1      35.921  23.015  24.893  1.00  0.00     0.188 C 
BRANCH  73  74
ATOM     74  O   UNL A   1      34.989  21.956  25.109  1.00  0.00    -0.376 OA
BRANCH  74  75
ATOM     75  C   UNL A   1      34.722  21.591  26.459  1.00  0.00     0.202 C 
BRANCH  75  76
ATOM     76  C   UNL A   1      34.265  22.682  27.439  1.00  0.00     0.261 C 
BRANCH  76  77
ATOM     77  O   UNL A   1      33.617  23.835  26.882  1.00  0.00    -0.460 OA
BRANCH  77  78
ATOM     78  C   UNL A   1      32.266  23.725  26.837  1.00  0.00     0.342 C 
ATOM     79  O   UNL A   1      31.534  23.252  27.700  1.00  0.00    -0.246 OA
BRANCH  78  80
ATOM     80  C   UNL A   1      31.744  24.204  25.552  1.00  0.00     0.102 A 
ATOM     81  C   UNL A   1      31.412  25.558  25.351  1.00  0.00     0.028 A 
ATOM     82  C   UNL A   1      31.437  23.243  24.588  1.00  0.00     0.130 A 
ATOM     83  C   UNL A   1      30.753  25.951  24.171  1.00  0.00    -0.017 A 
ATOM     84  C   UNL A   1      30.758  23.615  23.441  1.00  0.00     0.048 A 
ATOM     85  C   UNL A   1      30.439  24.957  23.226  1.00  0.00     0.012 A 
BRANCH  82  86
ATOM     86  O   UNL A   1      31.820  21.943  24.760  1.00  0.00    -0.507 OA
ATOM     87  H   UNL A   1      31.893  21.587  25.624  1.00  0.00     0.293 HD
ENDBRANCH  82  86
BRANCH  83  88
ATOM     88  C   UNL A   1      30.362  27.352  23.848  1.00  0.00    -0.011 A 
ATOM     89  C   UNL A   1      31.125  28.500  24.320  1.00  0.00     0.027 A 
ATOM     90  C   UNL A   1      29.213  27.595  23.195  1.00  0.00     0.080 A 
ATOM     91  C   UNL A   1      30.641  29.744  24.224  1.00  0.00     0.095 A 
ATOM     92  C   UNL A   1      28.670  28.980  23.048  1.00  0.00     0.255 A 
ATOM     93  N   UNL A   1      29.423  29.989  23.626  1.00  0.00    -0.258 N 
ATOM     94  O   UNL A   1      27.607  29.145  22.461  1.00  0.00    -0.269 OA
BRANCH  93  95
ATOM     95  C   UNL A   1      28.868  31.318  23.613  1.00  0.00     0.451 C 
ATOM     96  F   UNL A   1      27.576  31.322  24.026  1.00  0.00    -0.185 F 
ATOM     97  F   UNL A   1      29.568  32.150  24.421  1.00  0.00    -0.185 F 
ENDBRANCH  93  95
ENDBRANCH  83  88
ENDBRANCH  78  80
ENDBRANCH  77  78
ENDBRANCH  76  77
ENDBRANCH  75  76
ENDBRANCH  74  75
ENDBRANCH  73  74
ENDBRANCH   1  73
TORSDOF 23
ENDMDL
MODEL 3
REMARK VINA RESULT:      -8.2      4.746      8.080
REMARK SMILES O=C(OCCOCCOCCOC(=O)c1cc(-c2ccn(C(F)F)c(=O)c2)ccc1O)c1ccc(-c2c3nc(c(-c4cc(S(=O)(=O)[O-])ccc4F)c4ccc([nH]4)c(-c4cc(S(=O)(=O)[O-])ccc4F)c4nc(c(-c5cc(S(=O)(=O)[O-])ccc5F)c5ccc2[nH]5)C=C4)C=C3)cc1
REMARK SMILES IDX 7 1 6 2 5 3 4 4 3 5 2 6 1 7 32 8 33 9 94 10 34 11 93 12
REMARK SMILES IDX 35 13 36 14 37 15 87 16 38 17 92 18 86 19 88 20 39 21 91 22
REMARK SMILES IDX 85 23 84 24 40 26 72 27 52 28 71 29 53 30 56 31 70 32 89 33
REMARK SMILES IDX 54 34 55 35 69 37 90 38 57 39 41 40 42 41 50 42 43 43 49 44
REMARK SMILES IDX 51 45 48 46 44 47 45 48 46 49 47 50 73 51 74 52 82 53 75 54
REMARK SMILES IDX 81 55 83 56 80 57 76 58 77 59 78 60 79 61 58 62 59 63 67 64
REMARK SMILES IDX 60 65 66 66 68 67 65 68 61 69 62 70 63 71 64 72 8 73 9 74
REMARK SMILES IDX 10 75 11 76 12 77 13 78 14 79 15 80 16 81 30 82 17 83 29 84
REMARK SMILES IDX 28 85 31 86 18 88 19 89 27 90 20 91 25 92 21 93 26 94 22 95
REMARK SMILES IDX 23 96 24 97
REMARK H PARENT 88 25 56 36 31 87
REMARK Flexibility Score: inf
ROOT
ATOM      1  C   UNL A   1      38.698  23.050  26.423  1.00  0.00     0.188 C 
ENDROOT
BRANCH   1   2
ATOM      2  O   UNL A   1      39.150  21.954  25.618  1.00  0.00    -0.376 OA
BRANCH   2   3
ATOM      3  C   UNL A   1      39.357  20.746  26.356  1.00  0.00     0.202 C 
BRANCH   3   4
ATOM      4  C   UNL A   1      39.902  19.580  25.523  1.00  0.00     0.261 C 
BRANCH   4   5
ATOM      5  O   UNL A   1      41.196  19.151  25.966  1.00  0.00    -0.460 OA
BRANCH   5   6
ATOM      6  C   UNL A   1      42.370  19.823  25.881  1.00  0.00     0.338 C 
ATOM      7  O   UNL A   1      43.367  19.180  25.551  1.00  0.00    -0.246 OA
BRANCH   6   8
ATOM      8  C   UNL A   1      42.547  21.286  26.179  1.00  0.00     0.060 A 
ATOM      9  C   UNL A   1      42.586  21.644  27.536  1.00  0.00     0.016 A 
ATOM     10  C   UNL A   1      42.602  22.326  25.247  1.00  0.00     0.016 A 
ATOM     11  C   UNL A   1      42.660  22.986  27.933  1.00  0.00     0.010 A 
ATOM     12  C   UNL A   1      42.727  23.663  25.635  1.00  0.00     0.010 A 
ATOM     13  C   UNL A   1      42.736  24.012  26.983  1.00  0.00    -0.014 A 
BRANCH  13  14
ATOM     14  C   UNL A   1      43.024  25.408  27.379  1.00  0.00     0.031 A 
ATOM     15  C   UNL A   1      41.973  26.364  27.855  1.00  0.00     0.074 A 
ATOM     16  C   UNL A   1      44.273  25.856  27.157  1.00  0.00     0.049 A 
ATOM     17  N   UNL A   1      42.130  27.560  28.365  1.00  0.00    -0.248 NA
ATOM     18  C   UNL A   1      40.568  25.955  27.727  1.00  0.00     0.031 C 
ATOM     19  C   UNL A   1      45.343  25.057  26.560  1.00  0.00     0.029 A 
ATOM     20  N   UNL A   1      44.839  27.087  27.355  1.00  0.00    -0.354 N 
ATOM     21  C   UNL A   1      40.856  28.012  28.683  1.00  0.00     0.074 A 
ATOM     22  C   UNL A   1      39.930  27.018  28.205  1.00  0.00     0.031 C 
ATOM     23  C   UNL A   1      46.432  25.819  26.427  1.00  0.00     0.029 A 
ATOM     24  C   UNL A   1      46.130  27.167  26.899  1.00  0.00     0.049 A 
ATOM     25  H   UNL A   1      44.365  27.839  27.780  1.00  0.00     0.167 HD
ATOM     26  C   UNL A   1      40.502  29.142  29.338  1.00  0.00     0.034 A 
ATOM     27  C   UNL A   1      46.981  28.210  26.849  1.00  0.00     0.034 A 
ATOM     28  C   UNL A   1      41.435  30.184  29.662  1.00  0.00     0.049 A 
ATOM     29  C   UNL A   1      46.561  29.508  27.472  1.00  0.00     0.074 A 
ATOM     30  C   UNL A   1      41.216  31.337  30.391  1.00  0.00     0.029 A 
ATOM     31  N   UNL A   1      42.741  30.238  29.198  1.00  0.00    -0.354 N 
ATOM     32  N   UNL A   1      45.422  29.805  28.053  1.00  0.00    -0.248 NA
ATOM     33  C   UNL A   1      47.536  30.604  27.464  1.00  0.00     0.031 C 
ATOM     34  C   UNL A   1      42.354  32.138  30.271  1.00  0.00     0.029 A 
ATOM     35  C   UNL A   1      43.310  31.452  29.536  1.00  0.00     0.049 A 
ATOM     36  H   UNL A   1      43.195  29.520  28.701  1.00  0.00     0.167 HD
ATOM     37  C   UNL A   1      45.541  31.119  28.489  1.00  0.00     0.074 A 
ATOM     38  C   UNL A   1      46.875  31.553  28.118  1.00  0.00     0.031 C 
ATOM     39  C   UNL A   1      44.631  31.888  29.138  1.00  0.00     0.034 A 
BRANCH  26  40
ATOM     40  C   UNL A   1      39.073  29.314  29.786  1.00  0.00     0.023 A 
ATOM     41  C   UNL A   1      38.208  30.211  29.137  1.00  0.00     0.031 A 
ATOM     42  C   UNL A   1      38.623  28.692  30.965  1.00  0.00     0.131 A 
ATOM     43  C   UNL A   1      36.935  30.458  29.673  1.00  0.00     0.055 A 
ATOM     44  C   UNL A   1      37.345  28.924  31.481  1.00  0.00     0.041 A 
ATOM     45  F   UNL A   1      39.417  27.841  31.633  1.00  0.00    -0.206 F 
ATOM     46  C   UNL A   1      36.497  29.814  30.836  1.00  0.00     0.022 A 
BRANCH  43  47
ATOM     47  S   UNL A   1      35.808  31.662  28.918  1.00  0.00     0.124 S 
ATOM     48  O   UNL A   1      36.696  32.336  27.973  1.00  0.00    -0.237 OA
ATOM     49  O   UNL A   1      34.796  30.798  28.318  1.00  0.00    -0.237 OA
ATOM     50  O   UNL A   1      35.363  32.476  30.043  1.00  0.00    -0.744 OA
ENDBRANCH  43  47
ENDBRANCH  26  40
BRANCH  27  51
ATOM     51  C   UNL A   1      48.320  27.960  26.248  1.00  0.00     0.023 A 
ATOM     52  C   UNL A   1      48.496  28.067  24.852  1.00  0.00     0.031 A 
ATOM     53  C   UNL A   1      49.326  27.340  27.003  1.00  0.00     0.131 A 
ATOM     54  C   UNL A   1      49.593  27.443  24.244  1.00  0.00     0.055 A 
ATOM     55  C   UNL A   1      50.457  26.788  26.398  1.00  0.00     0.041 A 
ATOM     56  F   UNL A   1      49.186  27.200  28.330  1.00  0.00    -0.206 F 
ATOM     57  C   UNL A   1      50.579  26.811  25.010  1.00  0.00     0.022 A 
BRANCH  54  58
ATOM     58  S   UNL A   1      49.660  27.239  22.440  1.00  0.00     0.124 S 
ATOM     59  O   UNL A   1      51.044  26.828  22.231  1.00  0.00    -0.237 OA
ATOM     60  O   UNL A   1      48.653  26.204  22.217  1.00  0.00    -0.237 OA
ATOM     61  O   UNL A   1      49.310  28.561  21.928  1.00  0.00    -0.744 OA
ENDBRANCH  54  58
ENDBRANCH  27  51
BRANCH  39  62
ATOM     62  C   UNL A   1      44.989  33.315  29.459  1.00  0.00     0.023 A 
ATOM     63  C   UNL A   1      44.525  34.358  28.636  1.00  0.00     0.031 A 
ATOM     64  C   UNL A   1      45.943  33.614  30.446  1.00  0.00     0.131 A 
ATOM     65  C   UNL A   1      45.070  35.639  28.767  1.00  0.00     0.055 A 
ATOM     66  C   UNL A   1      46.440  34.906  30.612  1.00  0.00     0.041 A 
ATOM     67  F   UNL A   1      46.421  32.648  31.248  1.00  0.00    -0.206 F 
ATOM     68  C   UNL A   1      46.019  35.922  29.756  1.00  0.00     0.022 A 
BRANCH  65  69
ATOM     69  S   UNL A   1      44.662  36.949  27.581  1.00  0.00     0.124 S 
ATOM     70  O   UNL A   1      43.954  36.204  26.542  1.00  0.00    -0.237 OA
ATOM     71  O   UNL A   1      43.833  37.843  28.384  1.00  0.00    -0.237 OA
ATOM     72  O   UNL A   1      45.961  37.484  27.186  1.00  0.00    -0.744 OA
ENDBRANCH  65  69
ENDBRANCH  39  62
ENDBRANCH  13  14
ENDBRANCH   6   8
ENDBRANCH   5   6
ENDBRANCH   4   5
ENDBRANCH   3   4
ENDBRANCH   2   3
ENDBRANCH   1   2
BRANCH   1  73
ATOM     73  C   UNL A   1      37.395  23.635  25.879  1.00  0.00     0.188 C 
BRANCH  73  74
ATOM     74  O   UNL A   1      36.535  22.718  25.202  1.00  0.00    -0.376 OA
BRANCH  74  75
ATOM     75  C   UNL A   1      35.411  22.228  25.925  1.00  0.00     0.202 C 
BRANCH  75  76
ATOM     76  C   UNL A   1      34.637  23.200  26.828  1.00  0.00     0.261 C 
BRANCH  76  77
ATOM     77  O   UNL A   1      34.130  24.398  26.221  1.00  0.00    -0.460 OA
BRANCH  77  78
ATOM     78  C   UNL A   1      32.786  24.386  26.044  1.00  0.00     0.342 C 
ATOM     79  O   UNL A   1      31.947  23.878  26.783  1.00  0.00    -0.246 OA
BRANCH  78  80
ATOM     80  C   UNL A   1      32.417  25.030  24.779  1.00  0.00     0.102 A 
ATOM     81  C   UNL A   1      31.878  26.331  24.744  1.00  0.00     0.028 A 
ATOM     82  C   UNL A   1      32.471  24.249  23.624  1.00  0.00     0.130 A 
ATOM     83  C   UNL A   1      31.376  26.850  23.536  1.00  0.00    -0.017 A 
ATOM     84  C   UNL A   1      31.948  24.738  22.440  1.00  0.00     0.048 A 
ATOM     85  C   UNL A   1      31.425  26.032  22.393  1.00  0.00     0.012 A 
BRANCH  82  86
ATOM     86  O   UNL A   1      33.054  23.014  23.650  1.00  0.00    -0.507 OA
ATOM     87  H   UNL A   1      33.924  22.914  23.986  1.00  0.00     0.293 HD
ENDBRANCH  82  86
BRANCH  83  88
ATOM     88  C   UNL A   1      30.793  28.212  23.380  1.00  0.00    -0.011 A 
ATOM     89  C   UNL A   1      31.012  29.269  24.359  1.00  0.00     0.027 A 
ATOM     90  C   UNL A   1      29.946  28.468  22.368  1.00  0.00     0.080 A 
ATOM     91  C   UNL A   1      30.301  30.402  24.330  1.00  0.00     0.095 A 
ATOM     92  C   UNL A   1      29.165  29.742  22.299  1.00  0.00     0.255 A 
ATOM     93  N   UNL A   1      29.370  30.633  23.339  1.00  0.00    -0.258 N 
ATOM     94  O   UNL A   1      28.390  29.916  21.366  1.00  0.00    -0.269 OA
BRANCH  93  95
ATOM     95  C   UNL A   1      28.544  31.812  23.371  1.00  0.00     0.451 C 
ATOM     96  F   UNL A   1      28.813  32.637  22.328  1.00  0.00    -0.185 F 
ATOM     97  F   UNL A   1      27.228  31.492  23.323  1.00  0.00    -0.185 F 
ENDBRANCH  93  95
ENDBRANCH  83  88
ENDBRANCH  78  80
ENDBRANCH  77  78
ENDBRANCH  76  77
ENDBRANCH  75  76
ENDBRANCH  74  75
ENDBRANCH  73  74
ENDBRANCH   1  73
TORSDOF 23
ENDMDL
