MODEL 1
REMARK VINA RESULT:     -11.3      0.000      0.000
REMARK SMILES Cc1cc(C)c2c(c1)C=C(C(=O)OCCOCCOCCOC(=O)c1ccc(-c3c4nc(c(-c5cc(S(=O)(=O)[O-])ccc5F)c5ccc([nH]5)c(-c5cc(S(=O)(=O)[O-])ccc5F)c5nc(c(-c6cc(S(=O)(=O)[O-])ccc6F)c6ccc3[nH]6)C=C5)C=C4)cc1)[C@@H](C(F)(F)F)O2
REMARK SMILES IDX 18 1 17 2 16 3 15 4 14 5 13 6 11 7 12 8 10 9 1 10 2 11 3 12
REMARK SMILES IDX 8 13 4 14 7 15 5 16 6 17 9 18 93 19 88 20 89 21 90 22 91 23
REMARK SMILES IDX 92 24 19 25 20 26 21 27 22 28 23 29 24 30 25 31 26 32 87 33
REMARK SMILES IDX 27 34 86 35 28 36 29 37 30 38 80 39 31 40 85 41 79 42 81 43
REMARK SMILES IDX 32 44 84 45 78 46 77 47 33 49 65 50 45 51 64 52 46 53 49 54
REMARK SMILES IDX 63 55 82 56 47 57 48 58 62 60 83 61 50 62 34 63 35 64 43 65
REMARK SMILES IDX 36 66 42 67 44 68 41 69 37 70 38 71 39 72 40 73 66 74 67 75
REMARK SMILES IDX 75 76 68 77 74 78 76 79 73 80 69 81 70 82 71 83 72 84 51 85
REMARK SMILES IDX 52 86 60 87 53 88 59 89 61 90 58 91 54 92 55 93 56 94 57 95
REMARK H PARENT 81 48 49 59
REMARK Flexibility Score: inf
ROOT
ATOM      1  C   UNL A   1      30.425  29.083  23.636  1.00  0.00     0.188 C 
ENDROOT
BRANCH   1   2
ATOM      2  C   UNL A   1      29.775  27.881  22.915  1.00  0.00     0.188 C 
BRANCH   2   3
ATOM      3  O   UNL A   1      29.772  26.593  23.505  1.00  0.00    -0.376 OA
BRANCH   3   4
ATOM      4  C   UNL A   1      30.948  26.076  24.105  1.00  0.00     0.202 C 
BRANCH   4   5
ATOM      5  C   UNL A   1      31.612  24.819  23.545  1.00  0.00     0.261 C 
BRANCH   5   6
ATOM      6  O   UNL A   1      30.937  23.612  23.920  1.00  0.00    -0.460 OA
BRANCH   6   7
ATOM      7  C   UNL A   1      31.317  23.094  25.112  1.00  0.00     0.338 C 
ATOM      8  O   UNL A   1      30.771  23.270  26.190  1.00  0.00    -0.246 OA
BRANCH   7   9
ATOM      9  C   UNL A   1      32.457  22.182  24.917  1.00  0.00     0.087 C 
ATOM     10  C   UNL A   1      33.710  16.195  24.241  1.00  0.00     0.044 C 
ATOM     11  C   UNL A   1      34.021  17.654  24.412  1.00  0.00    -0.050 A 
ATOM     12  C   UNL A   1      35.337  18.099  24.583  1.00  0.00     0.010 A 
ATOM     13  C   UNL A   1      32.981  18.591  24.407  1.00  0.00     0.015 A 
ATOM     14  C   UNL A   1      35.622  19.463  24.752  1.00  0.00    -0.008 A 
ATOM     15  C   UNL A   1      33.249  19.952  24.588  1.00  0.00     0.018 A 
ATOM     16  C   UNL A   1      37.040  19.910  24.964  1.00  0.00     0.048 C 
ATOM     17  C   UNL A   1      34.568  20.390  24.736  1.00  0.00     0.130 A 
ATOM     18  C   UNL A   1      32.153  20.898  24.691  1.00  0.00     0.027 C 
ATOM     19  O   UNL A   1      34.906  21.709  24.881  1.00  0.00    -0.475 OA
ATOM     20  C   UNL A   1      33.860  22.709  24.996  1.00  0.00     0.316 C 
BRANCH  20  21
ATOM     21  C   UNL A   1      34.116  23.516  26.278  1.00  0.00     0.430 C 
ATOM     22  F   UNL A   1      35.444  23.623  26.535  1.00  0.00    -0.167 F 
ATOM     23  F   UNL A   1      33.646  24.783  26.180  1.00  0.00    -0.167 F 
ATOM     24  F   UNL A   1      33.539  22.955  27.364  1.00  0.00    -0.167 F 
ENDBRANCH  20  21
ENDBRANCH   7   9
ENDBRANCH   6   7
ENDBRANCH   5   6
ENDBRANCH   4   5
ENDBRANCH   3   4
ENDBRANCH   2   3
ENDBRANCH   1   2
BRANCH   1  25
ATOM     25  O   UNL A   1      31.830  29.208  23.736  1.00  0.00    -0.376 OA
BRANCH  25  26
ATOM     26  C   UNL A   1      32.430  29.584  24.966  1.00  0.00     0.202 C 
BRANCH  26  27
ATOM     27  C   UNL A   1      31.778  30.586  25.924  1.00  0.00     0.261 C 
BRANCH  27  28
ATOM     28  O   UNL A   1      32.405  30.700  27.205  1.00  0.00    -0.460 OA
BRANCH  28  29
ATOM     29  C   UNL A   1      33.176  31.805  27.362  1.00  0.00     0.338 C 
ATOM     30  O   UNL A   1      32.827  32.968  27.265  1.00  0.00    -0.246 OA
BRANCH  29  31
ATOM     31  C   UNL A   1      34.503  31.398  27.856  1.00  0.00     0.060 A 
ATOM     32  C   UNL A   1      34.702  30.053  28.192  1.00  0.00     0.016 A 
ATOM     33  C   UNL A   1      35.524  32.336  28.025  1.00  0.00     0.016 A 
ATOM     34  C   UNL A   1      35.924  29.643  28.719  1.00  0.00     0.010 A 
ATOM     35  C   UNL A   1      36.738  31.927  28.581  1.00  0.00     0.010 A 
ATOM     36  C   UNL A   1      36.932  30.585  28.953  1.00  0.00    -0.014 A 
BRANCH  36  37
ATOM     37  C   UNL A   1      38.110  30.205  29.767  1.00  0.00     0.031 A 
ATOM     38  C   UNL A   1      39.093  29.228  29.184  1.00  0.00     0.074 A 
ATOM     39  C   UNL A   1      38.324  30.742  30.982  1.00  0.00     0.049 A 
ATOM     40  N   UNL A   1      40.172  28.718  29.717  1.00  0.00    -0.248 NA
ATOM     41  C   UNL A   1      38.823  28.770  27.810  1.00  0.00     0.031 C 
ATOM     42  C   UNL A   1      37.478  31.748  31.622  1.00  0.00     0.029 A 
ATOM     43  N   UNL A   1      39.327  30.516  31.889  1.00  0.00    -0.354 N 
ATOM     44  C   UNL A   1      40.717  27.890  28.743  1.00  0.00     0.074 A 
ATOM     45  C   UNL A   1      39.832  27.939  27.600  1.00  0.00     0.031 C 
ATOM     46  C   UNL A   1      38.001  32.051  32.824  1.00  0.00     0.029 A 
ATOM     47  C   UNL A   1      39.194  31.238  33.051  1.00  0.00     0.049 A 
ATOM     48  H   UNL A   1      40.073  29.895  31.724  1.00  0.00     0.167 HD
ATOM     49  C   UNL A   1      41.857  27.162  28.795  1.00  0.00     0.034 A 
ATOM     50  C   UNL A   1      39.940  31.224  34.176  1.00  0.00     0.034 A 
ATOM     51  C   UNL A   1      42.720  27.099  29.944  1.00  0.00     0.049 A 
ATOM     52  C   UNL A   1      41.137  30.308  34.257  1.00  0.00     0.074 A 
ATOM     53  C   UNL A   1      43.890  26.378  30.103  1.00  0.00     0.029 A 
ATOM     54  N   UNL A   1      42.503  27.775  31.137  1.00  0.00    -0.354 N 
ATOM     55  N   UNL A   1      41.622  29.502  33.342  1.00  0.00    -0.248 NA
ATOM     56  C   UNL A   1      41.880  30.294  35.526  1.00  0.00     0.031 C 
ATOM     57  C   UNL A   1      44.348  26.570  31.410  1.00  0.00     0.029 A 
ATOM     58  C   UNL A   1      43.500  27.463  32.045  1.00  0.00     0.049 A 
ATOM     59  H   UNL A   1      41.749  28.384  31.310  1.00  0.00     0.167 HD
ATOM     60  C   UNL A   1      42.740  28.902  33.918  1.00  0.00     0.074 A 
ATOM     61  C   UNL A   1      42.858  29.440  35.257  1.00  0.00     0.031 C 
ATOM     62  C   UNL A   1      43.595  27.994  33.383  1.00  0.00     0.034 A 
BRANCH  49  63
ATOM     63  C   UNL A   1      42.209  26.344  27.581  1.00  0.00     0.023 A 
ATOM     64  C   UNL A   1      41.842  24.992  27.479  1.00  0.00     0.031 A 
ATOM     65  C   UNL A   1      42.918  26.925  26.517  1.00  0.00     0.131 A 
ATOM     66  C   UNL A   1      42.223  24.252  26.351  1.00  0.00     0.055 A 
ATOM     67  C   UNL A   1      43.241  26.199  25.370  1.00  0.00     0.041 A 
ATOM     68  F   UNL A   1      43.311  28.207  26.577  1.00  0.00    -0.206 F 
ATOM     69  C   UNL A   1      42.900  24.851  25.286  1.00  0.00     0.022 A 
BRANCH  66  70
ATOM     70  S   UNL A   1      41.893  22.469  26.328  1.00  0.00     0.124 S 
ATOM     71  O   UNL A   1      42.701  22.035  25.192  1.00  0.00    -0.237 OA
ATOM     72  O   UNL A   1      42.361  22.043  27.643  1.00  0.00    -0.237 OA
ATOM     73  O   UNL A   1      40.448  22.391  26.126  1.00  0.00    -0.744 OA
ENDBRANCH  66  70
ENDBRANCH  49  63
BRANCH  50  74
ATOM     74  C   UNL A   1      39.561  32.077  35.335  1.00  0.00     0.023 A 
ATOM     75  C   UNL A   1      38.761  31.573  36.372  1.00  0.00     0.031 A 
ATOM     76  C   UNL A   1      39.971  33.420  35.407  1.00  0.00     0.131 A 
ATOM     77  C   UNL A   1      38.375  32.413  37.428  1.00  0.00     0.055 A 
ATOM     78  C   UNL A   1      39.617  34.241  36.479  1.00  0.00     0.041 A 
ATOM     79  F   UNL A   1      40.736  33.948  34.440  1.00  0.00    -0.206 F 
ATOM     80  C   UNL A   1      38.808  33.740  37.495  1.00  0.00     0.022 A 
BRANCH  77  81
ATOM     81  S   UNL A   1      37.268  31.755  38.705  1.00  0.00     0.124 S 
ATOM     82  O   UNL A   1      38.062  31.948  39.913  1.00  0.00    -0.237 OA
ATOM     83  O   UNL A   1      36.095  32.610  38.563  1.00  0.00    -0.237 OA
ATOM     84  O   UNL A   1      37.074  30.364  38.302  1.00  0.00    -0.744 OA
ENDBRANCH  77  81
ENDBRANCH  50  74
BRANCH  62  85
ATOM     85  C   UNL A   1      44.752  27.539  34.234  1.00  0.00     0.023 A 
ATOM     86  C   UNL A   1      44.674  26.382  35.024  1.00  0.00     0.031 A 
ATOM     87  C   UNL A   1      45.969  28.246  34.205  1.00  0.00     0.131 A 
ATOM     88  C   UNL A   1      45.786  25.976  35.778  1.00  0.00     0.055 A 
ATOM     89  C   UNL A   1      47.086  27.813  34.920  1.00  0.00     0.041 A 
ATOM     90  F   UNL A   1      46.095  29.356  33.460  1.00  0.00    -0.206 F 
ATOM     91  C   UNL A   1      46.996  26.674  35.716  1.00  0.00     0.022 A 
BRANCH  88  92
ATOM     92  S   UNL A   1      45.627  24.534  36.864  1.00  0.00     0.124 S 
ATOM     93  O   UNL A   1      46.988  24.007  36.869  1.00  0.00    -0.237 OA
ATOM     94  O   UNL A   1      45.170  25.129  38.116  1.00  0.00    -0.237 OA
ATOM     95  O   UNL A   1      44.641  23.696  36.182  1.00  0.00    -0.744 OA
ENDBRANCH  88  92
ENDBRANCH  62  85
ENDBRANCH  36  37
ENDBRANCH  29  31
ENDBRANCH  28  29
ENDBRANCH  27  28
ENDBRANCH  26  27
ENDBRANCH  25  26
ENDBRANCH   1  25
TORSDOF 21
ENDMDL
MODEL 2
REMARK VINA RESULT:     -11.2      1.285      2.182
REMARK SMILES Cc1cc(C)c2c(c1)C=C(C(=O)OCCOCCOCCOC(=O)c1ccc(-c3c4nc(c(-c5cc(S(=O)(=O)[O-])ccc5F)c5ccc([nH]5)c(-c5cc(S(=O)(=O)[O-])ccc5F)c5nc(c(-c6cc(S(=O)(=O)[O-])ccc6F)c6ccc3[nH]6)C=C5)C=C4)cc1)[C@@H](C(F)(F)F)O2
REMARK SMILES IDX 18 1 17 2 16 3 15 4 14 5 13 6 11 7 12 8 10 9 1 10 2 11 3 12
REMARK SMILES IDX 8 13 4 14 7 15 5 16 6 17 9 18 93 19 88 20 89 21 90 22 91 23
REMARK SMILES IDX 92 24 19 25 20 26 21 27 22 28 23 29 24 30 25 31 26 32 87 33
REMARK SMILES IDX 27 34 86 35 28 36 29 37 30 38 80 39 31 40 85 41 79 42 81 43
REMARK SMILES IDX 32 44 84 45 78 46 77 47 33 49 65 50 45 51 64 52 46 53 49 54
REMARK SMILES IDX 63 55 82 56 47 57 48 58 62 60 83 61 50 62 34 63 35 64 43 65
REMARK SMILES IDX 36 66 42 67 44 68 41 69 37 70 38 71 39 72 40 73 66 74 67 75
REMARK SMILES IDX 75 76 68 77 74 78 76 79 73 80 69 81 70 82 71 83 72 84 51 85
REMARK SMILES IDX 52 86 60 87 53 88 59 89 61 90 58 91 54 92 55 93 56 94 57 95
REMARK H PARENT 81 48 49 59
REMARK Flexibility Score: inf
ROOT
ATOM      1  C   UNL A   1      30.598  28.695  23.398  1.00  0.00     0.188 C 
ENDROOT
BRANCH   1   2
ATOM      2  C   UNL A   1      30.065  27.260  23.196  1.00  0.00     0.188 C 
BRANCH   2   3
ATOM      3  O   UNL A   1      29.398  26.577  24.242  1.00  0.00    -0.376 OA
BRANCH   3   4
ATOM      4  C   UNL A   1      30.116  26.128  25.379  1.00  0.00     0.202 C 
BRANCH   4   5
ATOM      5  C   UNL A   1      31.563  25.656  25.242  1.00  0.00     0.261 C 
BRANCH   5   6
ATOM      6  O   UNL A   1      31.681  24.235  25.106  1.00  0.00    -0.460 OA
BRANCH   6   7
ATOM      7  C   UNL A   1      31.963  23.575  26.254  1.00  0.00     0.338 C 
ATOM      8  O   UNL A   1      31.216  23.415  27.206  1.00  0.00    -0.246 OA
BRANCH   7   9
ATOM      9  C   UNL A   1      33.303  22.970  26.161  1.00  0.00     0.087 C 
ATOM     10  C   UNL A   1      39.255  24.529  26.246  1.00  0.00     0.044 C 
ATOM     11  C   UNL A   1      38.076  23.612  26.091  1.00  0.00    -0.050 A 
ATOM     12  C   UNL A   1      38.240  22.285  25.676  1.00  0.00     0.010 A 
ATOM     13  C   UNL A   1      36.787  24.087  26.360  1.00  0.00     0.015 A 
ATOM     14  C   UNL A   1      37.134  21.435  25.524  1.00  0.00    -0.008 A 
ATOM     15  C   UNL A   1      35.675  23.254  26.201  1.00  0.00     0.018 A 
ATOM     16  C   UNL A   1      37.335  20.025  25.048  1.00  0.00     0.048 C 
ATOM     17  C   UNL A   1      35.849  21.924  25.806  1.00  0.00     0.130 A 
ATOM     18  C   UNL A   1      34.338  23.791  26.376  1.00  0.00     0.027 C 
ATOM     19  O   UNL A   1      34.810  21.045  25.665  1.00  0.00    -0.475 OA
ATOM     20  C   UNL A   1      33.445  21.514  25.821  1.00  0.00     0.316 C 
BRANCH  20  21
ATOM     21  C   UNL A   1      32.663  21.123  24.559  1.00  0.00     0.430 C 
ATOM     22  F   UNL A   1      33.076  19.925  24.075  1.00  0.00    -0.167 F 
ATOM     23  F   UNL A   1      31.336  20.994  24.806  1.00  0.00    -0.167 F 
ATOM     24  F   UNL A   1      32.801  22.030  23.566  1.00  0.00    -0.167 F 
ENDBRANCH  20  21
ENDBRANCH   7   9
ENDBRANCH   6   7
ENDBRANCH   5   6
ENDBRANCH   4   5
ENDBRANCH   3   4
ENDBRANCH   2   3
ENDBRANCH   1   2
BRANCH   1  25
ATOM     25  O   UNL A   1      31.974  28.946  23.607  1.00  0.00    -0.376 OA
BRANCH  25  26
ATOM     26  C   UNL A   1      32.451  29.300  24.895  1.00  0.00     0.202 C 
BRANCH  26  27
ATOM     27  C   UNL A   1      31.762  30.358  25.763  1.00  0.00     0.261 C 
BRANCH  27  28
ATOM     28  O   UNL A   1      32.332  30.544  27.062  1.00  0.00    -0.460 OA
BRANCH  28  29
ATOM     29  C   UNL A   1      33.058  31.682  27.204  1.00  0.00     0.338 C 
ATOM     30  O   UNL A   1      32.670  32.827  27.063  1.00  0.00    -0.246 OA
BRANCH  29  31
ATOM     31  C   UNL A   1      34.386  31.339  27.744  1.00  0.00     0.060 A 
ATOM     32  C   UNL A   1      34.649  29.999  28.055  1.00  0.00     0.016 A 
ATOM     33  C   UNL A   1      35.341  32.330  27.980  1.00  0.00     0.016 A 
ATOM     34  C   UNL A   1      35.871  29.646  28.623  1.00  0.00     0.010 A 
ATOM     35  C   UNL A   1      36.554  31.977  28.577  1.00  0.00     0.010 A 
ATOM     36  C   UNL A   1      36.811  30.639  28.924  1.00  0.00    -0.014 A 
BRANCH  36  37
ATOM     37  C   UNL A   1      37.975  30.305  29.778  1.00  0.00     0.031 A 
ATOM     38  C   UNL A   1      39.056  29.434  29.200  1.00  0.00     0.074 A 
ATOM     39  C   UNL A   1      38.090  30.794  31.025  1.00  0.00     0.049 A 
ATOM     40  N   UNL A   1      40.144  28.979  29.762  1.00  0.00    -0.248 NA
ATOM     41  C   UNL A   1      38.886  29.027  27.794  1.00  0.00     0.031 C 
ATOM     42  C   UNL A   1      37.141  31.701  31.669  1.00  0.00     0.029 A 
ATOM     43  N   UNL A   1      39.064  30.596  31.971  1.00  0.00    -0.354 N 
ATOM     44  C   UNL A   1      40.795  28.243  28.779  1.00  0.00     0.074 A 
ATOM     45  C   UNL A   1      39.964  28.285  27.596  1.00  0.00     0.031 C 
ATOM     46  C   UNL A   1      37.582  31.981  32.909  1.00  0.00     0.029 A 
ATOM     47  C   UNL A   1      38.822  31.247  33.157  1.00  0.00     0.049 A 
ATOM     48  H   UNL A   1      39.861  30.041  31.815  1.00  0.00     0.167 HD
ATOM     49  C   UNL A   1      41.984  27.599  28.854  1.00  0.00     0.034 A 
ATOM     50  C   UNL A   1      39.513  31.231  34.317  1.00  0.00     0.034 A 
ATOM     51  C   UNL A   1      42.794  27.541  30.042  1.00  0.00     0.049 A 
ATOM     52  C   UNL A   1      40.771  30.402  34.415  1.00  0.00     0.074 A 
ATOM     53  C   UNL A   1      44.007  26.901  30.226  1.00  0.00     0.029 A 
ATOM     54  N   UNL A   1      42.470  28.138  31.252  1.00  0.00    -0.354 N 
ATOM     55  N   UNL A   1      41.359  29.682  33.489  1.00  0.00    -0.248 NA
ATOM     56  C   UNL A   1      41.452  30.379  35.718  1.00  0.00     0.031 C 
ATOM     57  C   UNL A   1      44.387  27.060  31.562  1.00  0.00     0.029 A 
ATOM     58  C   UNL A   1      43.444  27.855  32.195  1.00  0.00     0.049 A 
ATOM     59  H   UNL A   1      41.665  28.681  31.416  1.00  0.00     0.167 HD
ATOM     60  C   UNL A   1      42.490  29.137  34.092  1.00  0.00     0.074 A 
ATOM     61  C   UNL A   1      42.504  29.614  35.459  1.00  0.00     0.031 C 
ATOM     62  C   UNL A   1      43.436  28.323  33.559  1.00  0.00     0.034 A 
BRANCH  49  63
ATOM     63  C   UNL A   1      42.453  26.872  27.623  1.00  0.00     0.023 A 
ATOM     64  C   UNL A   1      42.419  25.470  27.543  1.00  0.00     0.031 A 
ATOM     65  C   UNL A   1      42.940  27.590  26.518  1.00  0.00     0.131 A 
ATOM     66  C   UNL A   1      42.903  24.827  26.396  1.00  0.00     0.055 A 
ATOM     67  C   UNL A   1      43.363  26.947  25.355  1.00  0.00     0.041 A 
ATOM     68  F   UNL A   1      43.014  28.930  26.554  1.00  0.00    -0.206 F 
ATOM     69  C   UNL A   1      43.354  25.555  25.292  1.00  0.00     0.022 A 
BRANCH  66  70
ATOM     70  S   UNL A   1      43.013  23.017  26.394  1.00  0.00     0.124 S 
ATOM     71  O   UNL A   1      41.787  22.647  27.097  1.00  0.00    -0.237 OA
ATOM     72  O   UNL A   1      43.051  22.702  24.970  1.00  0.00    -0.237 OA
ATOM     73  O   UNL A   1      44.250  22.749  27.125  1.00  0.00    -0.744 OA
ENDBRANCH  66  70
ENDBRANCH  49  63
BRANCH  50  74
ATOM     74  C   UNL A   1      39.016  31.994  35.494  1.00  0.00     0.023 A 
ATOM     75  C   UNL A   1      38.386  31.340  36.564  1.00  0.00     0.031 A 
ATOM     76  C   UNL A   1      39.138  33.393  35.551  1.00  0.00     0.131 A 
ATOM     77  C   UNL A   1      37.881  32.089  37.639  1.00  0.00     0.055 A 
ATOM     78  C   UNL A   1      38.669  34.129  36.639  1.00  0.00     0.041 A 
ATOM     79  F   UNL A   1      39.731  34.063  34.551  1.00  0.00    -0.206 F 
ATOM     80  C   UNL A   1      38.029  33.477  37.690  1.00  0.00     0.022 A 
BRANCH  77  81
ATOM     81  S   UNL A   1      36.995  31.223  38.963  1.00  0.00     0.124 S 
ATOM     82  O   UNL A   1      36.842  29.889  38.394  1.00  0.00    -0.237 OA
ATOM     83  O   UNL A   1      37.924  31.341  40.082  1.00  0.00    -0.237 OA
ATOM     84  O   UNL A   1      35.757  31.988  39.101  1.00  0.00    -0.744 OA
ENDBRANCH  77  81
ENDBRANCH  50  74
BRANCH  62  85
ATOM     85  C   UNL A   1      44.583  27.912  34.445  1.00  0.00     0.023 A 
ATOM     86  C   UNL A   1      44.561  26.708  35.166  1.00  0.00     0.031 A 
ATOM     87  C   UNL A   1      45.737  28.713  34.520  1.00  0.00     0.131 A 
ATOM     88  C   UNL A   1      45.664  26.347  35.955  1.00  0.00     0.055 A 
ATOM     89  C   UNL A   1      46.849  28.328  35.270  1.00  0.00     0.041 A 
ATOM     90  F   UNL A   1      45.809  29.871  33.845  1.00  0.00    -0.206 F 
ATOM     91  C   UNL A   1      46.814  27.141  35.997  1.00  0.00     0.022 A 
BRANCH  88  92
ATOM     92  S   UNL A   1      45.570  24.836  36.951  1.00  0.00     0.124 S 
ATOM     93  O   UNL A   1      46.864  24.837  37.626  1.00  0.00    -0.237 OA
ATOM     94  O   UNL A   1      44.409  25.087  37.800  1.00  0.00    -0.237 OA
ATOM     95  O   UNL A   1      45.391  23.779  35.957  1.00  0.00    -0.744 OA
ENDBRANCH  88  92
ENDBRANCH  62  85
ENDBRANCH  36  37
ENDBRANCH  29  31
ENDBRANCH  28  29
ENDBRANCH  27  28
ENDBRANCH  26  27
ENDBRANCH  25  26
ENDBRANCH   1  25
TORSDOF 21
ENDMDL
MODEL 3
REMARK VINA RESULT:     -11.1      2.238      7.834
REMARK SMILES Cc1cc(C)c2c(c1)C=C(C(=O)OCCOCCOCCOC(=O)c1ccc(-c3c4nc(c(-c5cc(S(=O)(=O)[O-])ccc5F)c5ccc([nH]5)c(-c5cc(S(=O)(=O)[O-])ccc5F)c5nc(c(-c6cc(S(=O)(=O)[O-])ccc6F)c6ccc3[nH]6)C=C5)C=C4)cc1)[C@@H](C(F)(F)F)O2
REMARK SMILES IDX 18 1 17 2 16 3 15 4 14 5 13 6 11 7 12 8 10 9 1 10 2 11 3 12
REMARK SMILES IDX 8 13 4 14 7 15 5 16 6 17 9 18 93 19 88 20 89 21 90 22 91 23
REMARK SMILES IDX 92 24 19 25 20 26 21 27 22 28 23 29 24 30 25 31 26 32 87 33
REMARK SMILES IDX 27 34 86 35 28 36 29 37 30 38 80 39 31 40 85 41 79 42 81 43
REMARK SMILES IDX 32 44 84 45 78 46 77 47 33 49 65 50 45 51 64 52 46 53 49 54
REMARK SMILES IDX 63 55 82 56 47 57 48 58 62 60 83 61 50 62 34 63 35 64 43 65
REMARK SMILES IDX 36 66 42 67 44 68 41 69 37 70 38 71 39 72 40 73 66 74 67 75
REMARK SMILES IDX 75 76 68 77 74 78 76 79 73 80 69 81 70 82 71 83 72 84 51 85
REMARK SMILES IDX 52 86 60 87 53 88 59 89 61 90 58 91 54 92 55 93 56 94 57 95
REMARK H PARENT 81 48 49 59
REMARK Flexibility Score: inf
ROOT
ATOM      1  C   UNL A   1      31.438  30.144  25.112  1.00  0.00     0.188 C 
ENDROOT
BRANCH   1   2
ATOM      2  C   UNL A   1      32.571  29.378  25.831  1.00  0.00     0.188 C 
BRANCH   2   3
ATOM      3  O   UNL A   1      33.269  28.332  25.181  1.00  0.00    -0.376 OA
BRANCH   3   4
ATOM      4  C   UNL A   1      33.840  28.537  23.900  1.00  0.00     0.202 C 
BRANCH   4   5
ATOM      5  C   UNL A   1      33.068  28.153  22.639  1.00  0.00     0.261 C 
BRANCH   5   6
ATOM      6  O   UNL A   1      32.065  27.157  22.874  1.00  0.00    -0.460 OA
BRANCH   6   7
ATOM      7  C   UNL A   1      32.368  25.923  22.405  1.00  0.00     0.338 C 
ATOM      8  O   UNL A   1      32.286  25.543  21.248  1.00  0.00    -0.246 OA
BRANCH   7   9
ATOM      9  C   UNL A   1      32.922  25.100  23.495  1.00  0.00     0.087 C 
ATOM     10  C   UNL A   1      37.470  21.111  24.619  1.00  0.00     0.044 C 
ATOM     11  C   UNL A   1      36.227  21.899  24.917  1.00  0.00    -0.050 A 
ATOM     12  C   UNL A   1      35.514  21.704  26.106  1.00  0.00     0.010 A 
ATOM     13  C   UNL A   1      35.765  22.844  23.994  1.00  0.00     0.015 A 
ATOM     14  C   UNL A   1      34.348  22.436  26.377  1.00  0.00    -0.008 A 
ATOM     15  C   UNL A   1      34.597  23.571  24.245  1.00  0.00     0.018 A 
ATOM     16  C   UNL A   1      33.585  22.185  27.645  1.00  0.00     0.048 C 
ATOM     17  C   UNL A   1      33.902  23.386  25.443  1.00  0.00     0.130 A 
ATOM     18  C   UNL A   1      34.070  24.466  23.230  1.00  0.00     0.027 C 
ATOM     19  O   UNL A   1      32.774  24.088  25.770  1.00  0.00    -0.475 OA
ATOM     20  C   UNL A   1      32.189  24.997  24.801  1.00  0.00     0.316 C 
BRANCH  20  21
ATOM     21  C   UNL A   1      30.713  24.611  24.622  1.00  0.00     0.430 C 
ATOM     22  F   UNL A   1      30.560  23.701  23.628  1.00  0.00    -0.167 F 
ATOM     23  F   UNL A   1      30.200  24.042  25.739  1.00  0.00    -0.167 F 
ATOM     24  F   UNL A   1      29.936  25.675  24.318  1.00  0.00    -0.167 F 
ENDBRANCH  20  21
ENDBRANCH   7   9
ENDBRANCH   6   7
ENDBRANCH   5   6
ENDBRANCH   4   5
ENDBRANCH   3   4
ENDBRANCH   2   3
ENDBRANCH   1   2
BRANCH   1  25
ATOM     25  O   UNL A   1      30.933  31.361  25.624  1.00  0.00    -0.376 OA
BRANCH  25  26
ATOM     26  C   UNL A   1      31.436  31.891  26.840  1.00  0.00     0.202 C 
BRANCH  26  27
ATOM     27  C   UNL A   1      32.360  33.113  26.883  1.00  0.00     0.261 C 
BRANCH  27  28
ATOM     28  O   UNL A   1      32.387  33.813  28.130  1.00  0.00    -0.460 OA
BRANCH  28  29
ATOM     29  C   UNL A   1      33.498  34.564  28.335  1.00  0.00     0.338 C 
ATOM     30  O   UNL A   1      33.569  35.779  28.380  1.00  0.00    -0.246 OA
BRANCH  29  31
ATOM     31  C   UNL A   1      34.620  33.675  28.685  1.00  0.00     0.060 A 
ATOM     32  C   UNL A   1      34.344  32.518  29.425  1.00  0.00     0.016 A 
ATOM     33  C   UNL A   1      35.930  33.999  28.325  1.00  0.00     0.016 A 
ATOM     34  C   UNL A   1      35.386  31.686  29.825  1.00  0.00     0.010 A 
ATOM     35  C   UNL A   1      36.976  33.178  28.752  1.00  0.00     0.010 A 
ATOM     36  C   UNL A   1      36.710  32.034  29.526  1.00  0.00    -0.014 A 
BRANCH  36  37
ATOM     37  C   UNL A   1      37.820  31.311  30.187  1.00  0.00     0.031 A 
ATOM     38  C   UNL A   1      38.151  31.662  31.612  1.00  0.00     0.074 A 
ATOM     39  C   UNL A   1      38.497  30.337  29.552  1.00  0.00     0.049 A 
ATOM     40  N   UNL A   1      39.097  31.197  32.383  1.00  0.00    -0.248 NA
ATOM     41  C   UNL A   1      37.291  32.672  32.252  1.00  0.00     0.031 C 
ATOM     42  C   UNL A   1      38.224  29.864  28.196  1.00  0.00     0.029 A 
ATOM     43  N   UNL A   1      39.553  29.570  29.973  1.00  0.00    -0.354 N 
ATOM     44  C   UNL A   1      38.941  31.845  33.602  1.00  0.00     0.074 A 
ATOM     45  C   UNL A   1      37.831  32.761  33.457  1.00  0.00     0.031 C 
ATOM     46  C   UNL A   1      39.095  28.883  27.897  1.00  0.00     0.029 A 
ATOM     47  C   UNL A   1      40.006  28.685  29.023  1.00  0.00     0.049 A 
ATOM     48  H   UNL A   1      39.949  29.644  30.871  1.00  0.00     0.167 HD
ATOM     49  C   UNL A   1      39.654  31.684  34.742  1.00  0.00     0.034 A 
ATOM     50  C   UNL A   1      41.051  27.832  29.055  1.00  0.00     0.034 A 
ATOM     51  C   UNL A   1      40.772  30.788  34.872  1.00  0.00     0.049 A 
ATOM     52  C   UNL A   1      41.910  27.762  30.295  1.00  0.00     0.074 A 
ATOM     53  C   UNL A   1      41.571  30.564  35.979  1.00  0.00     0.029 A 
ATOM     54  N   UNL A   1      41.258  29.975  33.858  1.00  0.00    -0.354 N 
ATOM     55  N   UNL A   1      41.774  28.407  31.430  1.00  0.00    -0.248 NA
ATOM     56  C   UNL A   1      43.066  26.855  30.253  1.00  0.00     0.031 C 
ATOM     57  C   UNL A   1      42.575  29.661  35.618  1.00  0.00     0.029 A 
ATOM     58  C   UNL A   1      42.364  29.271  34.305  1.00  0.00     0.049 A 
ATOM     59  H   UNL A   1      40.874  29.910  32.954  1.00  0.00     0.167 HD
ATOM     60  C   UNL A   1      42.815  27.966  32.244  1.00  0.00     0.074 A 
ATOM     61  C   UNL A   1      43.569  27.000  31.472  1.00  0.00     0.031 C 
ATOM     62  C   UNL A   1      43.115  28.325  33.518  1.00  0.00     0.034 A 
BRANCH  49  63
ATOM     63  C   UNL A   1      39.263  32.529  35.924  1.00  0.00     0.023 A 
ATOM     64  C   UNL A   1      39.702  33.858  36.051  1.00  0.00     0.031 A 
ATOM     65  C   UNL A   1      38.444  31.999  36.935  1.00  0.00     0.131 A 
ATOM     66  C   UNL A   1      39.351  34.601  37.187  1.00  0.00     0.055 A 
ATOM     67  C   UNL A   1      38.048  32.763  38.032  1.00  0.00     0.041 A 
ATOM     68  F   UNL A   1      38.018  30.728  36.871  1.00  0.00    -0.206 F 
ATOM     69  C   UNL A   1      38.509  34.071  38.167  1.00  0.00     0.022 A 
BRANCH  66  70
ATOM     70  S   UNL A   1      40.079  36.247  37.408  1.00  0.00     0.124 S 
ATOM     71  O   UNL A   1      39.933  36.815  36.071  1.00  0.00    -0.237 OA
ATOM     72  O   UNL A   1      39.235  36.830  38.445  1.00  0.00    -0.237 OA
ATOM     73  O   UNL A   1      41.454  35.961  37.812  1.00  0.00    -0.744 OA
ENDBRANCH  66  70
ENDBRANCH  49  63
BRANCH  50  74
ATOM     74  C   UNL A   1      41.373  26.998  27.865  1.00  0.00     0.023 A 
ATOM     75  C   UNL A   1      41.078  25.626  27.843  1.00  0.00     0.031 A 
ATOM     76  C   UNL A   1      42.008  27.558  26.743  1.00  0.00     0.131 A 
ATOM     77  C   UNL A   1      41.439  24.853  26.728  1.00  0.00     0.055 A 
ATOM     78  C   UNL A   1      42.330  26.793  25.621  1.00  0.00     0.041 A 
ATOM     79  F   UNL A   1      42.312  28.865  26.717  1.00  0.00    -0.206 F 
ATOM     80  C   UNL A   1      42.052  25.429  25.612  1.00  0.00     0.022 A 
BRANCH  77  81
ATOM     81  S   UNL A   1      41.124  23.068  26.768  1.00  0.00     0.124 S 
ATOM     82  O   UNL A   1      41.862  22.611  25.596  1.00  0.00    -0.237 OA
ATOM     83  O   UNL A   1      41.676  22.689  28.064  1.00  0.00    -0.237 OA
ATOM     84  O   UNL A   1      39.669  22.977  26.663  1.00  0.00    -0.744 OA
ENDBRANCH  77  81
ENDBRANCH  50  74
BRANCH  62  85
ATOM     85  C   UNL A   1      44.294  27.652  34.173  1.00  0.00     0.023 A 
ATOM     86  C   UNL A   1      44.155  26.445  34.875  1.00  0.00     0.031 A 
ATOM     87  C   UNL A   1      45.582  28.202  34.040  1.00  0.00     0.131 A 
ATOM     88  C   UNL A   1      45.284  25.835  35.443  1.00  0.00     0.055 A 
ATOM     89  C   UNL A   1      46.707  27.569  34.568  1.00  0.00     0.041 A 
ATOM     90  F   UNL A   1      45.767  29.353  33.373  1.00  0.00    -0.206 F 
ATOM     91  C   UNL A   1      46.560  26.380  35.279  1.00  0.00     0.022 A 
BRANCH  88  92
ATOM     92  S   UNL A   1      45.062  24.329  36.427  1.00  0.00     0.124 S 
ATOM     93  O   UNL A   1      46.430  23.830  36.528  1.00  0.00    -0.237 OA
ATOM     94  O   UNL A   1      44.478  24.840  37.663  1.00  0.00    -0.237 OA
ATOM     95  O   UNL A   1      44.164  23.514  35.611  1.00  0.00    -0.744 OA
ENDBRANCH  88  92
ENDBRANCH  62  85
ENDBRANCH  36  37
ENDBRANCH  29  31
ENDBRANCH  28  29
ENDBRANCH  27  28
ENDBRANCH  26  27
ENDBRANCH  25  26
ENDBRANCH   1  25
TORSDOF 21
ENDMDL
