MODEL 1
REMARK VINA RESULT:      -9.1      0.000      0.000
REMARK SMILES CCOC(=O)NC(=O)COc1csc(C(=O)OCCOCCOCCOC(=O)c2ccc(-c3c4nc(c(-c5cc(S(=O)(=O)[O-])ccc5F)c5ccc([nH]5)c(-c5cc(S(=O)(=O)[O-])ccc5F)c5nc(c(-c6cc(S(=O)(=O)[O-])ccc6F)c6ccc3[nH]6)C=C5)C=C4)cc2)c1
REMARK SMILES IDX 21 1 20 2 19 3 18 4 17 5 15 6 16 7 14 8 11 9 12 10 92 11
REMARK SMILES IDX 13 12 10 13 9 14 7 15 4 16 5 17 6 18 8 20 3 21 2 22 1 23
REMARK SMILES IDX 22 24 23 25 24 26 25 27 26 28 27 29 28 30 29 31 30 32 91 33
REMARK SMILES IDX 31 34 90 35 32 36 33 37 34 38 84 39 35 40 89 41 83 42 85 43
REMARK SMILES IDX 36 44 88 45 82 46 81 47 37 49 69 50 49 51 68 52 50 53 53 54
REMARK SMILES IDX 67 55 86 56 51 57 52 58 66 60 87 61 54 62 38 63 39 64 47 65
REMARK SMILES IDX 40 66 46 67 48 68 45 69 41 70 42 71 43 72 44 73 70 74 71 75
REMARK SMILES IDX 79 76 72 77 78 78 80 79 77 80 73 81 74 82 75 83 76 84 55 85
REMARK SMILES IDX 56 86 64 87 57 88 63 89 65 90 62 91 58 92 59 93 60 94 61 95
REMARK H PARENT 6 19 85 48 53 59
REMARK Flexibility Score: inf
ROOT
ATOM      1  C   UNL A   1      41.068  21.467  26.220  1.00  0.00     0.188 C 
ENDROOT
BRANCH   1   2
ATOM      2  O   UNL A   1      39.684  21.165  26.065  1.00  0.00    -0.376 OA
BRANCH   2   3
ATOM      3  C   UNL A   1      38.725  22.214  26.062  1.00  0.00     0.202 C 
BRANCH   3   4
ATOM      4  C   UNL A   1      37.299  21.900  25.594  1.00  0.00     0.261 C 
BRANCH   4   5
ATOM      5  O   UNL A   1      36.442  23.049  25.510  1.00  0.00    -0.459 OA
BRANCH   5   6
ATOM      6  C   UNL A   1      35.122  22.786  25.260  1.00  0.00     0.348 C 
ATOM      7  O   UNL A   1      34.576  21.713  25.481  1.00  0.00    -0.245 OA
BRANCH   6   8
ATOM      8  C   UNL A   1      34.461  23.989  24.798  1.00  0.00     0.116 A 
ATOM      9  C   UNL A   1      33.595  26.153  24.596  1.00  0.00     0.131 A 
ATOM     10  C   UNL A   1      33.016  25.527  23.517  1.00  0.00     0.112 A 
ATOM     11  C   UNL A   1      34.398  25.250  25.360  1.00  0.00     0.074 A 
ATOM     12  S   UNL A   1      33.550  23.909  23.350  1.00  0.00    -0.133 S 
BRANCH   9  13
ATOM     13  O   UNL A   1      33.514  27.463  24.936  1.00  0.00    -0.483 OA
BRANCH  13  14
ATOM     14  C   UNL A   1      32.332  28.163  24.606  1.00  0.00     0.329 C 
BRANCH  14  15
ATOM     15  C   UNL A   1      32.037  29.600  25.063  1.00  0.00     0.267 C 
ATOM     16  C   UNL A   1      29.928  30.036  23.721  1.00  0.00     0.413 C 
ATOM     17  O   UNL A   1      29.045  30.859  23.511  1.00  0.00    -0.224 OA
ATOM     18  N   UNL A   1      30.929  30.287  24.629  1.00  0.00    -0.258 N 
ATOM     19  H   UNL A   1      30.829  31.161  25.070  1.00  0.00     0.176 HD
ATOM     20  O   UNL A   1      32.825  30.188  25.810  1.00  0.00    -0.271 OA
BRANCH  16  21
ATOM     21  O   UNL A   1      30.030  28.843  23.097  1.00  0.00    -0.450 OA
BRANCH  21  22
ATOM     22  C   UNL A   1      28.865  28.005  23.143  1.00  0.00     0.231 C 
ATOM     23  C   UNL A   1      29.193  26.646  23.737  1.00  0.00     0.049 C 
ENDBRANCH  21  22
ENDBRANCH  16  21
ENDBRANCH  14  15
ENDBRANCH  13  14
ENDBRANCH   9  13
ENDBRANCH   6   8
ENDBRANCH   5   6
ENDBRANCH   4   5
ENDBRANCH   3   4
ENDBRANCH   2   3
ENDBRANCH   1   2
BRANCH   1  24
ATOM     24  C   UNL A   1      41.795  21.103  27.530  1.00  0.00     0.188 C 
BRANCH  24  25
ATOM     25  O   UNL A   1      42.619  19.954  27.433  1.00  0.00    -0.376 OA
BRANCH  25  26
ATOM     26  C   UNL A   1      42.222  18.973  26.487  1.00  0.00     0.202 C 
BRANCH  26  27
ATOM     27  C   UNL A   1      43.317  18.430  25.557  1.00  0.00     0.261 C 
BRANCH  27  28
ATOM     28  O   UNL A   1      43.671  19.263  24.441  1.00  0.00    -0.460 OA
BRANCH  28  29
ATOM     29  C   UNL A   1      44.926  19.769  24.421  1.00  0.00     0.338 C 
ATOM     30  O   UNL A   1      45.916  19.235  23.955  1.00  0.00    -0.246 OA
BRANCH  29  31
ATOM     31  C   UNL A   1      44.857  21.162  24.915  1.00  0.00     0.060 A 
ATOM     32  C   UNL A   1      44.400  22.170  24.057  1.00  0.00     0.016 A 
ATOM     33  C   UNL A   1      45.236  21.469  26.225  1.00  0.00     0.016 A 
ATOM     34  C   UNL A   1      44.341  23.494  24.505  1.00  0.00     0.010 A 
ATOM     35  C   UNL A   1      45.190  22.796  26.665  1.00  0.00     0.010 A 
ATOM     36  C   UNL A   1      44.764  23.822  25.802  1.00  0.00    -0.014 A 
BRANCH  36  37
ATOM     37  C   UNL A   1      44.915  25.245  26.204  1.00  0.00     0.031 A 
ATOM     38  C   UNL A   1      46.281  25.873  26.131  1.00  0.00     0.074 A 
ATOM     39  C   UNL A   1      43.861  25.973  26.617  1.00  0.00     0.049 A 
ATOM     40  N   UNL A   1      46.666  27.075  26.476  1.00  0.00    -0.248 NA
ATOM     41  C   UNL A   1      47.357  25.023  25.600  1.00  0.00     0.031 C 
ATOM     42  C   UNL A   1      42.481  25.496  26.693  1.00  0.00     0.029 A 
ATOM     43  N   UNL A   1      43.792  27.272  27.060  1.00  0.00    -0.354 N 
ATOM     44  C   UNL A   1      48.029  27.130  26.199  1.00  0.00     0.074 A 
ATOM     45  C   UNL A   1      48.407  25.824  25.700  1.00  0.00     0.031 C 
ATOM     46  C   UNL A   1      41.703  26.487  27.164  1.00  0.00     0.029 A 
ATOM     47  C   UNL A   1      42.531  27.655  27.457  1.00  0.00     0.049 A 
ATOM     48  H   UNL A   1      44.571  27.873  27.090  1.00  0.00     0.167 HD
ATOM     49  C   UNL A   1      48.884  28.173  26.338  1.00  0.00     0.034 A 
ATOM     50  C   UNL A   1      42.102  28.806  28.016  1.00  0.00     0.034 A 
ATOM     51  C   UNL A   1      48.501  29.463  26.861  1.00  0.00     0.049 A 
ATOM     52  C   UNL A   1      43.093  29.921  28.260  1.00  0.00     0.074 A 
ATOM     53  C   UNL A   1      49.287  30.588  27.042  1.00  0.00     0.029 A 
ATOM     54  N   UNL A   1      47.227  29.796  27.303  1.00  0.00    -0.354 N 
ATOM     55  N   UNL A   1      44.378  29.964  27.989  1.00  0.00    -0.248 NA
ATOM     56  C   UNL A   1      42.573  31.148  28.882  1.00  0.00     0.031 C 
ATOM     57  C   UNL A   1      48.508  31.574  27.658  1.00  0.00     0.029 A 
ATOM     58  C   UNL A   1      47.214  31.096  27.787  1.00  0.00     0.049 A 
ATOM     59  H   UNL A   1      46.446  29.197  27.276  1.00  0.00     0.167 HD
ATOM     60  C   UNL A   1      44.808  31.232  28.377  1.00  0.00     0.074 A 
ATOM     61  C   UNL A   1      43.645  31.925  28.889  1.00  0.00     0.031 C 
ATOM     62  C   UNL A   1      46.051  31.776  28.307  1.00  0.00     0.034 A 
BRANCH  49  63
ATOM     63  C   UNL A   1      50.328  27.934  25.967  1.00  0.00     0.023 A 
ATOM     64  C   UNL A   1      50.762  27.966  24.630  1.00  0.00     0.031 A 
ATOM     65  C   UNL A   1      51.276  27.636  26.960  1.00  0.00     0.131 A 
ATOM     66  C   UNL A   1      52.089  27.632  24.316  1.00  0.00     0.055 A 
ATOM     67  C   UNL A   1      52.614  27.383  26.649  1.00  0.00     0.041 A 
ATOM     68  F   UNL A   1      50.916  27.568  28.251  1.00  0.00    -0.206 F 
ATOM     69  C   UNL A   1      53.023  27.365  25.318  1.00  0.00     0.022 A 
BRANCH  66  70
ATOM     70  S   UNL A   1      52.538  27.408  22.573  1.00  0.00     0.124 S 
ATOM     71  O   UNL A   1      51.254  27.042  21.981  1.00  0.00    -0.237 OA
ATOM     72  O   UNL A   1      53.059  28.721  22.210  1.00  0.00    -0.237 OA
ATOM     73  O   UNL A   1      53.528  26.332  22.610  1.00  0.00    -0.744 OA
ENDBRANCH  66  70
ENDBRANCH  49  63
BRANCH  50  74
ATOM     74  C   UNL A   1      40.676  28.965  28.429  1.00  0.00     0.023 A 
ATOM     75  C   UNL A   1      40.287  28.828  29.772  1.00  0.00     0.031 A 
ATOM     76  C   UNL A   1      39.669  29.187  27.473  1.00  0.00     0.131 A 
ATOM     77  C   UNL A   1      38.927  28.869  30.115  1.00  0.00     0.055 A 
ATOM     78  C   UNL A   1      38.322  29.281  27.826  1.00  0.00     0.041 A 
ATOM     79  F   UNL A   1      39.984  29.318  26.174  1.00  0.00    -0.206 F 
ATOM     80  C   UNL A   1      37.942  29.109  29.153  1.00  0.00     0.022 A 
BRANCH  77  81
ATOM     81  S   UNL A   1      38.450  28.512  31.829  1.00  0.00     0.124 S 
ATOM     82  O   UNL A   1      37.058  28.946  31.846  1.00  0.00    -0.237 OA
ATOM     83  O   UNL A   1      38.675  27.073  31.914  1.00  0.00    -0.237 OA
ATOM     84  O   UNL A   1      39.369  29.332  32.616  1.00  0.00    -0.744 OA
ENDBRANCH  77  81
ENDBRANCH  50  74
BRANCH  62  85
ATOM     85  C   UNL A   1      46.201  33.213  28.752  1.00  0.00     0.023 A 
ATOM     86  C   UNL A   1      45.774  34.288  27.953  1.00  0.00     0.031 A 
ATOM     87  C   UNL A   1      46.788  33.507  29.996  1.00  0.00     0.131 A 
ATOM     88  C   UNL A   1      45.991  35.608  28.382  1.00  0.00     0.055 A 
ATOM     89  C   UNL A   1      46.945  34.820  30.445  1.00  0.00     0.041 A 
ATOM     90  F   UNL A   1      47.214  32.521  30.801  1.00  0.00    -0.206 F 
ATOM     91  C   UNL A   1      46.558  35.879  29.630  1.00  0.00     0.022 A 
BRANCH  88  92
ATOM     92  S   UNL A   1      45.604  36.970  27.248  1.00  0.00     0.124 S 
ATOM     93  O   UNL A   1      44.315  36.556  26.705  1.00  0.00    -0.237 OA
ATOM     94  O   UNL A   1      45.579  38.124  28.143  1.00  0.00    -0.237 OA
ATOM     95  O   UNL A   1      46.713  36.950  26.296  1.00  0.00    -0.744 OA
ENDBRANCH  88  92
ENDBRANCH  62  85
ENDBRANCH  36  37
ENDBRANCH  29  31
ENDBRANCH  28  29
ENDBRANCH  27  28
ENDBRANCH  26  27
ENDBRANCH  25  26
ENDBRANCH  24  25
ENDBRANCH   1  24
TORSDOF 25
ENDMDL
MODEL 2
REMARK VINA RESULT:      -9.0      1.326      2.024
REMARK SMILES CCOC(=O)NC(=O)COc1csc(C(=O)OCCOCCOCCOC(=O)c2ccc(-c3c4nc(c(-c5cc(S(=O)(=O)[O-])ccc5F)c5ccc([nH]5)c(-c5cc(S(=O)(=O)[O-])ccc5F)c5nc(c(-c6cc(S(=O)(=O)[O-])ccc6F)c6ccc3[nH]6)C=C5)C=C4)cc2)c1
REMARK SMILES IDX 21 1 20 2 19 3 18 4 17 5 15 6 16 7 14 8 11 9 12 10 92 11
REMARK SMILES IDX 13 12 10 13 9 14 7 15 4 16 5 17 6 18 8 20 3 21 2 22 1 23
REMARK SMILES IDX 22 24 23 25 24 26 25 27 26 28 27 29 28 30 29 31 30 32 91 33
REMARK SMILES IDX 31 34 90 35 32 36 33 37 34 38 84 39 35 40 89 41 83 42 85 43
REMARK SMILES IDX 36 44 88 45 82 46 81 47 37 49 69 50 49 51 68 52 50 53 53 54
REMARK SMILES IDX 67 55 86 56 51 57 52 58 66 60 87 61 54 62 38 63 39 64 47 65
REMARK SMILES IDX 40 66 46 67 48 68 45 69 41 70 42 71 43 72 44 73 70 74 71 75
REMARK SMILES IDX 79 76 72 77 78 78 80 79 77 80 73 81 74 82 75 83 76 84 55 85
REMARK SMILES IDX 56 86 64 87 57 88 63 89 65 90 62 91 58 92 59 93 60 94 61 95
REMARK H PARENT 6 19 85 48 53 59
REMARK Flexibility Score: inf
ROOT
ATOM      1  C   UNL A   1      41.193  21.979  27.028  1.00  0.00     0.188 C 
ENDROOT
BRANCH   1   2
ATOM      2  O   UNL A   1      40.031  22.495  26.384  1.00  0.00    -0.376 OA
BRANCH   2   3
ATOM      3  C   UNL A   1      38.933  21.637  26.107  1.00  0.00     0.202 C 
BRANCH   3   4
ATOM      4  C   UNL A   1      37.812  22.156  25.199  1.00  0.00     0.261 C 
BRANCH   4   5
ATOM      5  O   UNL A   1      36.500  22.072  25.780  1.00  0.00    -0.459 OA
BRANCH   5   6
ATOM      6  C   UNL A   1      35.659  21.154  25.212  1.00  0.00     0.348 C 
ATOM      7  O   UNL A   1      35.970  19.999  24.950  1.00  0.00    -0.245 OA
BRANCH   6   8
ATOM      8  C   UNL A   1      34.335  21.724  25.071  1.00  0.00     0.116 A 
ATOM      9  C   UNL A   1      32.409  22.791  24.280  1.00  0.00     0.131 A 
ATOM     10  C   UNL A   1      32.092  22.607  25.606  1.00  0.00     0.112 A 
ATOM     11  C   UNL A   1      33.724  22.316  23.983  1.00  0.00     0.074 A 
ATOM     12  S   UNL A   1      33.311  21.745  26.444  1.00  0.00    -0.133 S 
BRANCH   9  13
ATOM     13  O   UNL A   1      31.618  23.298  23.302  1.00  0.00    -0.483 OA
BRANCH  13  14
ATOM     14  C   UNL A   1      31.846  24.627  22.885  1.00  0.00     0.329 C 
BRANCH  14  15
ATOM     15  C   UNL A   1      32.958  25.034  21.905  1.00  0.00     0.267 C 
ATOM     16  C   UNL A   1      33.327  27.425  22.669  1.00  0.00     0.413 C 
ATOM     17  O   UNL A   1      34.013  28.424  22.486  1.00  0.00    -0.224 OA
ATOM     18  N   UNL A   1      33.545  26.275  21.948  1.00  0.00    -0.258 N 
ATOM     19  H   UNL A   1      34.296  26.360  21.317  1.00  0.00     0.176 HD
ATOM     20  O   UNL A   1      33.323  24.253  21.021  1.00  0.00    -0.271 OA
BRANCH  16  21
ATOM     21  O   UNL A   1      32.306  27.345  23.549  1.00  0.00    -0.450 OA
BRANCH  21  22
ATOM     22  C   UNL A   1      31.128  28.093  23.217  1.00  0.00     0.231 C 
ATOM     23  C   UNL A   1      30.869  29.186  24.241  1.00  0.00     0.049 C 
ENDBRANCH  21  22
ENDBRANCH  16  21
ENDBRANCH  14  15
ENDBRANCH  13  14
ENDBRANCH   9  13
ENDBRANCH   6   8
ENDBRANCH   5   6
ENDBRANCH   4   5
ENDBRANCH   3   4
ENDBRANCH   2   3
ENDBRANCH   1   2
BRANCH   1  24
ATOM     24  C   UNL A   1      41.086  20.732  27.929  1.00  0.00     0.188 C 
BRANCH  24  25
ATOM     25  O   UNL A   1      41.778  19.600  27.431  1.00  0.00    -0.376 OA
BRANCH  25  26
ATOM     26  C   UNL A   1      41.925  19.521  26.021  1.00  0.00     0.202 C 
BRANCH  26  27
ATOM     27  C   UNL A   1      43.146  18.749  25.497  1.00  0.00     0.261 C 
BRANCH  27  28
ATOM     28  O   UNL A   1      43.755  19.265  24.303  1.00  0.00    -0.460 OA
BRANCH  28  29
ATOM     29  C   UNL A   1      45.018  19.741  24.409  1.00  0.00     0.338 C 
ATOM     30  O   UNL A   1      46.038  19.178  24.057  1.00  0.00    -0.246 OA
BRANCH  29  31
ATOM     31  C   UNL A   1      44.931  21.142  24.877  1.00  0.00     0.060 A 
ATOM     32  C   UNL A   1      44.877  22.176  23.933  1.00  0.00     0.016 A 
ATOM     33  C   UNL A   1      44.897  21.433  26.244  1.00  0.00     0.016 A 
ATOM     34  C   UNL A   1      44.807  23.507  24.359  1.00  0.00     0.010 A 
ATOM     35  C   UNL A   1      44.844  22.766  26.666  1.00  0.00     0.010 A 
ATOM     36  C   UNL A   1      44.821  23.813  25.727  1.00  0.00    -0.014 A 
BRANCH  36  37
ATOM     37  C   UNL A   1      44.974  25.222  26.179  1.00  0.00     0.031 A 
ATOM     38  C   UNL A   1      46.342  25.849  26.129  1.00  0.00     0.074 A 
ATOM     39  C   UNL A   1      43.922  25.937  26.617  1.00  0.00     0.049 A 
ATOM     40  N   UNL A   1      46.729  27.038  26.515  1.00  0.00    -0.248 NA
ATOM     41  C   UNL A   1      47.417  25.016  25.569  1.00  0.00     0.031 C 
ATOM     42  C   UNL A   1      42.541  25.460  26.675  1.00  0.00     0.029 A 
ATOM     43  N   UNL A   1      43.855  27.220  27.104  1.00  0.00    -0.354 N 
ATOM     44  C   UNL A   1      48.092  27.099  26.241  1.00  0.00     0.074 A 
ATOM     45  C   UNL A   1      48.468  25.811  25.698  1.00  0.00     0.031 C 
ATOM     46  C   UNL A   1      41.764  26.436  27.179  1.00  0.00     0.029 A 
ATOM     47  C   UNL A   1      42.595  27.592  27.513  1.00  0.00     0.049 A 
ATOM     48  H   UNL A   1      44.635  27.818  27.155  1.00  0.00     0.167 HD
ATOM     49  C   UNL A   1      48.949  28.136  26.418  1.00  0.00     0.034 A 
ATOM     50  C   UNL A   1      42.167  28.724  28.111  1.00  0.00     0.034 A 
ATOM     51  C   UNL A   1      48.569  29.407  26.985  1.00  0.00     0.049 A 
ATOM     52  C   UNL A   1      43.160  29.827  28.395  1.00  0.00     0.074 A 
ATOM     53  C   UNL A   1      49.356  30.523  27.205  1.00  0.00     0.029 A 
ATOM     54  N   UNL A   1      47.295  29.727  27.437  1.00  0.00    -0.354 N 
ATOM     55  N   UNL A   1      44.445  29.877  28.127  1.00  0.00    -0.248 NA
ATOM     56  C   UNL A   1      42.642  31.032  29.058  1.00  0.00     0.031 C 
ATOM     57  C   UNL A   1      48.579  31.489  27.854  1.00  0.00     0.029 A 
ATOM     58  C   UNL A   1      47.284  31.010  27.966  1.00  0.00     0.049 A 
ATOM     59  H   UNL A   1      46.513  29.131  27.388  1.00  0.00     0.167 HD
ATOM     60  C   UNL A   1      44.877  31.129  28.558  1.00  0.00     0.074 A 
ATOM     61  C   UNL A   1      43.716  31.807  29.093  1.00  0.00     0.031 C 
ATOM     62  C   UNL A   1      46.122  31.673  28.508  1.00  0.00     0.034 A 
BRANCH  49  63
ATOM     63  C   UNL A   1      50.393  27.907  26.040  1.00  0.00     0.023 A 
ATOM     64  C   UNL A   1      50.878  28.211  24.755  1.00  0.00     0.031 A 
ATOM     65  C   UNL A   1      51.289  27.344  26.965  1.00  0.00     0.131 A 
ATOM     66  C   UNL A   1      52.198  27.883  24.408  1.00  0.00     0.055 A 
ATOM     67  C   UNL A   1      52.624  27.094  26.639  1.00  0.00     0.041 A 
ATOM     68  F   UNL A   1      50.879  27.011  28.198  1.00  0.00    -0.206 F 
ATOM     69  C   UNL A   1      53.080  27.350  25.349  1.00  0.00     0.022 A 
BRANCH  66  70
ATOM     70  S   UNL A   1      52.700  28.028  22.672  1.00  0.00     0.124 S 
ATOM     71  O   UNL A   1      53.940  28.792  22.785  1.00  0.00    -0.237 OA
ATOM     72  O   UNL A   1      52.844  26.634  22.267  1.00  0.00    -0.237 OA
ATOM     73  O   UNL A   1      51.589  28.747  22.052  1.00  0.00    -0.744 OA
ENDBRANCH  66  70
ENDBRANCH  49  63
BRANCH  50  74
ATOM     74  C   UNL A   1      40.741  28.871  28.529  1.00  0.00     0.023 A 
ATOM     75  C   UNL A   1      40.349  28.673  29.863  1.00  0.00     0.031 A 
ATOM     76  C   UNL A   1      39.738  29.143  27.582  1.00  0.00     0.131 A 
ATOM     77  C   UNL A   1      38.988  28.705  30.205  1.00  0.00     0.055 A 
ATOM     78  C   UNL A   1      38.390  29.228  27.936  1.00  0.00     0.041 A 
ATOM     79  F   UNL A   1      40.056  29.332  26.291  1.00  0.00    -0.206 F 
ATOM     80  C   UNL A   1      38.007  28.996  29.254  1.00  0.00     0.022 A 
BRANCH  77  81
ATOM     81  S   UNL A   1      38.505  28.272  31.899  1.00  0.00     0.124 S 
ATOM     82  O   UNL A   1      38.337  26.826  31.799  1.00  0.00    -0.237 OA
ATOM     83  O   UNL A   1      39.655  28.732  32.670  1.00  0.00    -0.237 OA
ATOM     84  O   UNL A   1      37.273  29.030  32.108  1.00  0.00    -0.744 OA
ENDBRANCH  77  81
ENDBRANCH  50  74
BRANCH  62  85
ATOM     85  C   UNL A   1      46.274  33.094  29.002  1.00  0.00     0.023 A 
ATOM     86  C   UNL A   1      46.163  34.198  28.141  1.00  0.00     0.031 A 
ATOM     87  C   UNL A   1      46.541  33.341  30.361  1.00  0.00     0.131 A 
ATOM     88  C   UNL A   1      46.374  35.496  28.635  1.00  0.00     0.055 A 
ATOM     89  C   UNL A   1      46.689  34.637  30.860  1.00  0.00     0.041 A 
ATOM     90  F   UNL A   1      46.658  32.325  31.231  1.00  0.00    -0.206 F 
ATOM     91  C   UNL A   1      46.618  35.722  29.991  1.00  0.00     0.022 A 
BRANCH  88  92
ATOM     92  S   UNL A   1      46.413  36.881  27.464  1.00  0.00     0.124 S 
ATOM     93  O   UNL A   1      47.388  37.774  28.082  1.00  0.00    -0.237 OA
ATOM     94  O   UNL A   1      46.837  36.233  26.226  1.00  0.00    -0.237 OA
ATOM     95  O   UNL A   1      45.036  37.371  27.465  1.00  0.00    -0.744 OA
ENDBRANCH  88  92
ENDBRANCH  62  85
ENDBRANCH  36  37
ENDBRANCH  29  31
ENDBRANCH  28  29
ENDBRANCH  27  28
ENDBRANCH  26  27
ENDBRANCH  25  26
ENDBRANCH  24  25
ENDBRANCH   1  24
TORSDOF 25
ENDMDL
MODEL 3
REMARK VINA RESULT:      -8.9      1.386      7.784
REMARK SMILES CCOC(=O)NC(=O)COc1csc(C(=O)OCCOCCOCCOC(=O)c2ccc(-c3c4nc(c(-c5cc(S(=O)(=O)[O-])ccc5F)c5ccc([nH]5)c(-c5cc(S(=O)(=O)[O-])ccc5F)c5nc(c(-c6cc(S(=O)(=O)[O-])ccc6F)c6ccc3[nH]6)C=C5)C=C4)cc2)c1
REMARK SMILES IDX 21 1 20 2 19 3 18 4 17 5 15 6 16 7 14 8 11 9 12 10 92 11
REMARK SMILES IDX 13 12 10 13 9 14 7 15 4 16 5 17 6 18 8 20 3 21 2 22 1 23
REMARK SMILES IDX 22 24 23 25 24 26 25 27 26 28 27 29 28 30 29 31 30 32 91 33
REMARK SMILES IDX 31 34 90 35 32 36 33 37 34 38 84 39 35 40 89 41 83 42 85 43
REMARK SMILES IDX 36 44 88 45 82 46 81 47 37 49 69 50 49 51 68 52 50 53 53 54
REMARK SMILES IDX 67 55 86 56 51 57 52 58 66 60 87 61 54 62 38 63 39 64 47 65
REMARK SMILES IDX 40 66 46 67 48 68 45 69 41 70 42 71 43 72 44 73 70 74 71 75
REMARK SMILES IDX 79 76 72 77 78 78 80 79 77 80 73 81 74 82 75 83 76 84 55 85
REMARK SMILES IDX 56 86 64 87 57 88 63 89 65 90 62 91 58 92 59 93 60 94 61 95
REMARK H PARENT 6 19 85 48 53 59
REMARK Flexibility Score: inf
ROOT
ATOM      1  C   UNL A   1      40.157  21.972  26.678  1.00  0.00     0.188 C 
ENDROOT
BRANCH   1   2
ATOM      2  O   UNL A   1      39.157  21.283  25.933  1.00  0.00    -0.376 OA
BRANCH   2   3
ATOM      3  C   UNL A   1      37.976  21.964  25.533  1.00  0.00     0.202 C 
BRANCH   3   4
ATOM      4  C   UNL A   1      36.837  21.148  24.910  1.00  0.00     0.261 C 
BRANCH   4   5
ATOM      5  O   UNL A   1      35.546  21.404  25.487  1.00  0.00    -0.459 OA
BRANCH   5   6
ATOM      6  C   UNL A   1      34.478  20.914  24.787  1.00  0.00     0.348 C 
ATOM      7  O   UNL A   1      34.059  19.767  24.875  1.00  0.00    -0.245 OA
BRANCH   6   8
ATOM      8  C   UNL A   1      33.865  21.978  24.020  1.00  0.00     0.116 A 
ATOM      9  C   UNL A   1      33.453  23.920  22.780  1.00  0.00     0.131 A 
ATOM     10  C   UNL A   1      32.175  23.464  23.002  1.00  0.00     0.112 A 
ATOM     11  C   UNL A   1      34.427  23.081  23.405  1.00  0.00     0.074 A 
ATOM     12  S   UNL A   1      32.163  21.967  23.834  1.00  0.00    -0.133 S 
BRANCH   9  13
ATOM     13  O   UNL A   1      33.835  24.985  22.032  1.00  0.00    -0.483 OA
BRANCH  13  14
ATOM     14  C   UNL A   1      33.056  26.160  22.105  1.00  0.00     0.329 C 
BRANCH  14  15
ATOM     15  C   UNL A   1      33.624  27.536  22.487  1.00  0.00     0.267 C 
ATOM     16  C   UNL A   1      32.691  27.729  24.839  1.00  0.00     0.413 C 
ATOM     17  O   UNL A   1      32.677  28.437  25.840  1.00  0.00    -0.224 OA
ATOM     18  N   UNL A   1      33.422  28.085  23.730  1.00  0.00    -0.258 N 
ATOM     19  H   UNL A   1      33.914  28.927  23.856  1.00  0.00     0.176 HD
ATOM     20  O   UNL A   1      34.249  28.202  21.657  1.00  0.00    -0.271 OA
BRANCH  16  21
ATOM     21  O   UNL A   1      32.004  26.574  24.705  1.00  0.00    -0.450 OA
BRANCH  21  22
ATOM     22  C   UNL A   1      30.625  26.611  25.101  1.00  0.00     0.231 C 
ATOM     23  C   UNL A   1      29.710  26.373  23.912  1.00  0.00     0.049 C 
ENDBRANCH  21  22
ENDBRANCH  16  21
ENDBRANCH  14  15
ENDBRANCH  13  14
ENDBRANCH   9  13
ENDBRANCH   6   8
ENDBRANCH   5   6
ENDBRANCH   4   5
ENDBRANCH   3   4
ENDBRANCH   2   3
ENDBRANCH   1   2
BRANCH   1  24
ATOM     24  C   UNL A   1      40.939  21.236  27.786  1.00  0.00     0.188 C 
BRANCH  24  25
ATOM     25  O   UNL A   1      41.754  20.178  27.312  1.00  0.00    -0.376 OA
BRANCH  25  26
ATOM     26  C   UNL A   1      42.077  20.203  25.930  1.00  0.00     0.202 C 
BRANCH  26  27
ATOM     27  C   UNL A   1      43.201  19.263  25.468  1.00  0.00     0.261 C 
BRANCH  27  28
ATOM     28  O   UNL A   1      43.831  19.595  24.221  1.00  0.00    -0.460 OA
BRANCH  28  29
ATOM     29  C   UNL A   1      45.144  19.922  24.260  1.00  0.00     0.338 C 
ATOM     30  O   UNL A   1      46.070  19.264  23.822  1.00  0.00    -0.246 OA
BRANCH  29  31
ATOM     31  C   UNL A   1      45.247  21.304  24.778  1.00  0.00     0.060 A 
ATOM     32  C   UNL A   1      45.058  22.380  23.902  1.00  0.00     0.016 A 
ATOM     33  C   UNL A   1      45.524  21.536  26.129  1.00  0.00     0.016 A 
ATOM     34  C   UNL A   1      45.164  23.693  24.374  1.00  0.00     0.010 A 
ATOM     35  C   UNL A   1      45.645  22.850  26.595  1.00  0.00     0.010 A 
ATOM     36  C   UNL A   1      45.489  23.937  25.716  1.00  0.00    -0.014 A 
BRANCH  36  37
ATOM     37  C   UNL A   1      45.823  25.314  26.168  1.00  0.00     0.031 A 
ATOM     38  C   UNL A   1      44.715  26.187  26.694  1.00  0.00     0.074 A 
ATOM     39  C   UNL A   1      47.084  25.781  26.123  1.00  0.00     0.049 A 
ATOM     40  N   UNL A   1      44.752  27.433  27.094  1.00  0.00    -0.248 NA
ATOM     41  C   UNL A   1      43.383  25.568  26.772  1.00  0.00     0.031 C 
ATOM     42  C   UNL A   1      48.251  25.024  25.675  1.00  0.00     0.029 A 
ATOM     43  N   UNL A   1      47.591  27.015  26.453  1.00  0.00    -0.354 N 
ATOM     44  C   UNL A   1      43.452  27.746  27.478  1.00  0.00     0.074 A 
ATOM     45  C   UNL A   1      42.645  26.572  27.219  1.00  0.00     0.031 C 
ATOM     46  C   UNL A   1      49.338  25.812  25.751  1.00  0.00     0.029 A 
ATOM     47  C   UNL A   1      48.941  27.140  26.216  1.00  0.00     0.049 A 
ATOM     48  H   UNL A   1      47.041  27.742  26.826  1.00  0.00     0.167 HD
ATOM     49  C   UNL A   1      42.976  28.901  28.006  1.00  0.00     0.034 A 
ATOM     50  C   UNL A   1      49.755  28.210  26.337  1.00  0.00     0.034 A 
ATOM     51  C   UNL A   1      43.785  30.074  28.236  1.00  0.00     0.049 A 
ATOM     52  C   UNL A   1      49.183  29.520  26.828  1.00  0.00     0.074 A 
ATOM     53  C   UNL A   1      43.404  31.294  28.767  1.00  0.00     0.029 A 
ATOM     54  N   UNL A   1      45.137  30.180  27.933  1.00  0.00    -0.354 N 
ATOM     55  N   UNL A   1      47.953  29.803  27.194  1.00  0.00    -0.248 NA
ATOM     56  C   UNL A   1      50.112  30.655  26.929  1.00  0.00     0.031 C 
ATOM     57  C   UNL A   1      44.505  32.158  28.719  1.00  0.00     0.029 A 
ATOM     58  C   UNL A   1      45.595  31.455  28.234  1.00  0.00     0.049 A 
ATOM     59  H   UNL A   1      45.690  29.456  27.560  1.00  0.00     0.167 HD
ATOM     60  C   UNL A   1      47.973  31.137  27.598  1.00  0.00     0.074 A 
ATOM     61  C   UNL A   1      49.336  31.597  27.443  1.00  0.00     0.031 C 
ATOM     62  C   UNL A   1      46.956  31.908  28.065  1.00  0.00     0.034 A 
BRANCH  49  63
ATOM     63  C   UNL A   1      41.500  28.960  28.316  1.00  0.00     0.023 A 
ATOM     64  C   UNL A   1      41.015  28.830  29.630  1.00  0.00     0.031 A 
ATOM     65  C   UNL A   1      40.562  29.111  27.281  1.00  0.00     0.131 A 
ATOM     66  C   UNL A   1      39.632  28.780  29.865  1.00  0.00     0.055 A 
ATOM     67  C   UNL A   1      39.188  29.141  27.530  1.00  0.00     0.041 A 
ATOM     68  F   UNL A   1      40.963  29.216  26.005  1.00  0.00    -0.206 F 
ATOM     69  C   UNL A   1      38.716  28.960  28.827  1.00  0.00     0.022 A 
BRANCH  66  70
ATOM     70  S   UNL A   1      39.049  28.331  31.522  1.00  0.00     0.124 S 
ATOM     71  O   UNL A   1      40.297  28.318  32.282  1.00  0.00    -0.237 OA
ATOM     72  O   UNL A   1      38.122  29.412  31.835  1.00  0.00    -0.237 OA
ATOM     73  O   UNL A   1      38.435  27.019  31.326  1.00  0.00    -0.744 OA
ENDBRANCH  66  70
ENDBRANCH  49  63
BRANCH  50  74
ATOM     74  C   UNL A   1      51.194  28.118  25.949  1.00  0.00     0.023 A 
ATOM     75  C   UNL A   1      51.588  28.143  24.602  1.00  0.00     0.031 A 
ATOM     76  C   UNL A   1      52.192  27.932  26.923  1.00  0.00     0.131 A 
ATOM     77  C   UNL A   1      52.935  27.939  24.262  1.00  0.00     0.055 A 
ATOM     78  C   UNL A   1      53.537  27.785  26.583  1.00  0.00     0.041 A 
ATOM     79  F   UNL A   1      51.869  27.893  28.226  1.00  0.00    -0.206 F 
ATOM     80  C   UNL A   1      53.915  27.775  25.244  1.00  0.00     0.022 A 
BRANCH  77  81
ATOM     81  S   UNL A   1      53.379  27.801  22.508  1.00  0.00     0.124 S 
ATOM     82  O   UNL A   1      53.688  26.381  22.391  1.00  0.00    -0.237 OA
ATOM     83  O   UNL A   1      52.157  28.249  21.849  1.00  0.00    -0.237 OA
ATOM     84  O   UNL A   1      54.523  28.702  22.374  1.00  0.00    -0.744 OA
ENDBRANCH  77  81
ENDBRANCH  50  74
BRANCH  62  85
ATOM     85  C   UNL A   1      47.298  33.318  28.488  1.00  0.00     0.023 A 
ATOM     86  C   UNL A   1      47.157  34.413  27.618  1.00  0.00     0.031 A 
ATOM     87  C   UNL A   1      47.781  33.566  29.786  1.00  0.00     0.131 A 
ATOM     88  C   UNL A   1      47.547  35.695  28.036  1.00  0.00     0.055 A 
ATOM     89  C   UNL A   1      48.110  34.853  30.218  1.00  0.00     0.041 A 
ATOM     90  F   UNL A   1      47.937  32.560  30.661  1.00  0.00    -0.206 F 
ATOM     91  C   UNL A   1      48.005  35.924  29.336  1.00  0.00     0.022 A 
BRANCH  88  92
ATOM     92  S   UNL A   1      47.532  37.050  26.830  1.00  0.00     0.124 S 
ATOM     93  O   UNL A   1      46.675  38.032  27.486  1.00  0.00    -0.237 OA
ATOM     94  O   UNL A   1      48.947  37.401  26.736  1.00  0.00    -0.237 OA
ATOM     95  O   UNL A   1      46.966  36.437  25.630  1.00  0.00    -0.744 OA
ENDBRANCH  88  92
ENDBRANCH  62  85
ENDBRANCH  36  37
ENDBRANCH  29  31
ENDBRANCH  28  29
ENDBRANCH  27  28
ENDBRANCH  26  27
ENDBRANCH  25  26
ENDBRANCH  24  25
ENDBRANCH   1  24
TORSDOF 25
ENDMDL
