MODEL 1
REMARK VINA RESULT:      -9.5      0.000      0.000
REMARK SMILES CC[C@](C)(NC(=O)NC[C@H]1COCCO1)C(=O)OCCOCCOCCOC(=O)c1ccc(-c2c3nc(c(-c4cc(S(=O)(=O)[O-])ccc4F)c4ccc([nH]4)c(-c4cc(S(=O)(=O)[O-])ccc4F)c4nc(c(-c5cc(S(=O)(=O)[O-])ccc5F)c5ccc2[nH]5)C=C4)C=C3)cc1
REMARK SMILES IDX 22 1 21 2 20 3 19 4 18 5 16 6 17 7 3 8 4 9 2 10 1 11 5 12
REMARK SMILES IDX 6 13 7 15 8 16 9 18 10 19 11 20 15 21 12 22 14 23 13 24
REMARK SMILES IDX 23 25 24 26 25 27 26 28 27 29 28 30 29 31 30 32 31 33 92 34
REMARK SMILES IDX 32 35 91 36 33 37 34 38 35 39 85 40 36 41 90 42 84 43 86 44
REMARK SMILES IDX 37 45 89 46 83 47 82 48 38 50 70 51 50 52 69 53 51 54 54 55
REMARK SMILES IDX 68 56 87 57 52 58 53 59 67 61 88 62 55 63 39 64 40 65 48 66
REMARK SMILES IDX 41 67 47 68 49 69 46 70 42 71 43 72 44 73 45 74 71 75 72 76
REMARK SMILES IDX 80 77 73 78 79 79 81 80 78 81 74 82 75 83 76 84 77 85 56 86
REMARK SMILES IDX 57 87 65 88 58 89 64 90 66 91 63 92 59 93 60 94 61 95 62 96
REMARK H PARENT 5 14 8 17 86 49 54 60
REMARK Flexibility Score: inf
ROOT
ATOM      1  C   UNL A   1      37.496  22.345  25.730  1.00  0.00     0.188 C 
ENDROOT
BRANCH   1   2
ATOM      2  O   UNL A   1      37.154  23.591  25.119  1.00  0.00    -0.376 OA
BRANCH   2   3
ATOM      3  C   UNL A   1      35.808  23.992  25.364  1.00  0.00     0.202 C 
BRANCH   3   4
ATOM      4  C   UNL A   1      34.976  23.789  24.106  1.00  0.00     0.261 C 
BRANCH   4   5
ATOM      5  O   UNL A   1      33.846  24.685  24.123  1.00  0.00    -0.462 OA
BRANCH   5   6
ATOM      6  C   UNL A   1      32.753  24.354  23.408  1.00  0.00     0.331 C 
ATOM      7  O   UNL A   1      32.809  23.807  22.312  1.00  0.00    -0.249 OA
BRANCH   6   8
ATOM      8  C   UNL A   1      31.418  24.680  24.148  1.00  0.00     0.136 C 
ATOM      9  C   UNL A   1      30.370  24.119  23.137  1.00  0.00     0.047 C 
BRANCH   8  10
ATOM     10  C   UNL A   1      31.226  26.218  24.201  1.00  0.00     0.037 C 
ATOM     11  C   UNL A   1      29.915  26.692  24.811  1.00  0.00     0.007 C 
ENDBRANCH   8  10
BRANCH   8  12
ATOM     12  N   UNL A   1      30.981  24.070  25.454  1.00  0.00    -0.322 N 
ATOM     13  C   UNL A   1      31.237  23.055  26.280  1.00  0.00     0.315 C 
ATOM     14  H   UNL A   1      30.248  24.609  25.830  1.00  0.00     0.166 HD
ATOM     15  O   UNL A   1      30.971  23.233  27.472  1.00  0.00    -0.249 OA
ATOM     16  N   UNL A   1      31.691  21.857  25.924  1.00  0.00    -0.335 N 
ATOM     17  H   UNL A   1      31.924  21.272  26.681  1.00  0.00     0.165 HD
BRANCH  16  18
ATOM     18  C   UNL A   1      31.900  21.263  24.634  1.00  0.00     0.152 C 
BRANCH  18  19
ATOM     19  C   UNL A   1      33.175  20.414  24.468  1.00  0.00     0.163 C 
ATOM     20  C   UNL A   1      33.514  19.720  25.797  1.00  0.00     0.194 C 
ATOM     21  O   UNL A   1      33.106  19.451  23.401  1.00  0.00    -0.372 OA
ATOM     22  O   UNL A   1      32.547  18.705  26.099  1.00  0.00    -0.376 OA
ATOM     23  C   UNL A   1      32.207  18.376  23.694  1.00  0.00     0.189 C 
ATOM     24  C   UNL A   1      32.505  17.735  25.045  1.00  0.00     0.188 C 
ENDBRANCH  18  19
ENDBRANCH  16  18
ENDBRANCH   8  12
ENDBRANCH   6   8
ENDBRANCH   5   6
ENDBRANCH   4   5
ENDBRANCH   3   4
ENDBRANCH   2   3
ENDBRANCH   1   2
BRANCH   1  25
ATOM     25  C   UNL A   1      37.331  21.158  24.769  1.00  0.00     0.188 C 
BRANCH  25  26
ATOM     26  O   UNL A   1      37.836  19.878  25.126  1.00  0.00    -0.376 OA
BRANCH  26  27
ATOM     27  C   UNL A   1      39.240  19.681  25.097  1.00  0.00     0.202 C 
BRANCH  27  28
ATOM     28  C   UNL A   1      40.005  20.013  26.382  1.00  0.00     0.261 C 
BRANCH  28  29
ATOM     29  O   UNL A   1      41.184  19.207  26.541  1.00  0.00    -0.460 OA
BRANCH  29  30
ATOM     30  C   UNL A   1      42.289  19.612  25.862  1.00  0.00     0.338 C 
ATOM     31  O   UNL A   1      42.799  19.071  24.896  1.00  0.00    -0.246 OA
BRANCH  30  32
ATOM     32  C   UNL A   1      42.651  20.968  26.340  1.00  0.00     0.060 A 
ATOM     33  C   UNL A   1      42.868  21.978  25.389  1.00  0.00     0.016 A 
ATOM     34  C   UNL A   1      42.716  21.258  27.703  1.00  0.00     0.016 A 
ATOM     35  C   UNL A   1      43.146  23.283  25.799  1.00  0.00     0.010 A 
ATOM     36  C   UNL A   1      43.031  22.556  28.112  1.00  0.00     0.010 A 
ATOM     37  C   UNL A   1      43.265  23.569  27.165  1.00  0.00    -0.014 A 
BRANCH  37  38
ATOM     38  C   UNL A   1      43.865  24.844  27.627  1.00  0.00     0.031 A 
ATOM     39  C   UNL A   1      42.927  25.901  28.136  1.00  0.00     0.074 A 
ATOM     40  C   UNL A   1      45.183  25.088  27.516  1.00  0.00     0.049 A 
ATOM     41  N   UNL A   1      43.150  27.163  28.383  1.00  0.00    -0.248 NA
ATOM     42  C   UNL A   1      41.539  25.472  28.380  1.00  0.00     0.031 C 
ATOM     43  C   UNL A   1      46.194  24.120  27.095  1.00  0.00     0.029 A 
ATOM     44  N   UNL A   1      45.893  26.248  27.718  1.00  0.00    -0.354 N 
ATOM     45  C   UNL A   1      41.927  27.687  28.784  1.00  0.00     0.074 A 
ATOM     46  C   UNL A   1      40.966  26.608  28.745  1.00  0.00     0.031 C 
ATOM     47  C   UNL A   1      47.387  24.737  27.027  1.00  0.00     0.029 A 
ATOM     48  C   UNL A   1      47.216  26.155  27.345  1.00  0.00     0.049 A 
ATOM     49  H   UNL A   1      45.495  27.066  28.093  1.00  0.00     0.167 HD
ATOM     50  C   UNL A   1      41.632  28.961  29.137  1.00  0.00     0.034 A 
ATOM     51  C   UNL A   1      48.155  27.117  27.219  1.00  0.00     0.034 A 
ATOM     52  C   UNL A   1      42.599  30.025  29.152  1.00  0.00     0.049 A 
ATOM     53  C   UNL A   1      47.777  28.553  27.526  1.00  0.00     0.074 A 
ATOM     54  C   UNL A   1      42.421  31.344  29.529  1.00  0.00     0.029 A 
ATOM     55  N   UNL A   1      43.922  29.898  28.749  1.00  0.00    -0.354 N 
ATOM     56  N   UNL A   1      46.623  29.036  27.929  1.00  0.00    -0.248 NA
ATOM     57  C   UNL A   1      48.822  29.572  27.350  1.00  0.00     0.031 C 
ATOM     58  C   UNL A   1      43.612  32.032  29.276  1.00  0.00     0.029 A 
ATOM     59  C   UNL A   1      44.557  31.126  28.820  1.00  0.00     0.049 A 
ATOM     60  H   UNL A   1      44.345  29.060  28.455  1.00  0.00     0.167 HD
ATOM     61  C   UNL A   1      46.817  30.408  28.082  1.00  0.00     0.074 A 
ATOM     62  C   UNL A   1      48.198  30.673  27.740  1.00  0.00     0.031 C 
ATOM     63  C   UNL A   1      45.937  31.366  28.471  1.00  0.00     0.034 A 
BRANCH  50  64
ATOM     64  C   UNL A   1      40.194  29.278  29.456  1.00  0.00     0.023 A 
ATOM     65  C   UNL A   1      39.720  29.340  30.778  1.00  0.00     0.031 A 
ATOM     66  C   UNL A   1      39.278  29.497  28.413  1.00  0.00     0.131 A 
ATOM     67  C   UNL A   1      38.356  29.558  31.018  1.00  0.00     0.055 A 
ATOM     68  C   UNL A   1      37.936  29.788  28.661  1.00  0.00     0.041 A 
ATOM     69  F   UNL A   1      39.670  29.421  27.131  1.00  0.00    -0.206 F 
ATOM     70  C   UNL A   1      37.464  29.808  29.970  1.00  0.00     0.022 A 
BRANCH  67  71
ATOM     71  S   UNL A   1      37.736  29.393  32.714  1.00  0.00     0.124 S 
ATOM     72  O   UNL A   1      36.482  30.140  32.645  1.00  0.00    -0.237 OA
ATOM     73  O   UNL A   1      37.611  27.948  32.865  1.00  0.00    -0.237 OA
ATOM     74  O   UNL A   1      38.781  30.017  33.524  1.00  0.00    -0.744 OA
ENDBRANCH  67  71
ENDBRANCH  50  64
BRANCH  51  75
ATOM     75  C   UNL A   1      49.520  26.798  26.699  1.00  0.00     0.023 A 
ATOM     76  C   UNL A   1      49.927  27.209  25.419  1.00  0.00     0.031 A 
ATOM     77  C   UNL A   1      50.406  25.992  27.440  1.00  0.00     0.131 A 
ATOM     78  C   UNL A   1      51.154  26.767  24.897  1.00  0.00     0.055 A 
ATOM     79  C   UNL A   1      51.651  25.606  26.939  1.00  0.00     0.041 A 
ATOM     80  F   UNL A   1      50.070  25.560  28.665  1.00  0.00    -0.206 F 
ATOM     81  C   UNL A   1      52.024  25.980  25.653  1.00  0.00     0.022 A 
BRANCH  78  82
ATOM     82  S   UNL A   1      51.542  27.137  23.162  1.00  0.00     0.124 S 
ATOM     83  O   UNL A   1      51.909  28.547  23.236  1.00  0.00    -0.237 OA
ATOM     84  O   UNL A   1      52.630  26.204  22.891  1.00  0.00    -0.237 OA
ATOM     85  O   UNL A   1      50.290  26.853  22.465  1.00  0.00    -0.744 OA
ENDBRANCH  78  82
ENDBRANCH  51  75
BRANCH  63  86
ATOM     86  C   UNL A   1      46.455  32.779  28.594  1.00  0.00     0.023 A 
ATOM     87  C   UNL A   1      46.572  33.625  27.478  1.00  0.00     0.031 A 
ATOM     88  C   UNL A   1      46.805  33.292  29.856  1.00  0.00     0.131 A 
ATOM     89  C   UNL A   1      47.063  34.929  27.641  1.00  0.00     0.055 A 
ATOM     90  C   UNL A   1      47.238  34.607  30.020  1.00  0.00     0.041 A 
ATOM     91  F   UNL A   1      46.712  32.525  30.954  1.00  0.00    -0.206 F 
ATOM     92  C   UNL A   1      47.377  35.432  28.907  1.00  0.00     0.022 A 
BRANCH  89  93
ATOM     93  S   UNL A   1      47.342  35.948  26.167  1.00  0.00     0.124 S 
ATOM     94  O   UNL A   1      46.212  36.870  26.216  1.00  0.00    -0.237 OA
ATOM     95  O   UNL A   1      48.653  36.531  26.432  1.00  0.00    -0.237 OA
ATOM     96  O   UNL A   1      47.307  34.980  25.071  1.00  0.00    -0.744 OA
ENDBRANCH  89  93
ENDBRANCH  63  86
ENDBRANCH  37  38
ENDBRANCH  30  32
ENDBRANCH  29  30
ENDBRANCH  28  29
ENDBRANCH  27  28
ENDBRANCH  26  27
ENDBRANCH  25  26
ENDBRANCH   1  25
TORSDOF 24
ENDMDL
MODEL 2
REMARK VINA RESULT:      -9.1      5.837      9.666
REMARK SMILES CC[C@](C)(NC(=O)NC[C@H]1COCCO1)C(=O)OCCOCCOCCOC(=O)c1ccc(-c2c3nc(c(-c4cc(S(=O)(=O)[O-])ccc4F)c4ccc([nH]4)c(-c4cc(S(=O)(=O)[O-])ccc4F)c4nc(c(-c5cc(S(=O)(=O)[O-])ccc5F)c5ccc2[nH]5)C=C4)C=C3)cc1
REMARK SMILES IDX 22 1 21 2 20 3 19 4 18 5 16 6 17 7 3 8 4 9 2 10 1 11 5 12
REMARK SMILES IDX 6 13 7 15 8 16 9 18 10 19 11 20 15 21 12 22 14 23 13 24
REMARK SMILES IDX 23 25 24 26 25 27 26 28 27 29 28 30 29 31 30 32 31 33 92 34
REMARK SMILES IDX 32 35 91 36 33 37 34 38 35 39 85 40 36 41 90 42 84 43 86 44
REMARK SMILES IDX 37 45 89 46 83 47 82 48 38 50 70 51 50 52 69 53 51 54 54 55
REMARK SMILES IDX 68 56 87 57 52 58 53 59 67 61 88 62 55 63 39 64 40 65 48 66
REMARK SMILES IDX 41 67 47 68 49 69 46 70 42 71 43 72 44 73 45 74 71 75 72 76
REMARK SMILES IDX 80 77 73 78 79 79 81 80 78 81 74 82 75 83 76 84 77 85 56 86
REMARK SMILES IDX 57 87 65 88 58 89 64 90 66 91 63 92 59 93 60 94 61 95 62 96
REMARK H PARENT 5 14 8 17 86 49 54 60
REMARK Flexibility Score: inf
ROOT
ATOM      1  C   UNL A   1      34.673  29.770  27.258  1.00  0.00     0.188 C 
ENDROOT
BRANCH   1   2
ATOM      2  O   UNL A   1      33.927  28.561  27.093  1.00  0.00    -0.376 OA
BRANCH   2   3
ATOM      3  C   UNL A   1      34.233  27.868  25.886  1.00  0.00     0.202 C 
BRANCH   3   4
ATOM      4  C   UNL A   1      33.684  26.450  25.955  1.00  0.00     0.261 C 
BRANCH   4   5
ATOM      5  O   UNL A   1      32.457  26.368  25.202  1.00  0.00    -0.462 OA
BRANCH   5   6
ATOM      6  C   UNL A   1      31.292  26.322  25.877  1.00  0.00     0.331 C 
ATOM      7  O   UNL A   1      31.018  27.085  26.797  1.00  0.00    -0.249 OA
BRANCH   6   8
ATOM      8  C   UNL A   1      30.308  25.243  25.323  1.00  0.00     0.136 C 
ATOM      9  C   UNL A   1      31.153  24.634  24.161  1.00  0.00     0.047 C 
BRANCH   8  10
ATOM     10  C   UNL A   1      29.086  25.950  24.680  1.00  0.00     0.037 C 
ATOM     11  C   UNL A   1      29.419  27.044  23.676  1.00  0.00     0.007 C 
ENDBRANCH   8  10
BRANCH   8  12
ATOM     12  N   UNL A   1      29.848  24.023  26.076  1.00  0.00    -0.322 N 
ATOM     13  C   UNL A   1      30.255  23.124  26.973  1.00  0.00     0.315 C 
ATOM     14  H   UNL A   1      28.923  23.814  25.813  1.00  0.00     0.166 HD
ATOM     15  O   UNL A   1      29.377  22.600  27.666  1.00  0.00    -0.249 OA
ATOM     16  N   UNL A   1      31.504  22.702  27.142  1.00  0.00    -0.335 N 
ATOM     17  H   UNL A   1      31.631  22.118  27.925  1.00  0.00     0.165 HD
BRANCH  16  18
ATOM     18  C   UNL A   1      32.701  22.943  26.386  1.00  0.00     0.152 C 
BRANCH  18  19
ATOM     19  C   UNL A   1      33.488  21.700  25.933  1.00  0.00     0.163 C 
ATOM     20  C   UNL A   1      33.516  21.633  24.397  1.00  0.00     0.194 C 
ATOM     21  O   UNL A   1      34.824  21.623  26.464  1.00  0.00    -0.372 OA
ATOM     22  O   UNL A   1      34.330  22.683  23.860  1.00  0.00    -0.376 OA
ATOM     23  C   UNL A   1      35.693  22.608  25.896  1.00  0.00     0.189 C 
ATOM     24  C   UNL A   1      35.666  22.584  24.370  1.00  0.00     0.188 C 
ENDBRANCH  18  19
ENDBRANCH  16  18
ENDBRANCH   8  12
ENDBRANCH   6   8
ENDBRANCH   5   6
ENDBRANCH   4   5
ENDBRANCH   3   4
ENDBRANCH   2   3
ENDBRANCH   1   2
BRANCH   1  25
ATOM     25  C   UNL A   1      33.807  30.924  27.784  1.00  0.00     0.188 C 
BRANCH  25  26
ATOM     26  O   UNL A   1      33.744  32.151  27.067  1.00  0.00    -0.376 OA
BRANCH  26  27
ATOM     27  C   UNL A   1      32.490  32.804  26.969  1.00  0.00     0.202 C 
BRANCH  27  28
ATOM     28  C   UNL A   1      32.227  33.936  27.966  1.00  0.00     0.261 C 
BRANCH  28  29
ATOM     29  O   UNL A   1      33.257  34.938  27.939  1.00  0.00    -0.460 OA
BRANCH  29  30
ATOM     30  C   UNL A   1      33.753  35.326  29.142  1.00  0.00     0.338 C 
ATOM     31  O   UNL A   1      33.362  36.249  29.836  1.00  0.00    -0.246 OA
BRANCH  30  32
ATOM     32  C   UNL A   1      34.710  34.291  29.602  1.00  0.00     0.060 A 
ATOM     33  C   UNL A   1      34.286  33.370  30.573  1.00  0.00     0.016 A 
ATOM     34  C   UNL A   1      35.984  34.189  29.042  1.00  0.00     0.016 A 
ATOM     35  C   UNL A   1      35.133  32.340  30.984  1.00  0.00     0.010 A 
ATOM     36  C   UNL A   1      36.845  33.180  29.482  1.00  0.00     0.010 A 
ATOM     37  C   UNL A   1      36.431  32.264  30.465  1.00  0.00    -0.014 A 
BRANCH  37  38
ATOM     38  C   UNL A   1      37.455  31.398  31.099  1.00  0.00     0.031 A 
ATOM     39  C   UNL A   1      37.862  31.732  32.506  1.00  0.00     0.074 A 
ATOM     40  C   UNL A   1      38.065  30.408  30.423  1.00  0.00     0.049 A 
ATOM     41  N   UNL A   1      38.873  31.295  33.207  1.00  0.00    -0.248 NA
ATOM     42  C   UNL A   1      37.015  32.710  33.211  1.00  0.00     0.031 C 
ATOM     43  C   UNL A   1      37.712  29.956  29.078  1.00  0.00     0.029 A 
ATOM     44  N   UNL A   1      39.141  29.626  30.768  1.00  0.00    -0.354 N 
ATOM     45  C   UNL A   1      38.803  31.965  34.422  1.00  0.00     0.074 A 
ATOM     46  C   UNL A   1      37.653  32.838  34.364  1.00  0.00     0.031 C 
ATOM     47  C   UNL A   1      38.584  29.006  28.695  1.00  0.00     0.029 A 
ATOM     48  C   UNL A   1      39.589  28.823  29.742  1.00  0.00     0.049 A 
ATOM     49  H   UNL A   1      39.552  29.638  31.663  1.00  0.00     0.167 HD
ATOM     50  C   UNL A   1      39.637  31.870  35.485  1.00  0.00     0.034 A 
ATOM     51  C   UNL A   1      40.712  28.078  29.646  1.00  0.00     0.034 A 
ATOM     52  C   UNL A   1      40.788  31.008  35.517  1.00  0.00     0.049 A 
ATOM     53  C   UNL A   1      41.681  28.063  30.811  1.00  0.00     0.074 A 
ATOM     54  C   UNL A   1      41.681  30.803  36.553  1.00  0.00     0.029 A 
ATOM     55  N   UNL A   1      41.221  30.226  34.454  1.00  0.00    -0.354 N 
ATOM     56  N   UNL A   1      41.594  28.681  31.968  1.00  0.00    -0.248 NA
ATOM     57  C   UNL A   1      42.904  27.260  30.653  1.00  0.00     0.031 C 
ATOM     58  C   UNL A   1      42.698  29.962  36.091  1.00  0.00     0.029 A 
ATOM     59  C   UNL A   1      42.396  29.577  34.794  1.00  0.00     0.049 A 
ATOM     60  H   UNL A   1      40.762  30.147  33.588  1.00  0.00     0.167 HD
ATOM     61  C   UNL A   1      42.735  28.315  32.681  1.00  0.00     0.074 A 
ATOM     62  C   UNL A   1      43.487  27.416  31.832  1.00  0.00     0.031 C 
ATOM     63  C   UNL A   1      43.129  28.685  33.927  1.00  0.00     0.034 A 
BRANCH  50  64
ATOM     64  C   UNL A   1      39.373  32.777  36.659  1.00  0.00     0.023 A 
ATOM     65  C   UNL A   1      40.034  34.008  36.812  1.00  0.00     0.031 A 
ATOM     66  C   UNL A   1      38.459  32.388  37.653  1.00  0.00     0.131 A 
ATOM     67  C   UNL A   1      39.813  34.778  37.963  1.00  0.00     0.055 A 
ATOM     68  C   UNL A   1      38.188  33.194  38.759  1.00  0.00     0.041 A 
ATOM     69  F   UNL A   1      37.821  31.210  37.571  1.00  0.00    -0.206 F 
ATOM     70  C   UNL A   1      38.875  34.392  38.926  1.00  0.00     0.022 A 
BRANCH  67  71
ATOM     71  S   UNL A   1      40.855  36.234  38.247  1.00  0.00     0.124 S 
ATOM     72  O   UNL A   1      41.617  35.827  39.425  1.00  0.00    -0.237 OA
ATOM     73  O   UNL A   1      41.607  36.332  37.001  1.00  0.00    -0.237 OA
ATOM     74  O   UNL A   1      39.890  37.308  38.478  1.00  0.00    -0.744 OA
ENDBRANCH  67  71
ENDBRANCH  50  64
BRANCH  51  75
ATOM     75  C   UNL A   1      41.048  27.351  28.383  1.00  0.00     0.023 A 
ATOM     76  C   UNL A   1      40.864  25.963  28.271  1.00  0.00     0.031 A 
ATOM     77  C   UNL A   1      41.648  28.022  27.300  1.00  0.00     0.131 A 
ATOM     78  C   UNL A   1      41.328  25.284  27.132  1.00  0.00     0.055 A 
ATOM     79  C   UNL A   1      42.051  27.350  26.144  1.00  0.00     0.041 A 
ATOM     80  F   UNL A   1      41.858  29.346  27.352  1.00  0.00    -0.206 F 
ATOM     81  C   UNL A   1      41.907  25.969  26.063  1.00  0.00     0.022 A 
BRANCH  78  82
ATOM     82  S   UNL A   1      41.272  23.469  27.121  1.00  0.00     0.124 S 
ATOM     83  O   UNL A   1      42.059  23.156  25.934  1.00  0.00    -0.237 OA
ATOM     84  O   UNL A   1      41.884  23.141  28.404  1.00  0.00    -0.237 OA
ATOM     85  O   UNL A   1      39.844  23.174  27.021  1.00  0.00    -0.744 OA
ENDBRANCH  78  82
ENDBRANCH  51  75
BRANCH  63  86
ATOM     86  C   UNL A   1      44.404  28.080  34.462  1.00  0.00     0.023 A 
ATOM     87  C   UNL A   1      44.408  26.870  35.175  1.00  0.00     0.031 A 
ATOM     88  C   UNL A   1      45.638  28.715  34.224  1.00  0.00     0.131 A 
ATOM     89  C   UNL A   1      45.619  26.349  35.658  1.00  0.00     0.055 A 
ATOM     90  C   UNL A   1      46.843  28.163  34.656  1.00  0.00     0.041 A 
ATOM     91  F   UNL A   1      45.690  29.873  33.548  1.00  0.00    -0.206 F 
ATOM     92  C   UNL A   1      46.838  26.977  35.385  1.00  0.00     0.022 A 
BRANCH  89  93
ATOM     93  S   UNL A   1      45.577  24.865  36.699  1.00  0.00     0.124 S 
ATOM     94  O   UNL A   1      46.940  24.820  37.218  1.00  0.00    -0.237 OA
ATOM     95  O   UNL A   1      44.536  25.191  37.668  1.00  0.00    -0.237 OA
ATOM     96  O   UNL A   1      45.235  23.797  35.761  1.00  0.00    -0.744 OA
ENDBRANCH  89  93
ENDBRANCH  63  86
ENDBRANCH  37  38
ENDBRANCH  30  32
ENDBRANCH  29  30
ENDBRANCH  28  29
ENDBRANCH  27  28
ENDBRANCH  26  27
ENDBRANCH  25  26
ENDBRANCH   1  25
TORSDOF 24
ENDMDL
MODEL 3
REMARK VINA RESULT:      -8.7      5.379     11.036
REMARK SMILES CC[C@](C)(NC(=O)NC[C@H]1COCCO1)C(=O)OCCOCCOCCOC(=O)c1ccc(-c2c3nc(c(-c4cc(S(=O)(=O)[O-])ccc4F)c4ccc([nH]4)c(-c4cc(S(=O)(=O)[O-])ccc4F)c4nc(c(-c5cc(S(=O)(=O)[O-])ccc5F)c5ccc2[nH]5)C=C4)C=C3)cc1
REMARK SMILES IDX 22 1 21 2 20 3 19 4 18 5 16 6 17 7 3 8 4 9 2 10 1 11 5 12
REMARK SMILES IDX 6 13 7 15 8 16 9 18 10 19 11 20 15 21 12 22 14 23 13 24
REMARK SMILES IDX 23 25 24 26 25 27 26 28 27 29 28 30 29 31 30 32 31 33 92 34
REMARK SMILES IDX 32 35 91 36 33 37 34 38 35 39 85 40 36 41 90 42 84 43 86 44
REMARK SMILES IDX 37 45 89 46 83 47 82 48 38 50 70 51 50 52 69 53 51 54 54 55
REMARK SMILES IDX 68 56 87 57 52 58 53 59 67 61 88 62 55 63 39 64 40 65 48 66
REMARK SMILES IDX 41 67 47 68 49 69 46 70 42 71 43 72 44 73 45 74 71 75 72 76
REMARK SMILES IDX 80 77 73 78 79 79 81 80 78 81 74 82 75 83 76 84 77 85 56 86
REMARK SMILES IDX 57 87 65 88 58 89 64 90 66 91 63 92 59 93 60 94 61 95 62 96
REMARK H PARENT 5 14 8 17 86 49 54 60
REMARK Flexibility Score: inf
ROOT
ATOM      1  C   UNL A   1      36.335  29.604  28.396  1.00  0.00     0.188 C 
ENDROOT
BRANCH   1   2
ATOM      2  O   UNL A   1      34.929  29.858  28.417  1.00  0.00    -0.376 OA
BRANCH   2   3
ATOM      3  C   UNL A   1      34.505  30.780  27.415  1.00  0.00     0.202 C 
BRANCH   3   4
ATOM      4  C   UNL A   1      32.985  30.840  27.383  1.00  0.00     0.261 C 
BRANCH   4   5
ATOM      5  O   UNL A   1      32.462  29.603  26.857  1.00  0.00    -0.462 OA
BRANCH   5   6
ATOM      6  C   UNL A   1      31.938  29.603  25.616  1.00  0.00     0.331 C 
ATOM      7  O   UNL A   1      31.271  30.531  25.170  1.00  0.00    -0.249 OA
BRANCH   6   8
ATOM      8  C   UNL A   1      32.321  28.334  24.791  1.00  0.00     0.136 C 
ATOM      9  C   UNL A   1      33.335  27.643  25.755  1.00  0.00     0.047 C 
BRANCH   8  10
ATOM     10  C   UNL A   1      33.110  28.767  23.528  1.00  0.00     0.037 C 
ATOM     11  C   UNL A   1      33.645  27.630  22.671  1.00  0.00     0.007 C 
ENDBRANCH   8  10
BRANCH   8  12
ATOM     12  N   UNL A   1      31.378  27.213  24.439  1.00  0.00    -0.322 N 
ATOM     13  C   UNL A   1      30.481  26.839  23.526  1.00  0.00     0.315 C 
ATOM     14  H   UNL A   1      31.447  26.511  25.125  1.00  0.00     0.166 HD
ATOM     15  O   UNL A   1      30.323  25.624  23.375  1.00  0.00    -0.249 OA
ATOM     16  N   UNL A   1      29.706  27.652  22.816  1.00  0.00    -0.335 N 
ATOM     17  H   UNL A   1      29.184  27.202  22.113  1.00  0.00     0.165 HD
BRANCH  16  18
ATOM     18  C   UNL A   1      29.492  29.070  22.892  1.00  0.00     0.152 C 
BRANCH  18  19
ATOM     19  C   UNL A   1      28.091  29.574  22.498  1.00  0.00     0.163 C 
ATOM     20  C   UNL A   1      27.630  30.655  23.490  1.00  0.00     0.194 C 
ATOM     21  O   UNL A   1      27.999  30.060  21.146  1.00  0.00    -0.372 OA
ATOM     22  O   UNL A   1      28.405  31.850  23.332  1.00  0.00    -0.376 OA
ATOM     23  C   UNL A   1      28.698  31.296  20.962  1.00  0.00     0.189 C 
ATOM     24  C   UNL A   1      28.286  32.344  21.992  1.00  0.00     0.188 C 
ENDBRANCH  18  19
ENDBRANCH  16  18
ENDBRANCH   8  12
ENDBRANCH   6   8
ENDBRANCH   5   6
ENDBRANCH   4   5
ENDBRANCH   3   4
ENDBRANCH   2   3
ENDBRANCH   1   2
BRANCH   1  25
ATOM     25  C   UNL A   1      36.966  29.693  29.795  1.00  0.00     0.188 C 
BRANCH  25  26
ATOM     26  O   UNL A   1      36.417  30.572  30.768  1.00  0.00    -0.376 OA
BRANCH  26  27
ATOM     27  C   UNL A   1      36.367  31.956  30.466  1.00  0.00     0.202 C 
BRANCH  27  28
ATOM     28  C   UNL A   1      36.409  32.919  31.657  1.00  0.00     0.261 C 
BRANCH  28  29
ATOM     29  O   UNL A   1      37.051  34.163  31.332  1.00  0.00    -0.460 OA
BRANCH  29  30
ATOM     30  C   UNL A   1      38.102  34.522  32.114  1.00  0.00     0.338 C 
ATOM     31  O   UNL A   1      38.123  34.594  33.330  1.00  0.00    -0.246 OA
BRANCH  30  32
ATOM     32  C   UNL A   1      39.311  34.589  31.259  1.00  0.00     0.060 A 
ATOM     33  C   UNL A   1      40.568  34.417  31.860  1.00  0.00     0.016 A 
ATOM     34  C   UNL A   1      39.208  34.757  29.877  1.00  0.00     0.016 A 
ATOM     35  C   UNL A   1      41.726  34.406  31.081  1.00  0.00     0.010 A 
ATOM     36  C   UNL A   1      40.371  34.784  29.103  1.00  0.00     0.010 A 
ATOM     37  C   UNL A   1      41.634  34.627  29.701  1.00  0.00    -0.014 A 
BRANCH  37  38
ATOM     38  C   UNL A   1      42.840  34.940  28.898  1.00  0.00     0.031 A 
ATOM     39  C   UNL A   1      43.733  33.792  28.522  1.00  0.00     0.074 A 
ATOM     40  C   UNL A   1      43.178  36.205  28.589  1.00  0.00     0.049 A 
ATOM     41  N   UNL A   1      44.943  33.803  28.031  1.00  0.00    -0.248 NA
ATOM     42  C   UNL A   1      43.187  32.443  28.752  1.00  0.00     0.031 C 
ATOM     43  C   UNL A   1      42.361  37.389  28.847  1.00  0.00     0.029 A 
ATOM     44  N   UNL A   1      44.324  36.705  28.018  1.00  0.00    -0.354 N 
ATOM     45  C   UNL A   1      45.314  32.469  27.920  1.00  0.00     0.074 A 
ATOM     46  C   UNL A   1      44.204  31.675  28.397  1.00  0.00     0.031 C 
ATOM     47  C   UNL A   1      43.051  38.483  28.477  1.00  0.00     0.029 A 
ATOM     48  C   UNL A   1      44.377  38.082  28.007  1.00  0.00     0.049 A 
ATOM     49  H   UNL A   1      45.038  36.135  27.651  1.00  0.00     0.167 HD
ATOM     50  C   UNL A   1      46.486  31.955  27.475  1.00  0.00     0.034 A 
ATOM     51  C   UNL A   1      45.401  38.912  27.711  1.00  0.00     0.034 A 
ATOM     52  C   UNL A   1      47.586  32.763  27.022  1.00  0.00     0.049 A 
ATOM     53  C   UNL A   1      46.734  38.314  27.309  1.00  0.00     0.074 A 
ATOM     54  C   UNL A   1      48.804  32.350  26.515  1.00  0.00     0.029 A 
ATOM     55  N   UNL A   1      47.611  34.151  27.046  1.00  0.00    -0.354 N 
ATOM     56  N   UNL A   1      47.069  37.049  27.183  1.00  0.00    -0.248 NA
ATOM     57  C   UNL A   1      47.829  39.253  27.022  1.00  0.00     0.031 C 
ATOM     58  C   UNL A   1      49.596  33.484  26.309  1.00  0.00     0.029 A 
ATOM     59  C   UNL A   1      48.843  34.608  26.609  1.00  0.00     0.049 A 
ATOM     60  H   UNL A   1      46.864  34.725  27.332  1.00  0.00     0.167 HD
ATOM     61  C   UNL A   1      48.402  37.047  26.773  1.00  0.00     0.074 A 
ATOM     62  C   UNL A   1      48.805  38.433  26.662  1.00  0.00     0.031 C 
ATOM     63  C   UNL A   1      49.222  35.998  26.509  1.00  0.00     0.034 A 
BRANCH  50  64
ATOM     64  C   UNL A   1      46.655  30.459  27.535  1.00  0.00     0.023 A 
ATOM     65  C   UNL A   1      46.281  29.623  26.469  1.00  0.00     0.031 A 
ATOM     66  C   UNL A   1      47.179  29.860  28.694  1.00  0.00     0.131 A 
ATOM     67  C   UNL A   1      46.384  28.231  26.606  1.00  0.00     0.055 A 
ATOM     68  C   UNL A   1      47.348  28.479  28.796  1.00  0.00     0.041 A 
ATOM     69  F   UNL A   1      47.525  30.608  29.754  1.00  0.00    -0.206 F 
ATOM     70  C   UNL A   1      46.939  27.654  27.753  1.00  0.00     0.022 A 
BRANCH  67  71
ATOM     71  S   UNL A   1      45.672  27.177  25.315  1.00  0.00     0.124 S 
ATOM     72  O   UNL A   1      46.706  27.234  24.284  1.00  0.00    -0.237 OA
ATOM     73  O   UNL A   1      45.523  25.898  25.999  1.00  0.00    -0.237 OA
ATOM     74  O   UNL A   1      44.422  27.851  24.972  1.00  0.00    -0.744 OA
ENDBRANCH  67  71
ENDBRANCH  50  64
BRANCH  51  75
ATOM     75  C   UNL A   1      45.260  40.393  27.863  1.00  0.00     0.023 A 
ATOM     76  C   UNL A   1      45.370  41.010  29.120  1.00  0.00     0.031 A 
ATOM     77  C   UNL A   1      44.917  41.203  26.764  1.00  0.00     0.131 A 
ATOM     78  C   UNL A   1      45.083  42.378  29.257  1.00  0.00     0.055 A 
ATOM     79  C   UNL A   1      44.693  42.575  26.896  1.00  0.00     0.041 A 
ATOM     80  F   UNL A   1      44.788  40.669  25.539  1.00  0.00    -0.206 F 
ATOM     81  C   UNL A   1      44.759  43.168  28.152  1.00  0.00     0.022 A 
BRANCH  78  82
ATOM     82  S   UNL A   1      45.022  43.089  30.927  1.00  0.00     0.124 S 
ATOM     83  O   UNL A   1      46.418  42.997  31.338  1.00  0.00    -0.237 OA
ATOM     84  O   UNL A   1      44.516  44.432  30.664  1.00  0.00    -0.237 OA
ATOM     85  O   UNL A   1      44.100  42.206  31.638  1.00  0.00    -0.744 OA
ENDBRANCH  78  82
ENDBRANCH  51  75
BRANCH  63  86
ATOM     86  C   UNL A   1      50.619  36.309  26.029  1.00  0.00     0.023 A 
ATOM     87  C   UNL A   1      51.719  36.317  26.904  1.00  0.00     0.031 A 
ATOM     88  C   UNL A   1      50.852  36.571  24.667  1.00  0.00     0.131 A 
ATOM     89  C   UNL A   1      52.998  36.616  26.411  1.00  0.00     0.055 A 
ATOM     90  C   UNL A   1      52.134  36.811  24.173  1.00  0.00     0.041 A 
ATOM     91  F   UNL A   1      49.836  36.575  23.789  1.00  0.00    -0.206 F 
ATOM     92  C   UNL A   1      53.216  36.844  25.049  1.00  0.00     0.022 A 
BRANCH  89  93
ATOM     93  S   UNL A   1      54.372  36.764  27.585  1.00  0.00     0.124 S 
ATOM     94  O   UNL A   1      53.695  37.244  28.786  1.00  0.00    -0.237 OA
ATOM     95  O   UNL A   1      54.883  35.399  27.644  1.00  0.00    -0.237 OA
ATOM     96  O   UNL A   1      55.265  37.732  26.948  1.00  0.00    -0.744 OA
ENDBRANCH  89  93
ENDBRANCH  63  86
ENDBRANCH  37  38
ENDBRANCH  30  32
ENDBRANCH  29  30
ENDBRANCH  28  29
ENDBRANCH  27  28
ENDBRANCH  26  27
ENDBRANCH  25  26
ENDBRANCH   1  25
TORSDOF 24
ENDMDL
