MODEL 1
REMARK VINA RESULT:     -11.5      0.000      0.000
REMARK SMILES O=C(OCCOCCOCCOC(=O)c1ccc(-c2c3nc(c(-c4cc(S(=O)(=O)[O-])ccc4F)c4ccc([nH]4)c(-c4cc(S(=O)(=O)[O-])ccc4F)c4nc(c(-c5cc(S(=O)(=O)[O-])ccc5F)c5ccc2[nH]5)C=C4)C=C3)cc1)C1=Cc2c(Cl)cc(Cl)cc2O[C@@H]1C(F)(F)F
REMARK SMILES IDX 8 1 7 2 6 3 5 4 4 5 3 6 2 7 1 8 78 9 79 10 89 11 80 12 88 13
REMARK SMILES IDX 81 14 87 15 82 16 83 17 86 18 84 19 85 20 90 21 91 22 92 23
REMARK SMILES IDX 93 24 9 25 10 26 11 27 12 28 13 29 14 30 15 31 16 32 77 33
REMARK SMILES IDX 17 34 76 35 18 36 19 37 20 38 70 39 21 40 75 41 69 42 71 43
REMARK SMILES IDX 22 44 74 45 68 46 67 47 23 49 55 50 35 51 54 52 36 53 39 54
REMARK SMILES IDX 53 55 72 56 37 57 38 58 52 60 73 61 40 62 24 63 25 64 33 65
REMARK SMILES IDX 26 66 32 67 34 68 31 69 27 70 28 71 29 72 30 73 56 74 57 75
REMARK SMILES IDX 65 76 58 77 64 78 66 79 63 80 59 81 60 82 61 83 62 84 41 85
REMARK SMILES IDX 42 86 50 87 43 88 49 89 51 90 48 91 44 92 45 93 46 94 47 95
REMARK H PARENT 71 48 39 59
REMARK Flexibility Score: inf
ROOT
ATOM      1  C   UNL A   1      40.439  20.345  26.625  1.00  0.00     0.188 C 
ENDROOT
BRANCH   1   2
ATOM      2  C   UNL A   1      40.138  21.825  26.847  1.00  0.00     0.188 C 
BRANCH   2   3
ATOM      3  O   UNL A   1      38.929  22.235  26.216  1.00  0.00    -0.376 OA
BRANCH   3   4
ATOM      4  C   UNL A   1      38.188  21.207  25.566  1.00  0.00     0.202 C 
BRANCH   4   5
ATOM      5  C   UNL A   1      37.396  21.669  24.334  1.00  0.00     0.261 C 
BRANCH   5   6
ATOM      6  O   UNL A   1      35.971  21.523  24.521  1.00  0.00    -0.460 OA
BRANCH   6   7
ATOM      7  C   UNL A   1      35.170  22.603  24.371  1.00  0.00     0.338 C 
ATOM      8  O   UNL A   1      35.599  23.685  23.995  1.00  0.00    -0.246 OA
BRANCH   7   9
ATOM      9  C   UNL A   1      33.786  22.427  24.887  1.00  0.00     0.087 C 
ATOM     10  C   UNL A   1      32.873  22.052  23.966  1.00  0.00     0.029 C 
ATOM     11  C   UNL A   1      33.625  21.932  26.298  1.00  0.00     0.316 C 
ATOM     12  C   UNL A   1      32.689  20.576  23.987  1.00  0.00     0.036 A 
ATOM     13  O   UNL A   1      33.250  20.524  26.355  1.00  0.00    -0.475 OA
ATOM     14  C   UNL A   1      32.308  19.842  22.857  1.00  0.00     0.053 A 
ATOM     15  C   UNL A   1      33.026  19.886  25.160  1.00  0.00     0.130 A 
ATOM     16  Cl  UNL A   1      31.650  20.609  21.457  1.00  0.00    -0.083 Cl
ATOM     17  C   UNL A   1      32.464  18.455  22.834  1.00  0.00     0.042 A 
ATOM     18  C   UNL A   1      33.195  18.502  25.137  1.00  0.00     0.067 A 
ATOM     19  C   UNL A   1      32.973  17.803  23.955  1.00  0.00     0.046 A 
ATOM     20  Cl  UNL A   1      33.366  16.130  23.862  1.00  0.00    -0.084 Cl
BRANCH  11  21
ATOM     21  C   UNL A   1      32.725  22.815  27.154  1.00  0.00     0.430 C 
ATOM     22  F   UNL A   1      31.420  22.541  26.922  1.00  0.00    -0.167 F 
ATOM     23  F   UNL A   1      32.956  22.583  28.468  1.00  0.00    -0.167 F 
ATOM     24  F   UNL A   1      32.922  24.128  26.920  1.00  0.00    -0.167 F 
ENDBRANCH  11  21
ENDBRANCH   7   9
ENDBRANCH   6   7
ENDBRANCH   5   6
ENDBRANCH   4   5
ENDBRANCH   3   4
ENDBRANCH   2   3
ENDBRANCH   1   2
BRANCH   1  25
ATOM     25  O   UNL A   1      41.461  20.193  25.648  1.00  0.00    -0.376 OA
BRANCH  25  26
ATOM     26  C   UNL A   1      42.781  20.474  26.105  1.00  0.00     0.202 C 
BRANCH  26  27
ATOM     27  C   UNL A   1      43.648  21.547  25.400  1.00  0.00     0.261 C 
BRANCH  27  28
ATOM     28  O   UNL A   1      43.017  22.752  24.935  1.00  0.00    -0.460 OA
BRANCH  28  29
ATOM     29  C   UNL A   1      43.738  23.895  24.963  1.00  0.00     0.338 C 
ATOM     30  O   UNL A   1      44.726  24.141  24.299  1.00  0.00    -0.246 OA
BRANCH  29  31
ATOM     31  C   UNL A   1      43.097  24.842  25.909  1.00  0.00     0.060 A 
ATOM     32  C   UNL A   1      43.496  26.183  25.929  1.00  0.00     0.016 A 
ATOM     33  C   UNL A   1      42.158  24.382  26.836  1.00  0.00     0.016 A 
ATOM     34  C   UNL A   1      42.959  27.065  26.878  1.00  0.00     0.010 A 
ATOM     35  C   UNL A   1      41.635  25.263  27.797  1.00  0.00     0.010 A 
ATOM     36  C   UNL A   1      42.045  26.608  27.839  1.00  0.00    -0.014 A 
BRANCH  36  37
ATOM     37  C   UNL A   1      41.622  27.495  28.961  1.00  0.00     0.031 A 
ATOM     38  C   UNL A   1      42.381  27.444  30.259  1.00  0.00     0.074 A 
ATOM     39  C   UNL A   1      40.581  28.343  28.836  1.00  0.00     0.049 A 
ATOM     40  N   UNL A   1      42.153  28.080  31.380  1.00  0.00    -0.248 NA
ATOM     41  C   UNL A   1      43.557  26.562  30.296  1.00  0.00     0.031 C 
ATOM     42  C   UNL A   1      39.800  28.524  27.619  1.00  0.00     0.029 A 
ATOM     43  N   UNL A   1      39.994  29.203  29.736  1.00  0.00    -0.354 N 
ATOM     44  C   UNL A   1      43.149  27.670  32.259  1.00  0.00     0.074 A 
ATOM     45  C   UNL A   1      43.976  26.721  31.543  1.00  0.00     0.031 C 
ATOM     46  C   UNL A   1      38.827  29.423  27.845  1.00  0.00     0.029 A 
ATOM     47  C   UNL A   1      38.885  29.854  29.241  1.00  0.00     0.049 A 
ATOM     48  H   UNL A   1      40.336  29.339  30.649  1.00  0.00     0.167 HD
ATOM     49  C   UNL A   1      43.351  28.048  33.545  1.00  0.00     0.034 A 
ATOM     50  C   UNL A   1      37.999  30.673  29.850  1.00  0.00     0.034 A 
ATOM     51  C   UNL A   1      42.511  28.981  34.256  1.00  0.00     0.049 A 
ATOM     52  C   UNL A   1      38.193  30.997  31.317  1.00  0.00     0.074 A 
ATOM     53  C   UNL A   1      42.648  29.443  35.553  1.00  0.00     0.029 A 
ATOM     54  N   UNL A   1      41.364  29.575  33.744  1.00  0.00    -0.354 N 
ATOM     55  N   UNL A   1      39.158  30.623  32.126  1.00  0.00    -0.248 NA
ATOM     56  C   UNL A   1      37.179  31.850  31.954  1.00  0.00     0.031 C 
ATOM     57  C   UNL A   1      41.541  30.242  35.855  1.00  0.00     0.029 A 
ATOM     58  C   UNL A   1      40.759  30.356  34.717  1.00  0.00     0.049 A 
ATOM     59  H   UNL A   1      41.031  29.459  32.825  1.00  0.00     0.167 HD
ATOM     60  C   UNL A   1      38.876  31.215  33.356  1.00  0.00     0.074 A 
ATOM     61  C   UNL A   1      37.670  31.994  33.175  1.00  0.00     0.031 C 
ATOM     62  C   UNL A   1      39.547  31.120  34.532  1.00  0.00     0.034 A 
BRANCH  49  63
ATOM     63  C   UNL A   1      44.490  27.403  34.295  1.00  0.00     0.023 A 
ATOM     64  C   UNL A   1      44.314  26.235  35.055  1.00  0.00     0.031 A 
ATOM     65  C   UNL A   1      45.778  27.963  34.229  1.00  0.00     0.131 A 
ATOM     66  C   UNL A   1      45.402  25.688  35.754  1.00  0.00     0.055 A 
ATOM     67  C   UNL A   1      46.870  27.375  34.868  1.00  0.00     0.041 A 
ATOM     68  F   UNL A   1      45.998  29.093  33.538  1.00  0.00    -0.206 F 
ATOM     69  C   UNL A   1      46.684  26.235  35.644  1.00  0.00     0.022 A 
BRANCH  66  70
ATOM     70  S   UNL A   1      45.099  24.314  36.899  1.00  0.00     0.124 S 
ATOM     71  O   UNL A   1      44.557  23.296  36.002  1.00  0.00    -0.237 OA
ATOM     72  O   UNL A   1      46.429  24.051  37.436  1.00  0.00    -0.237 OA
ATOM     73  O   UNL A   1      44.139  24.869  37.852  1.00  0.00    -0.744 OA
ENDBRANCH  66  70
ENDBRANCH  49  63
BRANCH  50  74
ATOM     74  C   UNL A   1      36.797  31.195  29.124  1.00  0.00     0.023 A 
ATOM     75  C   UNL A   1      35.773  30.336  28.688  1.00  0.00     0.031 A 
ATOM     76  C   UNL A   1      36.713  32.551  28.754  1.00  0.00     0.131 A 
ATOM     77  C   UNL A   1      34.754  30.824  27.852  1.00  0.00     0.055 A 
ATOM     78  C   UNL A   1      35.656  33.046  27.985  1.00  0.00     0.041 A 
ATOM     79  F   UNL A   1      37.669  33.418  29.121  1.00  0.00    -0.206 F 
ATOM     80  C   UNL A   1      34.679  32.177  27.513  1.00  0.00     0.022 A 
BRANCH  77  81
ATOM     81  S   UNL A   1      33.609  29.639  27.092  1.00  0.00     0.124 S 
ATOM     82  O   UNL A   1      33.531  28.604  28.116  1.00  0.00    -0.237 OA
ATOM     83  O   UNL A   1      32.410  30.451  26.907  1.00  0.00    -0.237 OA
ATOM     84  O   UNL A   1      34.291  29.247  25.860  1.00  0.00    -0.744 OA
ENDBRANCH  77  81
ENDBRANCH  50  74
BRANCH  62  85
ATOM     85  C   UNL A   1      39.008  31.904  35.705  1.00  0.00     0.023 A 
ATOM     86  C   UNL A   1      38.323  31.278  36.762  1.00  0.00     0.031 A 
ATOM     87  C   UNL A   1      39.177  33.300  35.765  1.00  0.00     0.131 A 
ATOM     88  C   UNL A   1      37.786  32.051  37.804  1.00  0.00     0.055 A 
ATOM     89  C   UNL A   1      38.700  34.055  36.838  1.00  0.00     0.041 A 
ATOM     90  F   UNL A   1      39.818  33.955  34.784  1.00  0.00    -0.206 F 
ATOM     91  C   UNL A   1      37.988  33.432  37.859  1.00  0.00     0.022 A 
BRANCH  88  92
ATOM     92  S   UNL A   1      36.738  31.237  39.041  1.00  0.00     0.124 S 
ATOM     93  O   UNL A   1      35.610  32.159  39.136  1.00  0.00    -0.237 OA
ATOM     94  O   UNL A   1      36.458  29.949  38.417  1.00  0.00    -0.237 OA
ATOM     95  O   UNL A   1      37.591  31.178  40.227  1.00  0.00    -0.744 OA
ENDBRANCH  88  92
ENDBRANCH  62  85
ENDBRANCH  36  37
ENDBRANCH  29  31
ENDBRANCH  28  29
ENDBRANCH  27  28
ENDBRANCH  26  27
ENDBRANCH  25  26
ENDBRANCH   1  25
TORSDOF 21
ENDMDL
MODEL 2
REMARK VINA RESULT:     -11.0      2.107      8.085
REMARK SMILES O=C(OCCOCCOCCOC(=O)c1ccc(-c2c3nc(c(-c4cc(S(=O)(=O)[O-])ccc4F)c4ccc([nH]4)c(-c4cc(S(=O)(=O)[O-])ccc4F)c4nc(c(-c5cc(S(=O)(=O)[O-])ccc5F)c5ccc2[nH]5)C=C4)C=C3)cc1)C1=Cc2c(Cl)cc(Cl)cc2O[C@@H]1C(F)(F)F
REMARK SMILES IDX 8 1 7 2 6 3 5 4 4 5 3 6 2 7 1 8 78 9 79 10 89 11 80 12 88 13
REMARK SMILES IDX 81 14 87 15 82 16 83 17 86 18 84 19 85 20 90 21 91 22 92 23
REMARK SMILES IDX 93 24 9 25 10 26 11 27 12 28 13 29 14 30 15 31 16 32 77 33
REMARK SMILES IDX 17 34 76 35 18 36 19 37 20 38 70 39 21 40 75 41 69 42 71 43
REMARK SMILES IDX 22 44 74 45 68 46 67 47 23 49 55 50 35 51 54 52 36 53 39 54
REMARK SMILES IDX 53 55 72 56 37 57 38 58 52 60 73 61 40 62 24 63 25 64 33 65
REMARK SMILES IDX 26 66 32 67 34 68 31 69 27 70 28 71 29 72 30 73 56 74 57 75
REMARK SMILES IDX 65 76 58 77 64 78 66 79 63 80 59 81 60 82 61 83 62 84 41 85
REMARK SMILES IDX 42 86 50 87 43 88 49 89 51 90 48 91 44 92 45 93 46 94 47 95
REMARK H PARENT 71 48 39 59
REMARK Flexibility Score: inf
ROOT
ATOM      1  C   UNL A   1      31.741  27.895  23.501  1.00  0.00     0.188 C 
ENDROOT
BRANCH   1   2
ATOM      2  C   UNL A   1      31.276  26.531  24.003  1.00  0.00     0.188 C 
BRANCH   2   3
ATOM      3  O   UNL A   1      32.319  25.801  24.641  1.00  0.00    -0.376 OA
BRANCH   3   4
ATOM      4  C   UNL A   1      33.616  25.943  24.068  1.00  0.00     0.202 C 
BRANCH   4   5
ATOM      5  C   UNL A   1      34.717  25.129  24.764  1.00  0.00     0.261 C 
BRANCH   5   6
ATOM      6  O   UNL A   1      35.173  24.027  23.950  1.00  0.00    -0.460 OA
BRANCH   6   7
ATOM      7  C   UNL A   1      35.004  22.761  24.396  1.00  0.00     0.338 C 
ATOM      8  O   UNL A   1      35.845  21.891  24.220  1.00  0.00    -0.246 OA
BRANCH   7   9
ATOM      9  C   UNL A   1      33.648  22.467  24.933  1.00  0.00     0.087 C 
ATOM     10  C   UNL A   1      32.740  22.071  24.016  1.00  0.00     0.029 C 
ATOM     11  C   UNL A   1      33.556  21.902  26.324  1.00  0.00     0.316 C 
ATOM     12  C   UNL A   1      32.657  20.587  23.975  1.00  0.00     0.036 A 
ATOM     13  O   UNL A   1      33.279  20.471  26.326  1.00  0.00    -0.475 OA
ATOM     14  C   UNL A   1      32.299  19.878  22.822  1.00  0.00     0.053 A 
ATOM     15  C   UNL A   1      33.069  19.871  25.108  1.00  0.00     0.130 A 
ATOM     16  Cl  UNL A   1      31.556  20.657  21.472  1.00  0.00    -0.083 Cl
ATOM     17  C   UNL A   1      32.548  18.507  22.734  1.00  0.00     0.042 A 
ATOM     18  C   UNL A   1      33.331  18.504  25.020  1.00  0.00     0.067 A 
ATOM     19  C   UNL A   1      33.128  17.843  23.812  1.00  0.00     0.046 A 
ATOM     20  Cl  UNL A   1      33.631  16.207  23.637  1.00  0.00    -0.084 Cl
BRANCH  11  21
ATOM     21  C   UNL A   1      32.619  22.683  27.237  1.00  0.00     0.430 C 
ATOM     22  F   UNL A   1      32.903  22.443  28.538  1.00  0.00    -0.167 F 
ATOM     23  F   UNL A   1      32.771  24.014  27.034  1.00  0.00    -0.167 F 
ATOM     24  F   UNL A   1      31.324  22.374  27.029  1.00  0.00    -0.167 F 
ENDBRANCH  11  21
ENDBRANCH   7   9
ENDBRANCH   6   7
ENDBRANCH   5   6
ENDBRANCH   4   5
ENDBRANCH   3   4
ENDBRANCH   2   3
ENDBRANCH   1   2
BRANCH   1  25
ATOM     25  O   UNL A   1      30.784  28.893  23.834  1.00  0.00    -0.376 OA
BRANCH  25  26
ATOM     26  C   UNL A   1      31.172  29.778  24.881  1.00  0.00     0.202 C 
BRANCH  26  27
ATOM     27  C   UNL A   1      32.611  29.739  25.453  1.00  0.00     0.261 C 
BRANCH  27  28
ATOM     28  O   UNL A   1      32.803  29.951  26.862  1.00  0.00    -0.460 OA
BRANCH  28  29
ATOM     29  C   UNL A   1      33.413  31.091  27.253  1.00  0.00     0.338 C 
ATOM     30  O   UNL A   1      32.925  32.205  27.260  1.00  0.00    -0.246 OA
BRANCH  29  31
ATOM     31  C   UNL A   1      34.780  30.764  27.730  1.00  0.00     0.060 A 
ATOM     32  C   UNL A   1      35.129  29.434  27.988  1.00  0.00     0.016 A 
ATOM     33  C   UNL A   1      35.691  31.788  28.005  1.00  0.00     0.016 A 
ATOM     34  C   UNL A   1      36.388  29.125  28.522  1.00  0.00     0.010 A 
ATOM     35  C   UNL A   1      36.945  31.477  28.556  1.00  0.00     0.010 A 
ATOM     36  C   UNL A   1      37.298  30.145  28.837  1.00  0.00    -0.014 A 
BRANCH  36  37
ATOM     37  C   UNL A   1      38.554  29.833  29.579  1.00  0.00     0.031 A 
ATOM     38  C   UNL A   1      39.497  28.803  29.017  1.00  0.00     0.074 A 
ATOM     39  C   UNL A   1      38.865  30.456  30.733  1.00  0.00     0.049 A 
ATOM     40  N   UNL A   1      40.610  28.335  29.521  1.00  0.00    -0.248 NA
ATOM     41  C   UNL A   1      39.137  28.228  27.712  1.00  0.00     0.031 C 
ATOM     42  C   UNL A   1      38.065  31.505  31.352  1.00  0.00     0.029 A 
ATOM     43  N   UNL A   1      39.926  30.296  31.596  1.00  0.00    -0.354 N 
ATOM     44  C   UNL A   1      41.081  27.404  28.601  1.00  0.00     0.074 A 
ATOM     45  C   UNL A   1      40.125  27.366  27.515  1.00  0.00     0.031 C 
ATOM     46  C   UNL A   1      38.648  31.889  32.500  1.00  0.00     0.029 A 
ATOM     47  C   UNL A   1      39.845  31.080  32.727  1.00  0.00     0.049 A 
ATOM     48  H   UNL A   1      40.672  29.679  31.421  1.00  0.00     0.167 HD
ATOM     49  C   UNL A   1      42.205  26.649  28.661  1.00  0.00     0.034 A 
ATOM     50  C   UNL A   1      40.624  31.118  33.831  1.00  0.00     0.034 A 
ATOM     51  C   UNL A   1      43.143  26.680  29.758  1.00  0.00     0.049 A 
ATOM     52  C   UNL A   1      41.817  30.188  33.914  1.00  0.00     0.074 A 
ATOM     53  C   UNL A   1      44.322  25.968  29.898  1.00  0.00     0.029 A 
ATOM     54  N   UNL A   1      43.001  27.441  30.911  1.00  0.00    -0.354 N 
ATOM     55  N   UNL A   1      42.265  29.335  33.021  1.00  0.00    -0.248 NA
ATOM     56  C   UNL A   1      42.608  30.225  35.152  1.00  0.00     0.031 C 
ATOM     57  C   UNL A   1      44.843  26.229  31.169  1.00  0.00     0.029 A 
ATOM     58  C   UNL A   1      44.042  27.175  31.787  1.00  0.00     0.049 A 
ATOM     59  H   UNL A   1      42.268  28.076  31.081  1.00  0.00     0.167 HD
ATOM     60  C   UNL A   1      43.400  28.753  33.584  1.00  0.00     0.074 A 
ATOM     61  C   UNL A   1      43.586  29.374  34.878  1.00  0.00     0.031 C 
ATOM     62  C   UNL A   1      44.212  27.789  33.083  1.00  0.00     0.034 A 
BRANCH  49  63
ATOM     63  C   UNL A   1      42.454  25.671  27.540  1.00  0.00     0.023 A 
ATOM     64  C   UNL A   1      41.878  24.390  27.527  1.00  0.00     0.031 A 
ATOM     65  C   UNL A   1      43.271  26.041  26.457  1.00  0.00     0.131 A 
ATOM     66  C   UNL A   1      42.161  23.510  26.471  1.00  0.00     0.055 A 
ATOM     67  C   UNL A   1      43.492  25.187  25.377  1.00  0.00     0.041 A 
ATOM     68  F   UNL A   1      43.869  27.244  26.431  1.00  0.00    -0.206 F 
ATOM     69  C   UNL A   1      42.943  23.909  25.383  1.00  0.00     0.022 A 
BRANCH  66  70
ATOM     70  S   UNL A   1      41.584  21.794  26.590  1.00  0.00     0.124 S 
ATOM     71  O   UNL A   1      40.173  21.931  26.234  1.00  0.00    -0.237 OA
ATOM     72  O   UNL A   1      42.426  21.109  25.616  1.00  0.00    -0.237 OA
ATOM     73  O   UNL A   1      41.835  21.445  27.988  1.00  0.00    -0.744 OA
ENDBRANCH  66  70
ENDBRANCH  49  63
BRANCH  50  74
ATOM     74  C   UNL A   1      40.282  31.999  34.993  1.00  0.00     0.023 A 
ATOM     75  C   UNL A   1      39.406  31.570  36.005  1.00  0.00     0.031 A 
ATOM     76  C   UNL A   1      40.739  33.329  35.046  1.00  0.00     0.131 A 
ATOM     77  C   UNL A   1      38.960  32.478  36.980  1.00  0.00     0.055 A 
ATOM     78  C   UNL A   1      40.352  34.207  36.063  1.00  0.00     0.041 A 
ATOM     79  F   UNL A   1      41.561  33.806  34.099  1.00  0.00    -0.206 F 
ATOM     80  C   UNL A   1      39.441  33.788  37.026  1.00  0.00     0.022 A 
BRANCH  77  81
ATOM     81  S   UNL A   1      37.629  31.967  38.103  1.00  0.00     0.124 S 
ATOM     82  O   UNL A   1      36.576  32.919  37.767  1.00  0.00    -0.237 OA
ATOM     83  O   UNL A   1      37.400  30.585  37.693  1.00  0.00    -0.237 OA
ATOM     84  O   UNL A   1      38.219  32.132  39.430  1.00  0.00    -0.744 OA
ENDBRANCH  77  81
ENDBRANCH  50  74
BRANCH  62  85
ATOM     85  C   UNL A   1      45.396  27.371  33.925  1.00  0.00     0.023 A 
ATOM     86  C   UNL A   1      45.321  26.291  34.822  1.00  0.00     0.031 A 
ATOM     87  C   UNL A   1      46.615  28.066  33.833  1.00  0.00     0.131 A 
ATOM     88  C   UNL A   1      46.424  25.972  35.629  1.00  0.00     0.055 A 
ATOM     89  C   UNL A   1      47.731  27.702  34.588  1.00  0.00     0.041 A 
ATOM     90  F   UNL A   1      46.747  29.109  32.997  1.00  0.00    -0.206 F 
ATOM     91  C   UNL A   1      47.635  26.657  35.502  1.00  0.00     0.022 A 
BRANCH  88  92
ATOM     92  S   UNL A   1      46.228  24.707  36.914  1.00  0.00     0.124 S 
ATOM     93  O   UNL A   1      46.952  23.577  36.340  1.00  0.00    -0.237 OA
ATOM     94  O   UNL A   1      46.850  25.339  38.074  1.00  0.00    -0.237 OA
ATOM     95  O   UNL A   1      44.780  24.533  37.007  1.00  0.00    -0.744 OA
ENDBRANCH  88  92
ENDBRANCH  62  85
ENDBRANCH  36  37
ENDBRANCH  29  31
ENDBRANCH  28  29
ENDBRANCH  27  28
ENDBRANCH  26  27
ENDBRANCH  25  26
ENDBRANCH   1  25
TORSDOF 21
ENDMDL
MODEL 3
REMARK VINA RESULT:     -10.7      5.746      9.849
REMARK SMILES O=C(OCCOCCOCCOC(=O)c1ccc(-c2c3nc(c(-c4cc(S(=O)(=O)[O-])ccc4F)c4ccc([nH]4)c(-c4cc(S(=O)(=O)[O-])ccc4F)c4nc(c(-c5cc(S(=O)(=O)[O-])ccc5F)c5ccc2[nH]5)C=C4)C=C3)cc1)C1=Cc2c(Cl)cc(Cl)cc2O[C@@H]1C(F)(F)F
REMARK SMILES IDX 8 1 7 2 6 3 5 4 4 5 3 6 2 7 1 8 78 9 79 10 89 11 80 12 88 13
REMARK SMILES IDX 81 14 87 15 82 16 83 17 86 18 84 19 85 20 90 21 91 22 92 23
REMARK SMILES IDX 93 24 9 25 10 26 11 27 12 28 13 29 14 30 15 31 16 32 77 33
REMARK SMILES IDX 17 34 76 35 18 36 19 37 20 38 70 39 21 40 75 41 69 42 71 43
REMARK SMILES IDX 22 44 74 45 68 46 67 47 23 49 55 50 35 51 54 52 36 53 39 54
REMARK SMILES IDX 53 55 72 56 37 57 38 58 52 60 73 61 40 62 24 63 25 64 33 65
REMARK SMILES IDX 26 66 32 67 34 68 31 69 27 70 28 71 29 72 30 73 56 74 57 75
REMARK SMILES IDX 65 76 58 77 64 78 66 79 63 80 59 81 60 82 61 83 62 84 41 85
REMARK SMILES IDX 42 86 50 87 43 88 49 89 51 90 48 91 44 92 45 93 46 94 47 95
REMARK H PARENT 71 48 39 59
REMARK Flexibility Score: inf
ROOT
ATOM      1  C   UNL A   1      33.455  21.495  23.944  1.00  0.00     0.188 C 
ENDROOT
BRANCH   1   2
ATOM      2  C   UNL A   1      32.740  22.579  23.141  1.00  0.00     0.188 C 
BRANCH   2   3
ATOM      3  O   UNL A   1      33.629  23.589  22.677  1.00  0.00    -0.376 OA
BRANCH   3   4
ATOM      4  C   UNL A   1      33.559  24.838  23.360  1.00  0.00     0.202 C 
BRANCH   4   5
ATOM      5  C   UNL A   1      33.464  26.066  22.442  1.00  0.00     0.261 C 
BRANCH   5   6
ATOM      6  O   UNL A   1      33.441  27.301  23.190  1.00  0.00    -0.460 OA
BRANCH   6   7
ATOM      7  C   UNL A   1      32.468  28.207  22.939  1.00  0.00     0.338 C 
ATOM      8  O   UNL A   1      32.659  29.193  22.242  1.00  0.00    -0.246 OA
BRANCH   7   9
ATOM      9  C   UNL A   1      31.223  28.017  23.732  1.00  0.00     0.087 C 
ATOM     10  C   UNL A   1      30.895  29.045  24.542  1.00  0.00     0.029 C 
ATOM     11  C   UNL A   1      30.115  27.213  23.108  1.00  0.00     0.316 C 
ATOM     12  C   UNL A   1      29.910  29.939  23.875  1.00  0.00     0.036 A 
ATOM     13  O   UNL A   1      29.031  28.052  22.612  1.00  0.00    -0.475 OA
ATOM     14  C   UNL A   1      29.818  31.308  24.153  1.00  0.00     0.053 A 
ATOM     15  C   UNL A   1      29.127  29.403  22.844  1.00  0.00     0.130 A 
ATOM     16  Cl  UNL A   1      30.558  32.002  25.549  1.00  0.00    -0.083 Cl
ATOM     17  C   UNL A   1      29.123  32.155  23.287  1.00  0.00     0.042 A 
ATOM     18  C   UNL A   1      28.442  30.247  21.969  1.00  0.00     0.067 A 
ATOM     19  C   UNL A   1      28.497  31.624  22.162  1.00  0.00     0.046 A 
ATOM     20  Cl  UNL A   1      27.823  32.681  20.983  1.00  0.00    -0.084 Cl
BRANCH  11  21
ATOM     21  C   UNL A   1      29.620  26.073  23.989  1.00  0.00     0.430 C 
ATOM     22  F   UNL A   1      29.901  24.874  23.428  1.00  0.00    -0.167 F 
ATOM     23  F   UNL A   1      30.241  26.108  25.191  1.00  0.00    -0.167 F 
ATOM     24  F   UNL A   1      28.290  26.130  24.204  1.00  0.00    -0.167 F 
ENDBRANCH  11  21
ENDBRANCH   7   9
ENDBRANCH   6   7
ENDBRANCH   5   6
ENDBRANCH   4   5
ENDBRANCH   3   4
ENDBRANCH   2   3
ENDBRANCH   1   2
BRANCH   1  25
ATOM     25  O   UNL A   1      34.838  21.805  24.063  1.00  0.00    -0.376 OA
BRANCH  25  26
ATOM     26  C   UNL A   1      35.580  20.938  24.916  1.00  0.00     0.202 C 
BRANCH  26  27
ATOM     27  C   UNL A   1      36.716  21.494  25.810  1.00  0.00     0.261 C 
BRANCH  27  28
ATOM     28  O   UNL A   1      38.020  21.684  25.237  1.00  0.00    -0.460 OA
BRANCH  28  29
ATOM     29  C   UNL A   1      39.096  21.393  26.001  1.00  0.00     0.338 C 
ATOM     30  O   UNL A   1      39.598  20.296  26.153  1.00  0.00    -0.246 OA
BRANCH  29  31
ATOM     31  C   UNL A   1      39.613  22.649  26.599  1.00  0.00     0.060 A 
ATOM     32  C   UNL A   1      39.153  23.885  26.131  1.00  0.00     0.016 A 
ATOM     33  C   UNL A   1      40.619  22.603  27.567  1.00  0.00     0.016 A 
ATOM     34  C   UNL A   1      39.699  25.076  26.629  1.00  0.00     0.010 A 
ATOM     35  C   UNL A   1      41.178  23.798  28.051  1.00  0.00     0.010 A 
ATOM     36  C   UNL A   1      40.737  25.045  27.573  1.00  0.00    -0.014 A 
BRANCH  36  37
ATOM     37  C   UNL A   1      41.445  26.300  27.958  1.00  0.00     0.031 A 
ATOM     38  C   UNL A   1      40.682  27.377  28.680  1.00  0.00     0.074 A 
ATOM     39  C   UNL A   1      42.751  26.486  27.679  1.00  0.00     0.049 A 
ATOM     40  N   UNL A   1      41.080  28.566  29.055  1.00  0.00    -0.248 NA
ATOM     41  C   UNL A   1      39.287  27.070  29.028  1.00  0.00     0.031 C 
ATOM     42  C   UNL A   1      43.610  25.502  27.033  1.00  0.00     0.029 A 
ATOM     43  N   UNL A   1      43.582  27.562  27.892  1.00  0.00    -0.354 N 
ATOM     44  C   UNL A   1      39.984  29.154  29.676  1.00  0.00     0.074 A 
ATOM     45  C   UNL A   1      38.901  28.195  29.615  1.00  0.00     0.031 C 
ATOM     46  C   UNL A   1      44.843  26.017  26.886  1.00  0.00     0.029 A 
ATOM     47  C   UNL A   1      44.853  27.391  27.387  1.00  0.00     0.049 A 
ATOM     48  H   UNL A   1      43.294  28.378  28.361  1.00  0.00     0.167 HD
ATOM     49  C   UNL A   1      39.889  30.383  30.240  1.00  0.00     0.034 A 
ATOM     50  C   UNL A   1      45.893  28.251  27.307  1.00  0.00     0.034 A 
ATOM     51  C   UNL A   1      40.969  31.340  30.280  1.00  0.00     0.049 A 
ATOM     52  C   UNL A   1      45.724  29.653  27.856  1.00  0.00     0.074 A 
ATOM     53  C   UNL A   1      40.976  32.602  30.850  1.00  0.00     0.029 A 
ATOM     54  N   UNL A   1      42.222  31.158  29.709  1.00  0.00    -0.354 N 
ATOM     55  N   UNL A   1      44.689  30.183  28.466  1.00  0.00    -0.248 NA
ATOM     56  C   UNL A   1      46.861  30.573  27.703  1.00  0.00     0.031 C 
ATOM     57  C   UNL A   1      42.195  33.214  30.546  1.00  0.00     0.029 A 
ATOM     58  C   UNL A   1      42.988  32.302  29.868  1.00  0.00     0.049 A 
ATOM     59  H   UNL A   1      42.521  30.335  29.258  1.00  0.00     0.167 HD
ATOM     60  C   UNL A   1      45.062  31.488  28.787  1.00  0.00     0.074 A 
ATOM     61  C   UNL A   1      46.426  31.654  28.332  1.00  0.00     0.031 C 
ATOM     62  C   UNL A   1      44.344  32.464  29.398  1.00  0.00     0.034 A 
BRANCH  49  63
ATOM     63  C   UNL A   1      38.553  30.795  30.805  1.00  0.00     0.023 A 
ATOM     64  C   UNL A   1      37.647  31.584  30.076  1.00  0.00     0.031 A 
ATOM     65  C   UNL A   1      38.175  30.371  32.092  1.00  0.00     0.131 A 
ATOM     66  C   UNL A   1      36.426  31.960  30.657  1.00  0.00     0.055 A 
ATOM     67  C   UNL A   1      36.931  30.690  32.636  1.00  0.00     0.041 A 
ATOM     68  F   UNL A   1      39.012  29.637  32.842  1.00  0.00    -0.206 F 
ATOM     69  C   UNL A   1      36.050  31.496  31.921  1.00  0.00     0.022 A 
BRANCH  66  70
ATOM     70  S   UNL A   1      35.378  33.155  29.783  1.00  0.00     0.124 S 
ATOM     71  O   UNL A   1      36.277  33.624  28.731  1.00  0.00    -0.237 OA
ATOM     72  O   UNL A   1      34.256  32.332  29.346  1.00  0.00    -0.237 OA
ATOM     73  O   UNL A   1      35.062  34.148  30.809  1.00  0.00    -0.744 OA
ENDBRANCH  66  70
ENDBRANCH  49  63
BRANCH  50  74
ATOM     74  C   UNL A   1      47.167  27.868  26.620  1.00  0.00     0.023 A 
ATOM     75  C   UNL A   1      47.331  28.030  25.234  1.00  0.00     0.031 A 
ATOM     76  C   UNL A   1      48.200  27.223  27.327  1.00  0.00     0.131 A 
ATOM     77  C   UNL A   1      48.459  27.494  24.591  1.00  0.00     0.055 A 
ATOM     78  C   UNL A   1      49.356  26.759  26.694  1.00  0.00     0.041 A 
ATOM     79  F   UNL A   1      48.096  27.018  28.649  1.00  0.00    -0.206 F 
ATOM     80  C   UNL A   1      49.481  26.875  25.314  1.00  0.00     0.022 A 
BRANCH  77  81
ATOM     81  S   UNL A   1      48.506  27.485  22.776  1.00  0.00     0.124 S 
ATOM     82  O   UNL A   1      48.428  26.058  22.485  1.00  0.00    -0.237 OA
ATOM     83  O   UNL A   1      47.327  28.275  22.438  1.00  0.00    -0.237 OA
ATOM     84  O   UNL A   1      49.787  28.116  22.464  1.00  0.00    -0.744 OA
ENDBRANCH  77  81
ENDBRANCH  50  74
BRANCH  62  85
ATOM     85  C   UNL A   1      45.032  33.788  29.636  1.00  0.00     0.023 A 
ATOM     86  C   UNL A   1      44.911  34.858  28.732  1.00  0.00     0.031 A 
ATOM     87  C   UNL A   1      45.826  33.981  30.781  1.00  0.00     0.131 A 
ATOM     88  C   UNL A   1      45.614  36.051  28.960  1.00  0.00     0.055 A 
ATOM     89  C   UNL A   1      46.468  35.193  31.038  1.00  0.00     0.041 A 
ATOM     90  F   UNL A   1      45.983  32.994  31.679  1.00  0.00    -0.206 F 
ATOM     91  C   UNL A   1      46.375  36.233  30.118  1.00  0.00     0.022 A 
BRANCH  88  92
ATOM     92  S   UNL A   1      45.596  37.333  27.677  1.00  0.00     0.124 S 
ATOM     93  O   UNL A   1      45.913  38.534  28.444  1.00  0.00    -0.237 OA
ATOM     94  O   UNL A   1      46.631  36.872  26.758  1.00  0.00    -0.237 OA
ATOM     95  O   UNL A   1      44.233  37.275  27.153  1.00  0.00    -0.744 OA
ENDBRANCH  88  92
ENDBRANCH  62  85
ENDBRANCH  36  37
ENDBRANCH  29  31
ENDBRANCH  28  29
ENDBRANCH  27  28
ENDBRANCH  26  27
ENDBRANCH  25  26
ENDBRANCH   1  25
TORSDOF 21
ENDMDL
