MODEL 1
REMARK VINA RESULT:      -9.7      0.000      0.000
REMARK SMILES C[C@H](NC(=O)c1ccc(C(C)(C)C)cc1)C(=O)N[C@@H](C(=O)OCCOCCOCCOC(=O)c1ccc(-c2c3nc(c(-c4cc(S(=O)(=O)[O-])ccc4F)c4ccc([nH]4)c(-c4cc(S(=O)(=O)[O-])ccc4F)c4nc(c(-c5cc(S(=O)(=O)[O-])ccc5F)c5ccc2[nH]5)C=C4)C=C3)cc1)[C@H](C)O
REMARK SMILES IDX 26 1 25 2 24 3 23 4 22 5 20 6 21 7 19 8 18 9 16 10 17 11
REMARK SMILES IDX 2 13 1 14 3 15 4 16 5 18 6 19 7 20 15 21 8 22 14 23 9 24
REMARK SMILES IDX 10 25 11 26 12 27 13 28 97 29 98 30 99 31 27 33 28 34 29 35
REMARK SMILES IDX 30 36 31 37 32 38 33 39 34 40 35 41 96 42 36 43 95 44 37 45
REMARK SMILES IDX 38 46 39 47 89 48 40 49 94 50 88 51 90 52 41 53 93 54 87 55
REMARK SMILES IDX 86 56 42 58 74 59 54 60 73 61 55 62 58 63 72 64 91 65 56 66
REMARK SMILES IDX 57 67 71 69 92 70 59 71 43 72 44 73 52 74 45 75 51 76 53 77
REMARK SMILES IDX 50 78 46 79 47 80 48 81 49 82 75 83 76 84 84 85 77 86 83 87
REMARK SMILES IDX 85 88 82 89 78 90 79 91 80 92 81 93 60 94 61 95 69 96 62 97
REMARK SMILES IDX 68 98 70 99 67 100 63 101 64 102 65 103 66 104
REMARK H PARENT 18 12 3 17 99 32 90 57 58 68
REMARK Flexibility Score: inf
ROOT
ATOM      1  C   UNL A   1      34.722  32.591  27.949  1.00  0.00     0.188 C 
ENDROOT
BRANCH   1   2
ATOM      2  O   UNL A   1      34.265  31.242  27.992  1.00  0.00    -0.376 OA
BRANCH   2   3
ATOM      3  C   UNL A   1      33.082  30.903  27.264  1.00  0.00     0.202 C 
BRANCH   3   4
ATOM      4  C   UNL A   1      33.130  29.628  26.412  1.00  0.00     0.261 C 
BRANCH   4   5
ATOM      5  O   UNL A   1      32.651  29.845  25.066  1.00  0.00    -0.462 OA
BRANCH   5   6
ATOM      6  C   UNL A   1      32.589  28.743  24.266  1.00  0.00     0.331 C 
ATOM      7  O   UNL A   1      33.572  28.134  23.854  1.00  0.00    -0.250 OA
BRANCH   6   8
ATOM      8  C   UNL A   1      31.143  28.307  23.929  1.00  0.00     0.221 C 
BRANCH   8   9
ATOM      9  N   UNL A   1      30.928  26.900  23.522  1.00  0.00    -0.339 N 
ATOM     10  C   UNL A   1      30.716  25.784  24.276  1.00  0.00     0.243 C 
ATOM     11  O   UNL A   1      30.320  24.761  23.713  1.00  0.00    -0.273 OA
ATOM     12  H   UNL A   1      30.942  26.745  22.550  1.00  0.00     0.164 HD
BRANCH  10  13
ATOM     13  C   UNL A   1      30.916  25.818  25.797  1.00  0.00     0.168 C 
ATOM     14  C   UNL A   1      32.406  25.811  26.143  1.00  0.00     0.041 C 
BRANCH  13  15
ATOM     15  N   UNL A   1      30.086  24.742  26.361  1.00  0.00    -0.341 N 
ATOM     16  C   UNL A   1      30.406  23.466  26.733  1.00  0.00     0.251 C 
ATOM     17  H   UNL A   1      29.140  24.982  26.493  1.00  0.00     0.164 HD
ATOM     18  O   UNL A   1      29.579  22.736  27.267  1.00  0.00    -0.269 OA
BRANCH  16  19
ATOM     19  C   UNL A   1      31.740  22.955  26.402  1.00  0.00     0.039 A 
ATOM     20  C   UNL A   1      31.972  22.547  25.091  1.00  0.00     0.014 A 
ATOM     21  C   UNL A   1      32.775  22.999  27.332  1.00  0.00     0.014 A 
ATOM     22  C   UNL A   1      33.280  22.299  24.680  1.00  0.00     0.005 A 
ATOM     23  C   UNL A   1      34.083  22.763  26.907  1.00  0.00     0.005 A 
ATOM     24  C   UNL A   1      34.369  22.471  25.560  1.00  0.00    -0.043 A 
BRANCH  24  25
ATOM     25  C   UNL A   1      35.811  22.349  25.040  1.00  0.00    -0.013 C 
ATOM     26  C   UNL A   1      36.251  20.882  25.170  1.00  0.00     0.016 C 
ATOM     27  C   UNL A   1      35.908  22.785  23.558  1.00  0.00     0.016 C 
ATOM     28  C   UNL A   1      36.812  23.236  25.815  1.00  0.00     0.016 C 
ENDBRANCH  24  25
ENDBRANCH  16  19
ENDBRANCH  13  15
ENDBRANCH  10  13
ENDBRANCH   8   9
BRANCH   8  29
ATOM     29  C   UNL A   1      30.538  29.303  22.894  1.00  0.00     0.145 C 
ATOM     30  C   UNL A   1      29.275  30.014  23.375  1.00  0.00     0.041 C 
BRANCH  29  31
ATOM     31  O   UNL A   1      30.181  28.639  21.678  1.00  0.00    -0.391 OA
ATOM     32  H   UNL A   1      30.460  27.711  21.723  1.00  0.00     0.211 HD
ENDBRANCH  29  31
ENDBRANCH   8  29
ENDBRANCH   6   8
ENDBRANCH   5   6
ENDBRANCH   4   5
ENDBRANCH   3   4
ENDBRANCH   2   3
ENDBRANCH   1   2
BRANCH   1  33
ATOM     33  C   UNL A   1      33.692  33.690  28.215  1.00  0.00     0.188 C 
BRANCH  33  34
ATOM     34  O   UNL A   1      34.223  34.847  28.833  1.00  0.00    -0.376 OA
BRANCH  34  35
ATOM     35  C   UNL A   1      33.536  35.336  29.975  1.00  0.00     0.202 C 
BRANCH  35  36
ATOM     36  C   UNL A   1      34.237  35.020  31.305  1.00  0.00     0.261 C 
BRANCH  36  37
ATOM     37  O   UNL A   1      35.335  34.096  31.178  1.00  0.00    -0.460 OA
BRANCH  37  38
ATOM     38  C   UNL A   1      35.097  32.834  31.616  1.00  0.00     0.338 C 
ATOM     39  O   UNL A   1      34.033  32.386  31.998  1.00  0.00    -0.246 OA
BRANCH  38  40
ATOM     40  C   UNL A   1      36.294  32.013  31.321  1.00  0.00     0.060 A 
ATOM     41  C   UNL A   1      36.359  30.717  31.852  1.00  0.00     0.016 A 
ATOM     42  C   UNL A   1      37.333  32.508  30.531  1.00  0.00     0.016 A 
ATOM     43  C   UNL A   1      37.499  29.939  31.650  1.00  0.00     0.010 A 
ATOM     44  C   UNL A   1      38.481  31.733  30.341  1.00  0.00     0.010 A 
ATOM     45  C   UNL A   1      38.588  30.467  30.942  1.00  0.00    -0.014 A 
BRANCH  45  46
ATOM     46  C   UNL A   1      39.916  29.820  31.083  1.00  0.00     0.031 A 
ATOM     47  C   UNL A   1      40.796  30.281  32.217  1.00  0.00     0.074 A 
ATOM     48  C   UNL A   1      40.321  28.827  30.272  1.00  0.00     0.049 A 
ATOM     49  N   UNL A   1      41.982  29.864  32.577  1.00  0.00    -0.248 NA
ATOM     50  C   UNL A   1      40.258  31.366  33.053  1.00  0.00     0.031 C 
ATOM     51  C   UNL A   1      39.555  28.274  29.158  1.00  0.00     0.029 A 
ATOM     52  N   UNL A   1      41.489  28.105  30.269  1.00  0.00    -0.354 N 
ATOM     53  C   UNL A   1      42.325  30.625  33.690  1.00  0.00     0.074 A 
ATOM     54  C   UNL A   1      41.245  31.562  33.910  1.00  0.00     0.031 C 
ATOM     55  C   UNL A   1      40.277  27.299  28.575  1.00  0.00     0.029 A 
ATOM     56  C   UNL A   1      41.564  27.173  29.261  1.00  0.00     0.049 A 
ATOM     57  H   UNL A   1      42.208  28.241  30.929  1.00  0.00     0.167 HD
ATOM     58  C   UNL A   1      43.431  30.545  34.469  1.00  0.00     0.034 A 
ATOM     59  C   UNL A   1      42.562  26.329  28.927  1.00  0.00     0.034 A 
ATOM     60  C   UNL A   1      44.521  29.635  34.223  1.00  0.00     0.049 A 
ATOM     61  C   UNL A   1      43.823  26.310  29.761  1.00  0.00     0.074 A 
ATOM     62  C   UNL A   1      45.698  29.485  34.933  1.00  0.00     0.029 A 
ATOM     63  N   UNL A   1      44.573  28.727  33.173  1.00  0.00    -0.354 N 
ATOM     64  N   UNL A   1      44.128  27.022  30.823  1.00  0.00    -0.248 NA
ATOM     65  C   UNL A   1      44.868  25.357  29.359  1.00  0.00     0.031 C 
ATOM     66  C   UNL A   1      46.487  28.532  34.279  1.00  0.00     0.029 A 
ATOM     67  C   UNL A   1      45.771  28.031  33.204  1.00  0.00     0.049 A 
ATOM     68  H   UNL A   1      43.862  28.598  32.504  1.00  0.00     0.167 HD
ATOM     69  C   UNL A   1      45.382  26.573  31.235  1.00  0.00     0.074 A 
ATOM     70  C   UNL A   1      45.769  25.522  30.316  1.00  0.00     0.031 C 
ATOM     71  C   UNL A   1      46.144  26.985  32.282  1.00  0.00     0.034 A 
BRANCH  58  72
ATOM     72  C   UNL A   1      43.522  31.512  35.623  1.00  0.00     0.023 A 
ATOM     73  C   UNL A   1      44.151  32.762  35.485  1.00  0.00     0.031 A 
ATOM     74  C   UNL A   1      43.035  31.154  36.892  1.00  0.00     0.131 A 
ATOM     75  C   UNL A   1      44.346  33.574  36.612  1.00  0.00     0.055 A 
ATOM     76  C   UNL A   1      43.161  32.003  37.993  1.00  0.00     0.041 A 
ATOM     77  F   UNL A   1      42.451  29.961  37.088  1.00  0.00    -0.206 F 
ATOM     78  C   UNL A   1      43.834  33.214  37.861  1.00  0.00     0.022 A 
BRANCH  75  79
ATOM     79  S   UNL A   1      45.414  35.032  36.455  1.00  0.00     0.124 S 
ATOM     80  O   UNL A   1      46.050  34.794  35.162  1.00  0.00    -0.237 OA
ATOM     81  O   UNL A   1      44.457  36.132  36.505  1.00  0.00    -0.237 OA
ATOM     82  O   UNL A   1      46.306  34.929  37.608  1.00  0.00    -0.744 OA
ENDBRANCH  75  79
ENDBRANCH  58  72
BRANCH  59  83
ATOM     83  C   UNL A   1      42.442  25.441  27.733  1.00  0.00     0.023 A 
ATOM     84  C   UNL A   1      41.930  24.138  27.843  1.00  0.00     0.031 A 
ATOM     85  C   UNL A   1      42.918  25.858  26.478  1.00  0.00     0.131 A 
ATOM     86  C   UNL A   1      41.958  23.279  26.732  1.00  0.00     0.055 A 
ATOM     87  C   UNL A   1      42.897  25.018  25.363  1.00  0.00     0.041 A 
ATOM     88  F   UNL A   1      43.417  27.095  26.319  1.00  0.00    -0.206 F 
ATOM     89  C   UNL A   1      42.429  23.714  25.490  1.00  0.00     0.022 A 
BRANCH  86  90
ATOM     90  S   UNL A   1      41.449  21.552  26.954  1.00  0.00     0.124 S 
ATOM     91  O   UNL A   1      40.988  21.203  25.615  1.00  0.00    -0.237 OA
ATOM     92  O   UNL A   1      42.694  20.925  27.387  1.00  0.00    -0.237 OA
ATOM     93  O   UNL A   1      40.406  21.633  27.974  1.00  0.00    -0.744 OA
ENDBRANCH  86  90
ENDBRANCH  59  83
BRANCH  71  94
ATOM     94  C   UNL A   1      47.442  26.249  32.524  1.00  0.00     0.023 A 
ATOM     95  C   UNL A   1      47.535  25.177  33.427  1.00  0.00     0.031 A 
ATOM     96  C   UNL A   1      48.610  26.644  31.846  1.00  0.00     0.131 A 
ATOM     97  C   UNL A   1      48.780  24.579  33.678  1.00  0.00     0.055 A 
ATOM     98  C   UNL A   1      49.834  26.006  32.053  1.00  0.00     0.041 A 
ATOM     99  F   UNL A   1      48.582  27.663  30.971  1.00  0.00    -0.206 F 
ATOM    100  C   UNL A   1      49.927  24.977  32.985  1.00  0.00     0.022 A 
BRANCH  97 101
ATOM    101  S   UNL A   1      48.905  23.346  35.003  1.00  0.00     0.124 S 
ATOM    102  O   UNL A   1      49.121  22.113  34.254  1.00  0.00    -0.237 OA
ATOM    103  O   UNL A   1      50.045  23.833  35.773  1.00  0.00    -0.237 OA
ATOM    104  O   UNL A   1      47.614  23.440  35.682  1.00  0.00    -0.744 OA
ENDBRANCH  97 101
ENDBRANCH  71  94
ENDBRANCH  45  46
ENDBRANCH  38  40
ENDBRANCH  37  38
ENDBRANCH  36  37
ENDBRANCH  35  36
ENDBRANCH  34  35
ENDBRANCH  33  34
ENDBRANCH   1  33
TORSDOF 27
ENDMDL
MODEL 2
REMARK VINA RESULT:      -9.5      2.054      7.439
REMARK SMILES C[C@H](NC(=O)c1ccc(C(C)(C)C)cc1)C(=O)N[C@@H](C(=O)OCCOCCOCCOC(=O)c1ccc(-c2c3nc(c(-c4cc(S(=O)(=O)[O-])ccc4F)c4ccc([nH]4)c(-c4cc(S(=O)(=O)[O-])ccc4F)c4nc(c(-c5cc(S(=O)(=O)[O-])ccc5F)c5ccc2[nH]5)C=C4)C=C3)cc1)[C@H](C)O
REMARK SMILES IDX 26 1 25 2 24 3 23 4 22 5 20 6 21 7 19 8 18 9 16 10 17 11
REMARK SMILES IDX 2 13 1 14 3 15 4 16 5 18 6 19 7 20 15 21 8 22 14 23 9 24
REMARK SMILES IDX 10 25 11 26 12 27 13 28 97 29 98 30 99 31 27 33 28 34 29 35
REMARK SMILES IDX 30 36 31 37 32 38 33 39 34 40 35 41 96 42 36 43 95 44 37 45
REMARK SMILES IDX 38 46 39 47 89 48 40 49 94 50 88 51 90 52 41 53 93 54 87 55
REMARK SMILES IDX 86 56 42 58 74 59 54 60 73 61 55 62 58 63 72 64 91 65 56 66
REMARK SMILES IDX 57 67 71 69 92 70 59 71 43 72 44 73 52 74 45 75 51 76 53 77
REMARK SMILES IDX 50 78 46 79 47 80 48 81 49 82 75 83 76 84 84 85 77 86 83 87
REMARK SMILES IDX 85 88 82 89 78 90 79 91 80 92 81 93 60 94 61 95 69 96 62 97
REMARK SMILES IDX 68 98 70 99 67 100 63 101 64 102 65 103 66 104
REMARK H PARENT 18 12 3 17 99 32 90 57 58 68
REMARK Flexibility Score: inf
ROOT
ATOM      1  C   UNL A   1      34.421  33.022  27.996  1.00  0.00     0.188 C 
ENDROOT
BRANCH   1   2
ATOM      2  O   UNL A   1      34.169  31.620  27.970  1.00  0.00    -0.376 OA
BRANCH   2   3
ATOM      3  C   UNL A   1      33.002  31.153  27.287  1.00  0.00     0.202 C 
BRANCH   3   4
ATOM      4  C   UNL A   1      33.146  29.866  26.464  1.00  0.00     0.261 C 
BRANCH   4   5
ATOM      5  O   UNL A   1      32.732  30.041  25.090  1.00  0.00    -0.462 OA
BRANCH   5   6
ATOM      6  C   UNL A   1      32.574  28.899  24.362  1.00  0.00     0.331 C 
ATOM      7  O   UNL A   1      33.504  28.243  23.901  1.00  0.00    -0.250 OA
BRANCH   6   8
ATOM      8  C   UNL A   1      31.095  28.485  24.176  1.00  0.00     0.221 C 
BRANCH   8   9
ATOM      9  N   UNL A   1      30.823  27.107  23.709  1.00  0.00    -0.339 N 
ATOM     10  C   UNL A   1      30.581  25.966  24.415  1.00  0.00     0.243 C 
ATOM     11  O   UNL A   1      30.140  24.984  23.814  1.00  0.00    -0.273 OA
ATOM     12  H   UNL A   1      30.816  26.997  22.731  1.00  0.00     0.164 HD
BRANCH  10  13
ATOM     13  C   UNL A   1      30.806  25.923  25.933  1.00  0.00     0.168 C 
ATOM     14  C   UNL A   1      32.301  25.967  26.255  1.00  0.00     0.041 C 
BRANCH  13  15
ATOM     15  N   UNL A   1      30.038  24.778  26.446  1.00  0.00    -0.341 N 
ATOM     16  C   UNL A   1      30.427  23.506  26.758  1.00  0.00     0.251 C 
ATOM     17  H   UNL A   1      29.080  24.960  26.589  1.00  0.00     0.164 HD
ATOM     18  O   UNL A   1      29.642  22.708  27.258  1.00  0.00    -0.269 OA
BRANCH  16  19
ATOM     19  C   UNL A   1      31.787  23.085  26.405  1.00  0.00     0.039 A 
ATOM     20  C   UNL A   1      32.047  22.784  25.071  1.00  0.00     0.014 A 
ATOM     21  C   UNL A   1      32.812  23.111  27.347  1.00  0.00     0.014 A 
ATOM     22  C   UNL A   1      33.368  22.629  24.656  1.00  0.00     0.005 A 
ATOM     23  C   UNL A   1      34.133  22.969  26.918  1.00  0.00     0.005 A 
ATOM     24  C   UNL A   1      34.441  22.789  25.556  1.00  0.00    -0.043 A 
BRANCH  24  25
ATOM     25  C   UNL A   1      35.891  22.773  25.043  1.00  0.00    -0.013 C 
ATOM     26  C   UNL A   1      35.885  23.169  23.558  1.00  0.00     0.016 C 
ATOM     27  C   UNL A   1      36.773  23.767  25.837  1.00  0.00     0.016 C 
ATOM     28  C   UNL A   1      36.569  21.391  25.183  1.00  0.00     0.016 C 
ENDBRANCH  24  25
ENDBRANCH  16  19
ENDBRANCH  13  15
ENDBRANCH  10  13
ENDBRANCH   8   9
BRANCH   8  29
ATOM     29  C   UNL A   1      30.377  29.545  23.288  1.00  0.00     0.145 C 
ATOM     30  C   UNL A   1      28.959  29.158  22.875  1.00  0.00     0.041 C 
BRANCH  29  31
ATOM     31  O   UNL A   1      31.094  29.778  22.071  1.00  0.00    -0.391 OA
ATOM     32  H   UNL A   1      31.985  30.102  22.278  1.00  0.00     0.211 HD
ENDBRANCH  29  31
ENDBRANCH   8  29
ENDBRANCH   6   8
ENDBRANCH   5   6
ENDBRANCH   4   5
ENDBRANCH   3   4
ENDBRANCH   2   3
ENDBRANCH   1   2
BRANCH   1  33
ATOM     33  C   UNL A   1      33.244  33.941  28.327  1.00  0.00     0.188 C 
BRANCH  33  34
ATOM     34  O   UNL A   1      33.611  35.146  28.972  1.00  0.00    -0.376 OA
BRANCH  34  35
ATOM     35  C   UNL A   1      32.836  35.533  30.096  1.00  0.00     0.202 C 
BRANCH  35  36
ATOM     36  C   UNL A   1      33.610  35.513  31.422  1.00  0.00     0.261 C 
BRANCH  36  37
ATOM     37  O   UNL A   1      34.751  34.634  31.416  1.00  0.00    -0.460 OA
BRANCH  37  38
ATOM     38  C   UNL A   1      34.603  33.470  32.097  1.00  0.00     0.338 C 
ATOM     39  O   UNL A   1      33.586  33.060  32.623  1.00  0.00    -0.246 OA
BRANCH  38  40
ATOM     40  C   UNL A   1      35.822  32.656  31.886  1.00  0.00     0.060 A 
ATOM     41  C   UNL A   1      35.948  31.451  32.591  1.00  0.00     0.016 A 
ATOM     42  C   UNL A   1      36.824  33.070  31.006  1.00  0.00     0.016 A 
ATOM     43  C   UNL A   1      37.111  30.691  32.467  1.00  0.00     0.010 A 
ATOM     44  C   UNL A   1      37.995  32.316  30.893  1.00  0.00     0.010 A 
ATOM     45  C   UNL A   1      38.163  31.150  31.662  1.00  0.00    -0.014 A 
BRANCH  45  46
ATOM     46  C   UNL A   1      39.517  30.575  31.855  1.00  0.00     0.031 A 
ATOM     47  C   UNL A   1      39.941  29.469  30.922  1.00  0.00     0.074 A 
ATOM     48  C   UNL A   1      40.368  31.036  32.788  1.00  0.00     0.049 A 
ATOM     49  N   UNL A   1      41.073  28.818  30.858  1.00  0.00    -0.248 NA
ATOM     50  C   UNL A   1      38.943  29.042  29.928  1.00  0.00     0.031 C 
ATOM     51  C   UNL A   1      40.088  32.115  33.733  1.00  0.00     0.029 A 
ATOM     52  N   UNL A   1      41.650  30.648  33.091  1.00  0.00    -0.354 N 
ATOM     53  C   UNL A   1      40.929  27.916  29.809  1.00  0.00     0.074 A 
ATOM     54  C   UNL A   1      39.582  28.068  29.303  1.00  0.00     0.031 C 
ATOM     55  C   UNL A   1      41.168  32.301  34.514  1.00  0.00     0.029 A 
ATOM     56  C   UNL A   1      42.207  31.340  34.140  1.00  0.00     0.049 A 
ATOM     57  H   UNL A   1      42.126  29.939  32.601  1.00  0.00     0.167 HD
ATOM     58  C   UNL A   1      41.836  27.047  29.301  1.00  0.00     0.034 A 
ATOM     59  C   UNL A   1      43.411  31.201  34.733  1.00  0.00     0.034 A 
ATOM     60  C   UNL A   1      43.164  26.872  29.832  1.00  0.00     0.049 A 
ATOM     61  C   UNL A   1      44.381  30.169  34.202  1.00  0.00     0.074 A 
ATOM     62  C   UNL A   1      44.156  26.005  29.411  1.00  0.00     0.029 A 
ATOM     63  N   UNL A   1      43.681  27.570  30.916  1.00  0.00    -0.354 N 
ATOM     64  N   UNL A   1      44.239  29.334  33.198  1.00  0.00    -0.248 NA
ATOM     65  C   UNL A   1      45.683  30.077  34.878  1.00  0.00     0.031 C 
ATOM     66  C   UNL A   1      45.249  26.135  30.276  1.00  0.00     0.029 A 
ATOM     67  C   UNL A   1      44.969  27.138  31.190  1.00  0.00     0.049 A 
ATOM     68  H   UNL A   1      43.203  28.270  31.416  1.00  0.00     0.167 HD
ATOM     69  C   UNL A   1      45.449  28.647  33.100  1.00  0.00     0.074 A 
ATOM     70  C   UNL A   1      46.310  29.174  34.138  1.00  0.00     0.031 C 
ATOM     71  C   UNL A   1      45.818  27.673  32.228  1.00  0.00     0.034 A 
BRANCH  58  72
ATOM     72  C   UNL A   1      41.384  26.189  28.146  1.00  0.00     0.023 A 
ATOM     73  C   UNL A   1      41.224  24.799  28.281  1.00  0.00     0.031 A 
ATOM     74  C   UNL A   1      41.176  26.757  26.877  1.00  0.00     0.131 A 
ATOM     75  C   UNL A   1      40.944  24.014  27.152  1.00  0.00     0.055 A 
ATOM     76  C   UNL A   1      40.817  25.980  25.774  1.00  0.00     0.041 A 
ATOM     77  F   UNL A   1      41.342  28.075  26.683  1.00  0.00    -0.206 F 
ATOM     78  C   UNL A   1      40.716  24.598  25.904  1.00  0.00     0.022 A 
BRANCH  75  79
ATOM     79  S   UNL A   1      41.037  22.209  27.307  1.00  0.00     0.124 S 
ATOM     80  O   UNL A   1      41.394  22.052  28.715  1.00  0.00    -0.237 OA
ATOM     81  O   UNL A   1      39.689  21.791  26.939  1.00  0.00    -0.237 OA
ATOM     82  O   UNL A   1      42.087  21.838  26.361  1.00  0.00    -0.744 OA
ENDBRANCH  75  79
ENDBRANCH  58  72
BRANCH  59  83
ATOM     83  C   UNL A   1      43.777  32.033  35.916  1.00  0.00     0.023 A 
ATOM     84  C   UNL A   1      43.309  31.716  37.203  1.00  0.00     0.031 A 
ATOM     85  C   UNL A   1      44.534  33.208  35.762  1.00  0.00     0.131 A 
ATOM     86  C   UNL A   1      43.555  32.593  38.272  1.00  0.00     0.055 A 
ATOM     87  C   UNL A   1      44.819  34.050  36.838  1.00  0.00     0.041 A 
ATOM     88  F   UNL A   1      45.004  33.557  34.554  1.00  0.00    -0.206 F 
ATOM     89  C   UNL A   1      44.315  33.752  38.100  1.00  0.00     0.022 A 
BRANCH  86  90
ATOM     90  S   UNL A   1      42.791  32.239  39.880  1.00  0.00     0.124 S 
ATOM     91  O   UNL A   1      43.069  33.466  40.617  1.00  0.00    -0.237 OA
ATOM     92  O   UNL A   1      41.398  32.016  39.508  1.00  0.00    -0.237 OA
ATOM     93  O   UNL A   1      43.508  31.053  40.344  1.00  0.00    -0.744 OA
ENDBRANCH  86  90
ENDBRANCH  59  83
BRANCH  71  94
ATOM     94  C   UNL A   1      47.238  27.164  32.321  1.00  0.00     0.023 A 
ATOM     95  C   UNL A   1      48.285  27.734  31.577  1.00  0.00     0.031 A 
ATOM     96  C   UNL A   1      47.542  26.078  33.162  1.00  0.00     0.131 A 
ATOM     97  C   UNL A   1      49.572  27.174  31.636  1.00  0.00     0.055 A 
ATOM     98  C   UNL A   1      48.835  25.564  33.264  1.00  0.00     0.041 A 
ATOM     99  F   UNL A   1      46.582  25.493  33.898  1.00  0.00    -0.206 F 
ATOM    100  C   UNL A   1      49.856  26.102  32.487  1.00  0.00     0.022 A 
BRANCH  97 101
ATOM    101  S   UNL A   1      50.846  27.794  30.504  1.00  0.00     0.124 S 
ATOM    102  O   UNL A   1      50.064  28.131  29.319  1.00  0.00    -0.237 OA
ATOM    103  O   UNL A   1      51.397  28.923  31.246  1.00  0.00    -0.237 OA
ATOM    104  O   UNL A   1      51.749  26.656  30.347  1.00  0.00    -0.744 OA
ENDBRANCH  97 101
ENDBRANCH  71  94
ENDBRANCH  45  46
ENDBRANCH  38  40
ENDBRANCH  37  38
ENDBRANCH  36  37
ENDBRANCH  35  36
ENDBRANCH  34  35
ENDBRANCH  33  34
ENDBRANCH   1  33
TORSDOF 27
ENDMDL
MODEL 3
REMARK VINA RESULT:      -9.4      0.734      7.361
REMARK SMILES C[C@H](NC(=O)c1ccc(C(C)(C)C)cc1)C(=O)N[C@@H](C(=O)OCCOCCOCCOC(=O)c1ccc(-c2c3nc(c(-c4cc(S(=O)(=O)[O-])ccc4F)c4ccc([nH]4)c(-c4cc(S(=O)(=O)[O-])ccc4F)c4nc(c(-c5cc(S(=O)(=O)[O-])ccc5F)c5ccc2[nH]5)C=C4)C=C3)cc1)[C@H](C)O
REMARK SMILES IDX 26 1 25 2 24 3 23 4 22 5 20 6 21 7 19 8 18 9 16 10 17 11
REMARK SMILES IDX 2 13 1 14 3 15 4 16 5 18 6 19 7 20 15 21 8 22 14 23 9 24
REMARK SMILES IDX 10 25 11 26 12 27 13 28 97 29 98 30 99 31 27 33 28 34 29 35
REMARK SMILES IDX 30 36 31 37 32 38 33 39 34 40 35 41 96 42 36 43 95 44 37 45
REMARK SMILES IDX 38 46 39 47 89 48 40 49 94 50 88 51 90 52 41 53 93 54 87 55
REMARK SMILES IDX 86 56 42 58 74 59 54 60 73 61 55 62 58 63 72 64 91 65 56 66
REMARK SMILES IDX 57 67 71 69 92 70 59 71 43 72 44 73 52 74 45 75 51 76 53 77
REMARK SMILES IDX 50 78 46 79 47 80 48 81 49 82 75 83 76 84 84 85 77 86 83 87
REMARK SMILES IDX 85 88 82 89 78 90 79 91 80 92 81 93 60 94 61 95 69 96 62 97
REMARK SMILES IDX 68 98 70 99 67 100 63 101 64 102 65 103 66 104
REMARK H PARENT 18 12 3 17 99 32 90 57 58 68
REMARK Flexibility Score: inf
ROOT
ATOM      1  C   UNL A   1      34.579  32.271  28.054  1.00  0.00     0.188 C 
ENDROOT
BRANCH   1   2
ATOM      2  O   UNL A   1      33.995  30.975  27.957  1.00  0.00    -0.376 OA
BRANCH   2   3
ATOM      3  C   UNL A   1      32.946  30.774  27.007  1.00  0.00     0.202 C 
BRANCH   3   4
ATOM      4  C   UNL A   1      33.055  29.540  26.100  1.00  0.00     0.261 C 
BRANCH   4   5
ATOM      5  O   UNL A   1      32.839  29.859  24.707  1.00  0.00    -0.462 OA
BRANCH   5   6
ATOM      6  C   UNL A   1      32.471  28.820  23.905  1.00  0.00     0.331 C 
ATOM      7  O   UNL A   1      33.214  28.285  23.087  1.00  0.00    -0.250 OA
BRANCH   6   8
ATOM      8  C   UNL A   1      31.012  28.353  24.128  1.00  0.00     0.221 C 
BRANCH   8   9
ATOM      9  N   UNL A   1      30.655  26.987  23.686  1.00  0.00    -0.339 N 
ATOM     10  C   UNL A   1      30.396  25.862  24.412  1.00  0.00     0.243 C 
ATOM     11  O   UNL A   1      29.881  24.899  23.840  1.00  0.00    -0.273 OA
ATOM     12  H   UNL A   1      30.594  26.872  22.710  1.00  0.00     0.164 HD
BRANCH  10  13
ATOM     13  C   UNL A   1      30.694  25.817  25.917  1.00  0.00     0.168 C 
ATOM     14  C   UNL A   1      32.203  25.819  26.165  1.00  0.00     0.041 C 
BRANCH  13  15
ATOM     15  N   UNL A   1      29.920  24.696  26.472  1.00  0.00    -0.341 N 
ATOM     16  C   UNL A   1      30.296  23.422  26.797  1.00  0.00     0.251 C 
ATOM     17  H   UNL A   1      28.970  24.897  26.636  1.00  0.00     0.164 HD
ATOM     18  O   UNL A   1      29.510  22.648  27.332  1.00  0.00    -0.269 OA
BRANCH  16  19
ATOM     19  C   UNL A   1      31.638  22.970  26.415  1.00  0.00     0.039 A 
ATOM     20  C   UNL A   1      31.845  22.600  25.090  1.00  0.00     0.014 A 
ATOM     21  C   UNL A   1      32.698  23.034  27.316  1.00  0.00     0.014 A 
ATOM     22  C   UNL A   1      33.148  22.411  24.635  1.00  0.00     0.005 A 
ATOM     23  C   UNL A   1      34.000  22.857  26.847  1.00  0.00     0.005 A 
ATOM     24  C   UNL A   1      34.255  22.605  25.485  1.00  0.00    -0.043 A 
BRANCH  24  25
ATOM     25  C   UNL A   1      35.685  22.549  24.920  1.00  0.00    -0.013 C 
ATOM     26  C   UNL A   1      36.184  21.098  25.004  1.00  0.00     0.016 C 
ATOM     27  C   UNL A   1      35.720  23.021  23.446  1.00  0.00     0.016 C 
ATOM     28  C   UNL A   1      36.675  23.457  25.685  1.00  0.00     0.016 C 
ENDBRANCH  24  25
ENDBRANCH  16  19
ENDBRANCH  13  15
ENDBRANCH  10  13
ENDBRANCH   8   9
BRANCH   8  29
ATOM     29  C   UNL A   1      30.041  29.421  23.541  1.00  0.00     0.145 C 
ATOM     30  C   UNL A   1      30.241  29.697  22.052  1.00  0.00     0.041 C 
BRANCH  29  31
ATOM     31  O   UNL A   1      30.190  30.681  24.202  1.00  0.00    -0.391 OA
ATOM     32  H   UNL A   1      29.686  30.673  25.031  1.00  0.00     0.211 HD
ENDBRANCH  29  31
ENDBRANCH   8  29
ENDBRANCH   6   8
ENDBRANCH   5   6
ENDBRANCH   4   5
ENDBRANCH   3   4
ENDBRANCH   2   3
ENDBRANCH   1   2
BRANCH   1  33
ATOM     33  C   UNL A   1      33.631  33.471  28.054  1.00  0.00     0.188 C 
BRANCH  33  34
ATOM     34  O   UNL A   1      34.138  34.613  28.718  1.00  0.00    -0.376 OA
BRANCH  34  35
ATOM     35  C   UNL A   1      33.407  35.079  29.842  1.00  0.00     0.202 C 
BRANCH  35  36
ATOM     36  C   UNL A   1      34.190  35.019  31.162  1.00  0.00     0.261 C 
BRANCH  36  37
ATOM     37  O   UNL A   1      35.317  34.122  31.129  1.00  0.00    -0.460 OA
BRANCH  37  38
ATOM     38  C   UNL A   1      35.121  32.907  31.700  1.00  0.00     0.338 C 
ATOM     39  O   UNL A   1      34.066  32.454  32.101  1.00  0.00    -0.246 OA
BRANCH  38  40
ATOM     40  C   UNL A   1      36.362  32.116  31.532  1.00  0.00     0.060 A 
ATOM     41  C   UNL A   1      36.468  30.893  32.209  1.00  0.00     0.016 A 
ATOM     42  C   UNL A   1      37.402  32.567  30.717  1.00  0.00     0.016 A 
ATOM     43  C   UNL A   1      37.646  30.152  32.127  1.00  0.00     0.010 A 
ATOM     44  C   UNL A   1      38.588  31.831  30.647  1.00  0.00     0.010 A 
ATOM     45  C   UNL A   1      38.733  30.647  31.391  1.00  0.00    -0.014 A 
BRANCH  45  46
ATOM     46  C   UNL A   1      40.083  30.085  31.640  1.00  0.00     0.031 A 
ATOM     47  C   UNL A   1      40.586  29.036  30.681  1.00  0.00     0.074 A 
ATOM     48  C   UNL A   1      40.864  30.511  32.648  1.00  0.00     0.049 A 
ATOM     49  N   UNL A   1      41.732  28.408  30.656  1.00  0.00    -0.248 NA
ATOM     50  C   UNL A   1      39.660  28.645  29.606  1.00  0.00     0.031 C 
ATOM     51  C   UNL A   1      40.505  31.534  33.627  1.00  0.00     0.029 A 
ATOM     52  N   UNL A   1      42.132  30.128  33.011  1.00  0.00    -0.354 N 
ATOM     53  C   UNL A   1      41.671  27.559  29.556  1.00  0.00     0.074 A 
ATOM     54  C   UNL A   1      40.356  27.716  28.974  1.00  0.00     0.031 C 
ATOM     55  C   UNL A   1      41.531  31.697  34.483  1.00  0.00     0.029 A 
ATOM     56  C   UNL A   1      42.610  30.774  34.127  1.00  0.00     0.049 A 
ATOM     57  H   UNL A   1      42.652  29.453  32.517  1.00  0.00     0.167 HD
ATOM     58  C   UNL A   1      42.625  26.732  29.062  1.00  0.00     0.034 A 
ATOM     59  C   UNL A   1      43.776  30.624  34.788  1.00  0.00     0.034 A 
ATOM     60  C   UNL A   1      43.921  26.551  29.668  1.00  0.00     0.049 A 
ATOM     61  C   UNL A   1      44.798  29.637  34.268  1.00  0.00     0.074 A 
ATOM     62  C   UNL A   1      44.953  25.724  29.267  1.00  0.00     0.029 A 
ATOM     63  N   UNL A   1      44.355  27.201  30.816  1.00  0.00    -0.354 N 
ATOM     64  N   UNL A   1      44.735  28.853  33.215  1.00  0.00    -0.248 NA
ATOM     65  C   UNL A   1      46.057  29.531  35.019  1.00  0.00     0.031 C 
ATOM     66  C   UNL A   1      45.987  25.827  30.205  1.00  0.00     0.029 A 
ATOM     67  C   UNL A   1      45.632  26.776  31.149  1.00  0.00     0.049 A 
ATOM     68  H   UNL A   1      43.833  27.866  31.320  1.00  0.00     0.167 HD
ATOM     69  C   UNL A   1      45.962  28.191  33.160  1.00  0.00     0.074 A 
ATOM     70  C   UNL A   1      46.746  28.678  34.275  1.00  0.00     0.031 C 
ATOM     71  C   UNL A   1      46.403  27.270  32.264  1.00  0.00     0.034 A 
BRANCH  58  72
ATOM     72  C   UNL A   1      42.263  25.929  27.839  1.00  0.00     0.023 A 
ATOM     73  C   UNL A   1      41.694  24.647  27.944  1.00  0.00     0.031 A 
ATOM     74  C   UNL A   1      42.552  26.420  26.554  1.00  0.00     0.131 A 
ATOM     75  C   UNL A   1      41.504  23.871  26.791  1.00  0.00     0.055 A 
ATOM     76  C   UNL A   1      42.285  25.674  25.405  1.00  0.00     0.041 A 
ATOM     77  F   UNL A   1      43.121  27.625  26.396  1.00  0.00    -0.206 F 
ATOM     78  C   UNL A   1      41.774  24.384  25.520  1.00  0.00     0.022 A 
BRANCH  75  79
ATOM     79  S   UNL A   1      41.050  22.125  26.987  1.00  0.00     0.124 S 
ATOM     80  O   UNL A   1      41.964  21.475  26.051  1.00  0.00    -0.237 OA
ATOM     81  O   UNL A   1      41.311  21.889  28.403  1.00  0.00    -0.237 OA
ATOM     82  O   UNL A   1      39.643  22.092  26.598  1.00  0.00    -0.744 OA
ENDBRANCH  75  79
ENDBRANCH  58  72
BRANCH  59  83
ATOM     83  C   UNL A   1      44.052  31.399  36.033  1.00  0.00     0.023 A 
ATOM     84  C   UNL A   1      44.606  32.689  35.981  1.00  0.00     0.031 A 
ATOM     85  C   UNL A   1      43.842  30.823  37.298  1.00  0.00     0.131 A 
ATOM     86  C   UNL A   1      44.982  33.337  37.169  1.00  0.00     0.055 A 
ATOM     87  C   UNL A   1      44.170  31.491  38.478  1.00  0.00     0.041 A 
ATOM     88  F   UNL A   1      43.315  29.592  37.403  1.00  0.00    -0.206 F 
ATOM     89  C   UNL A   1      44.759  32.751  38.417  1.00  0.00     0.022 A 
BRANCH  86  90
ATOM     90  S   UNL A   1      45.850  34.926  37.055  1.00  0.00     0.124 S 
ATOM     91  O   UNL A   1      47.220  34.498  36.793  1.00  0.00    -0.237 OA
ATOM     92  O   UNL A   1      45.155  35.569  35.944  1.00  0.00    -0.237 OA
ATOM     93  O   UNL A   1      45.623  35.533  38.365  1.00  0.00    -0.744 OA
ENDBRANCH  86  90
ENDBRANCH  59  83
BRANCH  71  94
ATOM     94  C   UNL A   1      47.825  26.781  32.422  1.00  0.00     0.023 A 
ATOM     95  C   UNL A   1      48.141  25.631  33.167  1.00  0.00     0.031 A 
ATOM     96  C   UNL A   1      48.883  27.492  31.827  1.00  0.00     0.131 A 
ATOM     97  C   UNL A   1      49.483  25.264  33.351  1.00  0.00     0.055 A 
ATOM     98  C   UNL A   1      50.211  27.087  31.962  1.00  0.00     0.041 A 
ATOM     99  F   UNL A   1      48.641  28.598  31.103  1.00  0.00    -0.206 F 
ATOM    100  C   UNL A   1      50.519  25.976  32.741  1.00  0.00     0.022 A 
BRANCH  97 101
ATOM    101  S   UNL A   1      49.867  23.906  34.491  1.00  0.00     0.124 S 
ATOM    102  O   UNL A   1      48.702  23.040  34.339  1.00  0.00    -0.237 OA
ATOM    103  O   UNL A   1      51.120  23.391  33.949  1.00  0.00    -0.237 OA
ATOM    104  O   UNL A   1      49.980  24.569  35.789  1.00  0.00    -0.744 OA
ENDBRANCH  97 101
ENDBRANCH  71  94
ENDBRANCH  45  46
ENDBRANCH  38  40
ENDBRANCH  37  38
ENDBRANCH  36  37
ENDBRANCH  35  36
ENDBRANCH  34  35
ENDBRANCH  33  34
ENDBRANCH   1  33
TORSDOF 27
ENDMDL
