MODEL 1
REMARK VINA RESULT:      -9.9      0.000      0.000
REMARK SMILES CC[C@H]1CO[C@@H](C)CN1c1cccc(F)c1C(=O)OCCOCCOCCOC(=O)c1ccc(-c2c3nc(c(-c4cc(S(=O)(=O)[O-])ccc4F)c4ccc([nH]4)c(-c4cc(S(=O)(=O)[O-])ccc4F)c4nc(c(-c5cc(S(=O)(=O)[O-])ccc5F)c5ccc2[nH]5)C=C4)C=C3)cc1
REMARK SMILES IDX 24 1 23 2 22 3 21 4 20 5 19 6 17 7 18 8 16 9 10 10 11 11
REMARK SMILES IDX 12 12 14 13 13 14 15 15 9 16 3 17 4 18 5 19 8 20 6 21 7 22
REMARK SMILES IDX 2 23 1 24 25 25 26 26 27 27 28 28 29 29 30 30 31 31 32 32
REMARK SMILES IDX 93 33 33 34 92 35 34 36 35 37 36 38 86 39 37 40 91 41 85 42
REMARK SMILES IDX 87 43 38 44 90 45 84 46 83 47 39 49 71 50 51 51 70 52 52 53
REMARK SMILES IDX 55 54 69 55 88 56 53 57 54 58 68 60 89 61 56 62 40 63 41 64
REMARK SMILES IDX 49 65 42 66 48 67 50 68 47 69 43 70 44 71 45 72 46 73 72 74
REMARK SMILES IDX 73 75 81 76 74 77 80 78 82 79 79 80 75 81 76 82 77 83 78 84
REMARK SMILES IDX 57 85 58 86 66 87 59 88 65 89 67 90 64 91 60 92 61 93 62 94
REMARK SMILES IDX 63 95
REMARK H PARENT 87 48 55 59
REMARK Flexibility Score: inf
ROOT
ATOM      1  C   UNL A   1      36.560  22.051  24.858  1.00  0.00     0.188 C 
ENDROOT
BRANCH   1   2
ATOM      2  C   UNL A   1      35.533  21.434  25.820  1.00  0.00     0.188 C 
BRANCH   2   3
ATOM      3  O   UNL A   1      34.340  21.010  25.155  1.00  0.00    -0.376 OA
BRANCH   3   4
ATOM      4  C   UNL A   1      33.142  21.458  25.795  1.00  0.00     0.202 C 
BRANCH   4   5
ATOM      5  C   UNL A   1      33.337  22.830  26.436  1.00  0.00     0.261 C 
BRANCH   5   6
ATOM      6  O   UNL A   1      32.903  23.880  25.556  1.00  0.00    -0.460 OA
BRANCH   6   7
ATOM      7  C   UNL A   1      33.836  24.703  25.018  1.00  0.00     0.343 C 
ATOM      8  O   UNL A   1      34.888  25.033  25.537  1.00  0.00    -0.246 OA
BRANCH   7   9
ATOM      9  C   UNL A   1      33.337  25.115  23.687  1.00  0.00     0.119 A 
ATOM     10  C   UNL A   1      32.668  26.339  23.468  1.00  0.00     0.055 A 
ATOM     11  C   UNL A   1      32.261  26.628  22.151  1.00  0.00     0.027 A 
ATOM     12  C   UNL A   1      32.491  25.738  21.096  1.00  0.00     0.005 A 
ATOM     13  C   UNL A   1      33.555  24.226  22.625  1.00  0.00     0.139 A 
ATOM     14  C   UNL A   1      33.141  24.533  21.335  1.00  0.00     0.040 A 
ATOM     15  F   UNL A   1      34.165  23.048  22.825  1.00  0.00    -0.206 F 
BRANCH  10  16
ATOM     16  N   UNL A   1      32.468  27.270  24.485  1.00  0.00    -0.363 N 
ATOM     17  C   UNL A   1      31.113  27.579  25.037  1.00  0.00     0.108 C 
ATOM     18  C   UNL A   1      31.330  28.271  26.412  1.00  0.00     0.185 C 
ATOM     19  O   UNL A   1      32.134  29.459  26.308  1.00  0.00    -0.375 OA
ATOM     20  C   UNL A   1      33.241  28.520  24.320  1.00  0.00     0.148 C 
ATOM     21  C   UNL A   1      33.403  29.234  25.678  1.00  0.00     0.134 C 
ATOM     22  C   UNL A   1      34.365  28.547  26.635  1.00  0.00     0.040 C 
BRANCH  17  23
ATOM     23  C   UNL A   1      30.200  26.351  25.192  1.00  0.00     0.024 C 
ATOM     24  C   UNL A   1      29.016  26.407  24.230  1.00  0.00     0.006 C 
ENDBRANCH  17  23
ENDBRANCH  10  16
ENDBRANCH   7   9
ENDBRANCH   6   7
ENDBRANCH   5   6
ENDBRANCH   4   5
ENDBRANCH   3   4
ENDBRANCH   2   3
ENDBRANCH   1   2
BRANCH   1  25
ATOM     25  O   UNL A   1      37.802  21.387  24.629  1.00  0.00    -0.376 OA
BRANCH  25  26
ATOM     26  C   UNL A   1      38.731  21.296  25.695  1.00  0.00     0.202 C 
BRANCH  26  27
ATOM     27  C   UNL A   1      39.441  19.947  25.848  1.00  0.00     0.261 C 
BRANCH  27  28
ATOM     28  O   UNL A   1      40.540  19.958  26.773  1.00  0.00    -0.460 OA
BRANCH  28  29
ATOM     29  C   UNL A   1      41.763  19.927  26.187  1.00  0.00     0.338 C 
ATOM     30  O   UNL A   1      42.234  19.015  25.526  1.00  0.00    -0.246 OA
BRANCH  29  31
ATOM     31  C   UNL A   1      42.472  21.211  26.386  1.00  0.00     0.060 A 
ATOM     32  C   UNL A   1      42.723  21.624  27.701  1.00  0.00     0.016 A 
ATOM     33  C   UNL A   1      42.781  22.057  25.315  1.00  0.00     0.016 A 
ATOM     34  C   UNL A   1      43.231  22.901  27.951  1.00  0.00     0.010 A 
ATOM     35  C   UNL A   1      43.278  23.342  25.569  1.00  0.00     0.010 A 
ATOM     36  C   UNL A   1      43.470  23.784  26.890  1.00  0.00    -0.014 A 
BRANCH  36  37
ATOM     37  C   UNL A   1      43.761  25.215  27.171  1.00  0.00     0.031 A 
ATOM     38  C   UNL A   1      45.156  25.729  26.970  1.00  0.00     0.074 A 
ATOM     39  C   UNL A   1      42.800  26.059  27.586  1.00  0.00     0.049 A 
ATOM     40  N   UNL A   1      45.630  26.929  27.178  1.00  0.00    -0.248 NA
ATOM     41  C   UNL A   1      46.145  24.764  26.466  1.00  0.00     0.031 C 
ATOM     42  C   UNL A   1      41.408  25.691  27.785  1.00  0.00     0.029 A 
ATOM     43  N   UNL A   1      42.842  27.389  27.921  1.00  0.00    -0.354 N 
ATOM     44  C   UNL A   1      46.972  26.870  26.828  1.00  0.00     0.074 A 
ATOM     45  C   UNL A   1      47.240  25.508  26.414  1.00  0.00     0.031 C 
ATOM     46  C   UNL A   1      40.721  26.759  28.219  1.00  0.00     0.029 A 
ATOM     47  C   UNL A   1      41.636  27.887  28.358  1.00  0.00     0.049 A 
ATOM     48  H   UNL A   1      43.658  27.937  27.854  1.00  0.00     0.167 HD
ATOM     49  C   UNL A   1      47.894  27.861  26.851  1.00  0.00     0.034 A 
ATOM     50  C   UNL A   1      41.307  29.101  28.842  1.00  0.00     0.034 A 
ATOM     51  C   UNL A   1      47.627  29.207  27.289  1.00  0.00     0.049 A 
ATOM     52  C   UNL A   1      42.369  30.161  28.945  1.00  0.00     0.074 A 
ATOM     53  C   UNL A   1      48.494  30.285  27.325  1.00  0.00     0.029 A 
ATOM     54  N   UNL A   1      46.412  29.657  27.787  1.00  0.00    -0.354 N 
ATOM     55  N   UNL A   1      43.636  30.091  28.610  1.00  0.00    -0.248 NA
ATOM     56  C   UNL A   1      41.962  31.461  29.496  1.00  0.00     0.031 C 
ATOM     57  C   UNL A   1      47.825  31.367  27.906  1.00  0.00     0.029 A 
ATOM     58  C   UNL A   1      46.518  30.985  28.170  1.00  0.00     0.049 A 
ATOM     59  H   UNL A   1      45.594  29.114  27.856  1.00  0.00     0.167 HD
ATOM     60  C   UNL A   1      44.176  31.339  28.900  1.00  0.00     0.074 A 
ATOM     61  C   UNL A   1      43.096  32.147  29.431  1.00  0.00     0.031 C 
ATOM     62  C   UNL A   1      45.447  31.776  28.729  1.00  0.00     0.034 A 
BRANCH  49  63
ATOM     63  C   UNL A   1      49.295  27.502  26.440  1.00  0.00     0.023 A 
ATOM     64  C   UNL A   1      49.749  27.700  25.126  1.00  0.00     0.031 A 
ATOM     65  C   UNL A   1      50.181  26.942  27.376  1.00  0.00     0.131 A 
ATOM     66  C   UNL A   1      51.045  27.298  24.772  1.00  0.00     0.055 A 
ATOM     67  C   UNL A   1      51.488  26.600  27.032  1.00  0.00     0.041 A 
ATOM     68  F   UNL A   1      49.784  26.712  28.638  1.00  0.00    -0.206 F 
ATOM     69  C   UNL A   1      51.924  26.770  25.720  1.00  0.00     0.022 A 
BRANCH  66  70
ATOM     70  S   UNL A   1      51.539  27.394  23.030  1.00  0.00     0.124 S 
ATOM     71  O   UNL A   1      51.931  28.796  22.912  1.00  0.00    -0.237 OA
ATOM     72  O   UNL A   1      52.623  26.420  22.954  1.00  0.00    -0.237 OA
ATOM     73  O   UNL A   1      50.323  27.029  22.308  1.00  0.00    -0.744 OA
ENDBRANCH  66  70
ENDBRANCH  49  63
BRANCH  50  74
ATOM     74  C   UNL A   1      39.922  29.359  29.319  1.00  0.00     0.023 A 
ATOM     75  C   UNL A   1      39.612  29.373  30.687  1.00  0.00     0.031 A 
ATOM     76  C   UNL A   1      38.886  29.600  28.398  1.00  0.00     0.131 A 
ATOM     77  C   UNL A   1      38.291  29.608  31.098  1.00  0.00     0.055 A 
ATOM     78  C   UNL A   1      37.580  29.864  28.813  1.00  0.00     0.041 A 
ATOM     79  F   UNL A   1      39.138  29.601  27.081  1.00  0.00    -0.206 F 
ATOM     80  C   UNL A   1      37.276  29.864  30.171  1.00  0.00     0.022 A 
BRANCH  77  81
ATOM     81  S   UNL A   1      37.907  29.573  32.871  1.00  0.00     0.124 S 
ATOM     82  O   UNL A   1      36.915  30.636  32.980  1.00  0.00    -0.237 OA
ATOM     83  O   UNL A   1      37.413  28.211  33.050  1.00  0.00    -0.237 OA
ATOM     84  O   UNL A   1      39.194  29.851  33.503  1.00  0.00    -0.744 OA
ENDBRANCH  77  81
ENDBRANCH  50  74
BRANCH  62  85
ATOM     85  C   UNL A   1      45.749  33.203  29.103  1.00  0.00     0.023 A 
ATOM     86  C   UNL A   1      45.575  34.255  28.190  1.00  0.00     0.031 A 
ATOM     87  C   UNL A   1      46.171  33.514  30.409  1.00  0.00     0.131 A 
ATOM     88  C   UNL A   1      45.844  35.573  28.590  1.00  0.00     0.055 A 
ATOM     89  C   UNL A   1      46.394  34.830  30.812  1.00  0.00     0.041 A 
ATOM     90  F   UNL A   1      46.350  32.542  31.318  1.00  0.00    -0.206 F 
ATOM     91  C   UNL A   1      46.235  35.868  29.899  1.00  0.00     0.022 A 
BRANCH  88  92
ATOM     92  S   UNL A   1      45.699  36.907  27.367  1.00  0.00     0.124 S 
ATOM     93  O   UNL A   1      44.259  36.946  27.133  1.00  0.00    -0.237 OA
ATOM     94  O   UNL A   1      46.261  38.051  28.079  1.00  0.00    -0.237 OA
ATOM     95  O   UNL A   1      46.499  36.427  26.241  1.00  0.00    -0.744 OA
ENDBRANCH  88  92
ENDBRANCH  62  85
ENDBRANCH  36  37
ENDBRANCH  29  31
ENDBRANCH  28  29
ENDBRANCH  27  28
ENDBRANCH  26  27
ENDBRANCH  25  26
ENDBRANCH   1  25
TORSDOF 22
ENDMDL
MODEL 2
REMARK VINA RESULT:      -9.7      3.150      4.052
REMARK SMILES CC[C@H]1CO[C@@H](C)CN1c1cccc(F)c1C(=O)OCCOCCOCCOC(=O)c1ccc(-c2c3nc(c(-c4cc(S(=O)(=O)[O-])ccc4F)c4ccc([nH]4)c(-c4cc(S(=O)(=O)[O-])ccc4F)c4nc(c(-c5cc(S(=O)(=O)[O-])ccc5F)c5ccc2[nH]5)C=C4)C=C3)cc1
REMARK SMILES IDX 24 1 23 2 22 3 21 4 20 5 19 6 17 7 18 8 16 9 10 10 11 11
REMARK SMILES IDX 12 12 14 13 13 14 15 15 9 16 3 17 4 18 5 19 8 20 6 21 7 22
REMARK SMILES IDX 2 23 1 24 25 25 26 26 27 27 28 28 29 29 30 30 31 31 32 32
REMARK SMILES IDX 93 33 33 34 92 35 34 36 35 37 36 38 86 39 37 40 91 41 85 42
REMARK SMILES IDX 87 43 38 44 90 45 84 46 83 47 39 49 71 50 51 51 70 52 52 53
REMARK SMILES IDX 55 54 69 55 88 56 53 57 54 58 68 60 89 61 56 62 40 63 41 64
REMARK SMILES IDX 49 65 42 66 48 67 50 68 47 69 43 70 44 71 45 72 46 73 72 74
REMARK SMILES IDX 73 75 81 76 74 77 80 78 82 79 79 80 75 81 76 82 77 83 78 84
REMARK SMILES IDX 57 85 58 86 66 87 59 88 65 89 67 90 64 91 60 92 61 93 62 94
REMARK SMILES IDX 63 95
REMARK H PARENT 87 48 55 59
REMARK Flexibility Score: inf
ROOT
ATOM      1  C   UNL A   1      34.309  20.161  24.716  1.00  0.00     0.188 C 
ENDROOT
BRANCH   1   2
ATOM      2  C   UNL A   1      33.308  20.155  25.881  1.00  0.00     0.188 C 
BRANCH   2   3
ATOM      3  O   UNL A   1      32.635  21.407  26.037  1.00  0.00    -0.376 OA
BRANCH   3   4
ATOM      4  C   UNL A   1      33.137  22.193  27.121  1.00  0.00     0.202 C 
BRANCH   4   5
ATOM      5  C   UNL A   1      33.103  23.682  26.786  1.00  0.00     0.261 C 
BRANCH   5   6
ATOM      6  O   UNL A   1      33.219  23.898  25.369  1.00  0.00    -0.460 OA
BRANCH   6   7
ATOM      7  C   UNL A   1      33.958  24.946  24.931  1.00  0.00     0.343 C 
ATOM      8  O   UNL A   1      35.010  25.334  25.409  1.00  0.00    -0.246 OA
BRANCH   7   9
ATOM      9  C   UNL A   1      33.249  25.521  23.766  1.00  0.00     0.119 A 
ATOM     10  C   UNL A   1      32.504  26.719  23.840  1.00  0.00     0.055 A 
ATOM     11  C   UNL A   1      31.893  27.176  22.656  1.00  0.00     0.027 A 
ATOM     12  C   UNL A   1      32.000  26.472  21.452  1.00  0.00     0.005 A 
ATOM     13  C   UNL A   1      33.343  24.819  22.557  1.00  0.00     0.139 A 
ATOM     14  C   UNL A   1      32.728  25.289  21.403  1.00  0.00     0.040 A 
ATOM     15  F   UNL A   1      34.025  23.665  22.479  1.00  0.00    -0.206 F 
BRANCH  10  16
ATOM     16  N   UNL A   1      32.419  27.470  25.010  1.00  0.00    -0.363 N 
ATOM     17  C   UNL A   1      31.205  27.465  25.883  1.00  0.00     0.108 C 
ATOM     18  C   UNL A   1      31.641  28.016  27.270  1.00  0.00     0.185 C 
ATOM     19  O   UNL A   1      32.215  29.331  27.184  1.00  0.00    -0.375 OA
ATOM     20  C   UNL A   1      32.939  28.849  24.880  1.00  0.00     0.148 C 
ATOM     21  C   UNL A   1      33.316  29.413  26.266  1.00  0.00     0.134 C 
ATOM     22  C   UNL A   1      34.568  28.799  26.874  1.00  0.00     0.040 C 
BRANCH  17  23
ATOM     23  C   UNL A   1      30.545  26.085  26.036  1.00  0.00     0.024 C 
ATOM     24  C   UNL A   1      29.378  25.910  25.068  1.00  0.00     0.006 C 
ENDBRANCH  17  23
ENDBRANCH  10  16
ENDBRANCH   7   9
ENDBRANCH   6   7
ENDBRANCH   5   6
ENDBRANCH   4   5
ENDBRANCH   3   4
ENDBRANCH   2   3
ENDBRANCH   1   2
BRANCH   1  25
ATOM     25  O   UNL A   1      34.946  21.382  24.337  1.00  0.00    -0.376 OA
BRANCH  25  26
ATOM     26  C   UNL A   1      36.321  21.550  24.635  1.00  0.00     0.202 C 
BRANCH  26  27
ATOM     27  C   UNL A   1      36.637  22.429  25.849  1.00  0.00     0.261 C 
BRANCH  27  28
ATOM     28  O   UNL A   1      37.748  23.322  25.662  1.00  0.00    -0.460 OA
BRANCH  28  29
ATOM     29  C   UNL A   1      38.886  22.935  26.290  1.00  0.00     0.338 C 
ATOM     30  O   UNL A   1      39.290  21.792  26.432  1.00  0.00    -0.246 OA
BRANCH  29  31
ATOM     31  C   UNL A   1      39.661  24.113  26.742  1.00  0.00     0.060 A 
ATOM     32  C   UNL A   1      39.789  24.323  28.121  1.00  0.00     0.016 A 
ATOM     33  C   UNL A   1      40.154  25.062  25.840  1.00  0.00     0.016 A 
ATOM     34  C   UNL A   1      40.358  25.504  28.602  1.00  0.00     0.010 A 
ATOM     35  C   UNL A   1      40.712  26.252  26.325  1.00  0.00     0.010 A 
ATOM     36  C   UNL A   1      40.783  26.496  27.708  1.00  0.00    -0.014 A 
BRANCH  36  37
ATOM     37  C   UNL A   1      41.145  27.845  28.219  1.00  0.00     0.031 A 
ATOM     38  C   UNL A   1      42.591  28.243  28.263  1.00  0.00     0.074 A 
ATOM     39  C   UNL A   1      40.207  28.717  28.626  1.00  0.00     0.049 A 
ATOM     40  N   UNL A   1      43.126  29.356  28.692  1.00  0.00    -0.248 NA
ATOM     41  C   UNL A   1      43.560  27.260  27.756  1.00  0.00     0.031 C 
ATOM     42  C   UNL A   1      38.777  28.462  28.600  1.00  0.00     0.029 A 
ATOM     43  N   UNL A   1      40.309  29.983  29.145  1.00  0.00    -0.354 N 
ATOM     44  C   UNL A   1      44.494  29.213  28.505  1.00  0.00     0.074 A 
ATOM     45  C   UNL A   1      44.707  27.896  27.941  1.00  0.00     0.031 C 
ATOM     46  C   UNL A   1      38.123  29.526  29.091  1.00  0.00     0.029 A 
ATOM     47  C   UNL A   1      39.097  30.534  29.495  1.00  0.00     0.049 A 
ATOM     48  H   UNL A   1      41.167  30.454  29.255  1.00  0.00     0.167 HD
ATOM     49  C   UNL A   1      45.479  30.100  28.778  1.00  0.00     0.034 A 
ATOM     50  C   UNL A   1      38.803  31.703  30.099  1.00  0.00     0.034 A 
ATOM     51  C   UNL A   1      45.263  31.399  29.362  1.00  0.00     0.049 A 
ATOM     52  C   UNL A   1      39.922  32.634  30.478  1.00  0.00     0.074 A 
ATOM     53  C   UNL A   1      46.200  32.375  29.653  1.00  0.00     0.029 A 
ATOM     54  N   UNL A   1      44.031  31.896  29.765  1.00  0.00    -0.354 N 
ATOM     55  N   UNL A   1      41.213  32.486  30.294  1.00  0.00    -0.248 NA
ATOM     56  C   UNL A   1      39.548  33.887  31.150  1.00  0.00     0.031 C 
ATOM     57  C   UNL A   1      45.545  33.434  30.293  1.00  0.00     0.029 A 
ATOM     58  C   UNL A   1      44.190  33.148  30.339  1.00  0.00     0.049 A 
ATOM     59  H   UNL A   1      43.172  31.429  29.658  1.00  0.00     0.167 HD
ATOM     60  C   UNL A   1      41.805  33.630  30.818  1.00  0.00     0.074 A 
ATOM     61  C   UNL A   1      40.732  34.464  31.320  1.00  0.00     0.031 C 
ATOM     62  C   UNL A   1      43.119  33.961  30.866  1.00  0.00     0.034 A 
BRANCH  49  63
ATOM     63  C   UNL A   1      46.890  29.663  28.496  1.00  0.00     0.023 A 
ATOM     64  C   UNL A   1      47.663  29.003  29.465  1.00  0.00     0.031 A 
ATOM     65  C   UNL A   1      47.470  29.923  27.243  1.00  0.00     0.131 A 
ATOM     66  C   UNL A   1      48.993  28.665  29.179  1.00  0.00     0.055 A 
ATOM     67  C   UNL A   1      48.774  29.530  26.944  1.00  0.00     0.041 A 
ATOM     68  F   UNL A   1      46.778  30.572  26.293  1.00  0.00    -0.206 F 
ATOM     69  C   UNL A   1      49.547  28.904  27.919  1.00  0.00     0.022 A 
BRANCH  66  70
ATOM     70  S   UNL A   1      50.023  27.984  30.508  1.00  0.00     0.124 S 
ATOM     71  O   UNL A   1      49.025  27.321  31.342  1.00  0.00    -0.237 OA
ATOM     72  O   UNL A   1      50.935  27.106  29.784  1.00  0.00    -0.237 OA
ATOM     73  O   UNL A   1      50.639  29.167  31.103  1.00  0.00    -0.744 OA
ENDBRANCH  66  70
ENDBRANCH  49  63
BRANCH  50  74
ATOM     74  C   UNL A   1      37.392  32.030  30.434  1.00  0.00     0.023 A 
ATOM     75  C   UNL A   1      36.536  32.617  29.490  1.00  0.00     0.031 A 
ATOM     76  C   UNL A   1      36.880  31.751  31.714  1.00  0.00     0.131 A 
ATOM     77  C   UNL A   1      35.213  32.922  29.846  1.00  0.00     0.055 A 
ATOM     78  C   UNL A   1      35.556  32.029  32.054  1.00  0.00     0.041 A 
ATOM     79  F   UNL A   1      37.662  31.186  32.647  1.00  0.00    -0.206 F 
ATOM     80  C   UNL A   1      34.715  32.623  31.118  1.00  0.00     0.022 A 
BRANCH  77  81
ATOM     81  S   UNL A   1      34.141  33.725  28.622  1.00  0.00     0.124 S 
ATOM     82  O   UNL A   1      35.039  34.719  28.047  1.00  0.00    -0.237 OA
ATOM     83  O   UNL A   1      33.779  32.608  27.754  1.00  0.00    -0.237 OA
ATOM     84  O   UNL A   1      33.046  34.260  29.427  1.00  0.00    -0.744 OA
ENDBRANCH  77  81
ENDBRANCH  50  74
BRANCH  62  85
ATOM     85  C   UNL A   1      43.479  35.293  31.470  1.00  0.00     0.023 A 
ATOM     86  C   UNL A   1      43.654  36.436  30.674  1.00  0.00     0.031 A 
ATOM     87  C   UNL A   1      43.601  35.423  32.865  1.00  0.00     0.131 A 
ATOM     88  C   UNL A   1      43.964  37.663  31.281  1.00  0.00     0.055 A 
ATOM     89  C   UNL A   1      43.866  36.655  33.464  1.00  0.00     0.041 A 
ATOM     90  F   UNL A   1      43.441  34.359  33.667  1.00  0.00    -0.206 F 
ATOM     91  C   UNL A   1      44.054  37.783  32.671  1.00  0.00     0.022 A 
BRANCH  88  92
ATOM     92  S   UNL A   1      44.274  39.108  30.227  1.00  0.00     0.124 S 
ATOM     93  O   UNL A   1      43.032  39.200  29.468  1.00  0.00    -0.237 OA
ATOM     94  O   UNL A   1      44.504  40.168  31.204  1.00  0.00    -0.237 OA
ATOM     95  O   UNL A   1      45.450  38.720  29.451  1.00  0.00    -0.744 OA
ENDBRANCH  88  92
ENDBRANCH  62  85
ENDBRANCH  36  37
ENDBRANCH  29  31
ENDBRANCH  28  29
ENDBRANCH  27  28
ENDBRANCH  26  27
ENDBRANCH  25  26
ENDBRANCH   1  25
TORSDOF 22
ENDMDL
MODEL 3
REMARK VINA RESULT:      -9.6      2.541      3.787
REMARK SMILES CC[C@H]1CO[C@@H](C)CN1c1cccc(F)c1C(=O)OCCOCCOCCOC(=O)c1ccc(-c2c3nc(c(-c4cc(S(=O)(=O)[O-])ccc4F)c4ccc([nH]4)c(-c4cc(S(=O)(=O)[O-])ccc4F)c4nc(c(-c5cc(S(=O)(=O)[O-])ccc5F)c5ccc2[nH]5)C=C4)C=C3)cc1
REMARK SMILES IDX 24 1 23 2 22 3 21 4 20 5 19 6 17 7 18 8 16 9 10 10 11 11
REMARK SMILES IDX 12 12 14 13 13 14 15 15 9 16 3 17 4 18 5 19 8 20 6 21 7 22
REMARK SMILES IDX 2 23 1 24 25 25 26 26 27 27 28 28 29 29 30 30 31 31 32 32
REMARK SMILES IDX 93 33 33 34 92 35 34 36 35 37 36 38 86 39 37 40 91 41 85 42
REMARK SMILES IDX 87 43 38 44 90 45 84 46 83 47 39 49 71 50 51 51 70 52 52 53
REMARK SMILES IDX 55 54 69 55 88 56 53 57 54 58 68 60 89 61 56 62 40 63 41 64
REMARK SMILES IDX 49 65 42 66 48 67 50 68 47 69 43 70 44 71 45 72 46 73 72 74
REMARK SMILES IDX 73 75 81 76 74 77 80 78 82 79 79 80 75 81 76 82 77 83 78 84
REMARK SMILES IDX 57 85 58 86 66 87 59 88 65 89 67 90 64 91 60 92 61 93 62 94
REMARK SMILES IDX 63 95
REMARK H PARENT 87 48 55 59
REMARK Flexibility Score: inf
ROOT
ATOM      1  C   UNL A   1      34.652  19.742  24.742  1.00  0.00     0.188 C 
ENDROOT
BRANCH   1   2
ATOM      2  C   UNL A   1      33.617  20.284  25.738  1.00  0.00     0.188 C 
BRANCH   2   3
ATOM      3  O   UNL A   1      32.340  20.514  25.136  1.00  0.00    -0.376 OA
BRANCH   3   4
ATOM      4  C   UNL A   1      31.918  21.879  25.197  1.00  0.00     0.202 C 
BRANCH   4   5
ATOM      5  C   UNL A   1      32.825  22.698  26.114  1.00  0.00     0.261 C 
BRANCH   5   6
ATOM      6  O   UNL A   1      32.773  24.095  25.781  1.00  0.00    -0.460 OA
BRANCH   6   7
ATOM      7  C   UNL A   1      33.833  24.651  25.146  1.00  0.00     0.343 C 
ATOM      8  O   UNL A   1      34.958  24.773  25.598  1.00  0.00    -0.246 OA
BRANCH   7   9
ATOM      9  C   UNL A   1      33.367  25.071  23.806  1.00  0.00     0.119 A 
ATOM     10  C   UNL A   1      32.742  26.316  23.571  1.00  0.00     0.055 A 
ATOM     11  C   UNL A   1      32.364  26.611  22.247  1.00  0.00     0.027 A 
ATOM     12  C   UNL A   1      32.577  25.707  21.200  1.00  0.00     0.005 A 
ATOM     13  C   UNL A   1      33.568  24.169  22.752  1.00  0.00     0.139 A 
ATOM     14  C   UNL A   1      33.182  24.483  21.455  1.00  0.00     0.040 A 
ATOM     15  F   UNL A   1      34.135  22.972  22.967  1.00  0.00    -0.206 F 
BRANCH  10  16
ATOM     16  N   UNL A   1      32.561  27.259  24.580  1.00  0.00    -0.363 N 
ATOM     17  C   UNL A   1      31.211  27.609  25.120  1.00  0.00     0.108 C 
ATOM     18  C   UNL A   1      31.437  28.306  26.491  1.00  0.00     0.185 C 
ATOM     19  O   UNL A   1      32.274  29.470  26.385  1.00  0.00    -0.375 OA
ATOM     20  C   UNL A   1      33.368  28.487  24.411  1.00  0.00     0.148 C 
ATOM     21  C   UNL A   1      33.540  29.206  25.765  1.00  0.00     0.134 C 
ATOM     22  C   UNL A   1      34.476  28.501  26.734  1.00  0.00     0.040 C 
BRANCH  17  23
ATOM     23  C   UNL A   1      30.264  26.408  25.277  1.00  0.00     0.024 C 
ATOM     24  C   UNL A   1      29.196  26.388  24.187  1.00  0.00     0.006 C 
ENDBRANCH  17  23
ENDBRANCH  10  16
ENDBRANCH   7   9
ENDBRANCH   6   7
ENDBRANCH   5   6
ENDBRANCH   4   5
ENDBRANCH   3   4
ENDBRANCH   2   3
ENDBRANCH   1   2
BRANCH   1  25
ATOM     25  O   UNL A   1      36.044  19.932  24.994  1.00  0.00    -0.376 OA
BRANCH  25  26
ATOM     26  C   UNL A   1      36.589  21.232  24.846  1.00  0.00     0.202 C 
BRANCH  26  27
ATOM     27  C   UNL A   1      38.028  21.412  25.342  1.00  0.00     0.261 C 
BRANCH  27  28
ATOM     28  O   UNL A   1      38.174  22.369  26.403  1.00  0.00    -0.460 OA
BRANCH  28  29
ATOM     29  C   UNL A   1      39.453  22.762  26.628  1.00  0.00     0.338 C 
ATOM     30  O   UNL A   1      40.461  22.095  26.466  1.00  0.00    -0.246 OA
BRANCH  29  31
ATOM     31  C   UNL A   1      39.498  24.183  27.042  1.00  0.00     0.060 A 
ATOM     32  C   UNL A   1      39.978  25.120  26.118  1.00  0.00     0.016 A 
ATOM     33  C   UNL A   1      39.193  24.580  28.349  1.00  0.00     0.016 A 
ATOM     34  C   UNL A   1      40.204  26.441  26.510  1.00  0.00     0.010 A 
ATOM     35  C   UNL A   1      39.434  25.903  28.743  1.00  0.00     0.010 A 
ATOM     36  C   UNL A   1      39.976  26.831  27.837  1.00  0.00    -0.014 A 
BRANCH  36  37
ATOM     37  C   UNL A   1      40.458  28.156  28.311  1.00  0.00     0.031 A 
ATOM     38  C   UNL A   1      41.935  28.398  28.420  1.00  0.00     0.074 A 
ATOM     39  C   UNL A   1      39.602  29.142  28.628  1.00  0.00     0.049 A 
ATOM     40  N   UNL A   1      42.566  29.465  28.832  1.00  0.00    -0.248 NA
ATOM     41  C   UNL A   1      42.814  27.292  28.009  1.00  0.00     0.031 C 
ATOM     42  C   UNL A   1      38.155  29.043  28.532  1.00  0.00     0.029 A 
ATOM     43  N   UNL A   1      39.816  30.413  29.099  1.00  0.00    -0.354 N 
ATOM     44  C   UNL A   1      43.917  29.166  28.728  1.00  0.00     0.074 A 
ATOM     45  C   UNL A   1      44.013  27.809  28.233  1.00  0.00     0.031 C 
ATOM     46  C   UNL A   1      37.599  30.193  28.940  1.00  0.00     0.029 A 
ATOM     47  C   UNL A   1      38.656  31.108  29.358  1.00  0.00     0.049 A 
ATOM     48  H   UNL A   1      40.714  30.794  29.238  1.00  0.00     0.167 HD
ATOM     49  C   UNL A   1      44.980  29.954  29.020  1.00  0.00     0.034 A 
ATOM     50  C   UNL A   1      38.462  32.329  29.895  1.00  0.00     0.034 A 
ATOM     51  C   UNL A   1      44.879  31.295  29.536  1.00  0.00     0.049 A 
ATOM     52  C   UNL A   1      39.656  33.151  30.298  1.00  0.00     0.074 A 
ATOM     53  C   UNL A   1      45.901  32.177  29.840  1.00  0.00     0.029 A 
ATOM     54  N   UNL A   1      43.690  31.941  29.848  1.00  0.00    -0.354 N 
ATOM     55  N   UNL A   1      40.930  32.855  30.193  1.00  0.00    -0.248 NA
ATOM     56  C   UNL A   1      39.389  34.467  30.895  1.00  0.00     0.031 C 
ATOM     57  C   UNL A   1      45.335  33.329  30.397  1.00  0.00     0.029 A 
ATOM     58  C   UNL A   1      43.956  33.194  30.378  1.00  0.00     0.049 A 
ATOM     59  H   UNL A   1      42.791  31.565  29.712  1.00  0.00     0.167 HD
ATOM     60  C   UNL A   1      41.617  33.952  30.702  1.00  0.00     0.074 A 
ATOM     61  C   UNL A   1      40.618  34.920  31.108  1.00  0.00     0.031 C 
ATOM     62  C   UNL A   1      42.955  34.141  30.810  1.00  0.00     0.034 A 
BRANCH  49  63
ATOM     63  C   UNL A   1      46.346  29.354  28.836  1.00  0.00     0.023 A 
ATOM     64  C   UNL A   1      46.860  29.073  27.559  1.00  0.00     0.031 A 
ATOM     65  C   UNL A   1      47.138  29.051  29.956  1.00  0.00     0.131 A 
ATOM     66  C   UNL A   1      48.115  28.461  27.436  1.00  0.00     0.055 A 
ATOM     67  C   UNL A   1      48.411  28.497  29.824  1.00  0.00     0.041 A 
ATOM     68  F   UNL A   1      46.680  29.280  31.197  1.00  0.00    -0.206 F 
ATOM     69  C   UNL A   1      48.903  28.192  28.558  1.00  0.00     0.022 A 
BRANCH  66  70
ATOM     70  S   UNL A   1      48.672  27.941  25.791  1.00  0.00     0.124 S 
ATOM     71  O   UNL A   1      48.564  26.488  25.890  1.00  0.00    -0.237 OA
ATOM     72  O   UNL A   1      47.710  28.594  24.909  1.00  0.00    -0.237 OA
ATOM     73  O   UNL A   1      50.037  28.455  25.712  1.00  0.00    -0.744 OA
ENDBRANCH  66  70
ENDBRANCH  49  63
BRANCH  50  74
ATOM     74  C   UNL A   1      37.080  32.822  30.136  1.00  0.00     0.023 A 
ATOM     75  C   UNL A   1      36.566  32.946  31.435  1.00  0.00     0.031 A 
ATOM     76  C   UNL A   1      36.254  33.181  29.055  1.00  0.00     0.131 A 
ATOM     77  C   UNL A   1      35.252  33.403  31.622  1.00  0.00     0.055 A 
ATOM     78  C   UNL A   1      34.959  33.664  29.247  1.00  0.00     0.041 A 
ATOM     79  F   UNL A   1      36.706  33.082  27.796  1.00  0.00    -0.206 F 
ATOM     80  C   UNL A   1      34.450  33.773  30.538  1.00  0.00     0.022 A 
BRANCH  77  81
ATOM     81  S   UNL A   1      34.594  33.509  33.309  1.00  0.00     0.124 S 
ATOM     82  O   UNL A   1      34.735  34.932  33.594  1.00  0.00    -0.237 OA
ATOM     83  O   UNL A   1      33.229  33.022  33.136  1.00  0.00    -0.237 OA
ATOM     84  O   UNL A   1      35.472  32.627  34.073  1.00  0.00    -0.744 OA
ENDBRANCH  77  81
ENDBRANCH  50  74
BRANCH  62  85
ATOM     85  C   UNL A   1      43.429  35.453  31.377  1.00  0.00     0.023 A 
ATOM     86  C   UNL A   1      43.704  36.554  30.551  1.00  0.00     0.031 A 
ATOM     87  C   UNL A   1      43.559  35.613  32.769  1.00  0.00     0.131 A 
ATOM     88  C   UNL A   1      44.119  37.767  31.124  1.00  0.00     0.055 A 
ATOM     89  C   UNL A   1      43.929  36.833  33.334  1.00  0.00     0.041 A 
ATOM     90  F   UNL A   1      43.306  34.589  33.600  1.00  0.00    -0.206 F 
ATOM     91  C   UNL A   1      44.215  37.917  32.511  1.00  0.00     0.022 A 
BRANCH  88  92
ATOM     92  S   UNL A   1      44.555  39.149  30.032  1.00  0.00     0.124 S 
ATOM     93  O   UNL A   1      45.154  40.095  30.967  1.00  0.00    -0.237 OA
ATOM     94  O   UNL A   1      45.471  38.524  29.083  1.00  0.00    -0.237 OA
ATOM     95  O   UNL A   1      43.270  39.560  29.470  1.00  0.00    -0.744 OA
ENDBRANCH  88  92
ENDBRANCH  62  85
ENDBRANCH  36  37
ENDBRANCH  29  31
ENDBRANCH  28  29
ENDBRANCH  27  28
ENDBRANCH  26  27
ENDBRANCH  25  26
ENDBRANCH   1  25
TORSDOF 22
ENDMDL
