MODEL 1
REMARK VINA RESULT:      -8.3      0.000      0.000
REMARK SMILES [NH3+][C@H](CC(F)(F)C(F)(F)C(F)(F)C(F)(F)Cl)C(=O)OCCOCCOCCOC(=O)c1ccc(-c2c3nc(c(-c4cc(S(=O)(=O)[O-])ccc4F)c4ccc([nH]4)c(-c4cc(S(=O)(=O)[O-])ccc4F)c4nc(c(-c5cc(S(=O)(=O)[O-])ccc5F)c5ccc2[nH]5)C=C4)C=C3)cc1
REMARK SMILES IDX 23 1 22 2 21 3 20 4 19 5 17 6 18 7 2 8 1 9 3 13 4 14 5 15
REMARK SMILES IDX 6 16 7 17 8 18 9 19 10 20 11 21 12 22 13 23 14 24 15 25
REMARK SMILES IDX 16 26 24 27 25 28 26 29 27 30 28 31 29 32 30 33 31 34 32 35
REMARK SMILES IDX 93 36 33 37 92 38 34 39 35 40 36 41 86 42 37 43 91 44 85 45
REMARK SMILES IDX 87 46 38 47 90 48 84 49 83 50 39 52 71 53 51 54 70 55 52 56
REMARK SMILES IDX 55 57 69 58 88 59 53 60 54 61 68 63 89 64 56 65 40 66 41 67
REMARK SMILES IDX 49 68 42 69 48 70 50 71 47 72 43 73 44 74 45 75 46 76 72 77
REMARK SMILES IDX 73 78 81 79 74 80 80 81 82 82 79 83 75 84 76 85 77 86 78 87
REMARK SMILES IDX 57 88 58 89 66 90 59 91 65 92 67 93 64 94 60 95 61 96 62 97
REMARK SMILES IDX 63 98
REMARK H PARENT 1 10 1 11 1 12 87 51 55 62
REMARK Flexibility Score: inf
ROOT
ATOM      1  C   UNL A   1      45.857  20.083  24.589  1.00  0.00     0.188 C 
ENDROOT
BRANCH   1   2
ATOM      2  O   UNL A   1      46.413  21.075  25.439  1.00  0.00    -0.376 OA
BRANCH   2   3
ATOM      3  C   UNL A   1      45.546  21.959  26.140  1.00  0.00     0.202 C 
BRANCH   3   4
ATOM      4  C   UNL A   1      46.107  23.196  26.870  1.00  0.00     0.261 C 
BRANCH   4   5
ATOM      5  O   UNL A   1      45.348  23.611  28.022  1.00  0.00    -0.459 OA
BRANCH   5   6
ATOM      6  C   UNL A   1      45.928  24.548  28.817  1.00  0.00     0.365 C 
ATOM      7  O   UNL A   1      47.105  24.882  28.724  1.00  0.00    -0.245 OA
BRANCH   6   8
ATOM      8  C   UNL A   1      44.914  25.233  29.786  1.00  0.00     0.298 C 
BRANCH   8   9
ATOM      9  N   UNL A   1      44.642  26.599  29.308  1.00  0.00    -0.346 N 
ATOM     10  H   UNL A   1      44.191  26.556  28.393  1.00  0.00     0.345 HD
ATOM     11  H   UNL A   1      45.520  27.113  29.229  1.00  0.00     0.345 HD
ATOM     12  H   UNL A   1      44.027  27.074  29.968  1.00  0.00     0.345 HD
ENDBRANCH   8   9
BRANCH   8  13
ATOM     13  C   UNL A   1      45.148  25.137  31.312  1.00  0.00     0.161 C 
BRANCH  13  14
ATOM     14  C   UNL A   1      44.333  26.044  32.216  1.00  0.00     0.323 C 
ATOM     15  F   UNL A   1      44.917  27.269  32.257  1.00  0.00    -0.199 F 
ATOM     16  F   UNL A   1      43.116  26.249  31.631  1.00  0.00    -0.199 F 
BRANCH  14  17
ATOM     17  C   UNL A   1      44.133  25.452  33.597  1.00  0.00     0.379 C 
ATOM     18  F   UNL A   1      43.471  24.267  33.483  1.00  0.00    -0.192 F 
ATOM     19  F   UNL A   1      45.341  25.142  34.144  1.00  0.00    -0.192 F 
BRANCH  17  20
ATOM     20  C   UNL A   1      43.401  26.407  34.501  1.00  0.00     0.392 C 
ATOM     21  F   UNL A   1      44.275  27.326  35.007  1.00  0.00    -0.191 F 
ATOM     22  F   UNL A   1      42.462  27.115  33.817  1.00  0.00    -0.191 F 
BRANCH  20  23
ATOM     23  C   UNL A   1      42.763  25.617  35.633  1.00  0.00     0.390 C 
ATOM     24  F   UNL A   1      42.153  26.443  36.523  1.00  0.00    -0.181 F 
ATOM     25  F   UNL A   1      41.796  24.783  35.167  1.00  0.00    -0.181 F 
ATOM     26  Cl  UNL A   1      43.958  24.630  36.514  1.00  0.00    -0.041 Cl
ENDBRANCH  20  23
ENDBRANCH  17  20
ENDBRANCH  14  17
ENDBRANCH  13  14
ENDBRANCH   8  13
ENDBRANCH   6   8
ENDBRANCH   5   6
ENDBRANCH   4   5
ENDBRANCH   3   4
ENDBRANCH   2   3
ENDBRANCH   1   2
BRANCH   1  27
ATOM     27  C   UNL A   1      45.866  18.621  25.056  1.00  0.00     0.188 C 
BRANCH  27  28
ATOM     28  O   UNL A   1      44.611  18.061  25.352  1.00  0.00    -0.376 OA
BRANCH  28  29
ATOM     29  C   UNL A   1      43.805  18.683  26.343  1.00  0.00     0.202 C 
BRANCH  29  30
ATOM     30  C   UNL A   1      42.262  18.584  26.404  1.00  0.00     0.261 C 
BRANCH  30  31
ATOM     31  O   UNL A   1      41.479  19.399  25.520  1.00  0.00    -0.460 OA
BRANCH  31  32
ATOM     32  C   UNL A   1      40.393  20.024  26.039  1.00  0.00     0.338 C 
ATOM     33  O   UNL A   1      39.406  19.486  26.517  1.00  0.00    -0.246 OA
BRANCH  32  34
ATOM     34  C   UNL A   1      40.731  21.462  26.176  1.00  0.00     0.060 A 
ATOM     35  C   UNL A   1      42.047  21.890  25.928  1.00  0.00     0.016 A 
ATOM     36  C   UNL A   1      39.742  22.392  26.493  1.00  0.00     0.016 A 
ATOM     37  C   UNL A   1      42.372  23.249  25.982  1.00  0.00     0.010 A 
ATOM     38  C   UNL A   1      40.079  23.747  26.586  1.00  0.00     0.010 A 
ATOM     39  C   UNL A   1      41.394  24.183  26.341  1.00  0.00    -0.014 A 
BRANCH  39  40
ATOM     40  C   UNL A   1      41.756  25.597  26.621  1.00  0.00     0.031 A 
ATOM     41  C   UNL A   1      43.103  26.089  26.167  1.00  0.00     0.074 A 
ATOM     42  C   UNL A   1      40.932  26.413  27.305  1.00  0.00     0.049 A 
ATOM     43  N   UNL A   1      43.719  27.204  26.451  1.00  0.00    -0.248 NA
ATOM     44  C   UNL A   1      43.857  25.189  25.279  1.00  0.00     0.031 C 
ATOM     45  C   UNL A   1      39.578  26.075  27.741  1.00  0.00     0.029 A 
ATOM     46  N   UNL A   1      41.130  27.687  27.783  1.00  0.00    -0.354 N 
ATOM     47  C   UNL A   1      44.948  27.131  25.805  1.00  0.00     0.074 A 
ATOM     48  C   UNL A   1      44.989  25.857  25.118  1.00  0.00     0.031 C 
ATOM     49  C   UNL A   1      39.081  27.103  28.452  1.00  0.00     0.029 A 
ATOM     50  C   UNL A   1      40.099  28.145  28.574  1.00  0.00     0.049 A 
ATOM     51  H   UNL A   1      41.930  28.221  27.577  1.00  0.00     0.167 HD
ATOM     52  C   UNL A   1      45.952  28.041  25.796  1.00  0.00     0.034 A 
ATOM     53  C   UNL A   1      40.014  29.246  29.351  1.00  0.00     0.034 A 
ATOM     54  C   UNL A   1      45.892  29.303  26.489  1.00  0.00     0.049 A 
ATOM     55  C   UNL A   1      41.190  30.200  29.406  1.00  0.00     0.074 A 
ATOM     56  C   UNL A   1      46.834  30.318  26.505  1.00  0.00     0.029 A 
ATOM     57  N   UNL A   1      44.850  29.716  27.307  1.00  0.00    -0.354 N 
ATOM     58  N   UNL A   1      42.338  30.135  28.770  1.00  0.00    -0.248 NA
ATOM     59  C   UNL A   1      41.064  31.370  30.287  1.00  0.00     0.031 C 
ATOM     60  C   UNL A   1      46.406  31.297  27.406  1.00  0.00     0.029 A 
ATOM     61  C   UNL A   1      45.153  30.943  27.878  1.00  0.00     0.049 A 
ATOM     62  H   UNL A   1      44.018  29.212  27.460  1.00  0.00     0.167 HD
ATOM     63  C   UNL A   1      43.052  31.271  29.153  1.00  0.00     0.074 A 
ATOM     64  C   UNL A   1      42.201  32.010  30.060  1.00  0.00     0.031 C 
ATOM     65  C   UNL A   1      44.297  31.668  28.787  1.00  0.00     0.034 A 
BRANCH  52  66
ATOM     66  C   UNL A   1      47.227  27.677  25.079  1.00  0.00     0.023 A 
ATOM     67  C   UNL A   1      47.440  27.984  23.725  1.00  0.00     0.031 A 
ATOM     68  C   UNL A   1      48.256  27.017  25.777  1.00  0.00     0.131 A 
ATOM     69  C   UNL A   1      48.631  27.587  23.099  1.00  0.00     0.055 A 
ATOM     70  C   UNL A   1      49.469  26.693  25.168  1.00  0.00     0.041 A 
ATOM     71  F   UNL A   1      48.097  26.674  27.064  1.00  0.00    -0.206 F 
ATOM     72  C   UNL A   1      49.658  26.970  23.818  1.00  0.00     0.022 A 
BRANCH  69  73
ATOM     73  S   UNL A   1      48.775  27.781  21.302  1.00  0.00     0.124 S 
ATOM     74  O   UNL A   1      49.540  26.593  20.935  1.00  0.00    -0.237 OA
ATOM     75  O   UNL A   1      47.380  27.799  20.874  1.00  0.00    -0.237 OA
ATOM     76  O   UNL A   1      49.490  29.046  21.149  1.00  0.00    -0.744 OA
ENDBRANCH  69  73
ENDBRANCH  52  66
BRANCH  53  77
ATOM     77  C   UNL A   1      38.817  29.484  30.215  1.00  0.00     0.023 A 
ATOM     78  C   UNL A   1      37.827  30.411  29.851  1.00  0.00     0.031 A 
ATOM     79  C   UNL A   1      38.694  28.855  31.469  1.00  0.00     0.131 A 
ATOM     80  C   UNL A   1      36.796  30.727  30.751  1.00  0.00     0.055 A 
ATOM     81  C   UNL A   1      37.628  29.121  32.330  1.00  0.00     0.041 A 
ATOM     82  F   UNL A   1      39.618  27.972  31.880  1.00  0.00    -0.206 F 
ATOM     83  C   UNL A   1      36.680  30.076  31.980  1.00  0.00     0.022 A 
BRANCH  80  84
ATOM     84  S   UNL A   1      35.684  32.103  30.346  1.00  0.00     0.124 S 
ATOM     85  O   UNL A   1      36.630  33.140  29.948  1.00  0.00    -0.237 OA
ATOM     86  O   UNL A   1      34.871  31.531  29.279  1.00  0.00    -0.237 OA
ATOM     87  O   UNL A   1      34.978  32.351  31.602  1.00  0.00    -0.744 OA
ENDBRANCH  80  84
ENDBRANCH  53  77
BRANCH  65  88
ATOM     88  C   UNL A   1      44.798  32.986  29.328  1.00  0.00     0.023 A 
ATOM     89  C   UNL A   1      44.531  34.206  28.681  1.00  0.00     0.031 A 
ATOM     90  C   UNL A   1      45.535  33.022  30.526  1.00  0.00     0.131 A 
ATOM     91  C   UNL A   1      45.030  35.404  29.216  1.00  0.00     0.055 A 
ATOM     92  C   UNL A   1      45.974  34.222  31.085  1.00  0.00     0.041 A 
ATOM     93  F   UNL A   1      45.824  31.888  31.185  1.00  0.00    -0.206 F 
ATOM     94  C   UNL A   1      45.730  35.422  30.425  1.00  0.00     0.022 A 
BRANCH  91  95
ATOM     95  S   UNL A   1      44.812  36.939  28.273  1.00  0.00     0.124 S 
ATOM     96  O   UNL A   1      43.734  36.581  27.357  1.00  0.00    -0.237 OA
ATOM     97  O   UNL A   1      44.470  37.901  29.316  1.00  0.00    -0.237 OA
ATOM     98  O   UNL A   1      46.116  37.145  27.646  1.00  0.00    -0.744 OA
ENDBRANCH  91  95
ENDBRANCH  65  88
ENDBRANCH  39  40
ENDBRANCH  32  34
ENDBRANCH  31  32
ENDBRANCH  30  31
ENDBRANCH  29  30
ENDBRANCH  28  29
ENDBRANCH  27  28
ENDBRANCH   1  27
TORSDOF 26
ENDMDL
MODEL 2
REMARK VINA RESULT:      -8.3      5.212     10.740
REMARK SMILES [NH3+][C@H](CC(F)(F)C(F)(F)C(F)(F)C(F)(F)Cl)C(=O)OCCOCCOCCOC(=O)c1ccc(-c2c3nc(c(-c4cc(S(=O)(=O)[O-])ccc4F)c4ccc([nH]4)c(-c4cc(S(=O)(=O)[O-])ccc4F)c4nc(c(-c5cc(S(=O)(=O)[O-])ccc5F)c5ccc2[nH]5)C=C4)C=C3)cc1
REMARK SMILES IDX 23 1 22 2 21 3 20 4 19 5 17 6 18 7 2 8 1 9 3 13 4 14 5 15
REMARK SMILES IDX 6 16 7 17 8 18 9 19 10 20 11 21 12 22 13 23 14 24 15 25
REMARK SMILES IDX 16 26 24 27 25 28 26 29 27 30 28 31 29 32 30 33 31 34 32 35
REMARK SMILES IDX 93 36 33 37 92 38 34 39 35 40 36 41 86 42 37 43 91 44 85 45
REMARK SMILES IDX 87 46 38 47 90 48 84 49 83 50 39 52 71 53 51 54 70 55 52 56
REMARK SMILES IDX 55 57 69 58 88 59 53 60 54 61 68 63 89 64 56 65 40 66 41 67
REMARK SMILES IDX 49 68 42 69 48 70 50 71 47 72 43 73 44 74 45 75 46 76 72 77
REMARK SMILES IDX 73 78 81 79 74 80 80 81 82 82 79 83 75 84 76 85 77 86 78 87
REMARK SMILES IDX 57 88 58 89 66 90 59 91 65 92 67 93 64 94 60 95 61 96 62 97
REMARK SMILES IDX 63 98
REMARK H PARENT 1 10 1 11 1 12 87 51 55 62
REMARK Flexibility Score: inf
ROOT
ATOM      1  C   UNL A   1      33.101  35.417  29.366  1.00  0.00     0.188 C 
ENDROOT
BRANCH   1   2
ATOM      2  O   UNL A   1      32.901  34.232  28.611  1.00  0.00    -0.376 OA
BRANCH   2   3
ATOM      3  C   UNL A   1      34.030  33.526  28.107  1.00  0.00     0.202 C 
BRANCH   3   4
ATOM      4  C   UNL A   1      34.027  31.986  28.036  1.00  0.00     0.261 C 
BRANCH   4   5
ATOM      5  O   UNL A   1      33.553  31.441  26.789  1.00  0.00    -0.459 OA
BRANCH   5   6
ATOM      6  C   UNL A   1      33.459  30.088  26.723  1.00  0.00     0.365 C 
ATOM      7  O   UNL A   1      34.060  29.328  27.477  1.00  0.00    -0.245 OA
BRANCH   6   8
ATOM      8  C   UNL A   1      32.422  29.603  25.662  1.00  0.00     0.298 C 
BRANCH   8   9
ATOM      9  N   UNL A   1      31.437  30.673  25.431  1.00  0.00    -0.346 N 
ATOM     10  H   UNL A   1      30.653  30.558  26.074  1.00  0.00     0.345 HD
ATOM     11  H   UNL A   1      31.098  30.621  24.470  1.00  0.00     0.345 HD
ATOM     12  H   UNL A   1      31.876  31.580  25.588  1.00  0.00     0.345 HD
ENDBRANCH   8   9
BRANCH   8  13
ATOM     13  C   UNL A   1      31.798  28.194  25.806  1.00  0.00     0.161 C 
BRANCH  13  14
ATOM     14  C   UNL A   1      32.264  27.109  24.853  1.00  0.00     0.323 C 
ATOM     15  F   UNL A   1      31.201  26.661  24.138  1.00  0.00    -0.199 F 
ATOM     16  F   UNL A   1      33.099  27.676  23.934  1.00  0.00    -0.199 F 
BRANCH  14  17
ATOM     17  C   UNL A   1      32.992  25.988  25.570  1.00  0.00     0.379 C 
ATOM     18  F   UNL A   1      34.088  26.498  26.199  1.00  0.00    -0.192 F 
ATOM     19  F   UNL A   1      32.205  25.488  26.561  1.00  0.00    -0.192 F 
BRANCH  17  20
ATOM     20  C   UNL A   1      33.368  24.884  24.618  1.00  0.00     0.392 C 
ATOM     21  F   UNL A   1      32.267  24.130  24.329  1.00  0.00    -0.191 F 
ATOM     22  F   UNL A   1      33.808  25.382  23.431  1.00  0.00    -0.191 F 
BRANCH  20  23
ATOM     23  C   UNL A   1      34.435  24.019  25.270  1.00  0.00     0.390 C 
ATOM     24  F   UNL A   1      35.668  24.572  25.126  1.00  0.00    -0.181 F 
ATOM     25  F   UNL A   1      34.226  23.904  26.608  1.00  0.00    -0.181 F 
ATOM     26  Cl  UNL A   1      34.476  22.375  24.579  1.00  0.00    -0.041 Cl
ENDBRANCH  20  23
ENDBRANCH  17  20
ENDBRANCH  14  17
ENDBRANCH  13  14
ENDBRANCH   8  13
ENDBRANCH   6   8
ENDBRANCH   5   6
ENDBRANCH   4   5
ENDBRANCH   3   4
ENDBRANCH   2   3
ENDBRANCH   1   2
BRANCH   1  27
ATOM     27  C   UNL A   1      33.629  35.298  30.802  1.00  0.00     0.188 C 
BRANCH  27  28
ATOM     28  O   UNL A   1      33.818  33.990  31.283  1.00  0.00    -0.376 OA
BRANCH  28  29
ATOM     29  C   UNL A   1      35.134  33.571  31.614  1.00  0.00     0.202 C 
BRANCH  29  30
ATOM     30  C   UNL A   1      35.476  32.232  32.311  1.00  0.00     0.261 C 
BRANCH  30  31
ATOM     31  O   UNL A   1      36.013  31.158  31.524  1.00  0.00    -0.460 OA
BRANCH  31  32
ATOM     32  C   UNL A   1      36.921  30.341  32.114  1.00  0.00     0.338 C 
ATOM     33  O   UNL A   1      36.677  29.381  32.828  1.00  0.00    -0.246 OA
BRANCH  32  34
ATOM     34  C   UNL A   1      38.246  30.649  31.521  1.00  0.00     0.060 A 
ATOM     35  C   UNL A   1      39.338  30.911  32.366  1.00  0.00     0.016 A 
ATOM     36  C   UNL A   1      38.423  30.624  30.138  1.00  0.00     0.016 A 
ATOM     37  C   UNL A   1      40.610  31.132  31.831  1.00  0.00     0.010 A 
ATOM     38  C   UNL A   1      39.688  30.887  29.603  1.00  0.00     0.010 A 
ATOM     39  C   UNL A   1      40.787  31.151  30.443  1.00  0.00    -0.014 A 
BRANCH  39  40
ATOM     40  C   UNL A   1      42.070  31.600  29.843  1.00  0.00     0.031 A 
ATOM     41  C   UNL A   1      43.070  30.551  29.439  1.00  0.00     0.074 A 
ATOM     42  C   UNL A   1      42.364  32.906  29.704  1.00  0.00     0.049 A 
ATOM     43  N   UNL A   1      44.316  30.688  29.074  1.00  0.00    -0.248 NA
ATOM     44  C   UNL A   1      42.595  29.158  29.464  1.00  0.00     0.031 C 
ATOM     45  C   UNL A   1      41.456  34.013  29.996  1.00  0.00     0.029 A 
ATOM     46  N   UNL A   1      43.528  33.523  29.309  1.00  0.00    -0.354 N 
ATOM     47  C   UNL A   1      44.788  29.399  28.855  1.00  0.00     0.074 A 
ATOM     48  C   UNL A   1      43.693  28.494  29.133  1.00  0.00     0.031 C 
ATOM     49  C   UNL A   1      42.108  35.174  29.805  1.00  0.00     0.029 A 
ATOM     50  C   UNL A   1      43.495  34.894  29.437  1.00  0.00     0.049 A 
ATOM     51  H   UNL A   1      44.310  33.031  28.968  1.00  0.00     0.167 HD
ATOM     52  C   UNL A   1      46.026  29.009  28.466  1.00  0.00     0.034 A 
ATOM     53  C   UNL A   1      44.483  35.809  29.326  1.00  0.00     0.034 A 
ATOM     54  C   UNL A   1      47.105  29.926  28.196  1.00  0.00     0.049 A 
ATOM     55  C   UNL A   1      45.884  35.340  28.991  1.00  0.00     0.074 A 
ATOM     56  C   UNL A   1      48.383  29.639  27.749  1.00  0.00     0.029 A 
ATOM     57  N   UNL A   1      47.045  31.302  28.369  1.00  0.00    -0.354 N 
ATOM     58  N   UNL A   1      46.316  34.120  28.759  1.00  0.00    -0.248 NA
ATOM     59  C   UNL A   1      46.933  36.367  28.908  1.00  0.00     0.031 C 
ATOM     60  C   UNL A   1      49.122  30.825  27.746  1.00  0.00     0.029 A 
ATOM     61  C   UNL A   1      48.280  31.869  28.095  1.00  0.00     0.049 A 
ATOM     62  H   UNL A   1      46.243  31.802  28.647  1.00  0.00     0.167 HD
ATOM     63  C   UNL A   1      47.675  34.243  28.474  1.00  0.00     0.074 A 
ATOM     64  C   UNL A   1      47.989  35.653  28.547  1.00  0.00     0.031 C 
ATOM     65  C   UNL A   1      48.582  33.278  28.177  1.00  0.00     0.034 A 
BRANCH  52  66
ATOM     66  C   UNL A   1      46.306  27.530  28.383  1.00  0.00     0.023 A 
ATOM     67  C   UNL A   1      46.070  26.788  27.214  1.00  0.00     0.031 A 
ATOM     68  C   UNL A   1      46.833  26.855  29.499  1.00  0.00     0.131 A 
ATOM     69  C   UNL A   1      46.313  25.405  27.205  1.00  0.00     0.055 A 
ATOM     70  C   UNL A   1      47.144  25.496  29.460  1.00  0.00     0.041 A 
ATOM     71  F   UNL A   1      47.052  27.509  30.651  1.00  0.00    -0.206 F 
ATOM     72  C   UNL A   1      46.874  24.760  28.310  1.00  0.00     0.022 A 
BRANCH  69  73
ATOM     73  S   UNL A   1      45.773  24.438  25.769  1.00  0.00     0.124 S 
ATOM     74  O   UNL A   1      44.416  24.062  26.159  1.00  0.00    -0.237 OA
ATOM     75  O   UNL A   1      45.881  25.402  24.680  1.00  0.00    -0.237 OA
ATOM     76  O   UNL A   1      46.728  23.334  25.721  1.00  0.00    -0.744 OA
ENDBRANCH  69  73
ENDBRANCH  52  66
BRANCH  53  77
ATOM     77  C   UNL A   1      44.227  37.253  29.615  1.00  0.00     0.023 A 
ATOM     78  C   UNL A   1      44.368  37.774  30.911  1.00  0.00     0.031 A 
ATOM     79  C   UNL A   1      43.745  38.116  28.613  1.00  0.00     0.131 A 
ATOM     80  C   UNL A   1      43.974  39.094  31.184  1.00  0.00     0.055 A 
ATOM     81  C   UNL A   1      43.421  39.449  28.875  1.00  0.00     0.041 A 
ATOM     82  F   UNL A   1      43.573  37.672  27.357  1.00  0.00    -0.206 F 
ATOM     83  C   UNL A   1      43.518  39.940  30.172  1.00  0.00     0.022 A 
BRANCH  80  84
ATOM     84  S   UNL A   1      43.938  39.648  32.912  1.00  0.00     0.124 S 
ATOM     85  O   UNL A   1      43.777  41.090  32.757  1.00  0.00    -0.237 OA
ATOM     86  O   UNL A   1      42.784  38.926  33.437  1.00  0.00    -0.237 OA
ATOM     87  O   UNL A   1      45.233  39.217  33.434  1.00  0.00    -0.744 OA
ENDBRANCH  80  84
ENDBRANCH  53  77
BRANCH  65  88
ATOM     88  C   UNL A   1      49.993  33.717  27.860  1.00  0.00     0.023 A 
ATOM     89  C   UNL A   1      50.406  34.001  26.547  1.00  0.00     0.031 A 
ATOM     90  C   UNL A   1      50.931  33.877  28.896  1.00  0.00     0.131 A 
ATOM     91  C   UNL A   1      51.731  34.393  26.300  1.00  0.00     0.055 A 
ATOM     92  C   UNL A   1      52.228  34.328  28.652  1.00  0.00     0.041 A 
ATOM     93  F   UNL A   1      50.594  33.617  30.170  1.00  0.00    -0.206 F 
ATOM     94  C   UNL A   1      52.638  34.579  27.347  1.00  0.00     0.022 A 
BRANCH  91  95
ATOM     95  S   UNL A   1      52.279  34.591  24.582  1.00  0.00     0.124 S 
ATOM     96  O   UNL A   1      53.724  34.432  24.705  1.00  0.00    -0.237 OA
ATOM     97  O   UNL A   1      51.574  33.509  23.902  1.00  0.00    -0.237 OA
ATOM     98  O   UNL A   1      51.830  35.937  24.231  1.00  0.00    -0.744 OA
ENDBRANCH  91  95
ENDBRANCH  65  88
ENDBRANCH  39  40
ENDBRANCH  32  34
ENDBRANCH  31  32
ENDBRANCH  30  31
ENDBRANCH  29  30
ENDBRANCH  28  29
ENDBRANCH  27  28
ENDBRANCH   1  27
TORSDOF 26
ENDMDL
MODEL 3
REMARK VINA RESULT:      -8.3      7.332     13.917
REMARK SMILES [NH3+][C@H](CC(F)(F)C(F)(F)C(F)(F)C(F)(F)Cl)C(=O)OCCOCCOCCOC(=O)c1ccc(-c2c3nc(c(-c4cc(S(=O)(=O)[O-])ccc4F)c4ccc([nH]4)c(-c4cc(S(=O)(=O)[O-])ccc4F)c4nc(c(-c5cc(S(=O)(=O)[O-])ccc5F)c5ccc2[nH]5)C=C4)C=C3)cc1
REMARK SMILES IDX 23 1 22 2 21 3 20 4 19 5 17 6 18 7 2 8 1 9 3 13 4 14 5 15
REMARK SMILES IDX 6 16 7 17 8 18 9 19 10 20 11 21 12 22 13 23 14 24 15 25
REMARK SMILES IDX 16 26 24 27 25 28 26 29 27 30 28 31 29 32 30 33 31 34 32 35
REMARK SMILES IDX 93 36 33 37 92 38 34 39 35 40 36 41 86 42 37 43 91 44 85 45
REMARK SMILES IDX 87 46 38 47 90 48 84 49 83 50 39 52 71 53 51 54 70 55 52 56
REMARK SMILES IDX 55 57 69 58 88 59 53 60 54 61 68 63 89 64 56 65 40 66 41 67
REMARK SMILES IDX 49 68 42 69 48 70 50 71 47 72 43 73 44 74 45 75 46 76 72 77
REMARK SMILES IDX 73 78 81 79 74 80 80 81 82 82 79 83 75 84 76 85 77 86 78 87
REMARK SMILES IDX 57 88 58 89 66 90 59 91 65 92 67 93 64 94 60 95 61 96 62 97
REMARK SMILES IDX 63 98
REMARK H PARENT 1 10 1 11 1 12 87 51 55 62
REMARK Flexibility Score: inf
ROOT
ATOM      1  C   UNL A   1      34.355  36.202  28.381  1.00  0.00     0.188 C 
ENDROOT
BRANCH   1   2
ATOM      2  O   UNL A   1      34.450  34.907  27.808  1.00  0.00    -0.376 OA
BRANCH   2   3
ATOM      3  C   UNL A   1      33.783  33.816  28.433  1.00  0.00     0.202 C 
BRANCH   3   4
ATOM      4  C   UNL A   1      34.540  32.512  28.756  1.00  0.00     0.261 C 
BRANCH   4   5
ATOM      5  O   UNL A   1      34.790  31.663  27.619  1.00  0.00    -0.459 OA
BRANCH   5   6
ATOM      6  C   UNL A   1      33.862  30.702  27.373  1.00  0.00     0.365 C 
ATOM      7  O   UNL A   1      32.699  30.944  27.064  1.00  0.00    -0.245 OA
BRANCH   6   8
ATOM      8  C   UNL A   1      34.458  29.260  27.416  1.00  0.00     0.298 C 
BRANCH   8   9
ATOM      9  N   UNL A   1      35.885  29.341  27.768  1.00  0.00    -0.346 N 
ATOM     10  H   UNL A   1      35.980  29.594  28.752  1.00  0.00     0.345 HD
ATOM     11  H   UNL A   1      36.338  30.050  27.190  1.00  0.00     0.345 HD
ATOM     12  H   UNL A   1      36.328  28.436  27.606  1.00  0.00     0.345 HD
ENDBRANCH   8   9
BRANCH   8  13
ATOM     13  C   UNL A   1      34.151  28.283  26.256  1.00  0.00     0.161 C 
BRANCH  13  14
ATOM     14  C   UNL A   1      32.853  27.498  26.311  1.00  0.00     0.323 C 
ATOM     15  F   UNL A   1      33.138  26.172  26.352  1.00  0.00    -0.199 F 
ATOM     16  F   UNL A   1      32.240  27.768  27.500  1.00  0.00    -0.199 F 
BRANCH  14  17
ATOM     17  C   UNL A   1      31.918  27.854  25.172  1.00  0.00     0.379 C 
ATOM     18  F   UNL A   1      31.202  28.962  25.511  1.00  0.00    -0.192 F 
ATOM     19  F   UNL A   1      32.643  28.211  24.076  1.00  0.00    -0.192 F 
BRANCH  17  20
ATOM     20  C   UNL A   1      31.014  26.700  24.824  1.00  0.00     0.392 C 
ATOM     21  F   UNL A   1      31.767  25.612  24.486  1.00  0.00    -0.191 F 
ATOM     22  F   UNL A   1      30.262  26.322  25.893  1.00  0.00    -0.191 F 
BRANCH  20  23
ATOM     23  C   UNL A   1      30.130  27.106  23.657  1.00  0.00     0.390 C 
ATOM     24  F   UNL A   1      28.967  26.402  23.656  1.00  0.00    -0.181 F 
ATOM     25  F   UNL A   1      29.778  28.416  23.738  1.00  0.00    -0.181 F 
ATOM     26  Cl  UNL A   1      30.938  26.854  22.087  1.00  0.00    -0.041 Cl
ENDBRANCH  20  23
ENDBRANCH  17  20
ENDBRANCH  14  17
ENDBRANCH  13  14
ENDBRANCH   8  13
ENDBRANCH   6   8
ENDBRANCH   5   6
ENDBRANCH   4   5
ENDBRANCH   3   4
ENDBRANCH   2   3
ENDBRANCH   1   2
BRANCH   1  27
ATOM     27  C   UNL A   1      33.080  36.577  29.150  1.00  0.00     0.188 C 
BRANCH  27  28
ATOM     28  O   UNL A   1      33.239  37.514  30.186  1.00  0.00    -0.376 OA
BRANCH  28  29
ATOM     29  C   UNL A   1      33.280  37.044  31.527  1.00  0.00     0.202 C 
BRANCH  29  30
ATOM     30  C   UNL A   1      32.788  35.649  31.980  1.00  0.00     0.261 C 
BRANCH  30  31
ATOM     31  O   UNL A   1      33.683  34.531  31.878  1.00  0.00    -0.460 OA
BRANCH  31  32
ATOM     32  C   UNL A   1      33.786  33.710  32.953  1.00  0.00     0.338 C 
ATOM     33  O   UNL A   1      32.889  33.043  33.445  1.00  0.00    -0.246 OA
BRANCH  32  34
ATOM     34  C   UNL A   1      35.230  33.554  33.256  1.00  0.00     0.060 A 
ATOM     35  C   UNL A   1      36.014  34.695  33.498  1.00  0.00     0.016 A 
ATOM     36  C   UNL A   1      35.797  32.283  33.354  1.00  0.00     0.016 A 
ATOM     37  C   UNL A   1      37.360  34.567  33.855  1.00  0.00     0.010 A 
ATOM     38  C   UNL A   1      37.153  32.160  33.671  1.00  0.00     0.010 A 
ATOM     39  C   UNL A   1      37.945  33.298  33.914  1.00  0.00    -0.014 A 
BRANCH  39  40
ATOM     40  C   UNL A   1      39.415  33.141  34.071  1.00  0.00     0.031 A 
ATOM     41  C   UNL A   1      39.990  33.192  35.460  1.00  0.00     0.074 A 
ATOM     42  C   UNL A   1      40.227  33.008  33.005  1.00  0.00     0.049 A 
ATOM     43  N   UNL A   1      41.236  33.268  35.841  1.00  0.00    -0.248 NA
ATOM     44  C   UNL A   1      39.018  33.162  36.566  1.00  0.00     0.031 C 
ATOM     45  C   UNL A   1      39.787  32.880  31.618  1.00  0.00     0.029 A 
ATOM     46  N   UNL A   1      41.600  32.990  32.925  1.00  0.00    -0.354 N 
ATOM     47  C   UNL A   1      41.203  33.327  37.230  1.00  0.00     0.074 A 
ATOM     48  C   UNL A   1      39.809  33.284  37.621  1.00  0.00     0.031 C 
ATOM     49  C   UNL A   1      40.869  32.833  30.821  1.00  0.00     0.029 A 
ATOM     50  C   UNL A   1      42.076  32.988  31.633  1.00  0.00     0.049 A 
ATOM     51  H   UNL A   1      42.186  32.978  33.716  1.00  0.00     0.167 HD
ATOM     52  C   UNL A   1      42.241  33.421  38.095  1.00  0.00     0.034 A 
ATOM     53  C   UNL A   1      43.330  33.151  31.160  1.00  0.00     0.034 A 
ATOM     54  C   UNL A   1      43.622  33.466  37.685  1.00  0.00     0.049 A 
ATOM     55  C   UNL A   1      44.465  33.357  32.144  1.00  0.00     0.074 A 
ATOM     56  C   UNL A   1      44.752  33.510  38.482  1.00  0.00     0.029 A 
ATOM     57  N   UNL A   1      44.063  33.497  36.369  1.00  0.00    -0.354 N 
ATOM     58  N   UNL A   1      44.426  33.386  33.457  1.00  0.00    -0.248 NA
ATOM     59  C   UNL A   1      45.809  33.558  31.584  1.00  0.00     0.031 C 
ATOM     60  C   UNL A   1      45.866  33.667  37.653  1.00  0.00     0.029 A 
ATOM     61  C   UNL A   1      45.443  33.620  36.334  1.00  0.00     0.049 A 
ATOM     62  H   UNL A   1      43.480  33.441  35.577  1.00  0.00     0.167 HD
ATOM     63  C   UNL A   1      45.743  33.577  33.874  1.00  0.00     0.074 A 
ATOM     64  C   UNL A   1      46.553  33.640  32.677  1.00  0.00     0.031 C 
ATOM     65  C   UNL A   1      46.240  33.688  35.132  1.00  0.00     0.034 A 
BRANCH  52  66
ATOM     66  C   UNL A   1      41.925  33.557  39.563  1.00  0.00     0.023 A 
ATOM     67  C   UNL A   1      41.714  32.442  40.391  1.00  0.00     0.031 A 
ATOM     68  C   UNL A   1      41.847  34.836  40.145  1.00  0.00     0.131 A 
ATOM     69  C   UNL A   1      41.386  32.629  41.743  1.00  0.00     0.055 A 
ATOM     70  C   UNL A   1      41.596  35.013  41.505  1.00  0.00     0.041 A 
ATOM     71  F   UNL A   1      42.013  35.937  39.396  1.00  0.00    -0.206 F 
ATOM     72  C   UNL A   1      41.353  33.905  42.311  1.00  0.00     0.022 A 
BRANCH  69  73
ATOM     73  S   UNL A   1      40.883  31.188  42.722  1.00  0.00     0.124 S 
ATOM     74  O   UNL A   1      40.785  31.760  44.062  1.00  0.00    -0.237 OA
ATOM     75  O   UNL A   1      39.622  30.806  42.096  1.00  0.00    -0.237 OA
ATOM     76  O   UNL A   1      41.983  30.245  42.534  1.00  0.00    -0.744 OA
ENDBRANCH  69  73
ENDBRANCH  52  66
BRANCH  53  77
ATOM     77  C   UNL A   1      43.594  33.218  29.690  1.00  0.00     0.023 A 
ATOM     78  C   UNL A   1      43.924  32.067  28.955  1.00  0.00     0.031 A 
ATOM     79  C   UNL A   1      43.612  34.452  29.014  1.00  0.00     0.131 A 
ATOM     80  C   UNL A   1      44.317  32.182  27.612  1.00  0.00     0.055 A 
ATOM     81  C   UNL A   1      43.935  34.551  27.660  1.00  0.00     0.041 A 
ATOM     82  F   UNL A   1      43.322  35.589  29.667  1.00  0.00    -0.206 F 
ATOM     83  C   UNL A   1      44.307  33.412  26.954  1.00  0.00     0.022 A 
BRANCH  80  84
ATOM     84  S   UNL A   1      44.971  30.712  26.772  1.00  0.00     0.124 S 
ATOM     85  O   UNL A   1      45.767  31.310  25.705  1.00  0.00    -0.237 OA
ATOM     86  O   UNL A   1      45.719  30.060  27.842  1.00  0.00    -0.237 OA
ATOM     87  O   UNL A   1      43.768  30.006  26.334  1.00  0.00    -0.744 OA
ENDBRANCH  80  84
ENDBRANCH  53  77
BRANCH  65  88
ATOM     88  C   UNL A   1      47.735  33.842  35.284  1.00  0.00     0.023 A 
ATOM     89  C   UNL A   1      48.349  35.105  35.358  1.00  0.00     0.031 A 
ATOM     90  C   UNL A   1      48.554  32.703  35.382  1.00  0.00     0.131 A 
ATOM     91  C   UNL A   1      49.743  35.197  35.486  1.00  0.00     0.055 A 
ATOM     92  C   UNL A   1      49.933  32.801  35.573  1.00  0.00     0.041 A 
ATOM     93  F   UNL A   1      48.024  31.471  35.314  1.00  0.00    -0.206 F 
ATOM     94  C   UNL A   1      50.536  34.053  35.616  1.00  0.00     0.022 A 
BRANCH  91  95
ATOM     95  S   UNL A   1      50.521  36.834  35.411  1.00  0.00     0.124 S 
ATOM     96  O   UNL A   1      49.372  37.706  35.188  1.00  0.00    -0.237 OA
ATOM     97  O   UNL A   1      51.158  36.939  36.719  1.00  0.00    -0.237 OA
ATOM     98  O   UNL A   1      51.444  36.725  34.282  1.00  0.00    -0.744 OA
ENDBRANCH  91  95
ENDBRANCH  65  88
ENDBRANCH  39  40
ENDBRANCH  32  34
ENDBRANCH  31  32
ENDBRANCH  30  31
ENDBRANCH  29  30
ENDBRANCH  28  29
ENDBRANCH  27  28
ENDBRANCH   1  27
TORSDOF 26
ENDMDL
