MODEL 1
REMARK VINA RESULT:     -10.6      0.000      0.000
REMARK SMILES COc1ccc(S(=O)(=O)N2C[C@H](C)C[C@H](C)C2)cc1C(=O)OCCOCCOCCOC(=O)c1ccc(-c2c3nc(c(-c4cc(S(=O)(=O)[O-])ccc4F)c4ccc([nH]4)c(-c4cc(S(=O)(=O)[O-])ccc4F)c4nc(c(-c5cc(S(=O)(=O)[O-])ccc5F)c5ccc2[nH]5)C=C4)C=C3)cc1
REMARK SMILES IDX 27 1 26 2 25 3 24 4 23 5 22 6 20 7 21 8 19 9 3 10 4 11 5 12
REMARK SMILES IDX 18 13 6 14 2 15 1 16 7 17 8 18 9 19 10 20 11 21 17 22 12 23
REMARK SMILES IDX 15 24 13 25 14 26 16 27 28 28 29 29 30 30 31 31 32 32 33 33
REMARK SMILES IDX 34 34 35 35 96 36 36 37 95 38 37 39 38 40 39 41 89 42 40 43
REMARK SMILES IDX 94 44 88 45 90 46 41 47 93 48 87 49 86 50 42 52 74 53 54 54
REMARK SMILES IDX 73 55 55 56 58 57 72 58 91 59 56 60 57 61 71 63 92 64 59 65
REMARK SMILES IDX 43 66 44 67 52 68 45 69 51 70 53 71 50 72 46 73 47 74 48 75
REMARK SMILES IDX 49 76 75 77 76 78 84 79 77 80 83 81 85 82 82 83 78 84 79 85
REMARK SMILES IDX 80 86 81 87 60 88 61 89 69 90 62 91 68 92 70 93 67 94 63 95
REMARK SMILES IDX 64 96 65 97 66 98
REMARK H PARENT 90 51 58 62
REMARK Flexibility Score: inf
ROOT
ATOM      1  C   UNL A   1      35.338  33.630  28.327  1.00  0.00     0.188 C 
ENDROOT
BRANCH   1   2
ATOM      2  C   UNL A   1      34.447  32.455  28.781  1.00  0.00     0.188 C 
BRANCH   2   3
ATOM      3  O   UNL A   1      33.610  31.910  27.770  1.00  0.00    -0.376 OA
BRANCH   3   4
ATOM      4  C   UNL A   1      33.980  30.604  27.355  1.00  0.00     0.202 C 
BRANCH   4   5
ATOM      5  C   UNL A   1      32.898  29.873  26.550  1.00  0.00     0.261 C 
BRANCH   5   6
ATOM      6  O   UNL A   1      32.980  28.433  26.599  1.00  0.00    -0.460 OA
BRANCH   6   7
ATOM      7  C   UNL A   1      31.879  27.761  26.993  1.00  0.00     0.342 C 
ATOM      8  O   UNL A   1      31.248  27.976  28.018  1.00  0.00    -0.246 OA
BRANCH   7   9
ATOM      9  C   UNL A   1      31.423  26.787  25.962  1.00  0.00     0.103 A 
ATOM     10  C   UNL A   1      30.808  27.073  24.746  1.00  0.00     0.133 A 
ATOM     11  C   UNL A   1      30.406  25.995  23.933  1.00  0.00     0.049 A 
ATOM     12  C   UNL A   1      30.647  24.658  24.295  1.00  0.00     0.025 A 
ATOM     13  C   UNL A   1      31.668  25.441  26.290  1.00  0.00     0.041 A 
ATOM     14  C   UNL A   1      31.299  24.363  25.490  1.00  0.00     0.083 A 
BRANCH  10  15
ATOM     15  O   UNL A   1      30.516  28.301  24.224  1.00  0.00    -0.496 OA
ATOM     16  C   UNL A   1      31.309  28.725  23.123  1.00  0.00     0.278 C 
ENDBRANCH  10  15
BRANCH  14  17
ATOM     17  S   UNL A   1      31.627  22.623  25.868  1.00  0.00     0.243 S 
ATOM     18  O   UNL A   1      32.470  22.667  27.044  1.00  0.00    -0.207 OA
ATOM     19  O   UNL A   1      30.315  22.006  25.917  1.00  0.00    -0.207 OA
BRANCH  17  20
ATOM     20  N   UNL A   1      32.525  21.854  24.662  1.00  0.00    -0.197 NA
ATOM     21  C   UNL A   1      33.853  22.306  24.189  1.00  0.00     0.105 C 
ATOM     22  C   UNL A   1      32.259  20.455  24.312  1.00  0.00     0.105 C 
ATOM     23  C   UNL A   1      34.953  21.507  24.892  1.00  0.00     0.001 C 
ATOM     24  C   UNL A   1      33.177  19.635  25.202  1.00  0.00     0.001 C 
ATOM     25  C   UNL A   1      36.366  21.780  24.398  1.00  0.00     0.009 C 
ATOM     26  C   UNL A   1      34.655  19.983  24.932  1.00  0.00     0.009 C 
ATOM     27  C   UNL A   1      32.869  18.165  25.137  1.00  0.00     0.009 C 
ENDBRANCH  17  20
ENDBRANCH  14  17
ENDBRANCH   7   9
ENDBRANCH   6   7
ENDBRANCH   5   6
ENDBRANCH   4   5
ENDBRANCH   3   4
ENDBRANCH   2   3
ENDBRANCH   1   2
BRANCH   1  28
ATOM     28  O   UNL A   1      35.043  34.970  28.686  1.00  0.00    -0.376 OA
BRANCH  28  29
ATOM     29  C   UNL A   1      33.749  35.489  28.440  1.00  0.00     0.202 C 
BRANCH  29  30
ATOM     30  C   UNL A   1      32.933  36.113  29.586  1.00  0.00     0.261 C 
BRANCH  30  31
ATOM     31  O   UNL A   1      32.435  35.216  30.590  1.00  0.00    -0.460 OA
BRANCH  31  32
ATOM     32  C   UNL A   1      32.843  35.479  31.859  1.00  0.00     0.338 C 
ATOM     33  O   UNL A   1      32.205  36.073  32.712  1.00  0.00    -0.246 OA
BRANCH  32  34
ATOM     34  C   UNL A   1      34.137  34.793  32.129  1.00  0.00     0.060 A 
ATOM     35  C   UNL A   1      34.102  33.426  32.411  1.00  0.00     0.016 A 
ATOM     36  C   UNL A   1      35.371  35.456  32.089  1.00  0.00     0.016 A 
ATOM     37  C   UNL A   1      35.296  32.724  32.619  1.00  0.00     0.010 A 
ATOM     38  C   UNL A   1      36.569  34.750  32.319  1.00  0.00     0.010 A 
ATOM     39  C   UNL A   1      36.551  33.371  32.570  1.00  0.00    -0.014 A 
BRANCH  39  40
ATOM     40  C   UNL A   1      37.787  32.592  32.916  1.00  0.00     0.031 A 
ATOM     41  C   UNL A   1      38.410  32.852  34.261  1.00  0.00     0.074 A 
ATOM     42  C   UNL A   1      38.329  31.638  32.123  1.00  0.00     0.049 A 
ATOM     43  N   UNL A   1      39.422  32.258  34.838  1.00  0.00    -0.248 NA
ATOM     44  C   UNL A   1      37.812  33.939  35.052  1.00  0.00     0.031 C 
ATOM     45  C   UNL A   1      37.872  31.284  30.788  1.00  0.00     0.029 A 
ATOM     46  N   UNL A   1      39.377  30.763  32.336  1.00  0.00    -0.354 N 
ATOM     47  C   UNL A   1      39.570  32.890  36.066  1.00  0.00     0.074 A 
ATOM     48  C   UNL A   1      38.542  33.904  36.151  1.00  0.00     0.031 C 
ATOM     49  C   UNL A   1      38.545  30.210  30.342  1.00  0.00     0.029 A 
ATOM     50  C   UNL A   1      39.590  29.869  31.302  1.00  0.00     0.049 A 
ATOM     51  H   UNL A   1      39.925  30.775  33.152  1.00  0.00     0.167 HD
ATOM     52  C   UNL A   1      40.502  32.679  37.027  1.00  0.00     0.034 A 
ATOM     53  C   UNL A   1      40.544  28.926  31.114  1.00  0.00     0.034 A 
ATOM     54  C   UNL A   1      41.604  31.764  36.895  1.00  0.00     0.049 A 
ATOM     55  C   UNL A   1      41.644  28.800  32.148  1.00  0.00     0.074 A 
ATOM     56  C   UNL A   1      42.646  31.546  37.776  1.00  0.00     0.029 A 
ATOM     57  N   UNL A   1      41.833  30.949  35.795  1.00  0.00    -0.354 N 
ATOM     58  N   UNL A   1      41.771  29.417  33.300  1.00  0.00    -0.248 NA
ATOM     59  C   UNL A   1      42.752  27.883  31.838  1.00  0.00     0.031 C 
ATOM     60  C   UNL A   1      43.550  30.665  37.173  1.00  0.00     0.029 A 
ATOM     61  C   UNL A   1      43.022  30.256  35.959  1.00  0.00     0.049 A 
ATOM     62  H   UNL A   1      41.239  30.874  35.014  1.00  0.00     0.167 HD
ATOM     63  C   UNL A   1      42.962  28.950  33.854  1.00  0.00     0.074 A 
ATOM     64  C   UNL A   1      43.502  27.981  32.925  1.00  0.00     0.031 C 
ATOM     65  C   UNL A   1      43.558  29.296  35.024  1.00  0.00     0.034 A 
BRANCH  52  66
ATOM     66  C   UNL A   1      40.414  33.566  38.241  1.00  0.00     0.023 A 
ATOM     67  C   UNL A   1      39.537  33.273  39.300  1.00  0.00     0.031 A 
ATOM     68  C   UNL A   1      41.135  34.771  38.287  1.00  0.00     0.131 A 
ATOM     69  C   UNL A   1      39.339  34.217  40.316  1.00  0.00     0.055 A 
ATOM     70  C   UNL A   1      40.999  35.665  39.349  1.00  0.00     0.041 A 
ATOM     71  F   UNL A   1      41.952  35.119  37.281  1.00  0.00    -0.206 F 
ATOM     72  C   UNL A   1      40.082  35.399  40.363  1.00  0.00     0.022 A 
BRANCH  69  73
ATOM     73  S   UNL A   1      37.965  33.962  41.473  1.00  0.00     0.124 S 
ATOM     74  O   UNL A   1      38.587  33.111  42.484  1.00  0.00    -0.237 OA
ATOM     75  O   UNL A   1      37.645  35.323  41.889  1.00  0.00    -0.237 OA
ATOM     76  O   UNL A   1      36.948  33.303  40.655  1.00  0.00    -0.744 OA
ENDBRANCH  69  73
ENDBRANCH  52  66
BRANCH  53  77
ATOM     77  C   UNL A   1      40.607  28.093  29.863  1.00  0.00     0.023 A 
ATOM     78  C   UNL A   1      41.540  28.364  28.844  1.00  0.00     0.031 A 
ATOM     79  C   UNL A   1      39.655  27.087  29.612  1.00  0.00     0.131 A 
ATOM     80  C   UNL A   1      41.467  27.680  27.616  1.00  0.00     0.055 A 
ATOM     81  C   UNL A   1      39.634  26.357  28.420  1.00  0.00     0.041 A 
ATOM     82  F   UNL A   1      38.715  26.796  30.526  1.00  0.00    -0.206 F 
ATOM     83  C   UNL A   1      40.533  26.664  27.407  1.00  0.00     0.022 A 
BRANCH  80  84
ATOM     84  S   UNL A   1      42.527  28.216  26.242  1.00  0.00     0.124 S 
ATOM     85  O   UNL A   1      43.792  27.572  26.576  1.00  0.00    -0.237 OA
ATOM     86  O   UNL A   1      41.816  27.681  25.085  1.00  0.00    -0.237 OA
ATOM     87  O   UNL A   1      42.519  29.673  26.355  1.00  0.00    -0.744 OA
ENDBRANCH  80  84
ENDBRANCH  53  77
BRANCH  65  88
ATOM     88  C   UNL A   1      44.839  28.586  35.393  1.00  0.00     0.023 A 
ATOM     89  C   UNL A   1      44.843  27.352  36.067  1.00  0.00     0.031 A 
ATOM     90  C   UNL A   1      46.079  29.151  35.043  1.00  0.00     0.131 A 
ATOM     91  C   UNL A   1      46.062  26.747  36.410  1.00  0.00     0.055 A 
ATOM     92  C   UNL A   1      47.286  28.514  35.329  1.00  0.00     0.041 A 
ATOM     93  F   UNL A   1      46.135  30.329  34.401  1.00  0.00    -0.206 F 
ATOM     94  C   UNL A   1      47.282  27.310  36.027  1.00  0.00     0.022 A 
BRANCH  91  95
ATOM     95  S   UNL A   1      46.040  25.252  37.437  1.00  0.00     0.124 S 
ATOM     96  O   UNL A   1      44.760  24.653  37.076  1.00  0.00    -0.237 OA
ATOM     97  O   UNL A   1      47.229  24.541  36.979  1.00  0.00    -0.237 OA
ATOM     98  O   UNL A   1      46.118  25.771  38.802  1.00  0.00    -0.744 OA
ENDBRANCH  91  95
ENDBRANCH  65  88
ENDBRANCH  39  40
ENDBRANCH  32  34
ENDBRANCH  31  32
ENDBRANCH  30  31
ENDBRANCH  29  30
ENDBRANCH  28  29
ENDBRANCH   1  28
TORSDOF 23
ENDMDL
MODEL 2
REMARK VINA RESULT:     -10.3      6.445     12.689
REMARK SMILES COc1ccc(S(=O)(=O)N2C[C@H](C)C[C@H](C)C2)cc1C(=O)OCCOCCOCCOC(=O)c1ccc(-c2c3nc(c(-c4cc(S(=O)(=O)[O-])ccc4F)c4ccc([nH]4)c(-c4cc(S(=O)(=O)[O-])ccc4F)c4nc(c(-c5cc(S(=O)(=O)[O-])ccc5F)c5ccc2[nH]5)C=C4)C=C3)cc1
REMARK SMILES IDX 27 1 26 2 25 3 24 4 23 5 22 6 20 7 21 8 19 9 3 10 4 11 5 12
REMARK SMILES IDX 18 13 6 14 2 15 1 16 7 17 8 18 9 19 10 20 11 21 17 22 12 23
REMARK SMILES IDX 15 24 13 25 14 26 16 27 28 28 29 29 30 30 31 31 32 32 33 33
REMARK SMILES IDX 34 34 35 35 96 36 36 37 95 38 37 39 38 40 39 41 89 42 40 43
REMARK SMILES IDX 94 44 88 45 90 46 41 47 93 48 87 49 86 50 42 52 74 53 54 54
REMARK SMILES IDX 73 55 55 56 58 57 72 58 91 59 56 60 57 61 71 63 92 64 59 65
REMARK SMILES IDX 43 66 44 67 52 68 45 69 51 70 53 71 50 72 46 73 47 74 48 75
REMARK SMILES IDX 49 76 75 77 76 78 84 79 77 80 83 81 85 82 82 83 78 84 79 85
REMARK SMILES IDX 80 86 81 87 60 88 61 89 69 90 62 91 68 92 70 93 67 94 63 95
REMARK SMILES IDX 64 96 65 97 66 98
REMARK H PARENT 90 51 58 62
REMARK Flexibility Score: inf
ROOT
ATOM      1  C   UNL A   1      41.101  21.339  27.575  1.00  0.00     0.188 C 
ENDROOT
BRANCH   1   2
ATOM      2  C   UNL A   1      40.423  22.705  27.345  1.00  0.00     0.188 C 
BRANCH   2   3
ATOM      3  O   UNL A   1      39.644  22.799  26.161  1.00  0.00    -0.376 OA
BRANCH   3   4
ATOM      4  C   UNL A   1      38.603  21.837  26.074  1.00  0.00     0.202 C 
BRANCH   4   5
ATOM      5  C   UNL A   1      37.231  22.429  25.729  1.00  0.00     0.261 C 
BRANCH   5   6
ATOM      6  O   UNL A   1      37.192  23.181  24.497  1.00  0.00    -0.460 OA
BRANCH   6   7
ATOM      7  C   UNL A   1      36.212  22.883  23.619  1.00  0.00     0.342 C 
ATOM      8  O   UNL A   1      36.355  22.772  22.411  1.00  0.00    -0.246 OA
BRANCH   7   9
ATOM      9  C   UNL A   1      34.927  22.570  24.305  1.00  0.00     0.103 A 
ATOM     10  C   UNL A   1      34.502  21.329  24.773  1.00  0.00     0.133 A 
ATOM     11  C   UNL A   1      33.221  21.237  25.350  1.00  0.00     0.049 A 
ATOM     12  C   UNL A   1      32.391  22.363  25.504  1.00  0.00     0.025 A 
ATOM     13  C   UNL A   1      34.084  23.681  24.489  1.00  0.00     0.041 A 
ATOM     14  C   UNL A   1      32.825  23.616  25.077  1.00  0.00     0.083 A 
BRANCH  10  15
ATOM     15  O   UNL A   1      35.177  20.142  24.729  1.00  0.00    -0.496 OA
ATOM     16  C   UNL A   1      34.386  18.970  24.573  1.00  0.00     0.278 C 
ENDBRANCH  10  15
BRANCH  14  17
ATOM     17  S   UNL A   1      31.729  25.030  25.357  1.00  0.00     0.243 S 
ATOM     18  O   UNL A   1      30.550  24.726  24.574  1.00  0.00    -0.207 OA
ATOM     19  O   UNL A   1      31.651  25.153  26.801  1.00  0.00    -0.207 OA
BRANCH  17  20
ATOM     20  N   UNL A   1      32.357  26.471  24.741  1.00  0.00    -0.197 NA
ATOM     21  C   UNL A   1      31.638  27.366  23.805  1.00  0.00     0.105 C 
ATOM     22  C   UNL A   1      33.462  27.154  25.420  1.00  0.00     0.105 C 
ATOM     23  C   UNL A   1      30.979  28.508  24.583  1.00  0.00     0.001 C 
ATOM     24  C   UNL A   1      32.805  28.120  26.391  1.00  0.00     0.001 C 
ATOM     25  C   UNL A   1      30.319  29.576  23.724  1.00  0.00     0.009 C 
ATOM     26  C   UNL A   1      31.928  29.140  25.638  1.00  0.00     0.009 C 
ATOM     27  C   UNL A   1      33.796  28.739  27.336  1.00  0.00     0.009 C 
ENDBRANCH  17  20
ENDBRANCH  14  17
ENDBRANCH   7   9
ENDBRANCH   6   7
ENDBRANCH   5   6
ENDBRANCH   4   5
ENDBRANCH   3   4
ENDBRANCH   2   3
ENDBRANCH   1   2
BRANCH   1  28
ATOM     28  O   UNL A   1      41.947  20.754  26.599  1.00  0.00    -0.376 OA
BRANCH  28  29
ATOM     29  C   UNL A   1      41.939  19.351  26.419  1.00  0.00     0.202 C 
BRANCH  29  30
ATOM     30  C   UNL A   1      43.100  18.656  25.685  1.00  0.00     0.261 C 
BRANCH  30  31
ATOM     31  O   UNL A   1      43.497  19.216  24.424  1.00  0.00    -0.460 OA
BRANCH  31  32
ATOM     32  C   UNL A   1      44.795  19.612  24.344  1.00  0.00     0.338 C 
ATOM     33  O   UNL A   1      45.721  18.955  23.900  1.00  0.00    -0.246 OA
BRANCH  32  34
ATOM     34  C   UNL A   1      44.914  21.043  24.735  1.00  0.00     0.060 A 
ATOM     35  C   UNL A   1      45.354  21.329  26.030  1.00  0.00     0.016 A 
ATOM     36  C   UNL A   1      44.624  22.097  23.859  1.00  0.00     0.016 A 
ATOM     37  C   UNL A   1      45.534  22.660  26.429  1.00  0.00     0.010 A 
ATOM     38  C   UNL A   1      44.787  23.435  24.271  1.00  0.00     0.010 A 
ATOM     39  C   UNL A   1      45.261  23.736  25.556  1.00  0.00    -0.014 A 
BRANCH  39  40
ATOM     40  C   UNL A   1      45.361  25.141  26.077  1.00  0.00     0.031 A 
ATOM     41  C   UNL A   1      46.706  25.810  25.995  1.00  0.00     0.074 A 
ATOM     42  C   UNL A   1      44.311  25.851  26.551  1.00  0.00     0.049 A 
ATOM     43  N   UNL A   1      47.044  27.037  26.291  1.00  0.00    -0.248 NA
ATOM     44  C   UNL A   1      47.819  24.970  25.526  1.00  0.00     0.031 C 
ATOM     45  C   UNL A   1      42.956  25.348  26.725  1.00  0.00     0.029 A 
ATOM     46  N   UNL A   1      44.208  27.168  26.955  1.00  0.00    -0.354 N 
ATOM     47  C   UNL A   1      48.405  27.121  26.028  1.00  0.00     0.074 A 
ATOM     48  C   UNL A   1      48.825  25.824  25.544  1.00  0.00     0.031 C 
ATOM     49  C   UNL A   1      42.138  26.350  27.087  1.00  0.00     0.029 A 
ATOM     50  C   UNL A   1      42.929  27.556  27.311  1.00  0.00     0.049 A 
ATOM     51  H   UNL A   1      44.978  27.778  26.987  1.00  0.00     0.167 HD
ATOM     52  C   UNL A   1      49.247  28.166  26.210  1.00  0.00     0.034 A 
ATOM     53  C   UNL A   1      42.452  28.719  27.815  1.00  0.00     0.034 A 
ATOM     54  C   UNL A   1      48.864  29.415  26.813  1.00  0.00     0.049 A 
ATOM     55  C   UNL A   1      43.439  29.827  28.124  1.00  0.00     0.074 A 
ATOM     56  C   UNL A   1      49.664  30.500  27.119  1.00  0.00     0.029 A 
ATOM     57  N   UNL A   1      47.582  29.729  27.243  1.00  0.00    -0.354 N 
ATOM     58  N   UNL A   1      44.728  29.879  27.876  1.00  0.00    -0.248 NA
ATOM     59  C   UNL A   1      42.916  31.013  28.819  1.00  0.00     0.031 C 
ATOM     60  C   UNL A   1      48.887  31.433  27.811  1.00  0.00     0.029 A 
ATOM     61  C   UNL A   1      47.579  30.976  27.849  1.00  0.00     0.049 A 
ATOM     62  H   UNL A   1      46.792  29.152  27.136  1.00  0.00     0.167 HD
ATOM     63  C   UNL A   1      45.161  31.108  28.371  1.00  0.00     0.074 A 
ATOM     64  C   UNL A   1      43.995  31.777  28.906  1.00  0.00     0.031 C 
ATOM     65  C   UNL A   1      46.413  31.634  28.387  1.00  0.00     0.034 A 
BRANCH  52  66
ATOM     66  C   UNL A   1      50.692  27.923  25.861  1.00  0.00     0.023 A 
ATOM     67  C   UNL A   1      51.160  28.066  24.543  1.00  0.00     0.031 A 
ATOM     68  C   UNL A   1      51.580  27.438  26.835  1.00  0.00     0.131 A 
ATOM     69  C   UNL A   1      52.456  27.643  24.219  1.00  0.00     0.055 A 
ATOM     70  C   UNL A   1      52.898  27.104  26.522  1.00  0.00     0.041 A 
ATOM     71  F   UNL A   1      51.171  27.243  28.098  1.00  0.00    -0.206 F 
ATOM     72  C   UNL A   1      53.337  27.189  25.204  1.00  0.00     0.022 A 
BRANCH  69  73
ATOM     73  S   UNL A   1      52.911  27.523  22.468  1.00  0.00     0.124 S 
ATOM     74  O   UNL A   1      51.602  27.396  21.833  1.00  0.00    -0.237 OA
ATOM     75  O   UNL A   1      53.616  28.778  22.237  1.00  0.00    -0.237 OA
ATOM     76  O   UNL A   1      53.741  26.320  22.412  1.00  0.00    -0.744 OA
ENDBRANCH  69  73
ENDBRANCH  52  66
BRANCH  53  77
ATOM     77  C   UNL A   1      41.005  28.895  28.182  1.00  0.00     0.023 A 
ATOM     78  C   UNL A   1      40.553  28.712  29.504  1.00  0.00     0.031 A 
ATOM     79  C   UNL A   1      40.028  29.132  27.196  1.00  0.00     0.131 A 
ATOM     80  C   UNL A   1      39.174  28.717  29.788  1.00  0.00     0.055 A 
ATOM     81  C   UNL A   1      38.666  29.211  27.496  1.00  0.00     0.041 A 
ATOM     82  F   UNL A   1      40.383  29.285  25.911  1.00  0.00    -0.206 F 
ATOM     83  C   UNL A   1      38.230  28.986  28.796  1.00  0.00     0.022 A 
BRANCH  80  84
ATOM     84  S   UNL A   1      38.614  28.243  31.450  1.00  0.00     0.124 S 
ATOM     85  O   UNL A   1      38.544  26.791  31.334  1.00  0.00    -0.237 OA
ATOM     86  O   UNL A   1      39.681  28.772  32.291  1.00  0.00    -0.237 OA
ATOM     87  O   UNL A   1      37.326  28.922  31.581  1.00  0.00    -0.744 OA
ENDBRANCH  80  84
ENDBRANCH  53  77
BRANCH  65  88
ATOM     88  C   UNL A   1      46.581  33.023  28.956  1.00  0.00     0.023 A 
ATOM     89  C   UNL A   1      46.427  34.178  28.169  1.00  0.00     0.031 A 
ATOM     90  C   UNL A   1      46.883  33.188  30.320  1.00  0.00     0.131 A 
ATOM     91  C   UNL A   1      46.620  35.445  28.743  1.00  0.00     0.055 A 
ATOM     92  C   UNL A   1      47.011  34.451  30.899  1.00  0.00     0.041 A 
ATOM     93  F   UNL A   1      47.044  32.121  31.118  1.00  0.00    -0.206 F 
ATOM     94  C   UNL A   1      46.890  35.589  30.106  1.00  0.00     0.022 A 
BRANCH  91  95
ATOM     95  S   UNL A   1      46.597  36.906  27.668  1.00  0.00     0.124 S 
ATOM     96  O   UNL A   1      45.166  37.132  27.494  1.00  0.00    -0.237 OA
ATOM     97  O   UNL A   1      47.305  37.896  28.472  1.00  0.00    -0.237 OA
ATOM     98  O   UNL A   1      47.304  36.462  26.469  1.00  0.00    -0.744 OA
ENDBRANCH  91  95
ENDBRANCH  65  88
ENDBRANCH  39  40
ENDBRANCH  32  34
ENDBRANCH  31  32
ENDBRANCH  30  31
ENDBRANCH  29  30
ENDBRANCH  28  29
ENDBRANCH   1  28
TORSDOF 23
ENDMDL
MODEL 3
REMARK VINA RESULT:     -10.2      6.505     12.451
REMARK SMILES COc1ccc(S(=O)(=O)N2C[C@H](C)C[C@H](C)C2)cc1C(=O)OCCOCCOCCOC(=O)c1ccc(-c2c3nc(c(-c4cc(S(=O)(=O)[O-])ccc4F)c4ccc([nH]4)c(-c4cc(S(=O)(=O)[O-])ccc4F)c4nc(c(-c5cc(S(=O)(=O)[O-])ccc5F)c5ccc2[nH]5)C=C4)C=C3)cc1
REMARK SMILES IDX 27 1 26 2 25 3 24 4 23 5 22 6 20 7 21 8 19 9 3 10 4 11 5 12
REMARK SMILES IDX 18 13 6 14 2 15 1 16 7 17 8 18 9 19 10 20 11 21 17 22 12 23
REMARK SMILES IDX 15 24 13 25 14 26 16 27 28 28 29 29 30 30 31 31 32 32 33 33
REMARK SMILES IDX 34 34 35 35 96 36 36 37 95 38 37 39 38 40 39 41 89 42 40 43
REMARK SMILES IDX 94 44 88 45 90 46 41 47 93 48 87 49 86 50 42 52 74 53 54 54
REMARK SMILES IDX 73 55 55 56 58 57 72 58 91 59 56 60 57 61 71 63 92 64 59 65
REMARK SMILES IDX 43 66 44 67 52 68 45 69 51 70 53 71 50 72 46 73 47 74 48 75
REMARK SMILES IDX 49 76 75 77 76 78 84 79 77 80 83 81 85 82 82 83 78 84 79 85
REMARK SMILES IDX 80 86 81 87 60 88 61 89 69 90 62 91 68 92 70 93 67 94 63 95
REMARK SMILES IDX 64 96 65 97 66 98
REMARK H PARENT 90 51 58 62
REMARK Flexibility Score: inf
ROOT
ATOM      1  C   UNL A   1      40.650  21.742  27.255  1.00  0.00     0.188 C 
ENDROOT
BRANCH   1   2
ATOM      2  C   UNL A   1      39.746  22.896  26.774  1.00  0.00     0.188 C 
BRANCH   2   3
ATOM      3  O   UNL A   1      38.959  22.606  25.628  1.00  0.00    -0.376 OA
BRANCH   3   4
ATOM      4  C   UNL A   1      38.154  21.444  25.757  1.00  0.00     0.202 C 
BRANCH   4   5
ATOM      5  C   UNL A   1      36.654  21.696  25.557  1.00  0.00     0.261 C 
BRANCH   5   6
ATOM      6  O   UNL A   1      36.331  22.973  24.968  1.00  0.00    -0.460 OA
BRANCH   6   7
ATOM      7  C   UNL A   1      36.021  22.991  23.655  1.00  0.00     0.342 C 
ATOM      8  O   UNL A   1      36.800  22.763  22.742  1.00  0.00    -0.246 OA
BRANCH   7   9
ATOM      9  C   UNL A   1      34.562  23.197  23.431  1.00  0.00     0.103 A 
ATOM     10  C   UNL A   1      33.530  22.313  23.732  1.00  0.00     0.133 A 
ATOM     11  C   UNL A   1      32.215  22.683  23.390  1.00  0.00     0.049 A 
ATOM     12  C   UNL A   1      31.919  23.926  22.801  1.00  0.00     0.025 A 
ATOM     13  C   UNL A   1      34.236  24.441  22.859  1.00  0.00     0.041 A 
ATOM     14  C   UNL A   1      32.941  24.834  22.535  1.00  0.00     0.083 A 
BRANCH  10  15
ATOM     15  O   UNL A   1      33.626  21.083  24.318  1.00  0.00    -0.496 OA
ATOM     16  C   UNL A   1      32.601  20.149  24.000  1.00  0.00     0.278 C 
ENDBRANCH  10  15
BRANCH  14  17
ATOM     17  S   UNL A   1      32.484  26.437  21.828  1.00  0.00     0.243 S 
ATOM     18  O   UNL A   1      33.743  27.137  21.689  1.00  0.00    -0.207 OA
ATOM     19  O   UNL A   1      31.684  26.109  20.663  1.00  0.00    -0.207 OA
BRANCH  17  20
ATOM     20  N   UNL A   1      31.534  27.363  22.874  1.00  0.00    -0.197 NA
ATOM     21  C   UNL A   1      30.053  27.376  22.869  1.00  0.00     0.105 C 
ATOM     22  C   UNL A   1      32.089  27.871  24.132  1.00  0.00     0.105 C 
ATOM     23  C   UNL A   1      29.523  26.428  23.947  1.00  0.00     0.001 C 
ATOM     24  C   UNL A   1      31.787  26.802  25.168  1.00  0.00     0.001 C 
ATOM     25  C   UNL A   1      28.014  26.449  24.139  1.00  0.00     0.009 C 
ATOM     26  C   UNL A   1      30.266  26.585  25.302  1.00  0.00     0.009 C 
ATOM     27  C   UNL A   1      32.489  27.058  26.472  1.00  0.00     0.009 C 
ENDBRANCH  17  20
ENDBRANCH  14  17
ENDBRANCH   7   9
ENDBRANCH   6   7
ENDBRANCH   5   6
ENDBRANCH   4   5
ENDBRANCH   3   4
ENDBRANCH   2   3
ENDBRANCH   1   2
BRANCH   1  28
ATOM     28  O   UNL A   1      41.495  21.037  26.360  1.00  0.00    -0.376 OA
BRANCH  28  29
ATOM     29  C   UNL A   1      41.592  19.628  26.455  1.00  0.00     0.202 C 
BRANCH  29  30
ATOM     30  C   UNL A   1      42.800  18.891  25.850  1.00  0.00     0.261 C 
BRANCH  30  31
ATOM     31  O   UNL A   1      43.225  19.308  24.544  1.00  0.00    -0.460 OA
BRANCH  31  32
ATOM     32  C   UNL A   1      44.532  19.668  24.445  1.00  0.00     0.338 C 
ATOM     33  O   UNL A   1      45.432  18.990  23.979  1.00  0.00    -0.246 OA
BRANCH  32  34
ATOM     34  C   UNL A   1      44.698  21.093  24.844  1.00  0.00     0.060 A 
ATOM     35  C   UNL A   1      45.270  21.357  26.091  1.00  0.00     0.016 A 
ATOM     36  C   UNL A   1      44.325  22.162  24.018  1.00  0.00     0.016 A 
ATOM     37  C   UNL A   1      45.497  22.680  26.491  1.00  0.00     0.010 A 
ATOM     38  C   UNL A   1      44.536  23.492  24.433  1.00  0.00     0.010 A 
ATOM     39  C   UNL A   1      45.140  23.771  25.667  1.00  0.00    -0.014 A 
BRANCH  39  40
ATOM     40  C   UNL A   1      45.300  25.167  26.197  1.00  0.00     0.031 A 
ATOM     41  C   UNL A   1      46.642  25.822  26.015  1.00  0.00     0.074 A 
ATOM     42  C   UNL A   1      44.300  25.882  26.765  1.00  0.00     0.049 A 
ATOM     43  N   UNL A   1      47.019  27.041  26.300  1.00  0.00    -0.248 NA
ATOM     44  C   UNL A   1      47.703  24.976  25.446  1.00  0.00     0.031 C 
ATOM     45  C   UNL A   1      42.958  25.393  27.041  1.00  0.00     0.029 A 
ATOM     46  N   UNL A   1      44.248  27.194  27.193  1.00  0.00    -0.354 N 
ATOM     47  C   UNL A   1      48.355  27.112  25.928  1.00  0.00     0.074 A 
ATOM     48  C   UNL A   1      48.718  25.818  25.394  1.00  0.00     0.031 C 
ATOM     49  C   UNL A   1      42.185  26.399  27.482  1.00  0.00     0.029 A 
ATOM     50  C   UNL A   1      43.007  27.592  27.657  1.00  0.00     0.049 A 
ATOM     51  H   UNL A   1      45.026  27.795  27.170  1.00  0.00     0.167 HD
ATOM     52  C   UNL A   1      49.222  28.145  26.055  1.00  0.00     0.034 A 
ATOM     53  C   UNL A   1      42.587  28.753  28.213  1.00  0.00     0.034 A 
ATOM     54  C   UNL A   1      48.905  29.389  26.704  1.00  0.00     0.049 A 
ATOM     55  C   UNL A   1      43.610  29.845  28.456  1.00  0.00     0.074 A 
ATOM     56  C   UNL A   1      49.741  30.460  26.959  1.00  0.00     0.029 A 
ATOM     57  N   UNL A   1      47.666  29.712  27.241  1.00  0.00    -0.354 N 
ATOM     58  N   UNL A   1      44.874  29.886  28.106  1.00  0.00    -0.248 NA
ATOM     59  C   UNL A   1      43.160  31.027  29.207  1.00  0.00     0.031 C 
ATOM     60  C   UNL A   1      49.034  31.392  27.724  1.00  0.00     0.029 A 
ATOM     61  C   UNL A   1      47.728  30.950  27.861  1.00  0.00     0.049 A 
ATOM     62  H   UNL A   1      46.863  29.146  27.190  1.00  0.00     0.167 HD
ATOM     63  C   UNL A   1      45.362  31.103  28.580  1.00  0.00     0.074 A 
ATOM     64  C   UNL A   1      44.252  31.777  29.217  1.00  0.00     0.031 C 
ATOM     65  C   UNL A   1      46.618  31.613  28.502  1.00  0.00     0.034 A 
BRANCH  52  66
ATOM     66  C   UNL A   1      50.630  27.890  25.586  1.00  0.00     0.023 A 
ATOM     67  C   UNL A   1      51.011  28.121  24.253  1.00  0.00     0.031 A 
ATOM     68  C   UNL A   1      51.568  27.308  26.456  1.00  0.00     0.131 A 
ATOM     69  C   UNL A   1      52.268  27.690  23.807  1.00  0.00     0.055 A 
ATOM     70  C   UNL A   1      52.850  26.964  26.026  1.00  0.00     0.041 A 
ATOM     71  F   UNL A   1      51.241  27.027  27.727  1.00  0.00    -0.206 F 
ATOM     72  C   UNL A   1      53.199  27.137  24.689  1.00  0.00     0.022 A 
BRANCH  69  73
ATOM     73  S   UNL A   1      52.596  27.692  22.023  1.00  0.00     0.124 S 
ATOM     74  O   UNL A   1      51.262  27.933  21.480  1.00  0.00    -0.237 OA
ATOM     75  O   UNL A   1      53.553  28.783  21.879  1.00  0.00    -0.237 OA
ATOM     76  O   UNL A   1      53.130  26.354  21.773  1.00  0.00    -0.744 OA
ENDBRANCH  69  73
ENDBRANCH  52  66
BRANCH  53  77
ATOM     77  C   UNL A   1      41.176  28.941  28.700  1.00  0.00     0.023 A 
ATOM     78  C   UNL A   1      40.845  28.817  30.063  1.00  0.00     0.031 A 
ATOM     79  C   UNL A   1      40.115  29.128  27.794  1.00  0.00     0.131 A 
ATOM     80  C   UNL A   1      39.497  28.830  30.468  1.00  0.00     0.055 A 
ATOM     81  C   UNL A   1      38.784  29.216  28.210  1.00  0.00     0.041 A 
ATOM     82  F   UNL A   1      40.353  29.224  26.477  1.00  0.00    -0.206 F 
ATOM     83  C   UNL A   1      38.467  29.050  29.552  1.00  0.00     0.022 A 
BRANCH  80  84
ATOM     84  S   UNL A   1      39.089  28.429  32.193  1.00  0.00     0.124 S 
ATOM     85  O   UNL A   1      38.403  29.642  32.623  1.00  0.00    -0.237 OA
ATOM     86  O   UNL A   1      38.259  27.239  32.038  1.00  0.00    -0.237 OA
ATOM     87  O   UNL A   1      40.395  28.199  32.806  1.00  0.00    -0.744 OA
ENDBRANCH  80  84
ENDBRANCH  53  77
BRANCH  65  88
ATOM     88  C   UNL A   1      46.849  32.992  29.074  1.00  0.00     0.023 A 
ATOM     89  C   UNL A   1      47.125  33.201  30.437  1.00  0.00     0.031 A 
ATOM     90  C   UNL A   1      46.809  34.116  28.228  1.00  0.00     0.131 A 
ATOM     91  C   UNL A   1      47.306  34.506  30.921  1.00  0.00     0.055 A 
ATOM     92  C   UNL A   1      47.053  35.404  28.703  1.00  0.00     0.041 A 
ATOM     93  F   UNL A   1      46.547  33.977  26.919  1.00  0.00    -0.206 F 
ATOM     94  C   UNL A   1      47.292  35.606  30.060  1.00  0.00     0.022 A 
BRANCH  91  95
ATOM     95  S   UNL A   1      47.478  34.761  32.709  1.00  0.00     0.124 S 
ATOM     96  O   UNL A   1      47.163  33.437  33.237  1.00  0.00    -0.237 OA
ATOM     97  O   UNL A   1      48.870  35.181  32.832  1.00  0.00    -0.237 OA
ATOM     98  O   UNL A   1      46.490  35.797  33.005  1.00  0.00    -0.744 OA
ENDBRANCH  91  95
ENDBRANCH  65  88
ENDBRANCH  39  40
ENDBRANCH  32  34
ENDBRANCH  31  32
ENDBRANCH  30  31
ENDBRANCH  29  30
ENDBRANCH  28  29
ENDBRANCH   1  28
TORSDOF 23
ENDMDL
