MODEL 1
REMARK VINA RESULT:      -7.5      0.000      0.000
REMARK SMILES CC[C@@H](C(=O)OCCOCCOCCOC(=O)c1ccc(-c2c3nc(c(-c4cc(S(=O)(=O)[O-])ccc4F)c4ccc([nH]4)c(-c4cc(S(=O)(=O)[O-])ccc4F)c4nc(c(-c5cc(S(=O)(=O)[O-])ccc5F)c5ccc2[nH]5)C=C4)C=C3)cc1)N(C)C(=O)N(C)CC(C)(C)O
REMARK SMILES IDX 9 1 8 2 7 3 6 4 4 5 5 6 3 7 2 8 1 9 81 10 82 11 83 12 84 13
REMARK SMILES IDX 85 14 86 15 87 16 88 17 89 18 90 19 91 20 10 22 11 23 12 24
REMARK SMILES IDX 13 25 14 26 15 27 16 28 17 29 18 30 19 31 80 32 20 33 79 34
REMARK SMILES IDX 21 35 22 36 23 37 73 38 24 39 78 40 72 41 74 42 25 43 77 44
REMARK SMILES IDX 71 45 70 46 26 48 58 49 38 50 57 51 39 52 42 53 56 54 75 55
REMARK SMILES IDX 40 56 41 57 55 59 76 60 43 61 27 62 28 63 36 64 29 65 35 66
REMARK SMILES IDX 37 67 34 68 30 69 31 70 32 71 33 72 59 73 60 74 68 75 61 76
REMARK SMILES IDX 67 77 69 78 66 79 62 80 63 81 64 82 65 83 44 84 45 85 53 86
REMARK SMILES IDX 46 87 52 88 54 89 51 90 47 91 48 92 49 93 50 94
REMARK H PARENT 91 21 74 47 42 58
REMARK Flexibility Score: inf
ROOT
ATOM      1  O   UNL A   1      41.447  43.826  20.877  1.00  0.00    -0.376 OA
ENDROOT
BRANCH   1   2
ATOM      2  C   UNL A   1      41.378  43.560  19.478  1.00  0.00     0.202 C 
BRANCH   2   3
ATOM      3  C   UNL A   1      41.025  44.733  18.530  1.00  0.00     0.261 C 
BRANCH   3   4
ATOM      4  O   UNL A   1      41.540  44.581  17.184  1.00  0.00    -0.462 OA
BRANCH   4   5
ATOM      5  C   UNL A   1      42.882  44.775  17.026  1.00  0.00     0.328 C 
ATOM      6  O   UNL A   1      43.622  43.903  16.578  1.00  0.00    -0.250 OA
BRANCH   5   7
ATOM      7  C   UNL A   1      43.402  46.155  17.546  1.00  0.00     0.196 C 
BRANCH   7   8
ATOM      8  C   UNL A   1      43.245  47.445  16.697  1.00  0.00     0.034 C 
ATOM      9  C   UNL A   1      41.955  48.236  16.811  1.00  0.00     0.007 C 
ENDBRANCH   7   8
BRANCH   7  10
ATOM     10  N   UNL A   1      44.820  45.935  18.033  1.00  0.00    -0.314 N 
ATOM     11  C   UNL A   1      45.854  46.077  17.028  1.00  0.00     0.149 C 
BRANCH  10  12
ATOM     12  C   UNL A   1      45.060  45.844  19.395  1.00  0.00     0.320 C 
ATOM     13  O   UNL A   1      44.928  46.840  20.108  1.00  0.00    -0.248 OA
BRANCH  12  14
ATOM     14  N   UNL A   1      45.604  44.703  19.960  1.00  0.00    -0.325 N 
ATOM     15  C   UNL A   1      45.121  43.352  19.673  1.00  0.00     0.148 C 
BRANCH  14  16
ATOM     16  C   UNL A   1      46.134  44.883  21.339  1.00  0.00     0.155 C 
BRANCH  16  17
ATOM     17  C   UNL A   1      47.651  44.535  21.634  1.00  0.00     0.077 C 
ATOM     18  C   UNL A   1      48.439  44.807  20.352  1.00  0.00     0.043 C 
ATOM     19  C   UNL A   1      48.362  45.338  22.747  1.00  0.00     0.043 C 
BRANCH  17  20
ATOM     20  O   UNL A   1      47.807  43.156  21.974  1.00  0.00    -0.389 OA
ATOM     21  H   UNL A   1      46.937  42.730  22.001  1.00  0.00     0.211 HD
ENDBRANCH  17  20
ENDBRANCH  16  17
ENDBRANCH  14  16
ENDBRANCH  12  14
ENDBRANCH  10  12
ENDBRANCH   7  10
ENDBRANCH   5   7
ENDBRANCH   4   5
ENDBRANCH   3   4
ENDBRANCH   2   3
ENDBRANCH   1   2
BRANCH   1  22
ATOM     22  C   UNL A   1      41.947  42.722  21.627  1.00  0.00     0.188 C 
BRANCH  22  23
ATOM     23  C   UNL A   1      41.674  42.810  23.101  1.00  0.00     0.188 C 
BRANCH  23  24
ATOM     24  O   UNL A   1      42.191  41.654  23.765  1.00  0.00    -0.376 OA
BRANCH  24  25
ATOM     25  C   UNL A   1      41.543  41.410  24.998  1.00  0.00     0.202 C 
BRANCH  25  26
ATOM     26  C   UNL A   1      42.515  41.074  26.146  1.00  0.00     0.261 C 
BRANCH  26  27
ATOM     27  O   UNL A   1      42.546  39.680  26.543  1.00  0.00    -0.460 OA
BRANCH  27  28
ATOM     28  C   UNL A   1      43.786  39.091  26.593  1.00  0.00     0.338 C 
ATOM     29  O   UNL A   1      44.824  39.606  26.249  1.00  0.00    -0.246 OA
BRANCH  28  30
ATOM     30  C   UNL A   1      43.698  37.746  27.273  1.00  0.00     0.060 A 
ATOM     31  C   UNL A   1      44.016  37.629  28.637  1.00  0.00     0.016 A 
ATOM     32  C   UNL A   1      43.324  36.591  26.586  1.00  0.00     0.016 A 
ATOM     33  C   UNL A   1      43.969  36.375  29.303  1.00  0.00     0.010 A 
ATOM     34  C   UNL A   1      43.296  35.342  27.247  1.00  0.00     0.010 A 
ATOM     35  C   UNL A   1      43.605  35.200  28.624  1.00  0.00    -0.014 A 
BRANCH  35  36
ATOM     36  C   UNL A   1      43.838  33.819  29.223  1.00  0.00     0.031 A 
ATOM     37  C   UNL A   1      42.697  33.294  30.060  1.00  0.00     0.074 A 
ATOM     38  C   UNL A   1      44.941  33.025  29.129  1.00  0.00     0.049 A 
ATOM     39  N   UNL A   1      42.591  32.159  30.698  1.00  0.00    -0.248 NA
ATOM     40  C   UNL A   1      41.536  34.187  30.215  1.00  0.00     0.031 C 
ATOM     41  C   UNL A   1      46.164  33.323  28.422  1.00  0.00     0.029 A 
ATOM     42  N   UNL A   1      45.245  31.781  29.668  1.00  0.00    -0.354 N 
ATOM     43  C   UNL A   1      41.342  32.189  31.300  1.00  0.00     0.074 A 
ATOM     44  C   UNL A   1      40.774  33.493  31.038  1.00  0.00     0.031 C 
ATOM     45  C   UNL A   1      47.085  32.368  28.564  1.00  0.00     0.029 A 
ATOM     46  C   UNL A   1      46.533  31.336  29.403  1.00  0.00     0.049 A 
ATOM     47  H   UNL A   1      44.599  31.256  30.195  1.00  0.00     0.167 HD
ATOM     48  C   UNL A   1      40.702  31.208  31.978  1.00  0.00     0.034 A 
ATOM     49  C   UNL A   1      47.248  30.250  29.766  1.00  0.00     0.034 A 
ATOM     50  C   UNL A   1      41.281  29.928  32.289  1.00  0.00     0.049 A 
ATOM     51  C   UNL A   1      46.555  29.209  30.581  1.00  0.00     0.074 A 
ATOM     52  C   UNL A   1      40.700  28.865  32.956  1.00  0.00     0.029 A 
ATOM     53  N   UNL A   1      42.581  29.542  31.985  1.00  0.00    -0.354 N 
ATOM     54  N   UNL A   1      45.338  29.237  31.064  1.00  0.00    -0.248 NA
ATOM     55  C   UNL A   1      47.303  27.981  30.861  1.00  0.00     0.031 C 
ATOM     56  C   UNL A   1      41.667  27.868  33.120  1.00  0.00     0.029 A 
ATOM     57  C   UNL A   1      42.825  28.268  32.477  1.00  0.00     0.049 A 
ATOM     58  H   UNL A   1      43.232  30.093  31.493  1.00  0.00     0.167 HD
ATOM     59  C   UNL A   1      45.152  28.002  31.665  1.00  0.00     0.074 A 
ATOM     60  C   UNL A   1      46.380  27.254  31.471  1.00  0.00     0.031 C 
ATOM     61  C   UNL A   1      44.054  27.532  32.305  1.00  0.00     0.034 A 
BRANCH  48  62
ATOM     62  C   UNL A   1      39.306  31.529  32.444  1.00  0.00     0.023 A 
ATOM     63  C   UNL A   1      39.079  32.188  33.667  1.00  0.00     0.031 A 
ATOM     64  C   UNL A   1      38.193  31.094  31.708  1.00  0.00     0.131 A 
ATOM     65  C   UNL A   1      37.773  32.313  34.159  1.00  0.00     0.055 A 
ATOM     66  C   UNL A   1      36.891  31.306  32.161  1.00  0.00     0.041 A 
ATOM     67  F   UNL A   1      38.353  30.429  30.554  1.00  0.00    -0.206 F 
ATOM     68  C   UNL A   1      36.675  31.902  33.402  1.00  0.00     0.022 A 
BRANCH  65  69
ATOM     69  S   UNL A   1      37.543  32.863  35.873  1.00  0.00     0.124 S 
ATOM     70  O   UNL A   1      38.690  33.749  36.051  1.00  0.00    -0.237 OA
ATOM     71  O   UNL A   1      36.237  33.511  35.826  1.00  0.00    -0.237 OA
ATOM     72  O   UNL A   1      37.597  31.621  36.639  1.00  0.00    -0.744 OA
ENDBRANCH  65  69
ENDBRANCH  48  62
BRANCH  49  73
ATOM     73  C   UNL A   1      48.687  30.084  29.366  1.00  0.00     0.023 A 
ATOM     74  C   UNL A   1      49.056  29.447  28.168  1.00  0.00     0.031 A 
ATOM     75  C   UNL A   1      49.726  30.532  30.206  1.00  0.00     0.131 A 
ATOM     76  C   UNL A   1      50.414  29.232  27.868  1.00  0.00     0.055 A 
ATOM     77  C   UNL A   1      51.074  30.366  29.878  1.00  0.00     0.041 A 
ATOM     78  F   UNL A   1      49.441  31.155  31.362  1.00  0.00    -0.206 F 
ATOM     79  C   UNL A   1      51.425  29.700  28.709  1.00  0.00     0.022 A 
BRANCH  76  80
ATOM     80  S   UNL A   1      50.848  28.245  26.405  1.00  0.00     0.124 S 
ATOM     81  O   UNL A   1      49.759  28.571  25.491  1.00  0.00    -0.237 OA
ATOM     82  O   UNL A   1      52.160  28.781  26.059  1.00  0.00    -0.237 OA
ATOM     83  O   UNL A   1      50.852  26.873  26.907  1.00  0.00    -0.744 OA
ENDBRANCH  76  80
ENDBRANCH  49  73
BRANCH  61  84
ATOM     84  C   UNL A   1      44.126  26.107  32.781  1.00  0.00     0.023 A 
ATOM     85  C   UNL A   1      44.352  25.790  34.131  1.00  0.00     0.031 A 
ATOM     86  C   UNL A   1      44.063  25.055  31.852  1.00  0.00     0.131 A 
ATOM     87  C   UNL A   1      44.615  24.464  34.496  1.00  0.00     0.055 A 
ATOM     88  C   UNL A   1      44.233  23.727  32.237  1.00  0.00     0.041 A 
ATOM     89  F   UNL A   1      43.862  25.304  30.547  1.00  0.00    -0.206 F 
ATOM     90  C   UNL A   1      44.535  23.427  33.563  1.00  0.00     0.022 A 
BRANCH  87  91
ATOM     91  S   UNL A   1      45.230  24.140  36.170  1.00  0.00     0.124 S 
ATOM     92  O   UNL A   1      45.400  22.690  36.152  1.00  0.00    -0.237 OA
ATOM     93  O   UNL A   1      46.459  24.925  36.209  1.00  0.00    -0.237 OA
ATOM     94  O   UNL A   1      44.154  24.629  37.030  1.00  0.00    -0.744 OA
ENDBRANCH  87  91
ENDBRANCH  61  84
ENDBRANCH  35  36
ENDBRANCH  28  30
ENDBRANCH  27  28
ENDBRANCH  26  27
ENDBRANCH  25  26
ENDBRANCH  24  25
ENDBRANCH  23  24
ENDBRANCH  22  23
ENDBRANCH   1  22
TORSDOF 27
ENDMDL
MODEL 2
REMARK VINA RESULT:      -7.4     10.377     13.818
REMARK SMILES CC[C@@H](C(=O)OCCOCCOCCOC(=O)c1ccc(-c2c3nc(c(-c4cc(S(=O)(=O)[O-])ccc4F)c4ccc([nH]4)c(-c4cc(S(=O)(=O)[O-])ccc4F)c4nc(c(-c5cc(S(=O)(=O)[O-])ccc5F)c5ccc2[nH]5)C=C4)C=C3)cc1)N(C)C(=O)N(C)CC(C)(C)O
REMARK SMILES IDX 9 1 8 2 7 3 6 4 4 5 5 6 3 7 2 8 1 9 81 10 82 11 83 12 84 13
REMARK SMILES IDX 85 14 86 15 87 16 88 17 89 18 90 19 91 20 10 22 11 23 12 24
REMARK SMILES IDX 13 25 14 26 15 27 16 28 17 29 18 30 19 31 80 32 20 33 79 34
REMARK SMILES IDX 21 35 22 36 23 37 73 38 24 39 78 40 72 41 74 42 25 43 77 44
REMARK SMILES IDX 71 45 70 46 26 48 58 49 38 50 57 51 39 52 42 53 56 54 75 55
REMARK SMILES IDX 40 56 41 57 55 59 76 60 43 61 27 62 28 63 36 64 29 65 35 66
REMARK SMILES IDX 37 67 34 68 30 69 31 70 32 71 33 72 59 73 60 74 68 75 61 76
REMARK SMILES IDX 67 77 69 78 66 79 62 80 63 81 64 82 65 83 44 84 45 85 53 86
REMARK SMILES IDX 46 87 52 88 54 89 51 90 47 91 48 92 49 93 50 94
REMARK H PARENT 91 21 74 47 42 58
REMARK Flexibility Score: inf
ROOT
ATOM      1  O   UNL A   1      34.727  30.354  27.787  1.00  0.00    -0.376 OA
ENDROOT
BRANCH   1   2
ATOM      2  C   UNL A   1      33.447  30.667  27.242  1.00  0.00     0.202 C 
BRANCH   2   3
ATOM      3  C   UNL A   1      32.455  29.503  27.000  1.00  0.00     0.261 C 
BRANCH   3   4
ATOM      4  O   UNL A   1      32.707  28.756  25.784  1.00  0.00    -0.462 OA
BRANCH   4   5
ATOM      5  C   UNL A   1      33.086  27.454  25.943  1.00  0.00     0.328 C 
ATOM      6  O   UNL A   1      34.169  27.142  26.433  1.00  0.00    -0.250 OA
BRANCH   5   7
ATOM      7  C   UNL A   1      32.074  26.410  25.368  1.00  0.00     0.196 C 
BRANCH   7   8
ATOM      8  C   UNL A   1      30.602  26.363  25.859  1.00  0.00     0.034 C 
ATOM      9  C   UNL A   1      29.499  26.192  24.830  1.00  0.00     0.007 C 
ENDBRANCH   7   8
BRANCH   7  10
ATOM     10  N   UNL A   1      32.758  25.060  25.419  1.00  0.00    -0.314 N 
ATOM     11  C   UNL A   1      32.609  24.330  26.663  1.00  0.00     0.149 C 
BRANCH  10  12
ATOM     12  C   UNL A   1      33.269  24.517  24.251  1.00  0.00     0.320 C 
ATOM     13  O   UNL A   1      34.474  24.607  24.009  1.00  0.00    -0.248 OA
BRANCH  12  14
ATOM     14  N   UNL A   1      32.441  24.014  23.262  1.00  0.00    -0.325 N 
ATOM     15  C   UNL A   1      31.649  22.794  23.417  1.00  0.00     0.148 C 
BRANCH  14  16
ATOM     16  C   UNL A   1      32.905  24.269  21.872  1.00  0.00     0.155 C 
BRANCH  16  17
ATOM     17  C   UNL A   1      32.716  25.713  21.247  1.00  0.00     0.077 C 
ATOM     18  C   UNL A   1      32.574  25.540  19.735  1.00  0.00     0.043 C 
ATOM     19  C   UNL A   1      31.483  26.527  21.698  1.00  0.00     0.043 C 
BRANCH  17  20
ATOM     20  O   UNL A   1      33.855  26.537  21.501  1.00  0.00    -0.389 OA
ATOM     21  H   UNL A   1      34.540  26.355  20.839  1.00  0.00     0.211 HD
ENDBRANCH  17  20
ENDBRANCH  16  17
ENDBRANCH  14  16
ENDBRANCH  12  14
ENDBRANCH  10  12
ENDBRANCH   7  10
ENDBRANCH   5   7
ENDBRANCH   4   5
ENDBRANCH   3   4
ENDBRANCH   2   3
ENDBRANCH   1   2
BRANCH   1  22
ATOM     22  C   UNL A   1      35.647  31.440  27.699  1.00  0.00     0.188 C 
BRANCH  22  23
ATOM     23  C   UNL A   1      35.858  32.168  28.995  1.00  0.00     0.188 C 
BRANCH  23  24
ATOM     24  O   UNL A   1      35.870  33.580  28.768  1.00  0.00    -0.376 OA
BRANCH  24  25
ATOM     25  C   UNL A   1      34.575  34.095  28.525  1.00  0.00     0.202 C 
BRANCH  25  26
ATOM     26  C   UNL A   1      33.962  34.812  29.743  1.00  0.00     0.261 C 
BRANCH  26  27
ATOM     27  O   UNL A   1      34.869  35.038  30.850  1.00  0.00    -0.460 OA
BRANCH  27  28
ATOM     28  C   UNL A   1      34.568  34.388  32.023  1.00  0.00     0.338 C 
ATOM     29  O   UNL A   1      33.457  34.194  32.455  1.00  0.00    -0.246 OA
BRANCH  28  30
ATOM     30  C   UNL A   1      35.823  33.817  32.640  1.00  0.00     0.060 A 
ATOM     31  C   UNL A   1      35.750  32.652  33.422  1.00  0.00     0.016 A 
ATOM     32  C   UNL A   1      37.070  34.420  32.476  1.00  0.00     0.016 A 
ATOM     33  C   UNL A   1      36.905  32.102  34.039  1.00  0.00     0.010 A 
ATOM     34  C   UNL A   1      38.214  33.881  33.106  1.00  0.00     0.010 A 
ATOM     35  C   UNL A   1      38.167  32.702  33.894  1.00  0.00    -0.014 A 
BRANCH  35  36
ATOM     36  C   UNL A   1      39.348  32.318  34.776  1.00  0.00     0.031 A 
ATOM     37  C   UNL A   1      39.679  33.318  35.858  1.00  0.00     0.074 A 
ATOM     38  C   UNL A   1      40.152  31.221  34.693  1.00  0.00     0.049 A 
ATOM     39  N   UNL A   1      40.620  33.277  36.764  1.00  0.00    -0.248 NA
ATOM     40  C   UNL A   1      38.850  34.534  35.899  1.00  0.00     0.031 C 
ATOM     41  C   UNL A   1      40.060  30.153  33.727  1.00  0.00     0.029 A 
ATOM     42  N   UNL A   1      41.260  30.817  35.428  1.00  0.00    -0.354 N 
ATOM     43  C   UNL A   1      40.474  34.443  37.499  1.00  0.00     0.074 A 
ATOM     44  C   UNL A   1      39.425  35.215  36.871  1.00  0.00     0.031 C 
ATOM     45  C   UNL A   1      41.029  29.246  33.869  1.00  0.00     0.029 A 
ATOM     46  C   UNL A   1      41.866  29.655  34.967  1.00  0.00     0.049 A 
ATOM     47  H   UNL A   1      41.589  31.314  36.212  1.00  0.00     0.167 HD
ATOM     48  C   UNL A   1      41.124  34.826  38.624  1.00  0.00     0.034 A 
ATOM     49  C   UNL A   1      42.964  28.959  35.329  1.00  0.00     0.034 A 
ATOM     50  C   UNL A   1      42.204  34.090  39.224  1.00  0.00     0.049 A 
ATOM     51  C   UNL A   1      43.719  29.434  36.525  1.00  0.00     0.074 A 
ATOM     52  C   UNL A   1      42.910  34.391  40.374  1.00  0.00     0.029 A 
ATOM     53  N   UNL A   1      42.759  32.923  38.713  1.00  0.00    -0.354 N 
ATOM     54  N   UNL A   1      43.499  30.503  37.249  1.00  0.00    -0.248 NA
ATOM     55  C   UNL A   1      44.833  28.599  36.980  1.00  0.00     0.031 C 
ATOM     56  C   UNL A   1      43.936  33.452  40.519  1.00  0.00     0.029 A 
ATOM     57  C   UNL A   1      43.816  32.511  39.512  1.00  0.00     0.049 A 
ATOM     58  H   UNL A   1      42.448  32.457  37.903  1.00  0.00     0.167 HD
ATOM     59  C   UNL A   1      44.418  30.443  38.285  1.00  0.00     0.074 A 
ATOM     60  C   UNL A   1      45.184  29.226  38.092  1.00  0.00     0.031 C 
ATOM     61  C   UNL A   1      44.595  31.313  39.308  1.00  0.00     0.034 A 
BRANCH  48  62
ATOM     62  C   UNL A   1      40.675  36.126  39.237  1.00  0.00     0.023 A 
ATOM     63  C   UNL A   1      41.539  37.236  39.307  1.00  0.00     0.031 A 
ATOM     64  C   UNL A   1      39.411  36.231  39.836  1.00  0.00     0.131 A 
ATOM     65  C   UNL A   1      41.160  38.368  40.039  1.00  0.00     0.055 A 
ATOM     66  C   UNL A   1      39.005  37.398  40.484  1.00  0.00     0.041 A 
ATOM     67  F   UNL A   1      38.562  35.192  39.830  1.00  0.00    -0.206 F 
ATOM     68  C   UNL A   1      39.887  38.469  40.605  1.00  0.00     0.022 A 
BRANCH  65  69
ATOM     69  S   UNL A   1      42.413  39.634  40.386  1.00  0.00     0.124 S 
ATOM     70  O   UNL A   1      41.605  40.685  40.997  1.00  0.00    -0.237 OA
ATOM     71  O   UNL A   1      43.333  38.935  41.277  1.00  0.00    -0.237 OA
ATOM     72  O   UNL A   1      42.947  39.955  39.065  1.00  0.00    -0.744 OA
ENDBRANCH  65  69
ENDBRANCH  48  62
BRANCH  49  73
ATOM     73  C   UNL A   1      43.414  27.745  34.565  1.00  0.00     0.023 A 
ATOM     74  C   UNL A   1      43.059  26.444  34.963  1.00  0.00     0.031 A 
ATOM     75  C   UNL A   1      44.248  27.872  33.437  1.00  0.00     0.131 A 
ATOM     76  C   UNL A   1      43.571  25.328  34.275  1.00  0.00     0.055 A 
ATOM     77  C   UNL A   1      44.709  26.762  32.722  1.00  0.00     0.041 A 
ATOM     78  F   UNL A   1      44.618  29.087  33.001  1.00  0.00    -0.206 F 
ATOM     79  C   UNL A   1      44.381  25.479  33.149  1.00  0.00     0.022 A 
BRANCH  76  80
ATOM     80  S   UNL A   1      43.239  23.663  34.926  1.00  0.00     0.124 S 
ATOM     81  O   UNL A   1      43.444  22.834  33.744  1.00  0.00    -0.237 OA
ATOM     82  O   UNL A   1      44.245  23.546  35.976  1.00  0.00    -0.237 OA
ATOM     83  O   UNL A   1      41.858  23.749  35.396  1.00  0.00    -0.744 OA
ENDBRANCH  76  80
ENDBRANCH  49  73
BRANCH  61  84
ATOM     84  C   UNL A   1      45.626  30.927  40.333  1.00  0.00     0.023 A 
ATOM     85  C   UNL A   1      45.294  30.160  41.462  1.00  0.00     0.031 A 
ATOM     86  C   UNL A   1      46.940  31.416  40.223  1.00  0.00     0.131 A 
ATOM     87  C   UNL A   1      46.232  29.997  42.488  1.00  0.00     0.055 A 
ATOM     88  C   UNL A   1      47.896  31.171  41.207  1.00  0.00     0.041 A 
ATOM     89  F   UNL A   1      47.306  32.165  39.170  1.00  0.00    -0.206 F 
ATOM     90  C   UNL A   1      47.537  30.478  42.359  1.00  0.00     0.022 A 
BRANCH  87  91
ATOM     91  S   UNL A   1      45.667  29.298  44.063  1.00  0.00     0.124 S 
ATOM     92  O   UNL A   1      44.408  30.007  44.271  1.00  0.00    -0.237 OA
ATOM     93  O   UNL A   1      45.554  27.878  43.752  1.00  0.00    -0.237 OA
ATOM     94  O   UNL A   1      46.738  29.647  44.994  1.00  0.00    -0.744 OA
ENDBRANCH  87  91
ENDBRANCH  61  84
ENDBRANCH  35  36
ENDBRANCH  28  30
ENDBRANCH  27  28
ENDBRANCH  26  27
ENDBRANCH  25  26
ENDBRANCH  24  25
ENDBRANCH  23  24
ENDBRANCH  22  23
ENDBRANCH   1  22
TORSDOF 27
ENDMDL
MODEL 3
REMARK VINA RESULT:      -7.4      3.543      3.970
REMARK SMILES CC[C@@H](C(=O)OCCOCCOCCOC(=O)c1ccc(-c2c3nc(c(-c4cc(S(=O)(=O)[O-])ccc4F)c4ccc([nH]4)c(-c4cc(S(=O)(=O)[O-])ccc4F)c4nc(c(-c5cc(S(=O)(=O)[O-])ccc5F)c5ccc2[nH]5)C=C4)C=C3)cc1)N(C)C(=O)N(C)CC(C)(C)O
REMARK SMILES IDX 9 1 8 2 7 3 6 4 4 5 5 6 3 7 2 8 1 9 81 10 82 11 83 12 84 13
REMARK SMILES IDX 85 14 86 15 87 16 88 17 89 18 90 19 91 20 10 22 11 23 12 24
REMARK SMILES IDX 13 25 14 26 15 27 16 28 17 29 18 30 19 31 80 32 20 33 79 34
REMARK SMILES IDX 21 35 22 36 23 37 73 38 24 39 78 40 72 41 74 42 25 43 77 44
REMARK SMILES IDX 71 45 70 46 26 48 58 49 38 50 57 51 39 52 42 53 56 54 75 55
REMARK SMILES IDX 40 56 41 57 55 59 76 60 43 61 27 62 28 63 36 64 29 65 35 66
REMARK SMILES IDX 37 67 34 68 30 69 31 70 32 71 33 72 59 73 60 74 68 75 61 76
REMARK SMILES IDX 67 77 69 78 66 79 62 80 63 81 64 82 65 83 44 84 45 85 53 86
REMARK SMILES IDX 46 87 52 88 54 89 51 90 47 91 48 92 49 93 50 94
REMARK H PARENT 91 21 74 47 42 58
REMARK Flexibility Score: inf
ROOT
ATOM      1  O   UNL A   1      41.935  43.821  20.401  1.00  0.00    -0.376 OA
ENDROOT
BRANCH   1   2
ATOM      2  C   UNL A   1      41.457  43.775  19.058  1.00  0.00     0.202 C 
BRANCH   2   3
ATOM      3  C   UNL A   1      41.341  45.109  18.280  1.00  0.00     0.261 C 
BRANCH   3   4
ATOM      4  O   UNL A   1      41.839  45.046  16.921  1.00  0.00    -0.462 OA
BRANCH   4   5
ATOM      5  C   UNL A   1      43.188  45.180  16.766  1.00  0.00     0.328 C 
ATOM      6  O   UNL A   1      43.878  44.310  16.240  1.00  0.00    -0.250 OA
BRANCH   5   7
ATOM      7  C   UNL A   1      43.786  46.482  17.393  1.00  0.00     0.196 C 
BRANCH   7   8
ATOM      8  C   UNL A   1      43.333  47.887  16.911  1.00  0.00     0.034 C 
ATOM      9  C   UNL A   1      41.934  48.043  16.343  1.00  0.00     0.007 C 
ENDBRANCH   7   8
BRANCH   7  10
ATOM     10  N   UNL A   1      45.291  46.316  17.402  1.00  0.00    -0.314 N 
ATOM     11  C   UNL A   1      46.019  47.169  16.483  1.00  0.00     0.149 C 
BRANCH  10  12
ATOM     12  C   UNL A   1      45.882  45.562  18.403  1.00  0.00     0.320 C 
ATOM     13  O   UNL A   1      47.052  45.195  18.285  1.00  0.00    -0.248 OA
BRANCH  12  14
ATOM     14  N   UNL A   1      45.147  45.066  19.467  1.00  0.00    -0.325 N 
ATOM     15  C   UNL A   1      45.051  45.736  20.763  1.00  0.00     0.148 C 
BRANCH  14  16
ATOM     16  C   UNL A   1      45.081  43.581  19.540  1.00  0.00     0.155 C 
BRANCH  16  17
ATOM     17  C   UNL A   1      45.716  42.841  20.788  1.00  0.00     0.077 C 
ATOM     18  C   UNL A   1      47.228  42.792  20.568  1.00  0.00     0.043 C 
ATOM     19  C   UNL A   1      45.510  43.484  22.178  1.00  0.00     0.043 C 
BRANCH  17  20
ATOM     20  O   UNL A   1      45.233  41.500  20.892  1.00  0.00    -0.389 OA
ATOM     21  H   UNL A   1      44.448  41.482  21.462  1.00  0.00     0.211 HD
ENDBRANCH  17  20
ENDBRANCH  16  17
ENDBRANCH  14  16
ENDBRANCH  12  14
ENDBRANCH  10  12
ENDBRANCH   7  10
ENDBRANCH   5   7
ENDBRANCH   4   5
ENDBRANCH   3   4
ENDBRANCH   2   3
ENDBRANCH   1   2
BRANCH   1  22
ATOM     22  C   UNL A   1      41.782  42.581  21.086  1.00  0.00     0.188 C 
BRANCH  22  23
ATOM     23  C   UNL A   1      41.571  42.722  22.566  1.00  0.00     0.188 C 
BRANCH  23  24
ATOM     24  O   UNL A   1      42.268  41.686  23.262  1.00  0.00    -0.376 OA
BRANCH  24  25
ATOM     25  C   UNL A   1      42.613  42.065  24.581  1.00  0.00     0.202 C 
BRANCH  25  26
ATOM     26  C   UNL A   1      44.040  41.648  24.985  1.00  0.00     0.261 C 
BRANCH  26  27
ATOM     27  O   UNL A   1      44.135  40.411  25.734  1.00  0.00    -0.460 OA
BRANCH  27  28
ATOM     28  C   UNL A   1      44.219  40.535  27.101  1.00  0.00     0.338 C 
ATOM     29  O   UNL A   1      44.382  41.568  27.705  1.00  0.00    -0.246 OA
BRANCH  28  30
ATOM     30  C   UNL A   1      43.939  39.207  27.763  1.00  0.00     0.060 A 
ATOM     31  C   UNL A   1      43.509  39.169  29.100  1.00  0.00     0.016 A 
ATOM     32  C   UNL A   1      44.109  37.995  27.094  1.00  0.00     0.016 A 
ATOM     33  C   UNL A   1      43.260  37.938  29.763  1.00  0.00     0.010 A 
ATOM     34  C   UNL A   1      43.878  36.770  27.762  1.00  0.00     0.010 A 
ATOM     35  C   UNL A   1      43.437  36.707  29.108  1.00  0.00    -0.014 A 
BRANCH  35  36
ATOM     36  C   UNL A   1      43.474  35.388  29.870  1.00  0.00     0.031 A 
ATOM     37  C   UNL A   1      42.156  34.655  29.926  1.00  0.00     0.074 A 
ATOM     38  C   UNL A   1      44.520  34.812  30.526  1.00  0.00     0.049 A 
ATOM     39  N   UNL A   1      41.865  33.514  30.494  1.00  0.00    -0.248 NA
ATOM     40  C   UNL A   1      41.013  35.316  29.275  1.00  0.00     0.031 C 
ATOM     41  C   UNL A   1      45.860  35.337  30.646  1.00  0.00     0.029 A 
ATOM     42  N   UNL A   1      44.628  33.642  31.267  1.00  0.00    -0.354 N 
ATOM     43  C   UNL A   1      40.518  33.308  30.240  1.00  0.00     0.074 A 
ATOM     44  C   UNL A   1      40.027  34.486  29.560  1.00  0.00     0.031 C 
ATOM     45  C   UNL A   1      46.646  34.568  31.401  1.00  0.00     0.029 A 
ATOM     46  C   UNL A   1      45.870  33.445  31.857  1.00  0.00     0.049 A 
ATOM     47  H   UNL A   1      43.885  33.003  31.365  1.00  0.00     0.167 HD
ATOM     48  C   UNL A   1      39.759  32.220  30.510  1.00  0.00     0.034 A 
ATOM     49  C   UNL A   1      46.381  32.507  32.682  1.00  0.00     0.034 A 
ATOM     50  C   UNL A   1      40.225  31.067  31.233  1.00  0.00     0.049 A 
ATOM     51  C   UNL A   1      45.509  31.350  33.037  1.00  0.00     0.074 A 
ATOM     52  C   UNL A   1      39.532  29.910  31.538  1.00  0.00     0.029 A 
ATOM     53  N   UNL A   1      41.489  30.931  31.793  1.00  0.00    -0.354 N 
ATOM     54  N   UNL A   1      44.258  31.148  32.707  1.00  0.00    -0.248 NA
ATOM     55  C   UNL A   1      46.119  30.279  33.829  1.00  0.00     0.031 C 
ATOM     56  C   UNL A   1      40.348  29.108  32.342  1.00  0.00     0.029 A 
ATOM     57  C   UNL A   1      41.583  29.720  32.464  1.00  0.00     0.049 A 
ATOM     58  H   UNL A   1      42.212  31.596  31.724  1.00  0.00     0.167 HD
ATOM     59  C   UNL A   1      43.941  29.895  33.209  1.00  0.00     0.074 A 
ATOM     60  C   UNL A   1      45.139  29.390  33.852  1.00  0.00     0.031 C 
ATOM     61  C   UNL A   1      42.766  29.226  33.126  1.00  0.00     0.034 A 
BRANCH  48  62
ATOM     62  C   UNL A   1      38.332  32.273  30.030  1.00  0.00     0.023 A 
ATOM     63  C   UNL A   1      37.362  33.035  30.709  1.00  0.00     0.031 A 
ATOM     64  C   UNL A   1      37.918  31.490  28.943  1.00  0.00     0.131 A 
ATOM     65  C   UNL A   1      36.013  32.925  30.350  1.00  0.00     0.055 A 
ATOM     66  C   UNL A   1      36.585  31.458  28.532  1.00  0.00     0.041 A 
ATOM     67  F   UNL A   1      38.794  30.717  28.282  1.00  0.00    -0.206 F 
ATOM     68  C   UNL A   1      35.620  32.163  29.247  1.00  0.00     0.022 A 
BRANCH  65  69
ATOM     69  S   UNL A   1      34.763  33.653  31.445  1.00  0.00     0.124 S 
ATOM     70  O   UNL A   1      33.890  34.324  30.486  1.00  0.00    -0.237 OA
ATOM     71  O   UNL A   1      34.203  32.482  32.110  1.00  0.00    -0.237 OA
ATOM     72  O   UNL A   1      35.540  34.545  32.302  1.00  0.00    -0.744 OA
ENDBRANCH  65  69
ENDBRANCH  48  62
BRANCH  49  73
ATOM     73  C   UNL A   1      47.779  32.614  33.224  1.00  0.00     0.023 A 
ATOM     74  C   UNL A   1      48.059  33.277  34.433  1.00  0.00     0.031 A 
ATOM     75  C   UNL A   1      48.872  32.080  32.512  1.00  0.00     0.131 A 
ATOM     76  C   UNL A   1      49.389  33.433  34.865  1.00  0.00     0.055 A 
ATOM     77  C   UNL A   1      50.187  32.188  32.973  1.00  0.00     0.041 A 
ATOM     78  F   UNL A   1      48.672  31.429  31.355  1.00  0.00    -0.206 F 
ATOM     79  C   UNL A   1      50.453  32.880  34.150  1.00  0.00     0.022 A 
BRANCH  76  80
ATOM     80  S   UNL A   1      49.726  34.451  36.332  1.00  0.00     0.124 S 
ATOM     81  O   UNL A   1      48.536  34.212  37.141  1.00  0.00    -0.237 OA
ATOM     82  O   UNL A   1      50.967  33.865  36.826  1.00  0.00    -0.237 OA
ATOM     83  O   UNL A   1      49.851  35.802  35.789  1.00  0.00    -0.744 OA
ENDBRANCH  76  80
ENDBRANCH  49  73
BRANCH  61  84
ATOM     84  C   UNL A   1      42.757  27.835  33.699  1.00  0.00     0.023 A 
ATOM     85  C   UNL A   1      42.100  27.537  34.904  1.00  0.00     0.031 A 
ATOM     86  C   UNL A   1      43.498  26.816  33.075  1.00  0.00     0.131 A 
ATOM     87  C   UNL A   1      42.287  26.286  35.504  1.00  0.00     0.055 A 
ATOM     88  C   UNL A   1      43.604  25.543  33.632  1.00  0.00     0.041 A 
ATOM     89  F   UNL A   1      44.156  27.052  31.928  1.00  0.00    -0.206 F 
ATOM     90  C   UNL A   1      43.016  25.279  34.865  1.00  0.00     0.022 A 
BRANCH  87  91
ATOM     91  S   UNL A   1      41.708  26.054  37.206  1.00  0.00     0.124 S 
ATOM     92  O   UNL A   1      40.609  27.013  37.281  1.00  0.00    -0.237 OA
ATOM     93  O   UNL A   1      41.325  24.647  37.218  1.00  0.00    -0.237 OA
ATOM     94  O   UNL A   1      42.879  26.387  38.014  1.00  0.00    -0.744 OA
ENDBRANCH  87  91
ENDBRANCH  61  84
ENDBRANCH  35  36
ENDBRANCH  28  30
ENDBRANCH  27  28
ENDBRANCH  26  27
ENDBRANCH  25  26
ENDBRANCH  24  25
ENDBRANCH  23  24
ENDBRANCH  22  23
ENDBRANCH   1  22
TORSDOF 27
ENDMDL
