MODEL 1
REMARK VINA RESULT:     -10.8      0.000      0.000
REMARK SMILES Cc1noc(-c2ccc(CCl)cc2)c1C(=O)OCCOCCOCCOC(=O)c1ccc(-c2c3nc(c(-c4cc(S(=O)(=O)[O-])ccc4F)c4ccc([nH]4)c(-c4cc(S(=O)(=O)[O-])ccc4F)c4nc(c(-c5cc(S(=O)(=O)[O-])ccc5F)c5ccc2[nH]5)C=C4)C=C3)cc1
REMARK SMILES IDX 22 1 21 2 20 3 19 4 18 5 17 6 15 7 16 8 14 9 1 10 2 11 3 12
REMARK SMILES IDX 4 13 5 14 6 15 7 16 13 17 8 18 12 19 9 20 10 21 11 22 23 23
REMARK SMILES IDX 24 24 25 25 26 26 27 27 28 28 29 29 30 30 91 31 31 32 90 33
REMARK SMILES IDX 32 34 33 35 34 36 84 37 35 38 89 39 83 40 85 41 36 42 88 43
REMARK SMILES IDX 82 44 81 45 37 47 69 48 49 49 68 50 50 51 53 52 67 53 86 54
REMARK SMILES IDX 51 55 52 56 66 58 87 59 54 60 38 61 39 62 47 63 40 64 46 65
REMARK SMILES IDX 48 66 45 67 41 68 42 69 43 70 44 71 70 72 71 73 79 74 72 75
REMARK SMILES IDX 78 76 80 77 77 78 73 79 74 80 75 81 76 82 55 83 56 84 64 85
REMARK SMILES IDX 57 86 63 87 65 88 62 89 58 90 59 91 60 92 61 93
REMARK H PARENT 85 46 53 57
REMARK Flexibility Score: inf
ROOT
ATOM      1  C   UNL A   1      34.568  24.529  25.655  1.00  0.00     0.188 C 
ENDROOT
BRANCH   1   2
ATOM      2  C   UNL A   1      34.121  25.616  24.656  1.00  0.00     0.188 C 
BRANCH   2   3
ATOM      3  O   UNL A   1      33.163  26.587  25.053  1.00  0.00    -0.376 OA
BRANCH   3   4
ATOM      4  C   UNL A   1      33.615  27.801  25.644  1.00  0.00     0.202 C 
BRANCH   4   5
ATOM      5  C   UNL A   1      33.140  29.089  24.975  1.00  0.00     0.261 C 
BRANCH   5   6
ATOM      6  O   UNL A   1      31.722  29.017  24.746  1.00  0.00    -0.459 OA
BRANCH   6   7
ATOM      7  C   UNL A   1      31.349  28.834  23.447  1.00  0.00     0.344 C 
ATOM      8  O   UNL A   1      32.129  28.766  22.515  1.00  0.00    -0.246 OA
BRANCH   7   9
ATOM      9  C   UNL A   1      29.927  28.629  23.316  1.00  0.00     0.130 A 
ATOM     10  C   UNL A   1      28.887  30.970  22.751  1.00  0.00     0.071 C 
ATOM     11  C   UNL A   1      28.858  29.516  23.031  1.00  0.00     0.096 A 
ATOM     12  N   UNL A   1      27.681  28.875  23.010  1.00  0.00    -0.084 NA
ATOM     13  O   UNL A   1      27.961  27.560  23.345  1.00  0.00    -0.355 OA
ATOM     14  C   UNL A   1      29.296  27.426  23.544  1.00  0.00     0.181 A 
BRANCH  14  15
ATOM     15  C   UNL A   1      29.752  26.141  24.022  1.00  0.00     0.021 A 
ATOM     16  C   UNL A   1      30.186  25.165  23.124  1.00  0.00     0.012 A 
ATOM     17  C   UNL A   1      29.840  25.904  25.399  1.00  0.00     0.012 A 
ATOM     18  C   UNL A   1      30.737  23.976  23.599  1.00  0.00     0.006 A 
ATOM     19  C   UNL A   1      30.401  24.720  25.873  1.00  0.00     0.006 A 
ATOM     20  C   UNL A   1      30.870  23.753  24.975  1.00  0.00    -0.033 A 
BRANCH  20  21
ATOM     21  C   UNL A   1      31.442  22.454  25.469  1.00  0.00     0.145 C 
ATOM     22  Cl  UNL A   1      32.318  21.665  24.151  1.00  0.00    -0.122 Cl
ENDBRANCH  20  21
ENDBRANCH  14  15
ENDBRANCH   7   9
ENDBRANCH   6   7
ENDBRANCH   5   6
ENDBRANCH   4   5
ENDBRANCH   3   4
ENDBRANCH   2   3
ENDBRANCH   1   2
BRANCH   1  23
ATOM     23  O   UNL A   1      35.301  23.402  25.203  1.00  0.00    -0.376 OA
BRANCH  23  24
ATOM     24  C   UNL A   1      35.234  22.197  25.952  1.00  0.00     0.202 C 
BRANCH  24  25
ATOM     25  C   UNL A   1      36.175  21.059  25.565  1.00  0.00     0.261 C 
BRANCH  25  26
ATOM     26  O   UNL A   1      37.401  21.520  24.976  1.00  0.00    -0.460 OA
BRANCH  26  27
ATOM     27  C   UNL A   1      38.521  21.185  25.665  1.00  0.00     0.338 C 
ATOM     28  O   UNL A   1      39.048  20.087  25.716  1.00  0.00    -0.246 OA
BRANCH  27  29
ATOM     29  C   UNL A   1      39.122  22.393  26.262  1.00  0.00     0.060 A 
ATOM     30  C   UNL A   1      38.495  23.623  26.030  1.00  0.00     0.016 A 
ATOM     31  C   UNL A   1      40.326  22.332  26.969  1.00  0.00     0.016 A 
ATOM     32  C   UNL A   1      39.092  24.802  26.477  1.00  0.00     0.010 A 
ATOM     33  C   UNL A   1      40.936  23.518  27.392  1.00  0.00     0.010 A 
ATOM     34  C   UNL A   1      40.336  24.758  27.124  1.00  0.00    -0.014 A 
BRANCH  34  35
ATOM     35  C   UNL A   1      41.069  26.024  27.378  1.00  0.00     0.031 A 
ATOM     36  C   UNL A   1      40.478  27.025  28.329  1.00  0.00     0.074 A 
ATOM     37  C   UNL A   1      42.233  26.286  26.760  1.00  0.00     0.049 A 
ATOM     38  N   UNL A   1      40.961  28.170  28.735  1.00  0.00    -0.248 NA
ATOM     39  C   UNL A   1      39.142  26.709  28.854  1.00  0.00     0.031 C 
ATOM     40  C   UNL A   1      42.852  25.430  25.756  1.00  0.00     0.029 A 
ATOM     41  N   UNL A   1      43.112  27.332  26.899  1.00  0.00    -0.354 N 
ATOM     42  C   UNL A   1      39.967  28.742  29.520  1.00  0.00     0.074 A 
ATOM     43  C   UNL A   1      38.865  27.800  29.550  1.00  0.00     0.031 C 
ATOM     44  C   UNL A   1      44.048  25.945  25.427  1.00  0.00     0.029 A 
ATOM     45  C   UNL A   1      44.286  27.160  26.199  1.00  0.00     0.049 A 
ATOM     46  H   UNL A   1      42.922  28.128  27.446  1.00  0.00     0.167 HD
ATOM     47  C   UNL A   1      39.960  29.956  30.122  1.00  0.00     0.034 A 
ATOM     48  C   UNL A   1      45.428  27.880  26.216  1.00  0.00     0.034 A 
ATOM     49  C   UNL A   1      41.059  30.889  30.060  1.00  0.00     0.049 A 
ATOM     50  C   UNL A   1      45.456  29.158  27.022  1.00  0.00     0.074 A 
ATOM     51  C   UNL A   1      41.151  32.156  30.611  1.00  0.00     0.029 A 
ATOM     52  N   UNL A   1      42.259  30.660  29.397  1.00  0.00    -0.354 N 
ATOM     53  N   UNL A   1      44.513  29.684  27.771  1.00  0.00    -0.248 NA
ATOM     54  C   UNL A   1      46.686  29.958  26.953  1.00  0.00     0.031 C 
ATOM     55  C   UNL A   1      42.380  32.714  30.233  1.00  0.00     0.029 A 
ATOM     56  C   UNL A   1      43.084  31.769  29.504  1.00  0.00     0.049 A 
ATOM     57  H   UNL A   1      42.489  29.831  28.919  1.00  0.00     0.167 HD
ATOM     58  C   UNL A   1      45.029  30.890  28.235  1.00  0.00     0.074 A 
ATOM     59  C   UNL A   1      46.389  30.979  27.744  1.00  0.00     0.031 C 
ATOM     60  C   UNL A   1      44.423  31.858  28.969  1.00  0.00     0.034 A 
BRANCH  47  61
ATOM     61  C   UNL A   1      38.678  30.372  30.799  1.00  0.00     0.023 A 
ATOM     62  C   UNL A   1      37.630  30.992  30.098  1.00  0.00     0.031 A 
ATOM     63  C   UNL A   1      38.540  30.215  32.191  1.00  0.00     0.131 A 
ATOM     64  C   UNL A   1      36.529  31.505  30.802  1.00  0.00     0.055 A 
ATOM     65  C   UNL A   1      37.405  30.655  32.873  1.00  0.00     0.041 A 
ATOM     66  F   UNL A   1      39.522  29.657  32.916  1.00  0.00    -0.206 F 
ATOM     67  C   UNL A   1      36.398  31.320  32.181  1.00  0.00     0.022 A 
BRANCH  64  68
ATOM     68  S   UNL A   1      35.348  32.559  29.916  1.00  0.00     0.124 S 
ATOM     69  O   UNL A   1      34.818  31.632  28.919  1.00  0.00    -0.237 OA
ATOM     70  O   UNL A   1      34.425  32.957  30.972  1.00  0.00    -0.237 OA
ATOM     71  O   UNL A   1      36.182  33.631  29.378  1.00  0.00    -0.744 OA
ENDBRANCH  64  68
ENDBRANCH  47  61
BRANCH  48  72
ATOM     72  C   UNL A   1      46.653  27.417  25.491  1.00  0.00     0.023 A 
ATOM     73  C   UNL A   1      46.910  27.856  24.178  1.00  0.00     0.031 A 
ATOM     74  C   UNL A   1      47.564  26.516  26.064  1.00  0.00     0.131 A 
ATOM     75  C   UNL A   1      48.025  27.374  23.475  1.00  0.00     0.055 A 
ATOM     76  C   UNL A   1      48.706  26.084  25.383  1.00  0.00     0.041 A 
ATOM     77  F   UNL A   1      47.372  26.050  27.308  1.00  0.00    -0.206 F 
ATOM     78  C   UNL A   1      48.936  26.505  24.076  1.00  0.00     0.022 A 
BRANCH  75  79
ATOM     79  S   UNL A   1      48.223  27.822  21.726  1.00  0.00     0.124 S 
ATOM     80  O   UNL A   1      48.344  26.513  21.094  1.00  0.00    -0.237 OA
ATOM     81  O   UNL A   1      46.993  28.558  21.458  1.00  0.00    -0.237 OA
ATOM     82  O   UNL A   1      49.441  28.630  21.720  1.00  0.00    -0.744 OA
ENDBRANCH  75  79
ENDBRANCH  48  72
BRANCH  60  83
ATOM     83  C   UNL A   1      45.224  33.109  29.235  1.00  0.00     0.023 A 
ATOM     84  C   UNL A   1      45.193  34.196  28.343  1.00  0.00     0.031 A 
ATOM     85  C   UNL A   1      46.033  33.213  30.378  1.00  0.00     0.131 A 
ATOM     86  C   UNL A   1      46.000  35.319  28.578  1.00  0.00     0.055 A 
ATOM     87  C   UNL A   1      46.795  34.356  30.634  1.00  0.00     0.041 A 
ATOM     88  F   UNL A   1      46.098  32.207  31.265  1.00  0.00    -0.206 F 
ATOM     89  C   UNL A   1      46.791  35.411  29.725  1.00  0.00     0.022 A 
BRANCH  86  90
ATOM     90  S   UNL A   1      46.063  36.626  27.321  1.00  0.00     0.124 S 
ATOM     91  O   UNL A   1      44.650  36.820  27.011  1.00  0.00    -0.237 OA
ATOM     92  O   UNL A   1      46.713  37.719  28.038  1.00  0.00    -0.237 OA
ATOM     93  O   UNL A   1      46.858  36.033  26.248  1.00  0.00    -0.744 OA
ENDBRANCH  86  90
ENDBRANCH  60  83
ENDBRANCH  34  35
ENDBRANCH  27  29
ENDBRANCH  26  27
ENDBRANCH  25  26
ENDBRANCH  24  25
ENDBRANCH  23  24
ENDBRANCH   1  23
TORSDOF 22
ENDMDL
MODEL 2
REMARK VINA RESULT:     -10.7      1.877      7.962
REMARK SMILES Cc1noc(-c2ccc(CCl)cc2)c1C(=O)OCCOCCOCCOC(=O)c1ccc(-c2c3nc(c(-c4cc(S(=O)(=O)[O-])ccc4F)c4ccc([nH]4)c(-c4cc(S(=O)(=O)[O-])ccc4F)c4nc(c(-c5cc(S(=O)(=O)[O-])ccc5F)c5ccc2[nH]5)C=C4)C=C3)cc1
REMARK SMILES IDX 22 1 21 2 20 3 19 4 18 5 17 6 15 7 16 8 14 9 1 10 2 11 3 12
REMARK SMILES IDX 4 13 5 14 6 15 7 16 13 17 8 18 12 19 9 20 10 21 11 22 23 23
REMARK SMILES IDX 24 24 25 25 26 26 27 27 28 28 29 29 30 30 91 31 31 32 90 33
REMARK SMILES IDX 32 34 33 35 34 36 84 37 35 38 89 39 83 40 85 41 36 42 88 43
REMARK SMILES IDX 82 44 81 45 37 47 69 48 49 49 68 50 50 51 53 52 67 53 86 54
REMARK SMILES IDX 51 55 52 56 66 58 87 59 54 60 38 61 39 62 47 63 40 64 46 65
REMARK SMILES IDX 48 66 45 67 41 68 42 69 43 70 44 71 70 72 71 73 79 74 72 75
REMARK SMILES IDX 78 76 80 77 77 78 73 79 74 80 75 81 76 82 55 83 56 84 64 85
REMARK SMILES IDX 57 86 63 87 65 88 62 89 58 90 59 91 60 92 61 93
REMARK H PARENT 85 46 53 57
REMARK Flexibility Score: inf
ROOT
ATOM      1  C   UNL A   1      34.420  21.501  26.968  1.00  0.00     0.188 C 
ENDROOT
BRANCH   1   2
ATOM      2  C   UNL A   1      33.687  22.667  27.662  1.00  0.00     0.188 C 
BRANCH   2   3
ATOM      3  O   UNL A   1      32.293  22.571  27.916  1.00  0.00    -0.376 OA
BRANCH   3   4
ATOM      4  C   UNL A   1      31.378  23.067  26.944  1.00  0.00     0.202 C 
BRANCH   4   5
ATOM      5  C   UNL A   1      32.000  23.680  25.692  1.00  0.00     0.261 C 
BRANCH   5   6
ATOM      6  O   UNL A   1      31.495  25.013  25.506  1.00  0.00    -0.459 OA
BRANCH   6   7
ATOM      7  C   UNL A   1      32.440  25.969  25.274  1.00  0.00     0.344 C 
ATOM      8  O   UNL A   1      32.966  26.637  26.146  1.00  0.00    -0.246 OA
BRANCH   7   9
ATOM      9  C   UNL A   1      32.818  26.029  23.883  1.00  0.00     0.130 A 
ATOM     10  C   UNL A   1      34.730  24.263  23.554  1.00  0.00     0.071 C 
ATOM     11  C   UNL A   1      33.790  25.326  23.128  1.00  0.00     0.096 A 
ATOM     12  N   UNL A   1      33.793  25.718  21.846  1.00  0.00    -0.084 NA
ATOM     13  O   UNL A   1      32.857  26.735  21.760  1.00  0.00    -0.355 OA
ATOM     14  C   UNL A   1      32.295  26.927  22.979  1.00  0.00     0.181 A 
BRANCH  14  15
ATOM     15  C   UNL A   1      31.379  28.039  23.100  1.00  0.00     0.021 A 
ATOM     16  C   UNL A   1      30.200  28.067  22.356  1.00  0.00     0.012 A 
ATOM     17  C   UNL A   1      31.635  29.050  24.034  1.00  0.00     0.012 A 
ATOM     18  C   UNL A   1      29.266  29.081  22.569  1.00  0.00     0.006 A 
ATOM     19  C   UNL A   1      30.697  30.056  24.254  1.00  0.00     0.006 A 
ATOM     20  C   UNL A   1      29.495  30.070  23.533  1.00  0.00    -0.033 A 
BRANCH  20  21
ATOM     21  C   UNL A   1      28.490  31.168  23.730  1.00  0.00     0.145 C 
ATOM     22  Cl  UNL A   1      28.805  32.462  22.567  1.00  0.00    -0.122 Cl
ENDBRANCH  20  21
ENDBRANCH  14  15
ENDBRANCH   7   9
ENDBRANCH   6   7
ENDBRANCH   5   6
ENDBRANCH   4   5
ENDBRANCH   3   4
ENDBRANCH   2   3
ENDBRANCH   1   2
BRANCH   1  23
ATOM     23  O   UNL A   1      34.920  21.655  25.649  1.00  0.00    -0.376 OA
BRANCH  23  24
ATOM     24  C   UNL A   1      35.496  20.530  25.001  1.00  0.00     0.202 C 
BRANCH  24  25
ATOM     25  C   UNL A   1      37.018  20.404  25.006  1.00  0.00     0.261 C 
BRANCH  25  26
ATOM     26  O   UNL A   1      37.678  21.587  25.482  1.00  0.00    -0.460 OA
BRANCH  26  27
ATOM     27  C   UNL A   1      38.923  21.378  25.981  1.00  0.00     0.338 C 
ATOM     28  O   UNL A   1      39.623  20.394  25.815  1.00  0.00    -0.246 OA
BRANCH  27  29
ATOM     29  C   UNL A   1      39.399  22.594  26.666  1.00  0.00     0.060 A 
ATOM     30  C   UNL A   1      38.764  23.807  26.370  1.00  0.00     0.016 A 
ATOM     31  C   UNL A   1      40.503  22.562  27.523  1.00  0.00     0.016 A 
ATOM     32  C   UNL A   1      39.256  24.997  26.906  1.00  0.00     0.010 A 
ATOM     33  C   UNL A   1      41.011  23.759  28.036  1.00  0.00     0.010 A 
ATOM     34  C   UNL A   1      40.407  24.984  27.709  1.00  0.00    -0.014 A 
BRANCH  34  35
ATOM     35  C   UNL A   1      41.056  26.269  28.072  1.00  0.00     0.031 A 
ATOM     36  C   UNL A   1      42.403  26.589  27.492  1.00  0.00     0.074 A 
ATOM     37  C   UNL A   1      40.463  27.129  28.917  1.00  0.00     0.049 A 
ATOM     38  N   UNL A   1      43.133  27.665  27.632  1.00  0.00    -0.248 NA
ATOM     39  C   UNL A   1      43.028  25.532  26.684  1.00  0.00     0.031 C 
ATOM     40  C   UNL A   1      39.202  26.883  29.606  1.00  0.00     0.029 A 
ATOM     41  N   UNL A   1      40.829  28.388  29.325  1.00  0.00    -0.354 N 
ATOM     42  C   UNL A   1      44.330  27.397  26.977  1.00  0.00     0.074 A 
ATOM     43  C   UNL A   1      44.212  26.064  26.420  1.00  0.00     0.031 C 
ATOM     44  C   UNL A   1      38.860  27.987  30.289  1.00  0.00     0.029 A 
ATOM     45  C   UNL A   1      39.868  29.021  30.083  1.00  0.00     0.049 A 
ATOM     46  H   UNL A   1      41.694  28.800  29.099  1.00  0.00     0.167 HD
ATOM     47  C   UNL A   1      45.436  28.175  26.887  1.00  0.00     0.034 A 
ATOM     48  C   UNL A   1      39.799  30.297  30.519  1.00  0.00     0.034 A 
ATOM     49  C   UNL A   1      45.541  29.491  27.470  1.00  0.00     0.049 A 
ATOM     50  C   UNL A   1      40.983  31.203  30.273  1.00  0.00     0.074 A 
ATOM     51  C   UNL A   1      46.621  30.357  27.462  1.00  0.00     0.029 A 
ATOM     52  N   UNL A   1      44.529  30.131  28.176  1.00  0.00    -0.354 N 
ATOM     53  N   UNL A   1      42.106  30.942  29.642  1.00  0.00    -0.248 NA
ATOM     54  C   UNL A   1      40.908  32.559  30.832  1.00  0.00     0.031 C 
ATOM     55  C   UNL A   1      46.282  31.492  28.211  1.00  0.00     0.029 A 
ATOM     56  C   UNL A   1      44.967  31.366  28.628  1.00  0.00     0.049 A 
ATOM     57  H   UNL A   1      43.630  29.759  28.333  1.00  0.00     0.167 HD
ATOM     58  C   UNL A   1      42.879  32.094  29.756  1.00  0.00     0.074 A 
ATOM     59  C   UNL A   1      42.068  33.073  30.451  1.00  0.00     0.031 C 
ATOM     60  C   UNL A   1      44.159  32.313  29.360  1.00  0.00     0.034 A 
BRANCH  47  61
ATOM     61  C   UNL A   1      46.645  27.563  26.226  1.00  0.00     0.023 A 
ATOM     62  C   UNL A   1      47.060  27.936  24.936  1.00  0.00     0.031 A 
ATOM     63  C   UNL A   1      47.347  26.529  26.873  1.00  0.00     0.131 A 
ATOM     64  C   UNL A   1      48.091  27.223  24.304  1.00  0.00     0.055 A 
ATOM     65  C   UNL A   1      48.424  25.880  26.269  1.00  0.00     0.041 A 
ATOM     66  F   UNL A   1      46.976  26.111  28.094  1.00  0.00    -0.206 F 
ATOM     67  C   UNL A   1      48.791  26.214  24.969  1.00  0.00     0.022 A 
BRANCH  64  68
ATOM     68  S   UNL A   1      48.398  27.524  22.541  1.00  0.00     0.124 S 
ATOM     69  O   UNL A   1      47.214  28.292  22.164  1.00  0.00    -0.237 OA
ATOM     70  O   UNL A   1      49.657  28.259  22.561  1.00  0.00    -0.237 OA
ATOM     71  O   UNL A   1      48.468  26.181  21.971  1.00  0.00    -0.744 OA
ENDBRANCH  64  68
ENDBRANCH  47  61
BRANCH  48  72
ATOM     72  C   UNL A   1      38.572  30.824  31.196  1.00  0.00     0.023 A 
ATOM     73  C   UNL A   1      37.529  31.389  30.437  1.00  0.00     0.031 A 
ATOM     74  C   UNL A   1      38.425  30.809  32.592  1.00  0.00     0.131 A 
ATOM     75  C   UNL A   1      36.406  31.940  31.075  1.00  0.00     0.055 A 
ATOM     76  C   UNL A   1      37.278  31.303  33.221  1.00  0.00     0.041 A 
ATOM     77  F   UNL A   1      39.387  30.294  33.374  1.00  0.00    -0.206 F 
ATOM     78  C   UNL A   1      36.266  31.883  32.462  1.00  0.00     0.022 A 
BRANCH  75  79
ATOM     79  S   UNL A   1      35.171  32.819  30.077  1.00  0.00     0.124 S 
ATOM     80  O   UNL A   1      34.098  33.027  31.042  1.00  0.00    -0.237 OA
ATOM     81  O   UNL A   1      35.905  34.008  29.660  1.00  0.00    -0.237 OA
ATOM     82  O   UNL A   1      34.868  31.873  29.004  1.00  0.00    -0.744 OA
ENDBRANCH  75  79
ENDBRANCH  48  72
BRANCH  60  83
ATOM     83  C   UNL A   1      44.759  33.650  29.716  1.00  0.00     0.023 A 
ATOM     84  C   UNL A   1      44.676  34.743  28.834  1.00  0.00     0.031 A 
ATOM     85  C   UNL A   1      45.429  33.834  30.937  1.00  0.00     0.131 A 
ATOM     86  C   UNL A   1      45.301  35.956  29.159  1.00  0.00     0.055 A 
ATOM     87  C   UNL A   1      46.005  35.060  31.278  1.00  0.00     0.041 A 
ATOM     88  F   UNL A   1      45.536  32.826  31.817  1.00  0.00    -0.206 F 
ATOM     89  C   UNL A   1      45.955  36.125  30.381  1.00  0.00     0.022 A 
BRANCH  86  90
ATOM     90  S   UNL A   1      45.318  37.286  27.926  1.00  0.00     0.124 S 
ATOM     91  O   UNL A   1      45.857  38.406  28.691  1.00  0.00    -0.237 OA
ATOM     92  O   UNL A   1      46.193  36.743  26.891  1.00  0.00    -0.237 OA
ATOM     93  O   UNL A   1      43.914  37.416  27.541  1.00  0.00    -0.744 OA
ENDBRANCH  86  90
ENDBRANCH  60  83
ENDBRANCH  34  35
ENDBRANCH  27  29
ENDBRANCH  26  27
ENDBRANCH  25  26
ENDBRANCH  24  25
ENDBRANCH  23  24
ENDBRANCH   1  23
TORSDOF 22
ENDMDL
MODEL 3
REMARK VINA RESULT:     -10.5      1.460      2.391
REMARK SMILES Cc1noc(-c2ccc(CCl)cc2)c1C(=O)OCCOCCOCCOC(=O)c1ccc(-c2c3nc(c(-c4cc(S(=O)(=O)[O-])ccc4F)c4ccc([nH]4)c(-c4cc(S(=O)(=O)[O-])ccc4F)c4nc(c(-c5cc(S(=O)(=O)[O-])ccc5F)c5ccc2[nH]5)C=C4)C=C3)cc1
REMARK SMILES IDX 22 1 21 2 20 3 19 4 18 5 17 6 15 7 16 8 14 9 1 10 2 11 3 12
REMARK SMILES IDX 4 13 5 14 6 15 7 16 13 17 8 18 12 19 9 20 10 21 11 22 23 23
REMARK SMILES IDX 24 24 25 25 26 26 27 27 28 28 29 29 30 30 91 31 31 32 90 33
REMARK SMILES IDX 32 34 33 35 34 36 84 37 35 38 89 39 83 40 85 41 36 42 88 43
REMARK SMILES IDX 82 44 81 45 37 47 69 48 49 49 68 50 50 51 53 52 67 53 86 54
REMARK SMILES IDX 51 55 52 56 66 58 87 59 54 60 38 61 39 62 47 63 40 64 46 65
REMARK SMILES IDX 48 66 45 67 41 68 42 69 43 70 44 71 70 72 71 73 79 74 72 75
REMARK SMILES IDX 78 76 80 77 77 78 73 79 74 80 75 81 76 82 55 83 56 84 64 85
REMARK SMILES IDX 57 86 63 87 65 88 62 89 58 90 59 91 60 92 61 93
REMARK H PARENT 85 46 53 57
REMARK Flexibility Score: inf
ROOT
ATOM      1  C   UNL A   1      34.302  23.110  25.500  1.00  0.00     0.188 C 
ENDROOT
BRANCH   1   2
ATOM      2  C   UNL A   1      33.140  24.098  25.267  1.00  0.00     0.188 C 
BRANCH   2   3
ATOM      3  O   UNL A   1      32.657  24.885  26.347  1.00  0.00    -0.376 OA
BRANCH   3   4
ATOM      4  C   UNL A   1      31.566  25.772  26.121  1.00  0.00     0.202 C 
BRANCH   4   5
ATOM      5  C   UNL A   1      30.824  25.596  24.798  1.00  0.00     0.261 C 
BRANCH   5   6
ATOM      6  O   UNL A   1      30.051  26.775  24.518  1.00  0.00    -0.459 OA
BRANCH   6   7
ATOM      7  C   UNL A   1      30.544  27.577  23.530  1.00  0.00     0.344 C 
ATOM      8  O   UNL A   1      31.189  27.172  22.580  1.00  0.00    -0.246 OA
BRANCH   7   9
ATOM      9  C   UNL A   1      30.128  28.948  23.688  1.00  0.00     0.130 A 
ATOM     10  C   UNL A   1      28.159  29.330  21.999  1.00  0.00     0.071 C 
ATOM     11  C   UNL A   1      29.128  29.722  23.048  1.00  0.00     0.096 A 
ATOM     12  N   UNL A   1      29.098  30.976  23.523  1.00  0.00    -0.084 NA
ATOM     13  O   UNL A   1      30.130  31.055  24.444  1.00  0.00    -0.355 OA
ATOM     14  C   UNL A   1      30.750  29.851  24.523  1.00  0.00     0.181 A 
BRANCH  14  15
ATOM     15  C   UNL A   1      31.933  29.788  25.351  1.00  0.00     0.021 A 
ATOM     16  C   UNL A   1      32.022  30.550  26.516  1.00  0.00     0.012 A 
ATOM     17  C   UNL A   1      32.958  28.892  25.027  1.00  0.00     0.012 A 
ATOM     18  C   UNL A   1      33.112  30.390  27.370  1.00  0.00     0.006 A 
ATOM     19  C   UNL A   1      34.042  28.725  25.887  1.00  0.00     0.006 A 
ATOM     20  C   UNL A   1      34.119  29.462  27.076  1.00  0.00    -0.033 A 
BRANCH  20  21
ATOM     21  C   UNL A   1      35.299  29.324  27.995  1.00  0.00     0.145 C 
ATOM     22  Cl  UNL A   1      36.714  30.072  27.244  1.00  0.00    -0.122 Cl
ENDBRANCH  20  21
ENDBRANCH  14  15
ENDBRANCH   7   9
ENDBRANCH   6   7
ENDBRANCH   5   6
ENDBRANCH   4   5
ENDBRANCH   3   4
ENDBRANCH   2   3
ENDBRANCH   1   2
BRANCH   1  23
ATOM     23  O   UNL A   1      35.526  23.271  24.802  1.00  0.00    -0.376 OA
BRANCH  23  24
ATOM     24  C   UNL A   1      35.940  22.251  23.904  1.00  0.00     0.202 C 
BRANCH  24  25
ATOM     25  C   UNL A   1      37.020  21.279  24.375  1.00  0.00     0.261 C 
BRANCH  25  26
ATOM     26  O   UNL A   1      37.395  21.476  25.747  1.00  0.00    -0.460 OA
BRANCH  26  27
ATOM     27  C   UNL A   1      38.716  21.303  26.003  1.00  0.00     0.338 C 
ATOM     28  O   UNL A   1      39.389  20.321  25.743  1.00  0.00    -0.246 OA
BRANCH  27  29
ATOM     29  C   UNL A   1      39.292  22.553  26.535  1.00  0.00     0.060 A 
ATOM     30  C   UNL A   1      38.718  23.765  26.134  1.00  0.00     0.016 A 
ATOM     31  C   UNL A   1      40.428  22.541  27.350  1.00  0.00     0.016 A 
ATOM     32  C   UNL A   1      39.302  24.972  26.520  1.00  0.00     0.010 A 
ATOM     33  C   UNL A   1      41.027  23.751  27.712  1.00  0.00     0.010 A 
ATOM     34  C   UNL A   1      40.483  24.970  27.277  1.00  0.00    -0.014 A 
BRANCH  34  35
ATOM     35  C   UNL A   1      41.222  26.243  27.475  1.00  0.00     0.031 A 
ATOM     36  C   UNL A   1      40.651  27.273  28.407  1.00  0.00     0.074 A 
ATOM     37  C   UNL A   1      42.373  26.484  26.825  1.00  0.00     0.049 A 
ATOM     38  N   UNL A   1      41.143  28.430  28.766  1.00  0.00    -0.248 NA
ATOM     39  C   UNL A   1      39.327  26.975  28.969  1.00  0.00     0.031 C 
ATOM     40  C   UNL A   1      42.970  25.596  25.835  1.00  0.00     0.029 A 
ATOM     41  N   UNL A   1      43.254  27.533  26.912  1.00  0.00    -0.354 N 
ATOM     42  C   UNL A   1      40.166  29.027  29.553  1.00  0.00     0.074 A 
ATOM     43  C   UNL A   1      39.064  28.088  29.636  1.00  0.00     0.031 C 
ATOM     44  C   UNL A   1      44.158  26.099  25.464  1.00  0.00     0.029 A 
ATOM     45  C   UNL A   1      44.413  27.338  26.193  1.00  0.00     0.049 A 
ATOM     46  H   UNL A   1      43.077  28.346  27.438  1.00  0.00     0.167 HD
ATOM     47  C   UNL A   1      40.172  30.260  30.117  1.00  0.00     0.034 A 
ATOM     48  C   UNL A   1      45.555  28.057  26.163  1.00  0.00     0.034 A 
ATOM     49  C   UNL A   1      41.270  31.190  30.003  1.00  0.00     0.049 A 
ATOM     50  C   UNL A   1      45.601  29.360  26.928  1.00  0.00     0.074 A 
ATOM     51  C   UNL A   1      41.374  32.473  30.511  1.00  0.00     0.029 A 
ATOM     52  N   UNL A   1      42.455  30.939  29.321  1.00  0.00    -0.354 N 
ATOM     53  N   UNL A   1      44.674  29.910  27.679  1.00  0.00    -0.248 NA
ATOM     54  C   UNL A   1      46.830  30.156  26.807  1.00  0.00     0.031 C 
ATOM     55  C   UNL A   1      42.595  33.017  30.090  1.00  0.00     0.029 A 
ATOM     56  C   UNL A   1      43.283  32.050  29.376  1.00  0.00     0.049 A 
ATOM     57  H   UNL A   1      42.675  30.094  28.865  1.00  0.00     0.167 HD
ATOM     58  C   UNL A   1      45.200  31.130  28.095  1.00  0.00     0.074 A 
ATOM     59  C   UNL A   1      46.549  31.201  27.573  1.00  0.00     0.031 C 
ATOM     60  C   UNL A   1      44.610  32.121  28.810  1.00  0.00     0.034 A 
BRANCH  47  61
ATOM     61  C   UNL A   1      38.905  30.698  30.808  1.00  0.00     0.023 A 
ATOM     62  C   UNL A   1      37.886  31.389  30.131  1.00  0.00     0.031 A 
ATOM     63  C   UNL A   1      38.754  30.487  32.191  1.00  0.00     0.131 A 
ATOM     64  C   UNL A   1      36.803  31.916  30.854  1.00  0.00     0.055 A 
ATOM     65  C   UNL A   1      37.635  30.944  32.888  1.00  0.00     0.041 A 
ATOM     66  F   UNL A   1      39.710  29.859  32.894  1.00  0.00    -0.206 F 
ATOM     67  C   UNL A   1      36.659  31.678  32.222  1.00  0.00     0.022 A 
BRANCH  64  68
ATOM     68  S   UNL A   1      35.670  33.054  30.010  1.00  0.00     0.124 S 
ATOM     69  O   UNL A   1      36.298  33.174  28.697  1.00  0.00    -0.237 OA
ATOM     70  O   UNL A   1      34.406  32.327  30.049  1.00  0.00    -0.237 OA
ATOM     71  O   UNL A   1      35.722  34.261  30.830  1.00  0.00    -0.744 OA
ENDBRANCH  64  68
ENDBRANCH  47  61
BRANCH  48  72
ATOM     72  C   UNL A   1      46.764  27.570  25.427  1.00  0.00     0.023 A 
ATOM     73  C   UNL A   1      46.987  27.957  24.091  1.00  0.00     0.031 A 
ATOM     74  C   UNL A   1      47.695  26.698  26.014  1.00  0.00     0.131 A 
ATOM     75  C   UNL A   1      48.087  27.452  23.381  1.00  0.00     0.055 A 
ATOM     76  C   UNL A   1      48.822  26.244  25.322  1.00  0.00     0.041 A 
ATOM     77  F   UNL A   1      47.536  26.283  27.280  1.00  0.00    -0.206 F 
ATOM     78  C   UNL A   1      49.017  26.612  23.994  1.00  0.00     0.022 A 
BRANCH  75  79
ATOM     79  S   UNL A   1      48.238  27.828  21.611  1.00  0.00     0.124 S 
ATOM     80  O   UNL A   1      48.644  26.538  21.064  1.00  0.00    -0.237 OA
ATOM     81  O   UNL A   1      46.892  28.277  21.277  1.00  0.00    -0.237 OA
ATOM     82  O   UNL A   1      49.264  28.869  21.573  1.00  0.00    -0.744 OA
ENDBRANCH  75  79
ENDBRANCH  48  72
BRANCH  60  83
ATOM     83  C   UNL A   1      45.417  33.378  29.020  1.00  0.00     0.023 A 
ATOM     84  C   UNL A   1      45.276  34.485  28.163  1.00  0.00     0.031 A 
ATOM     85  C   UNL A   1      46.342  33.470  30.073  1.00  0.00     0.131 A 
ATOM     86  C   UNL A   1      46.087  35.615  28.338  1.00  0.00     0.055 A 
ATOM     87  C   UNL A   1      47.110  34.620  30.275  1.00  0.00     0.041 A 
ATOM     88  F   UNL A   1      46.515  32.446  30.923  1.00  0.00    -0.206 F 
ATOM     89  C   UNL A   1      46.994  35.695  29.396  1.00  0.00     0.022 A 
BRANCH  86  90
ATOM     90  S   UNL A   1      45.998  36.951  27.113  1.00  0.00     0.124 S 
ATOM     91  O   UNL A   1      46.939  36.496  26.095  1.00  0.00    -0.237 OA
ATOM     92  O   UNL A   1      44.589  36.932  26.732  1.00  0.00    -0.237 OA
ATOM     93  O   UNL A   1      46.418  38.133  27.863  1.00  0.00    -0.744 OA
ENDBRANCH  86  90
ENDBRANCH  60  83
ENDBRANCH  34  35
ENDBRANCH  27  29
ENDBRANCH  26  27
ENDBRANCH  25  26
ENDBRANCH  24  25
ENDBRANCH  23  24
ENDBRANCH   1  23
TORSDOF 22
ENDMDL
