MODEL 1
REMARK VINA RESULT:     -11.1      0.000      0.000
REMARK SMILES Cc1cc(-c2cncc(C(=O)OCCOCCOCCOC(=O)c3ccc(-c4c5nc(c(-c6cc(S(=O)(=O)[O-])ccc6F)c6ccc([nH]6)c(-c6cc(S(=O)(=O)[O-])ccc6F)c6nc(c(-c7cc(S(=O)(=O)[O-])ccc7F)c7ccc4[nH]7)C=C6)C=C5)cc3)c2)ccc1F
REMARK SMILES IDX 17 1 16 2 15 3 14 4 13 5 12 6 10 7 11 8 9 9 5 10 6 11 87 12
REMARK SMILES IDX 7 13 8 14 4 15 1 16 2 17 3 18 90 19 89 20 91 21 88 22 18 23
REMARK SMILES IDX 19 24 20 25 21 26 22 27 23 28 24 29 25 30 86 31 26 32 85 33
REMARK SMILES IDX 27 34 28 35 29 36 79 37 30 38 84 39 78 40 80 41 31 42 83 43
REMARK SMILES IDX 77 44 76 45 32 47 64 48 44 49 63 50 45 51 48 52 62 53 81 54
REMARK SMILES IDX 46 55 47 56 61 58 82 59 49 60 33 61 34 62 42 63 35 64 41 65
REMARK SMILES IDX 43 66 40 67 36 68 37 69 38 70 39 71 65 72 66 73 74 74 67 75
REMARK SMILES IDX 73 76 75 77 72 78 68 79 69 80 70 81 71 82 50 83 51 84 59 85
REMARK SMILES IDX 52 86 58 87 60 88 57 89 53 90 54 91 55 92 56 93
REMARK H PARENT 80 46 48 57
REMARK Flexibility Score: inf
ROOT
ATOM      1  C   UNL A   1      32.224  30.770  26.832  1.00  0.00     0.188 C 
ENDROOT
BRANCH   1   2
ATOM      2  C   UNL A   1      32.429  29.744  25.691  1.00  0.00     0.188 C 
BRANCH   2   3
ATOM      3  O   UNL A   1      31.467  29.608  24.650  1.00  0.00    -0.376 OA
BRANCH   3   4
ATOM      4  C   UNL A   1      31.184  28.313  24.143  1.00  0.00     0.202 C 
BRANCH   4   5
ATOM      5  C   UNL A   1      32.212  27.646  23.218  1.00  0.00     0.261 C 
BRANCH   5   6
ATOM      6  O   UNL A   1      31.700  26.528  22.473  1.00  0.00    -0.460 OA
BRANCH   6   7
ATOM      7  C   UNL A   1      32.635  25.741  21.882  1.00  0.00     0.339 C 
ATOM      8  O   UNL A   1      33.286  25.997  20.884  1.00  0.00    -0.246 OA
BRANCH   7   9
ATOM      9  C   UNL A   1      32.882  24.546  22.708  1.00  0.00     0.079 A 
ATOM     10  C   UNL A   1      34.303  23.031  23.961  1.00  0.00     0.001 A 
ATOM     11  C   UNL A   1      33.147  22.287  24.213  1.00  0.00     0.119 A 
ATOM     12  C   UNL A   1      34.150  24.170  23.152  1.00  0.00     0.027 A 
ATOM     13  N   UNL A   1      31.901  22.638  23.805  1.00  0.00    -0.263 NA
ATOM     14  C   UNL A   1      31.797  23.760  23.061  1.00  0.00     0.126 A 
BRANCH  10  15
ATOM     15  C   UNL A   1      35.586  22.718  24.611  1.00  0.00    -0.016 A 
ATOM     16  C   UNL A   1      37.851  19.655  24.973  1.00  0.00     0.047 C 
ATOM     17  C   UNL A   1      37.336  21.057  25.078  1.00  0.00    -0.015 A 
ATOM     18  C   UNL A   1      36.091  21.403  24.541  1.00  0.00     0.015 A 
ATOM     19  C   UNL A   1      38.092  22.052  25.694  1.00  0.00     0.126 A 
ATOM     20  C   UNL A   1      37.623  23.359  25.784  1.00  0.00     0.040 A 
ATOM     21  F   UNL A   1      39.296  21.752  26.204  1.00  0.00    -0.207 F 
ATOM     22  C   UNL A   1      36.374  23.692  25.246  1.00  0.00     0.012 A 
ENDBRANCH  10  15
ENDBRANCH   7   9
ENDBRANCH   6   7
ENDBRANCH   5   6
ENDBRANCH   4   5
ENDBRANCH   3   4
ENDBRANCH   2   3
ENDBRANCH   1   2
BRANCH   1  23
ATOM     23  O   UNL A   1      33.375  31.057  27.628  1.00  0.00    -0.376 OA
BRANCH  23  24
ATOM     24  C   UNL A   1      33.757  32.434  27.639  1.00  0.00     0.202 C 
BRANCH  24  25
ATOM     25  C   UNL A   1      34.128  32.959  29.036  1.00  0.00     0.261 C 
BRANCH  25  26
ATOM     26  O   UNL A   1      34.996  32.086  29.759  1.00  0.00    -0.460 OA
BRANCH  26  27
ATOM     27  C   UNL A   1      36.206  31.970  29.177  1.00  0.00     0.338 C 
ATOM     28  O   UNL A   1      36.989  32.871  28.929  1.00  0.00    -0.246 OA
BRANCH  27  29
ATOM     29  C   UNL A   1      36.492  30.570  28.880  1.00  0.00     0.060 A 
ATOM     30  C   UNL A   1      36.550  29.685  29.968  1.00  0.00     0.016 A 
ATOM     31  C   UNL A   1      37.126  30.320  27.669  1.00  0.00     0.016 A 
ATOM     32  C   UNL A   1      37.475  28.664  29.952  1.00  0.00     0.010 A 
ATOM     33  C   UNL A   1      38.071  29.323  27.663  1.00  0.00     0.010 A 
ATOM     34  C   UNL A   1      38.324  28.616  28.856  1.00  0.00    -0.014 A 
BRANCH  34  35
ATOM     35  C   UNL A   1      39.703  28.192  29.004  1.00  0.00     0.031 A 
ATOM     36  C   UNL A   1      40.107  26.811  28.739  1.00  0.00     0.074 A 
ATOM     37  C   UNL A   1      40.615  29.178  29.179  1.00  0.00     0.049 A 
ATOM     38  N   UNL A   1      41.269  26.347  29.038  1.00  0.00    -0.248 NA
ATOM     39  C   UNL A   1      39.207  25.826  28.155  1.00  0.00     0.031 C 
ATOM     40  C   UNL A   1      42.027  29.135  28.831  1.00  0.00     0.029 A 
ATOM     41  N   UNL A   1      40.469  30.383  29.882  1.00  0.00    -0.354 N 
ATOM     42  C   UNL A   1      41.375  25.118  28.439  1.00  0.00     0.074 A 
ATOM     43  C   UNL A   1      40.042  24.797  27.975  1.00  0.00     0.031 C 
ATOM     44  C   UNL A   1      42.667  30.093  29.518  1.00  0.00     0.029 A 
ATOM     45  C   UNL A   1      41.714  30.651  30.464  1.00  0.00     0.049 A 
ATOM     46  H   UNL A   1      39.654  30.932  29.952  1.00  0.00     0.167 HD
ATOM     47  C   UNL A   1      42.608  24.570  28.259  1.00  0.00     0.034 A 
ATOM     48  C   UNL A   1      41.933  30.781  31.803  1.00  0.00     0.034 A 
ATOM     49  C   UNL A   1      43.656  25.406  28.840  1.00  0.00     0.049 A 
ATOM     50  C   UNL A   1      42.996  29.835  32.319  1.00  0.00     0.074 A 
ATOM     51  C   UNL A   1      44.477  26.391  28.314  1.00  0.00     0.029 A 
ATOM     52  N   UNL A   1      43.741  25.523  30.220  1.00  0.00    -0.354 N 
ATOM     53  N   UNL A   1      43.388  28.774  31.673  1.00  0.00    -0.248 NA
ATOM     54  C   UNL A   1      43.686  29.987  33.595  1.00  0.00     0.031 C 
ATOM     55  C   UNL A   1      45.025  27.134  29.390  1.00  0.00     0.029 A 
ATOM     56  C   UNL A   1      44.553  26.589  30.570  1.00  0.00     0.049 A 
ATOM     57  H   UNL A   1      43.288  24.931  30.862  1.00  0.00     0.167 HD
ATOM     58  C   UNL A   1      44.315  28.085  32.412  1.00  0.00     0.074 A 
ATOM     59  C   UNL A   1      44.491  28.907  33.594  1.00  0.00     0.031 C 
ATOM     60  C   UNL A   1      44.817  26.889  31.977  1.00  0.00     0.034 A 
BRANCH  47  61
ATOM     61  C   UNL A   1      42.833  23.442  27.287  1.00  0.00     0.023 A 
ATOM     62  C   UNL A   1      43.628  23.578  26.131  1.00  0.00     0.031 A 
ATOM     63  C   UNL A   1      42.324  22.152  27.540  1.00  0.00     0.131 A 
ATOM     64  C   UNL A   1      44.005  22.455  25.372  1.00  0.00     0.055 A 
ATOM     65  C   UNL A   1      42.634  21.049  26.736  1.00  0.00     0.041 A 
ATOM     66  F   UNL A   1      41.563  21.892  28.611  1.00  0.00    -0.206 F 
ATOM     67  C   UNL A   1      43.504  21.189  25.666  1.00  0.00     0.022 A 
BRANCH  64  68
ATOM     68  S   UNL A   1      45.284  22.586  24.089  1.00  0.00     0.124 S 
ATOM     69  O   UNL A   1      46.257  21.579  24.513  1.00  0.00    -0.237 OA
ATOM     70  O   UNL A   1      44.545  22.264  22.873  1.00  0.00    -0.237 OA
ATOM     71  O   UNL A   1      45.750  23.965  24.203  1.00  0.00    -0.744 OA
ENDBRANCH  64  68
ENDBRANCH  47  61
BRANCH  48  72
ATOM     72  C   UNL A   1      40.794  31.312  32.597  1.00  0.00     0.023 A 
ATOM     73  C   UNL A   1      40.828  32.590  33.184  1.00  0.00     0.031 A 
ATOM     74  C   UNL A   1      39.824  30.396  33.052  1.00  0.00     0.131 A 
ATOM     75  C   UNL A   1      39.955  32.883  34.248  1.00  0.00     0.055 A 
ATOM     76  C   UNL A   1      38.957  30.697  34.103  1.00  0.00     0.041 A 
ATOM     77  F   UNL A   1      39.758  29.163  32.522  1.00  0.00    -0.206 F 
ATOM     78  C   UNL A   1      39.037  31.938  34.722  1.00  0.00     0.022 A 
BRANCH  75  79
ATOM     79  S   UNL A   1      40.072  34.443  35.174  1.00  0.00     0.124 S 
ATOM     80  O   UNL A   1      40.663  35.336  34.183  1.00  0.00    -0.237 OA
ATOM     81  O   UNL A   1      38.672  34.715  35.497  1.00  0.00    -0.237 OA
ATOM     82  O   UNL A   1      40.914  34.095  36.311  1.00  0.00    -0.744 OA
ENDBRANCH  75  79
ENDBRANCH  48  72
BRANCH  60  83
ATOM     83  C   UNL A   1      45.631  25.873  32.759  1.00  0.00     0.023 A 
ATOM     84  C   UNL A   1      44.926  24.917  33.539  1.00  0.00     0.031 A 
ATOM     85  C   UNL A   1      47.023  25.883  32.932  1.00  0.00     0.131 A 
ATOM     86  C   UNL A   1      45.572  24.089  34.466  1.00  0.00     0.055 A 
ATOM     87  C   UNL A   1      47.679  25.000  33.802  1.00  0.00     0.041 A 
ATOM     88  F   UNL A   1      47.808  26.783  32.328  1.00  0.00    -0.206 F 
ATOM     89  C   UNL A   1      46.955  24.116  34.592  1.00  0.00     0.022 A 
BRANCH  86  90
ATOM     90  S   UNL A   1      44.605  23.102  35.643  1.00  0.00     0.124 S 
ATOM     91  O   UNL A   1      43.258  23.623  35.432  1.00  0.00    -0.237 OA
ATOM     92  O   UNL A   1      44.829  21.738  35.167  1.00  0.00    -0.237 OA
ATOM     93  O   UNL A   1      45.214  23.413  36.931  1.00  0.00    -0.744 OA
ENDBRANCH  86  90
ENDBRANCH  60  83
ENDBRANCH  34  35
ENDBRANCH  27  29
ENDBRANCH  26  27
ENDBRANCH  25  26
ENDBRANCH  24  25
ENDBRANCH  23  24
ENDBRANCH   1  23
TORSDOF 21
ENDMDL
MODEL 2
REMARK VINA RESULT:     -10.7      2.337      3.218
REMARK SMILES Cc1cc(-c2cncc(C(=O)OCCOCCOCCOC(=O)c3ccc(-c4c5nc(c(-c6cc(S(=O)(=O)[O-])ccc6F)c6ccc([nH]6)c(-c6cc(S(=O)(=O)[O-])ccc6F)c6nc(c(-c7cc(S(=O)(=O)[O-])ccc7F)c7ccc4[nH]7)C=C6)C=C5)cc3)c2)ccc1F
REMARK SMILES IDX 17 1 16 2 15 3 14 4 13 5 12 6 10 7 11 8 9 9 5 10 6 11 87 12
REMARK SMILES IDX 7 13 8 14 4 15 1 16 2 17 3 18 90 19 89 20 91 21 88 22 18 23
REMARK SMILES IDX 19 24 20 25 21 26 22 27 23 28 24 29 25 30 86 31 26 32 85 33
REMARK SMILES IDX 27 34 28 35 29 36 79 37 30 38 84 39 78 40 80 41 31 42 83 43
REMARK SMILES IDX 77 44 76 45 32 47 64 48 44 49 63 50 45 51 48 52 62 53 81 54
REMARK SMILES IDX 46 55 47 56 61 58 82 59 49 60 33 61 34 62 42 63 35 64 41 65
REMARK SMILES IDX 43 66 40 67 36 68 37 69 38 70 39 71 65 72 66 73 74 74 67 75
REMARK SMILES IDX 73 76 75 77 72 78 68 79 69 80 70 81 71 82 50 83 51 84 59 85
REMARK SMILES IDX 52 86 58 87 60 88 57 89 53 90 54 91 55 92 56 93
REMARK H PARENT 80 46 48 57
REMARK Flexibility Score: inf
ROOT
ATOM      1  C   UNL A   1      34.251  34.475  29.583  1.00  0.00     0.188 C 
ENDROOT
BRANCH   1   2
ATOM      2  C   UNL A   1      33.429  34.173  28.307  1.00  0.00     0.188 C 
BRANCH   2   3
ATOM      3  O   UNL A   1      33.130  32.833  27.931  1.00  0.00    -0.376 OA
BRANCH   3   4
ATOM      4  C   UNL A   1      34.199  31.951  27.623  1.00  0.00     0.202 C 
BRANCH   4   5
ATOM      5  C   UNL A   1      33.917  30.442  27.588  1.00  0.00     0.261 C 
BRANCH   5   6
ATOM      6  O   UNL A   1      33.860  29.882  26.264  1.00  0.00    -0.460 OA
BRANCH   6   7
ATOM      7  C   UNL A   1      32.633  29.473  25.853  1.00  0.00     0.339 C 
ATOM      8  O   UNL A   1      31.751  30.166  25.376  1.00  0.00    -0.246 OA
BRANCH   7   9
ATOM      9  C   UNL A   1      32.541  28.005  25.924  1.00  0.00     0.079 A 
ATOM     10  C   UNL A   1      33.256  25.756  25.362  1.00  0.00     0.001 A 
ATOM     11  C   UNL A   1      32.204  25.309  26.166  1.00  0.00     0.119 A 
ATOM     12  C   UNL A   1      33.388  27.149  25.220  1.00  0.00     0.027 A 
ATOM     13  N   UNL A   1      31.376  26.120  26.871  1.00  0.00    -0.263 NA
ATOM     14  C   UNL A   1      31.563  27.450  26.734  1.00  0.00     0.126 A 
BRANCH  10  15
ATOM     15  C   UNL A   1      34.252  24.830  24.798  1.00  0.00    -0.016 A 
ATOM     16  C   UNL A   1      37.597  23.332  25.897  1.00  0.00     0.047 C 
ATOM     17  C   UNL A   1      36.373  23.622  25.086  1.00  0.00    -0.015 A 
ATOM     18  C   UNL A   1      35.422  24.546  25.533  1.00  0.00     0.015 A 
ATOM     19  C   UNL A   1      36.143  22.967  23.878  1.00  0.00     0.126 A 
ATOM     20  C   UNL A   1      35.002  23.226  23.125  1.00  0.00     0.040 A 
ATOM     21  F   UNL A   1      37.031  22.066  23.432  1.00  0.00    -0.207 F 
ATOM     22  C   UNL A   1      34.059  24.155  23.582  1.00  0.00     0.012 A 
ENDBRANCH  10  15
ENDBRANCH   7   9
ENDBRANCH   6   7
ENDBRANCH   5   6
ENDBRANCH   4   5
ENDBRANCH   3   4
ENDBRANCH   2   3
ENDBRANCH   1   2
BRANCH   1  23
ATOM     23  O   UNL A   1      33.871  33.753  30.756  1.00  0.00    -0.376 OA
BRANCH  23  24
ATOM     24  C   UNL A   1      34.711  33.983  31.889  1.00  0.00     0.202 C 
BRANCH  24  25
ATOM     25  C   UNL A   1      36.069  33.267  31.804  1.00  0.00     0.261 C 
BRANCH  25  26
ATOM     26  O   UNL A   1      36.035  32.074  31.019  1.00  0.00    -0.460 OA
BRANCH  26  27
ATOM     27  C   UNL A   1      36.905  32.113  29.990  1.00  0.00     0.338 C 
ATOM     28  O   UNL A   1      37.431  33.104  29.514  1.00  0.00    -0.246 OA
BRANCH  27  29
ATOM     29  C   UNL A   1      37.170  30.764  29.501  1.00  0.00     0.060 A 
ATOM     30  C   UNL A   1      37.354  29.760  30.464  1.00  0.00     0.016 A 
ATOM     31  C   UNL A   1      37.669  30.671  28.208  1.00  0.00     0.016 A 
ATOM     32  C   UNL A   1      38.282  28.769  30.228  1.00  0.00     0.010 A 
ATOM     33  C   UNL A   1      38.617  29.702  27.982  1.00  0.00     0.010 A 
ATOM     34  C   UNL A   1      39.006  28.867  29.049  1.00  0.00    -0.014 A 
BRANCH  34  35
ATOM     35  C   UNL A   1      40.396  28.460  28.996  1.00  0.00     0.031 A 
ATOM     36  C   UNL A   1      40.773  27.074  28.715  1.00  0.00     0.074 A 
ATOM     37  C   UNL A   1      41.311  29.458  28.999  1.00  0.00     0.049 A 
ATOM     38  N   UNL A   1      41.973  26.629  28.847  1.00  0.00    -0.248 NA
ATOM     39  C   UNL A   1      39.807  26.063  28.307  1.00  0.00     0.031 C 
ATOM     40  C   UNL A   1      42.654  29.415  28.439  1.00  0.00     0.029 A 
ATOM     41  N   UNL A   1      41.260  30.685  29.678  1.00  0.00    -0.354 N 
ATOM     42  C   UNL A   1      42.002  25.382  28.277  1.00  0.00     0.074 A 
ATOM     43  C   UNL A   1      40.618  25.035  28.034  1.00  0.00     0.031 C 
ATOM     44  C   UNL A   1      43.379  30.400  28.990  1.00  0.00     0.029 A 
ATOM     45  C   UNL A   1      42.575  30.981  30.054  1.00  0.00     0.049 A 
ATOM     46  H   UNL A   1      40.458  31.228  29.856  1.00  0.00     0.167 HD
ATOM     47  C   UNL A   1      43.200  24.839  27.927  1.00  0.00     0.034 A 
ATOM     48  C   UNL A   1      42.995  31.157  31.339  1.00  0.00     0.034 A 
ATOM     49  C   UNL A   1      44.313  25.702  28.314  1.00  0.00     0.049 A 
ATOM     50  C   UNL A   1      44.137  30.237  31.714  1.00  0.00     0.074 A 
ATOM     51  C   UNL A   1      45.031  26.675  27.638  1.00  0.00     0.029 A 
ATOM     52  N   UNL A   1      44.608  25.865  29.661  1.00  0.00    -0.354 N 
ATOM     53  N   UNL A   1      44.439  29.158  31.048  1.00  0.00    -0.248 NA
ATOM     54  C   UNL A   1      45.012  30.436  32.864  1.00  0.00     0.031 C 
ATOM     55  C   UNL A   1      45.729  27.458  28.593  1.00  0.00     0.029 A 
ATOM     56  C   UNL A   1      45.449  26.948  29.849  1.00  0.00     0.049 A 
ATOM     57  H   UNL A   1      44.266  25.290  30.382  1.00  0.00     0.167 HD
ATOM     58  C   UNL A   1      45.477  28.501  31.658  1.00  0.00     0.074 A 
ATOM     59  C   UNL A   1      45.822  29.363  32.772  1.00  0.00     0.031 C 
ATOM     60  C   UNL A   1      45.922  27.296  31.189  1.00  0.00     0.034 A 
BRANCH  47  61
ATOM     61  C   UNL A   1      43.288  23.682  26.968  1.00  0.00     0.023 A 
ATOM     62  C   UNL A   1      42.786  22.400  27.270  1.00  0.00     0.031 A 
ATOM     63  C   UNL A   1      43.803  23.854  25.667  1.00  0.00     0.131 A 
ATOM     64  C   UNL A   1      42.674  21.410  26.277  1.00  0.00     0.055 A 
ATOM     65  C   UNL A   1      43.767  22.840  24.702  1.00  0.00     0.041 A 
ATOM     66  F   UNL A   1      44.302  25.027  25.254  1.00  0.00    -0.206 F 
ATOM     67  C   UNL A   1      43.171  21.622  24.993  1.00  0.00     0.022 A 
BRANCH  64  68
ATOM     68  S   UNL A   1      41.734  19.886  26.583  1.00  0.00     0.124 S 
ATOM     69  O   UNL A   1      40.358  20.377  26.661  1.00  0.00    -0.237 OA
ATOM     70  O   UNL A   1      42.042  19.083  25.405  1.00  0.00    -0.237 OA
ATOM     71  O   UNL A   1      42.275  19.393  27.847  1.00  0.00    -0.744 OA
ENDBRANCH  64  68
ENDBRANCH  47  61
BRANCH  48  72
ATOM     72  C   UNL A   1      41.985  31.704  32.281  1.00  0.00     0.023 A 
ATOM     73  C   UNL A   1      41.195  30.869  33.093  1.00  0.00     0.031 A 
ATOM     74  C   UNL A   1      41.577  33.041  32.106  1.00  0.00     0.131 A 
ATOM     75  C   UNL A   1      39.995  31.368  33.633  1.00  0.00     0.055 A 
ATOM     76  C   UNL A   1      40.389  33.530  32.651  1.00  0.00     0.041 A 
ATOM     77  F   UNL A   1      42.299  33.873  31.337  1.00  0.00    -0.206 F 
ATOM     78  C   UNL A   1      39.580  32.684  33.399  1.00  0.00     0.022 A 
BRANCH  75  79
ATOM     79  S   UNL A   1      38.836  30.293  34.530  1.00  0.00     0.124 S 
ATOM     80  O   UNL A   1      37.638  31.123  34.585  1.00  0.00    -0.237 OA
ATOM     81  O   UNL A   1      38.747  29.131  33.646  1.00  0.00    -0.237 OA
ATOM     82  O   UNL A   1      39.515  30.054  35.798  1.00  0.00    -0.744 OA
ENDBRANCH  75  79
ENDBRANCH  48  72
BRANCH  60  83
ATOM     83  C   UNL A   1      46.859  26.312  31.868  1.00  0.00     0.023 A 
ATOM     84  C   UNL A   1      46.410  25.681  33.059  1.00  0.00     0.031 A 
ATOM     85  C   UNL A   1      48.203  26.086  31.536  1.00  0.00     0.131 A 
ATOM     86  C   UNL A   1      47.269  24.939  33.878  1.00  0.00     0.055 A 
ATOM     87  C   UNL A   1      49.044  25.277  32.315  1.00  0.00     0.041 A 
ATOM     88  F   UNL A   1      48.789  26.681  30.490  1.00  0.00    -0.206 F 
ATOM     89  C   UNL A   1      48.588  24.722  33.504  1.00  0.00     0.022 A 
BRANCH  86  90
ATOM     90  S   UNL A   1      46.728  24.406  35.528  1.00  0.00     0.124 S 
ATOM     91  O   UNL A   1      46.962  22.967  35.466  1.00  0.00    -0.237 OA
ATOM     92  O   UNL A   1      47.628  25.148  36.409  1.00  0.00    -0.237 OA
ATOM     93  O   UNL A   1      45.332  24.823  35.581  1.00  0.00    -0.744 OA
ENDBRANCH  86  90
ENDBRANCH  60  83
ENDBRANCH  34  35
ENDBRANCH  27  29
ENDBRANCH  26  27
ENDBRANCH  25  26
ENDBRANCH  24  25
ENDBRANCH  23  24
ENDBRANCH   1  23
TORSDOF 21
ENDMDL
MODEL 3
REMARK VINA RESULT:     -10.7      2.627      4.135
REMARK SMILES Cc1cc(-c2cncc(C(=O)OCCOCCOCCOC(=O)c3ccc(-c4c5nc(c(-c6cc(S(=O)(=O)[O-])ccc6F)c6ccc([nH]6)c(-c6cc(S(=O)(=O)[O-])ccc6F)c6nc(c(-c7cc(S(=O)(=O)[O-])ccc7F)c7ccc4[nH]7)C=C6)C=C5)cc3)c2)ccc1F
REMARK SMILES IDX 17 1 16 2 15 3 14 4 13 5 12 6 10 7 11 8 9 9 5 10 6 11 87 12
REMARK SMILES IDX 7 13 8 14 4 15 1 16 2 17 3 18 90 19 89 20 91 21 88 22 18 23
REMARK SMILES IDX 19 24 20 25 21 26 22 27 23 28 24 29 25 30 86 31 26 32 85 33
REMARK SMILES IDX 27 34 28 35 29 36 79 37 30 38 84 39 78 40 80 41 31 42 83 43
REMARK SMILES IDX 77 44 76 45 32 47 64 48 44 49 63 50 45 51 48 52 62 53 81 54
REMARK SMILES IDX 46 55 47 56 61 58 82 59 49 60 33 61 34 62 42 63 35 64 41 65
REMARK SMILES IDX 43 66 40 67 36 68 37 69 38 70 39 71 65 72 66 73 74 74 67 75
REMARK SMILES IDX 73 76 75 77 72 78 68 79 69 80 70 81 71 82 50 83 51 84 59 85
REMARK SMILES IDX 52 86 58 87 60 88 57 89 53 90 54 91 55 92 56 93
REMARK H PARENT 80 46 48 57
REMARK Flexibility Score: inf
ROOT
ATOM      1  C   UNL A   1      33.749  35.613  31.259  1.00  0.00     0.188 C 
ENDROOT
BRANCH   1   2
ATOM      2  C   UNL A   1      32.684  36.123  30.258  1.00  0.00     0.188 C 
BRANCH   2   3
ATOM      3  O   UNL A   1      32.675  35.670  28.908  1.00  0.00    -0.376 OA
BRANCH   3   4
ATOM      4  C   UNL A   1      33.677  34.759  28.483  1.00  0.00     0.202 C 
BRANCH   4   5
ATOM      5  C   UNL A   1      33.336  33.262  28.440  1.00  0.00     0.261 C 
BRANCH   5   6
ATOM      6  O   UNL A   1      33.309  32.699  27.117  1.00  0.00    -0.460 OA
BRANCH   6   7
ATOM      7  C   UNL A   1      32.246  31.903  26.841  1.00  0.00     0.339 C 
ATOM      8  O   UNL A   1      31.107  32.259  26.593  1.00  0.00    -0.246 OA
BRANCH   7   9
ATOM      9  C   UNL A   1      32.682  30.500  26.731  1.00  0.00     0.079 A 
ATOM     10  C   UNL A   1      32.402  28.187  26.055  1.00  0.00     0.001 A 
ATOM     11  C   UNL A   1      33.650  27.952  26.640  1.00  0.00     0.119 A 
ATOM     12  C   UNL A   1      31.905  29.499  26.147  1.00  0.00     0.027 A 
ATOM     13  N   UNL A   1      34.430  28.909  27.200  1.00  0.00    -0.263 NA
ATOM     14  C   UNL A   1      33.928  30.162  27.234  1.00  0.00     0.126 A 
BRANCH  10  15
ATOM     15  C   UNL A   1      31.703  27.155  25.272  1.00  0.00    -0.016 A 
ATOM     16  C   UNL A   1      32.132  25.484  21.856  1.00  0.00     0.047 C 
ATOM     17  C   UNL A   1      31.598  25.813  23.215  1.00  0.00    -0.015 A 
ATOM     18  C   UNL A   1      32.174  26.832  23.982  1.00  0.00     0.015 A 
ATOM     19  C   UNL A   1      30.528  25.102  23.756  1.00  0.00     0.126 A 
ATOM     20  C   UNL A   1      30.036  25.397  25.023  1.00  0.00     0.040 A 
ATOM     21  F   UNL A   1      29.966  24.110  23.048  1.00  0.00    -0.207 F 
ATOM     22  C   UNL A   1      30.619  26.420  25.780  1.00  0.00     0.012 A 
ENDBRANCH  10  15
ENDBRANCH   7   9
ENDBRANCH   6   7
ENDBRANCH   5   6
ENDBRANCH   4   5
ENDBRANCH   3   4
ENDBRANCH   2   3
ENDBRANCH   1   2
BRANCH   1  23
ATOM     23  O   UNL A   1      33.500  34.329  31.835  1.00  0.00    -0.376 OA
BRANCH  23  24
ATOM     24  C   UNL A   1      34.503  33.888  32.752  1.00  0.00     0.202 C 
BRANCH  24  25
ATOM     25  C   UNL A   1      35.108  32.521  32.391  1.00  0.00     0.261 C 
BRANCH  25  26
ATOM     26  O   UNL A   1      34.979  32.189  31.009  1.00  0.00    -0.460 OA
BRANCH  26  27
ATOM     27  C   UNL A   1      36.155  32.256  30.354  1.00  0.00     0.338 C 
ATOM     28  O   UNL A   1      36.883  33.230  30.256  1.00  0.00    -0.246 OA
BRANCH  27  29
ATOM     29  C   UNL A   1      36.479  30.963  29.762  1.00  0.00     0.060 A 
ATOM     30  C   UNL A   1      36.518  29.857  30.626  1.00  0.00     0.016 A 
ATOM     31  C   UNL A   1      37.158  30.999  28.550  1.00  0.00     0.016 A 
ATOM     32  C   UNL A   1      37.464  28.878  30.416  1.00  0.00     0.010 A 
ATOM     33  C   UNL A   1      38.123  30.040  28.356  1.00  0.00     0.010 A 
ATOM     34  C   UNL A   1      38.350  29.087  29.369  1.00  0.00    -0.014 A 
BRANCH  34  35
ATOM     35  C   UNL A   1      39.731  28.658  29.470  1.00  0.00     0.031 A 
ATOM     36  C   UNL A   1      40.145  27.319  29.047  1.00  0.00     0.074 A 
ATOM     37  C   UNL A   1      40.636  29.622  29.760  1.00  0.00     0.049 A 
ATOM     38  N   UNL A   1      41.310  26.831  29.293  1.00  0.00    -0.248 NA
ATOM     39  C   UNL A   1      39.252  26.403  28.351  1.00  0.00     0.031 C 
ATOM     40  C   UNL A   1      42.050  29.630  29.412  1.00  0.00     0.029 A 
ATOM     41  N   UNL A   1      40.482  30.737  30.598  1.00  0.00    -0.354 N 
ATOM     42  C   UNL A   1      41.425  25.681  28.555  1.00  0.00     0.074 A 
ATOM     43  C   UNL A   1      40.095  25.407  28.055  1.00  0.00     0.031 C 
ATOM     44  C   UNL A   1      42.682  30.505  30.207  1.00  0.00     0.029 A 
ATOM     45  C   UNL A   1      41.724  30.944  31.209  1.00  0.00     0.049 A 
ATOM     46  H   UNL A   1      39.664  31.268  30.729  1.00  0.00     0.167 HD
ATOM     47  C   UNL A   1      42.662  25.165  28.315  1.00  0.00     0.034 A 
ATOM     48  C   UNL A   1      41.941  30.919  32.555  1.00  0.00     0.034 A 
ATOM     49  C   UNL A   1      43.703  25.935  28.991  1.00  0.00     0.049 A 
ATOM     50  C   UNL A   1      43.009  29.926  32.960  1.00  0.00     0.074 A 
ATOM     51  C   UNL A   1      44.518  26.979  28.585  1.00  0.00     0.029 A 
ATOM     52  N   UNL A   1      43.786  25.892  30.376  1.00  0.00    -0.354 N 
ATOM     53  N   UNL A   1      43.409  28.950  32.195  1.00  0.00    -0.248 NA
ATOM     54  C   UNL A   1      43.697  29.934  34.246  1.00  0.00     0.031 C 
ATOM     55  C   UNL A   1      45.060  27.596  29.741  1.00  0.00     0.029 A 
ATOM     56  C   UNL A   1      44.590  26.915  30.849  1.00  0.00     0.049 A 
ATOM     57  H   UNL A   1      43.336  25.226  30.944  1.00  0.00     0.167 HD
ATOM     58  C   UNL A   1      44.340  28.186  32.851  1.00  0.00     0.074 A 
ATOM     59  C   UNL A   1      44.509  28.867  34.121  1.00  0.00     0.031 C 
ATOM     60  C   UNL A   1      44.850  27.051  32.282  1.00  0.00     0.034 A 
BRANCH  47  61
ATOM     61  C   UNL A   1      42.895  24.159  27.220  1.00  0.00     0.023 A 
ATOM     62  C   UNL A   1      42.559  22.797  27.350  1.00  0.00     0.031 A 
ATOM     63  C   UNL A   1      43.385  24.558  25.959  1.00  0.00     0.131 A 
ATOM     64  C   UNL A   1      42.573  21.935  26.239  1.00  0.00     0.055 A 
ATOM     65  C   UNL A   1      43.477  23.678  24.875  1.00  0.00     0.041 A 
ATOM     66  F   UNL A   1      43.731  25.827  25.706  1.00  0.00    -0.206 F 
ATOM     67  C   UNL A   1      43.040  22.368  25.000  1.00  0.00     0.022 A 
BRANCH  64  68
ATOM     68  S   UNL A   1      41.833  20.278  26.336  1.00  0.00     0.124 S 
ATOM     69  O   UNL A   1      40.405  20.565  26.197  1.00  0.00    -0.237 OA
ATOM     70  O   UNL A   1      42.443  19.593  25.202  1.00  0.00    -0.237 OA
ATOM     71  O   UNL A   1      42.230  19.799  27.657  1.00  0.00    -0.744 OA
ENDBRANCH  64  68
ENDBRANCH  47  61
BRANCH  48  72
ATOM     72  C   UNL A   1      40.798  31.347  33.403  1.00  0.00     0.023 A 
ATOM     73  C   UNL A   1      40.736  32.629  33.978  1.00  0.00     0.031 A 
ATOM     74  C   UNL A   1      39.946  30.347  33.914  1.00  0.00     0.131 A 
ATOM     75  C   UNL A   1      39.894  32.849  35.083  1.00  0.00     0.055 A 
ATOM     76  C   UNL A   1      39.108  30.575  35.006  1.00  0.00     0.041 A 
ATOM     77  F   UNL A   1      39.973  29.107  33.397  1.00  0.00    -0.206 F 
ATOM     78  C   UNL A   1      39.098  31.826  35.611  1.00  0.00     0.022 A 
BRANCH  75  79
ATOM     79  S   UNL A   1      39.906  34.425  35.990  1.00  0.00     0.124 S 
ATOM     80  O   UNL A   1      39.780  35.395  34.908  1.00  0.00    -0.237 OA
ATOM     81  O   UNL A   1      38.728  34.295  36.847  1.00  0.00    -0.237 OA
ATOM     82  O   UNL A   1      41.185  34.399  36.688  1.00  0.00    -0.744 OA
ENDBRANCH  75  79
ENDBRANCH  48  72
BRANCH  60  83
ATOM     83  C   UNL A   1      45.670  25.957  32.943  1.00  0.00     0.023 A 
ATOM     84  C   UNL A   1      45.003  25.076  33.836  1.00  0.00     0.031 A 
ATOM     85  C   UNL A   1      47.066  25.826  32.897  1.00  0.00     0.131 A 
ATOM     86  C   UNL A   1      45.700  24.186  34.663  1.00  0.00     0.055 A 
ATOM     87  C   UNL A   1      47.758  24.879  33.667  1.00  0.00     0.041 A 
ATOM     88  F   UNL A   1      47.834  26.642  32.165  1.00  0.00    -0.206 F 
ATOM     89  C   UNL A   1      47.081  24.072  34.572  1.00  0.00     0.022 A 
BRANCH  86  90
ATOM     90  S   UNL A   1      44.834  23.299  35.990  1.00  0.00     0.124 S 
ATOM     91  O   UNL A   1      44.737  24.329  37.020  1.00  0.00    -0.237 OA
ATOM     92  O   UNL A   1      43.571  22.934  35.352  1.00  0.00    -0.237 OA
ATOM     93  O   UNL A   1      45.720  22.181  36.289  1.00  0.00    -0.744 OA
ENDBRANCH  86  90
ENDBRANCH  60  83
ENDBRANCH  34  35
ENDBRANCH  27  29
ENDBRANCH  26  27
ENDBRANCH  25  26
ENDBRANCH  24  25
ENDBRANCH  23  24
ENDBRANCH   1  23
TORSDOF 21
ENDMDL
