MODEL 1
REMARK VINA RESULT:     -10.0      0.000      0.000
REMARK SMILES COC(=O)N/N=C/c1ccc(-c2cccc(C(=O)OCCOCCOCCOC(=O)c3ccc(-c4c5nc(c(-c6cc(S(=O)(=O)[O-])ccc6F)c6ccc([nH]6)c(-c6cc(S(=O)(=O)[O-])ccc6F)c6nc(c(-c7cc(S(=O)(=O)[O-])ccc7F)c7ccc4[nH]7)C=C6)C=C5)cc3)c2)o1
REMARK SMILES IDX 23 1 22 2 21 3 20 4 19 5 17 6 18 7 16 8 12 9 13 10 94 11
REMARK SMILES IDX 14 12 15 13 11 14 8 15 9 16 95 17 10 18 7 19 6 20 5 21 3 22
REMARK SMILES IDX 4 23 2 25 1 26 24 27 25 28 26 29 27 30 28 31 29 32 30 33
REMARK SMILES IDX 31 34 32 35 93 36 33 37 92 38 34 39 35 40 36 41 86 42 37 43
REMARK SMILES IDX 91 44 85 45 87 46 38 47 90 48 84 49 83 50 39 52 71 53 51 54
REMARK SMILES IDX 70 55 52 56 55 57 69 58 88 59 53 60 54 61 68 63 89 64 56 65
REMARK SMILES IDX 40 66 41 67 49 68 42 69 48 70 50 71 47 72 43 73 44 74 45 75
REMARK SMILES IDX 46 76 72 77 73 78 81 79 74 80 80 81 82 82 79 83 75 84 76 85
REMARK SMILES IDX 77 86 78 87 57 88 58 89 66 90 59 91 65 92 67 93 64 94 60 95
REMARK SMILES IDX 61 96 62 97 63 98
REMARK H PARENT 5 24 87 51 55 62
REMARK Flexibility Score: inf
ROOT
ATOM      1  C   UNL A   1      34.910  21.626  24.616  1.00  0.00     0.188 C 
ENDROOT
BRANCH   1   2
ATOM      2  O   UNL A   1      34.241  21.311  25.826  1.00  0.00    -0.376 OA
BRANCH   2   3
ATOM      3  C   UNL A   1      33.324  22.231  26.397  1.00  0.00     0.202 C 
BRANCH   3   4
ATOM      4  C   UNL A   1      33.628  23.735  26.514  1.00  0.00     0.261 C 
BRANCH   4   5
ATOM      5  O   UNL A   1      32.810  24.603  25.717  1.00  0.00    -0.460 OA
BRANCH   5   6
ATOM      6  C   UNL A   1      33.474  25.415  24.857  1.00  0.00     0.338 C 
ATOM      7  O   UNL A   1      34.302  25.085  24.023  1.00  0.00    -0.246 OA
BRANCH   6   8
ATOM      8  C   UNL A   1      32.904  26.776  24.946  1.00  0.00     0.060 A 
ATOM      9  C   UNL A   1      32.823  28.981  25.957  1.00  0.00     0.018 A 
ATOM     10  C   UNL A   1      31.706  29.283  25.163  1.00  0.00     0.012 A 
ATOM     11  C   UNL A   1      33.402  27.707  25.861  1.00  0.00     0.027 A 
ATOM     12  C   UNL A   1      31.206  28.349  24.250  1.00  0.00     0.002 A 
ATOM     13  C   UNL A   1      31.818  27.103  24.126  1.00  0.00     0.016 A 
BRANCH   9  14
ATOM     14  C   UNL A   1      33.449  29.995  26.794  1.00  0.00     0.134 A 
ATOM     15  C   UNL A   1      33.598  31.991  27.708  1.00  0.00     0.147 A 
ATOM     16  C   UNL A   1      34.759  31.318  28.034  1.00  0.00     0.053 A 
ATOM     17  O   UNL A   1      32.789  31.181  26.957  1.00  0.00    -0.455 OA
ATOM     18  C   UNL A   1      34.656  30.033  27.462  1.00  0.00     0.051 A 
BRANCH  15  19
ATOM     19  C   UNL A   1      33.179  33.339  27.983  1.00  0.00     0.180 C 
ATOM     20  N   UNL A   1      33.800  34.014  28.900  1.00  0.00    -0.175 NA
BRANCH  20  21
ATOM     21  N   UNL A   1      33.410  35.298  29.166  1.00  0.00    -0.212 N 
ATOM     22  C   UNL A   1      32.974  35.852  30.351  1.00  0.00     0.427 C 
ATOM     23  O   UNL A   1      32.719  37.050  30.433  1.00  0.00    -0.223 OA
ATOM     24  H   UNL A   1      33.446  35.916  28.402  1.00  0.00     0.197 HD
BRANCH  22  25
ATOM     25  O   UNL A   1      32.902  34.977  31.389  1.00  0.00    -0.452 OA
ATOM     26  C   UNL A   1      33.390  35.503  32.623  1.00  0.00     0.284 C 
ENDBRANCH  22  25
ENDBRANCH  20  21
ENDBRANCH  15  19
ENDBRANCH   9  14
ENDBRANCH   6   8
ENDBRANCH   5   6
ENDBRANCH   4   5
ENDBRANCH   3   4
ENDBRANCH   2   3
ENDBRANCH   1   2
BRANCH   1  27
ATOM     27  C   UNL A   1      36.322  22.250  24.656  1.00  0.00     0.188 C 
BRANCH  27  28
ATOM     28  O   UNL A   1      37.343  21.409  25.135  1.00  0.00    -0.376 OA
BRANCH  28  29
ATOM     29  C   UNL A   1      38.481  21.966  25.769  1.00  0.00     0.202 C 
BRANCH  29  30
ATOM     30  C   UNL A   1      39.653  21.185  26.402  1.00  0.00     0.261 C 
BRANCH  30  31
ATOM     31  O   UNL A   1      40.699  20.695  25.562  1.00  0.00    -0.460 OA
BRANCH  31  32
ATOM     32  C   UNL A   1      41.866  20.388  26.182  1.00  0.00     0.338 C 
ATOM     33  O   UNL A   1      42.332  19.277  26.357  1.00  0.00    -0.246 OA
BRANCH  32  34
ATOM     34  C   UNL A   1      42.587  21.645  26.467  1.00  0.00     0.060 A 
ATOM     35  C   UNL A   1      42.977  21.923  27.784  1.00  0.00     0.016 A 
ATOM     36  C   UNL A   1      42.855  22.554  25.441  1.00  0.00     0.016 A 
ATOM     37  C   UNL A   1      43.623  23.123  28.082  1.00  0.00     0.010 A 
ATOM     38  C   UNL A   1      43.483  23.765  25.748  1.00  0.00     0.010 A 
ATOM     39  C   UNL A   1      43.848  24.068  27.073  1.00  0.00    -0.014 A 
BRANCH  39  40
ATOM     40  C   UNL A   1      44.295  25.442  27.420  1.00  0.00     0.031 A 
ATOM     41  C   UNL A   1      43.282  26.404  27.977  1.00  0.00     0.074 A 
ATOM     42  C   UNL A   1      45.572  25.829  27.251  1.00  0.00     0.049 A 
ATOM     43  N   UNL A   1      43.406  27.674  28.262  1.00  0.00    -0.248 NA
ATOM     44  C   UNL A   1      41.943  25.855  28.240  1.00  0.00     0.031 C 
ATOM     45  C   UNL A   1      46.657  24.974  26.773  1.00  0.00     0.029 A 
ATOM     46  N   UNL A   1      46.169  27.051  27.450  1.00  0.00    -0.354 N 
ATOM     47  C   UNL A   1      42.160  28.081  28.727  1.00  0.00     0.074 A 
ATOM     48  C   UNL A   1      41.287  26.929  28.651  1.00  0.00     0.031 C 
ATOM     49  C   UNL A   1      47.786  25.703  26.704  1.00  0.00     0.029 A 
ATOM     50  C   UNL A   1      47.494  27.085  27.084  1.00  0.00     0.049 A 
ATOM     51  H   UNL A   1      45.692  27.828  27.820  1.00  0.00     0.167 HD
ATOM     52  C   UNL A   1      41.782  29.302  29.183  1.00  0.00     0.034 A 
ATOM     53  C   UNL A   1      48.360  28.119  27.027  1.00  0.00     0.034 A 
ATOM     54  C   UNL A   1      42.661  30.444  29.237  1.00  0.00     0.049 A 
ATOM     55  C   UNL A   1      47.887  29.497  27.438  1.00  0.00     0.074 A 
ATOM     56  C   UNL A   1      42.383  31.723  29.688  1.00  0.00     0.029 A 
ATOM     57  N   UNL A   1      43.984  30.453  28.811  1.00  0.00    -0.354 N 
ATOM     58  N   UNL A   1      46.707  29.871  27.879  1.00  0.00    -0.248 NA
ATOM     59  C   UNL A   1      48.865  30.589  27.348  1.00  0.00     0.031 C 
ATOM     60  C   UNL A   1      43.507  32.523  29.457  1.00  0.00     0.029 A 
ATOM     61  C   UNL A   1      44.522  31.724  28.954  1.00  0.00     0.049 A 
ATOM     62  H   UNL A   1      44.469  29.671  28.460  1.00  0.00     0.167 HD
ATOM     63  C   UNL A   1      46.818  31.233  28.156  1.00  0.00     0.074 A 
ATOM     64  C   UNL A   1      48.180  31.610  27.841  1.00  0.00     0.031 C 
ATOM     65  C   UNL A   1      45.881  32.092  28.635  1.00  0.00     0.034 A 
BRANCH  52  66
ATOM     66  C   UNL A   1      40.340  29.471  29.600  1.00  0.00     0.023 A 
ATOM     67  C   UNL A   1      39.965  29.580  30.950  1.00  0.00     0.031 A 
ATOM     68  C   UNL A   1      39.321  29.496  28.630  1.00  0.00     0.131 A 
ATOM     69  C   UNL A   1      38.606  29.634  31.298  1.00  0.00     0.055 A 
ATOM     70  C   UNL A   1      37.976  29.638  28.978  1.00  0.00     0.041 A 
ATOM     71  F   UNL A   1      39.614  29.369  27.327  1.00  0.00    -0.206 F 
ATOM     72  C   UNL A   1      37.611  29.692  30.320  1.00  0.00     0.022 A 
BRANCH  69  73
ATOM     73  S   UNL A   1      38.153  29.472  33.046  1.00  0.00     0.124 S 
ATOM     74  O   UNL A   1      39.465  29.438  33.689  1.00  0.00    -0.237 OA
ATOM     75  O   UNL A   1      37.358  30.672  33.278  1.00  0.00    -0.237 OA
ATOM     76  O   UNL A   1      37.412  28.214  33.092  1.00  0.00    -0.744 OA
ENDBRANCH  69  73
ENDBRANCH  52  66
BRANCH  53  77
ATOM     77  C   UNL A   1      49.751  27.920  26.523  1.00  0.00     0.023 A 
ATOM     78  C   UNL A   1      50.089  28.206  25.191  1.00  0.00     0.031 A 
ATOM     79  C   UNL A   1      50.749  27.373  27.351  1.00  0.00     0.131 A 
ATOM     80  C   UNL A   1      51.372  27.894  24.711  1.00  0.00     0.055 A 
ATOM     81  C   UNL A   1      52.042  27.124  26.886  1.00  0.00     0.041 A 
ATOM     82  F   UNL A   1      50.479  27.071  28.631  1.00  0.00    -0.206 F 
ATOM     83  C   UNL A   1      52.355  27.372  25.554  1.00  0.00     0.022 A 
BRANCH  80  84
ATOM     84  S   UNL A   1      51.705  28.086  22.938  1.00  0.00     0.124 S 
ATOM     85  O   UNL A   1      53.154  27.928  22.891  1.00  0.00    -0.237 OA
ATOM     86  O   UNL A   1      50.921  26.998  22.362  1.00  0.00    -0.237 OA
ATOM     87  O   UNL A   1      51.214  29.431  22.643  1.00  0.00    -0.744 OA
ENDBRANCH  80  84
ENDBRANCH  53  77
BRANCH  65  88
ATOM     88  C   UNL A   1      46.316  33.513  28.914  1.00  0.00     0.023 A 
ATOM     89  C   UNL A   1      46.200  34.534  27.954  1.00  0.00     0.031 A 
ATOM     90  C   UNL A   1      46.852  33.850  30.171  1.00  0.00     0.131 A 
ATOM     91  C   UNL A   1      46.665  35.826  28.247  1.00  0.00     0.055 A 
ATOM     92  C   UNL A   1      47.250  35.152  30.480  1.00  0.00     0.041 A 
ATOM     93  F   UNL A   1      46.992  32.917  31.126  1.00  0.00    -0.206 F 
ATOM     94  C   UNL A   1      47.169  36.146  29.510  1.00  0.00     0.022 A 
BRANCH  91  95
ATOM     95  S   UNL A   1      46.694  37.065  26.922  1.00  0.00     0.124 S 
ATOM     96  O   UNL A   1      45.296  37.478  26.863  1.00  0.00    -0.237 OA
ATOM     97  O   UNL A   1      47.630  38.057  27.443  1.00  0.00    -0.237 OA
ATOM     98  O   UNL A   1      47.170  36.317  25.761  1.00  0.00    -0.744 OA
ENDBRANCH  91  95
ENDBRANCH  65  88
ENDBRANCH  39  40
ENDBRANCH  32  34
ENDBRANCH  31  32
ENDBRANCH  30  31
ENDBRANCH  29  30
ENDBRANCH  28  29
ENDBRANCH  27  28
ENDBRANCH   1  27
TORSDOF 24
ENDMDL
MODEL 2
REMARK VINA RESULT:      -9.8      4.084      6.762
REMARK SMILES COC(=O)N/N=C/c1ccc(-c2cccc(C(=O)OCCOCCOCCOC(=O)c3ccc(-c4c5nc(c(-c6cc(S(=O)(=O)[O-])ccc6F)c6ccc([nH]6)c(-c6cc(S(=O)(=O)[O-])ccc6F)c6nc(c(-c7cc(S(=O)(=O)[O-])ccc7F)c7ccc4[nH]7)C=C6)C=C5)cc3)c2)o1
REMARK SMILES IDX 23 1 22 2 21 3 20 4 19 5 17 6 18 7 16 8 12 9 13 10 94 11
REMARK SMILES IDX 14 12 15 13 11 14 8 15 9 16 95 17 10 18 7 19 6 20 5 21 3 22
REMARK SMILES IDX 4 23 2 25 1 26 24 27 25 28 26 29 27 30 28 31 29 32 30 33
REMARK SMILES IDX 31 34 32 35 93 36 33 37 92 38 34 39 35 40 36 41 86 42 37 43
REMARK SMILES IDX 91 44 85 45 87 46 38 47 90 48 84 49 83 50 39 52 71 53 51 54
REMARK SMILES IDX 70 55 52 56 55 57 69 58 88 59 53 60 54 61 68 63 89 64 56 65
REMARK SMILES IDX 40 66 41 67 49 68 42 69 48 70 50 71 47 72 43 73 44 74 45 75
REMARK SMILES IDX 46 76 72 77 73 78 81 79 74 80 80 81 82 82 79 83 75 84 76 85
REMARK SMILES IDX 77 86 78 87 57 88 58 89 66 90 59 91 65 92 67 93 64 94 60 95
REMARK SMILES IDX 61 96 62 97 63 98
REMARK H PARENT 5 24 87 51 55 62
REMARK Flexibility Score: inf
ROOT
ATOM      1  C   UNL A   1      41.206  21.763  27.321  1.00  0.00     0.188 C 
ENDROOT
BRANCH   1   2
ATOM      2  O   UNL A   1      40.160  22.710  27.186  1.00  0.00    -0.376 OA
BRANCH   2   3
ATOM      3  C   UNL A   1      40.236  23.961  27.853  1.00  0.00     0.202 C 
BRANCH   3   4
ATOM      4  C   UNL A   1      39.087  24.984  27.821  1.00  0.00     0.261 C 
BRANCH   4   5
ATOM      5  O   UNL A   1      39.475  26.357  27.680  1.00  0.00    -0.460 OA
BRANCH   5   6
ATOM      6  C   UNL A   1      40.068  26.917  28.765  1.00  0.00     0.338 C 
ATOM      7  O   UNL A   1      41.257  26.909  29.041  1.00  0.00    -0.246 OA
BRANCH   6   8
ATOM      8  C   UNL A   1      39.067  27.722  29.496  1.00  0.00     0.060 A 
ATOM      9  C   UNL A   1      37.274  29.359  29.529  1.00  0.00     0.018 A 
ATOM     10  C   UNL A   1      37.289  29.317  30.932  1.00  0.00     0.012 A 
ATOM     11  C   UNL A   1      38.192  28.574  28.815  1.00  0.00     0.027 A 
ATOM     12  C   UNL A   1      38.168  28.468  31.611  1.00  0.00     0.002 A 
ATOM     13  C   UNL A   1      39.043  27.654  30.893  1.00  0.00     0.016 A 
BRANCH   9  14
ATOM     14  C   UNL A   1      36.261  30.117  28.808  1.00  0.00     0.134 A 
ATOM     15  C   UNL A   1      34.560  30.333  27.429  1.00  0.00     0.147 A 
ATOM     16  C   UNL A   1      34.959  31.610  27.770  1.00  0.00     0.053 A 
ATOM     17  O   UNL A   1      35.349  29.415  28.070  1.00  0.00    -0.455 OA
ATOM     18  C   UNL A   1      36.040  31.471  28.666  1.00  0.00     0.051 A 
BRANCH  15  19
ATOM     19  C   UNL A   1      33.543  29.871  26.524  1.00  0.00     0.180 C 
ATOM     20  N   UNL A   1      33.184  28.626  26.564  1.00  0.00    -0.175 NA
BRANCH  20  21
ATOM     21  N   UNL A   1      32.215  28.180  25.708  1.00  0.00    -0.212 N 
ATOM     22  C   UNL A   1      32.340  27.676  24.431  1.00  0.00     0.427 C 
ATOM     23  O   UNL A   1      31.362  27.258  23.817  1.00  0.00    -0.223 OA
ATOM     24  H   UNL A   1      31.295  28.224  26.054  1.00  0.00     0.197 HD
BRANCH  22  25
ATOM     25  O   UNL A   1      33.614  27.651  23.958  1.00  0.00    -0.452 OA
ATOM     26  C   UNL A   1      33.850  28.563  22.885  1.00  0.00     0.284 C 
ENDBRANCH  22  25
ENDBRANCH  20  21
ENDBRANCH  15  19
ENDBRANCH   9  14
ENDBRANCH   6   8
ENDBRANCH   5   6
ENDBRANCH   4   5
ENDBRANCH   3   4
ENDBRANCH   2   3
ENDBRANCH   1   2
BRANCH   1  27
ATOM     27  C   UNL A   1      41.738  21.020  26.076  1.00  0.00     0.188 C 
BRANCH  27  28
ATOM     28  O   UNL A   1      42.956  21.498  25.559  1.00  0.00    -0.376 OA
BRANCH  28  29
ATOM     29  C   UNL A   1      43.037  22.816  25.044  1.00  0.00     0.202 C 
BRANCH  29  30
ATOM     30  C   UNL A   1      43.369  24.094  25.845  1.00  0.00     0.261 C 
BRANCH  30  31
ATOM     31  O   UNL A   1      43.435  25.347  25.163  1.00  0.00    -0.460 OA
BRANCH  31  32
ATOM     32  C   UNL A   1      42.336  26.137  25.261  1.00  0.00     0.338 C 
ATOM     33  O   UNL A   1      41.184  25.819  25.029  1.00  0.00    -0.246 OA
BRANCH  32  34
ATOM     34  C   UNL A   1      42.737  27.419  25.873  1.00  0.00     0.060 A 
ATOM     35  C   UNL A   1      43.918  27.476  26.625  1.00  0.00     0.016 A 
ATOM     36  C   UNL A   1      41.937  28.554  25.724  1.00  0.00     0.016 A 
ATOM     37  C   UNL A   1      44.295  28.667  27.247  1.00  0.00     0.010 A 
ATOM     38  C   UNL A   1      42.306  29.740  26.366  1.00  0.00     0.010 A 
ATOM     39  C   UNL A   1      43.472  29.797  27.152  1.00  0.00    -0.014 A 
BRANCH  39  40
ATOM     40  C   UNL A   1      43.727  30.982  28.012  1.00  0.00     0.031 A 
ATOM     41  C   UNL A   1      42.813  31.225  29.182  1.00  0.00     0.074 A 
ATOM     42  C   UNL A   1      44.748  31.822  27.767  1.00  0.00     0.049 A 
ATOM     43  N   UNL A   1      42.772  32.233  30.012  1.00  0.00    -0.248 NA
ATOM     44  C   UNL A   1      41.802  30.188  29.441  1.00  0.00     0.031 C 
ATOM     45  C   UNL A   1      45.735  31.663  26.700  1.00  0.00     0.029 A 
ATOM     46  N   UNL A   1      45.115  32.988  28.394  1.00  0.00    -0.354 N 
ATOM     47  C   UNL A   1      41.725  31.961  30.887  1.00  0.00     0.074 A 
ATOM     48  C   UNL A   1      41.137  30.709  30.461  1.00  0.00     0.031 C 
ATOM     49  C   UNL A   1      46.588  32.702  26.740  1.00  0.00     0.029 A 
ATOM     50  C   UNL A   1      46.180  33.624  27.799  1.00  0.00     0.049 A 
ATOM     51  H   UNL A   1      44.659  33.336  29.194  1.00  0.00     0.167 HD
ATOM     52  C   UNL A   1      41.299  32.685  31.953  1.00  0.00     0.034 A 
ATOM     53  C   UNL A   1      46.737  34.826  28.059  1.00  0.00     0.034 A 
ATOM     54  C   UNL A   1      41.887  33.940  32.354  1.00  0.00     0.049 A 
ATOM     55  C   UNL A   1      46.177  35.669  29.185  1.00  0.00     0.074 A 
ATOM     56  C   UNL A   1      41.539  34.750  33.421  1.00  0.00     0.029 A 
ATOM     57  N   UNL A   1      42.933  34.577  31.698  1.00  0.00    -0.354 N 
ATOM     58  N   UNL A   1      45.188  35.401  30.007  1.00  0.00    -0.248 NA
ATOM     59  C   UNL A   1      46.812  36.972  29.418  1.00  0.00     0.031 C 
ATOM     60  C   UNL A   1      42.315  35.913  33.360  1.00  0.00     0.029 A 
ATOM     61  C   UNL A   1      43.216  35.786  32.315  1.00  0.00     0.049 A 
ATOM     62  H   UNL A   1      43.405  34.221  30.911  1.00  0.00     0.167 HD
ATOM     63  C   UNL A   1      45.114  36.486  30.880  1.00  0.00     0.074 A 
ATOM     64  C   UNL A   1      46.161  37.405  30.487  1.00  0.00     0.031 C 
ATOM     65  C   UNL A   1      44.262  36.699  31.915  1.00  0.00     0.034 A 
BRANCH  52  66
ATOM     66  C   UNL A   1      40.105  32.161  32.715  1.00  0.00     0.023 A 
ATOM     67  C   UNL A   1      38.797  32.590  32.431  1.00  0.00     0.031 A 
ATOM     68  C   UNL A   1      40.282  31.237  33.761  1.00  0.00     0.131 A 
ATOM     69  C   UNL A   1      37.728  32.155  33.230  1.00  0.00     0.055 A 
ATOM     70  C   UNL A   1      39.204  30.740  34.495  1.00  0.00     0.041 A 
ATOM     71  F   UNL A   1      41.510  30.811  34.095  1.00  0.00    -0.206 F 
ATOM     72  C   UNL A   1      37.919  31.211  34.241  1.00  0.00     0.022 A 
BRANCH  69  73
ATOM     73  S   UNL A   1      36.114  32.955  33.027  1.00  0.00     0.124 S 
ATOM     74  O   UNL A   1      36.499  34.275  32.532  1.00  0.00    -0.237 OA
ATOM     75  O   UNL A   1      35.447  32.082  32.067  1.00  0.00    -0.237 OA
ATOM     76  O   UNL A   1      35.553  32.942  34.376  1.00  0.00    -0.744 OA
ENDBRANCH  69  73
ENDBRANCH  52  66
BRANCH  53  77
ATOM     77  C   UNL A   1      47.859  35.341  27.220  1.00  0.00     0.023 A 
ATOM     78  C   UNL A   1      49.195  35.031  27.521  1.00  0.00     0.031 A 
ATOM     79  C   UNL A   1      47.616  36.212  26.141  1.00  0.00     0.131 A 
ATOM     80  C   UNL A   1      50.235  35.627  26.790  1.00  0.00     0.055 A 
ATOM     81  C   UNL A   1      48.652  36.752  25.377  1.00  0.00     0.041 A 
ATOM     82  F   UNL A   1      46.358  36.552  25.814  1.00  0.00    -0.206 F 
ATOM     83  C   UNL A   1      49.973  36.471  25.710  1.00  0.00     0.022 A 
BRANCH  80  84
ATOM     84  S   UNL A   1      51.945  35.362  27.340  1.00  0.00     0.124 S 
ATOM     85  O   UNL A   1      51.763  35.137  28.769  1.00  0.00    -0.237 OA
ATOM     86  O   UNL A   1      52.341  34.200  26.552  1.00  0.00    -0.237 OA
ATOM     87  O   UNL A   1      52.613  36.612  26.985  1.00  0.00    -0.744 OA
ENDBRANCH  80  84
ENDBRANCH  53  77
BRANCH  65  88
ATOM     88  C   UNL A   1      44.470  37.947  32.744  1.00  0.00     0.023 A 
ATOM     89  C   UNL A   1      43.708  39.112  32.549  1.00  0.00     0.031 A 
ATOM     90  C   UNL A   1      45.451  37.964  33.754  1.00  0.00     0.131 A 
ATOM     91  C   UNL A   1      43.975  40.260  33.312  1.00  0.00     0.055 A 
ATOM     92  C   UNL A   1      45.666  39.086  34.555  1.00  0.00     0.041 A 
ATOM     93  F   UNL A   1      46.214  36.883  33.984  1.00  0.00    -0.206 F 
ATOM     94  C   UNL A   1      44.935  40.247  34.328  1.00  0.00     0.022 A 
BRANCH  91  95
ATOM     95  S   UNL A   1      43.120  41.804  32.896  1.00  0.00     0.124 S 
ATOM     96  O   UNL A   1      44.015  42.808  33.462  1.00  0.00    -0.237 OA
ATOM     97  O   UNL A   1      43.064  41.749  31.438  1.00  0.00    -0.237 OA
ATOM     98  O   UNL A   1      41.829  41.674  33.569  1.00  0.00    -0.744 OA
ENDBRANCH  91  95
ENDBRANCH  65  88
ENDBRANCH  39  40
ENDBRANCH  32  34
ENDBRANCH  31  32
ENDBRANCH  30  31
ENDBRANCH  29  30
ENDBRANCH  28  29
ENDBRANCH  27  28
ENDBRANCH   1  27
TORSDOF 24
ENDMDL
MODEL 3
REMARK VINA RESULT:      -9.5      4.473     10.997
REMARK SMILES COC(=O)N/N=C/c1ccc(-c2cccc(C(=O)OCCOCCOCCOC(=O)c3ccc(-c4c5nc(c(-c6cc(S(=O)(=O)[O-])ccc6F)c6ccc([nH]6)c(-c6cc(S(=O)(=O)[O-])ccc6F)c6nc(c(-c7cc(S(=O)(=O)[O-])ccc7F)c7ccc4[nH]7)C=C6)C=C5)cc3)c2)o1
REMARK SMILES IDX 23 1 22 2 21 3 20 4 19 5 17 6 18 7 16 8 12 9 13 10 94 11
REMARK SMILES IDX 14 12 15 13 11 14 8 15 9 16 95 17 10 18 7 19 6 20 5 21 3 22
REMARK SMILES IDX 4 23 2 25 1 26 24 27 25 28 26 29 27 30 28 31 29 32 30 33
REMARK SMILES IDX 31 34 32 35 93 36 33 37 92 38 34 39 35 40 36 41 86 42 37 43
REMARK SMILES IDX 91 44 85 45 87 46 38 47 90 48 84 49 83 50 39 52 71 53 51 54
REMARK SMILES IDX 70 55 52 56 55 57 69 58 88 59 53 60 54 61 68 63 89 64 56 65
REMARK SMILES IDX 40 66 41 67 49 68 42 69 48 70 50 71 47 72 43 73 44 74 45 75
REMARK SMILES IDX 46 76 72 77 73 78 81 79 74 80 80 81 82 82 79 83 75 84 76 85
REMARK SMILES IDX 77 86 78 87 57 88 58 89 66 90 59 91 65 92 67 93 64 94 60 95
REMARK SMILES IDX 61 96 62 97 63 98
REMARK H PARENT 5 24 87 51 55 62
REMARK Flexibility Score: inf
ROOT
ATOM      1  C   UNL A   1      35.171  32.430  29.960  1.00  0.00     0.188 C 
ENDROOT
BRANCH   1   2
ATOM      2  O   UNL A   1      35.595  31.076  29.995  1.00  0.00    -0.376 OA
BRANCH   2   3
ATOM      3  C   UNL A   1      36.886  30.718  29.527  1.00  0.00     0.202 C 
BRANCH   3   4
ATOM      4  C   UNL A   1      37.539  29.364  29.860  1.00  0.00     0.261 C 
BRANCH   4   5
ATOM      5  O   UNL A   1      38.719  29.039  29.114  1.00  0.00    -0.460 OA
BRANCH   5   6
ATOM      6  C   UNL A   1      39.600  28.214  29.734  1.00  0.00     0.338 C 
ATOM      7  O   UNL A   1      39.429  27.604  30.778  1.00  0.00    -0.246 OA
BRANCH   6   8
ATOM      8  C   UNL A   1      40.765  28.004  28.849  1.00  0.00     0.060 A 
ATOM      9  C   UNL A   1      42.735  26.744  28.195  1.00  0.00     0.018 A 
ATOM     10  C   UNL A   1      43.021  27.728  27.237  1.00  0.00     0.012 A 
ATOM     11  C   UNL A   1      41.612  26.906  29.021  1.00  0.00     0.027 A 
ATOM     12  C   UNL A   1      42.175  28.829  27.068  1.00  0.00     0.002 A 
ATOM     13  C   UNL A   1      41.035  28.957  27.860  1.00  0.00     0.016 A 
BRANCH   9  14
ATOM     14  C   UNL A   1      43.515  25.518  28.274  1.00  0.00     0.134 A 
ATOM     15  C   UNL A   1      44.828  23.952  27.458  1.00  0.00     0.147 A 
ATOM     16  C   UNL A   1      44.473  23.549  28.731  1.00  0.00     0.053 A 
ATOM     17  O   UNL A   1      44.252  25.162  27.178  1.00  0.00    -0.455 OA
ATOM     18  C   UNL A   1      43.644  24.561  29.259  1.00  0.00     0.051 A 
BRANCH  15  19
ATOM     19  C   UNL A   1      45.617  23.301  26.447  1.00  0.00     0.180 C 
ATOM     20  N   UNL A   1      45.360  22.065  26.150  1.00  0.00    -0.175 NA
BRANCH  20  21
ATOM     21  N   UNL A   1      46.104  21.440  25.187  1.00  0.00    -0.212 N 
ATOM     22  C   UNL A   1      46.093  20.118  24.793  1.00  0.00     0.427 C 
ATOM     23  O   UNL A   1      46.789  19.730  23.859  1.00  0.00    -0.223 OA
ATOM     24  H   UNL A   1      46.739  22.016  24.705  1.00  0.00     0.197 HD
BRANCH  22  25
ATOM     25  O   UNL A   1      45.232  19.331  25.490  1.00  0.00    -0.452 OA
ATOM     26  C   UNL A   1      44.150  18.824  24.709  1.00  0.00     0.284 C 
ENDBRANCH  22  25
ENDBRANCH  20  21
ENDBRANCH  15  19
ENDBRANCH   9  14
ENDBRANCH   6   8
ENDBRANCH   5   6
ENDBRANCH   4   5
ENDBRANCH   3   4
ENDBRANCH   2   3
ENDBRANCH   1   2
BRANCH   1  27
ATOM     27  C   UNL A   1      34.800  33.154  31.271  1.00  0.00     0.188 C 
BRANCH  27  28
ATOM     28  O   UNL A   1      35.652  34.209  31.644  1.00  0.00    -0.376 OA
BRANCH  28  29
ATOM     29  C   UNL A   1      35.620  34.711  32.968  1.00  0.00     0.202 C 
BRANCH  29  30
ATOM     30  C   UNL A   1      35.527  33.875  34.264  1.00  0.00     0.261 C 
BRANCH  30  31
ATOM     31  O   UNL A   1      36.225  32.632  34.343  1.00  0.00    -0.460 OA
BRANCH  31  32
ATOM     32  C   UNL A   1      37.298  32.604  35.173  1.00  0.00     0.338 C 
ATOM     33  O   UNL A   1      37.340  32.988  36.328  1.00  0.00    -0.246 OA
BRANCH  32  34
ATOM     34  C   UNL A   1      38.386  31.862  34.505  1.00  0.00     0.060 A 
ATOM     35  C   UNL A   1      39.701  32.026  34.957  1.00  0.00     0.016 A 
ATOM     36  C   UNL A   1      38.108  31.026  33.421  1.00  0.00     0.016 A 
ATOM     37  C   UNL A   1      40.750  31.367  34.314  1.00  0.00     0.010 A 
ATOM     38  C   UNL A   1      39.164  30.384  32.765  1.00  0.00     0.010 A 
ATOM     39  C   UNL A   1      40.492  30.570  33.191  1.00  0.00    -0.014 A 
BRANCH  39  40
ATOM     40  C   UNL A   1      41.613  30.077  32.351  1.00  0.00     0.031 A 
ATOM     41  C   UNL A   1      42.285  28.788  32.739  1.00  0.00     0.074 A 
ATOM     42  C   UNL A   1      42.026  30.752  31.263  1.00  0.00     0.049 A 
ATOM     43  N   UNL A   1      43.338  28.209  32.225  1.00  0.00    -0.248 NA
ATOM     44  C   UNL A   1      41.687  28.061  33.869  1.00  0.00     0.031 C 
ATOM     45  C   UNL A   1      41.421  31.981  30.752  1.00  0.00     0.029 A 
ATOM     46  N   UNL A   1      43.065  30.505  30.399  1.00  0.00    -0.354 N 
ATOM     47  C   UNL A   1      43.538  27.054  32.974  1.00  0.00     0.074 A 
ATOM     48  C   UNL A   1      42.517  27.037  33.999  1.00  0.00     0.031 C 
ATOM     49  C   UNL A   1      42.109  32.387  29.670  1.00  0.00     0.029 A 
ATOM     50  C   UNL A   1      43.231  31.478  29.441  1.00  0.00     0.049 A 
ATOM     51  H   UNL A   1      43.637  29.706  30.460  1.00  0.00     0.167 HD
ATOM     52  C   UNL A   1      44.483  26.093  32.816  1.00  0.00     0.034 A 
ATOM     53  C   UNL A   1      44.197  31.633  28.510  1.00  0.00     0.034 A 
ATOM     54  C   UNL A   1      45.504  26.134  31.798  1.00  0.00     0.049 A 
ATOM     55  C   UNL A   1      45.304  30.606  28.421  1.00  0.00     0.074 A 
ATOM     56  C   UNL A   1      46.503  25.210  31.544  1.00  0.00     0.029 A 
ATOM     57  N   UNL A   1      45.670  27.160  30.876  1.00  0.00    -0.354 N 
ATOM     58  N   UNL A   1      45.483  29.516  29.132  1.00  0.00    -0.248 NA
ATOM     59  C   UNL A   1      46.336  30.828  27.399  1.00  0.00     0.031 C 
ATOM     60  C   UNL A   1      47.321  25.717  30.528  1.00  0.00     0.029 A 
ATOM     61  C   UNL A   1      46.777  26.909  30.078  1.00  0.00     0.049 A 
ATOM     62  H   UNL A   1      45.087  27.949  30.799  1.00  0.00     0.167 HD
ATOM     63  C   UNL A   1      46.624  28.905  28.614  1.00  0.00     0.074 A 
ATOM     64  C   UNL A   1      47.084  29.743  27.527  1.00  0.00     0.031 C 
ATOM     65  C   UNL A   1      47.231  27.752  28.997  1.00  0.00     0.034 A 
BRANCH  52  66
ATOM     66  C   UNL A   1      44.484  24.952  33.806  1.00  0.00     0.023 A 
ATOM     67  C   UNL A   1      44.975  25.105  35.114  1.00  0.00     0.031 A 
ATOM     68  C   UNL A   1      44.011  23.683  33.426  1.00  0.00     0.131 A 
ATOM     69  C   UNL A   1      45.052  23.995  35.968  1.00  0.00     0.055 A 
ATOM     70  C   UNL A   1      44.008  22.603  34.309  1.00  0.00     0.041 A 
ATOM     71  F   UNL A   1      43.554  23.469  32.182  1.00  0.00    -0.206 F 
ATOM     72  C   UNL A   1      44.545  22.751  35.585  1.00  0.00     0.022 A 
BRANCH  69  73
ATOM     73  S   UNL A   1      45.960  24.163  37.528  1.00  0.00     0.124 S 
ATOM     74  O   UNL A   1      46.694  25.408  37.309  1.00  0.00    -0.237 OA
ATOM     75  O   UNL A   1      44.887  24.218  38.514  1.00  0.00    -0.237 OA
ATOM     76  O   UNL A   1      46.789  22.960  37.574  1.00  0.00    -0.744 OA
ENDBRANCH  69  73
ENDBRANCH  52  66
BRANCH  53  77
ATOM     77  C   UNL A   1      44.202  32.826  27.612  1.00  0.00     0.023 A 
ATOM     78  C   UNL A   1      44.531  34.102  28.099  1.00  0.00     0.031 A 
ATOM     79  C   UNL A   1      43.809  32.719  26.265  1.00  0.00     0.131 A 
ATOM     80  C   UNL A   1      44.409  35.223  27.263  1.00  0.00     0.055 A 
ATOM     81  C   UNL A   1      43.751  33.829  25.420  1.00  0.00     0.041 A 
ATOM     82  F   UNL A   1      43.474  31.526  25.748  1.00  0.00    -0.206 F 
ATOM     83  C   UNL A   1      44.039  35.094  25.923  1.00  0.00     0.022 A 
BRANCH  80  84
ATOM     84  S   UNL A   1      44.644  36.872  27.984  1.00  0.00     0.124 S 
ATOM     85  O   UNL A   1      44.517  36.592  29.409  1.00  0.00    -0.237 OA
ATOM     86  O   UNL A   1      45.980  37.222  27.514  1.00  0.00    -0.237 OA
ATOM     87  O   UNL A   1      43.555  37.655  27.402  1.00  0.00    -0.744 OA
ENDBRANCH  80  84
ENDBRANCH  53  77
BRANCH  65  88
ATOM     88  C   UNL A   1      48.423  27.290  28.190  1.00  0.00     0.023 A 
ATOM     89  C   UNL A   1      49.746  27.525  28.606  1.00  0.00     0.031 A 
ATOM     90  C   UNL A   1      48.227  26.597  26.980  1.00  0.00     0.131 A 
ATOM     91  C   UNL A   1      50.817  27.119  27.794  1.00  0.00     0.055 A 
ATOM     92  C   UNL A   1      49.297  26.135  26.211  1.00  0.00     0.041 A 
ATOM     93  F   UNL A   1      46.987  26.347  26.529  1.00  0.00    -0.206 F 
ATOM     94  C   UNL A   1      50.601  26.407  26.610  1.00  0.00     0.022 A 
BRANCH  91  95
ATOM     95  S   UNL A   1      52.500  27.618  28.253  1.00  0.00     0.124 S 
ATOM     96  O   UNL A   1      52.717  28.778  27.397  1.00  0.00    -0.237 OA
ATOM     97  O   UNL A   1      52.365  27.894  29.681  1.00  0.00    -0.237 OA
ATOM     98  O   UNL A   1      53.308  26.445  27.925  1.00  0.00    -0.744 OA
ENDBRANCH  91  95
ENDBRANCH  65  88
ENDBRANCH  39  40
ENDBRANCH  32  34
ENDBRANCH  31  32
ENDBRANCH  30  31
ENDBRANCH  29  30
ENDBRANCH  28  29
ENDBRANCH  27  28
ENDBRANCH   1  27
TORSDOF 24
ENDMDL
