MODEL 1
REMARK VINA RESULT:      -9.9      0.000      0.000
REMARK SMILES CC[C@H](C)[C@@H](NC(=O)/C=C/c1csc(C)n1)C(=O)OCCOCCOCCOC(=O)c1ccc(-c2c3nc(c(-c4cc(S(=O)(=O)[O-])ccc4F)c4ccc([nH]4)c(-c4cc(S(=O)(=O)[O-])ccc4F)c4nc(c(-c5cc(S(=O)(=O)[O-])ccc5F)c5ccc2[nH]5)C=C4)C=C3)cc1
REMARK SMILES IDX 23 1 22 2 21 3 20 4 19 5 17 6 18 7 5 8 3 9 4 10 2 11 1 12
REMARK SMILES IDX 6 13 7 14 8 16 9 17 10 18 11 19 12 20 16 21 13 22 14 23
REMARK SMILES IDX 15 24 24 25 25 26 26 27 27 28 28 29 29 30 30 31 31 32 32 33
REMARK SMILES IDX 93 34 33 35 92 36 34 37 35 38 36 39 86 40 37 41 91 42 85 43
REMARK SMILES IDX 87 44 38 45 90 46 84 47 83 48 39 50 71 51 51 52 70 53 52 54
REMARK SMILES IDX 55 55 69 56 88 57 53 58 54 59 68 61 89 62 56 63 40 64 41 65
REMARK SMILES IDX 49 66 42 67 48 68 50 69 47 70 43 71 44 72 45 73 46 74 72 75
REMARK SMILES IDX 73 76 81 77 74 78 80 79 82 80 79 81 75 82 76 83 77 84 78 85
REMARK SMILES IDX 57 86 58 87 66 88 59 89 65 90 67 91 64 92 60 93 61 94 62 95
REMARK SMILES IDX 63 96
REMARK H PARENT 6 15 87 49 55 60
REMARK Flexibility Score: inf
ROOT
ATOM      1  C   UNL A   1      35.453  22.622  23.963  1.00  0.00     0.188 C 
ENDROOT
BRANCH   1   2
ATOM      2  O   UNL A   1      35.154  23.569  22.944  1.00  0.00    -0.376 OA
BRANCH   2   3
ATOM      3  C   UNL A   1      34.220  24.561  23.353  1.00  0.00     0.202 C 
BRANCH   3   4
ATOM      4  C   UNL A   1      33.033  24.830  22.419  1.00  0.00     0.261 C 
BRANCH   4   5
ATOM      5  O   UNL A   1      32.610  26.165  22.042  1.00  0.00    -0.462 OA
BRANCH   5   6
ATOM      6  C   UNL A   1      31.585  26.833  22.618  1.00  0.00     0.329 C 
ATOM      7  O   UNL A   1      30.691  27.429  22.028  1.00  0.00    -0.250 OA
BRANCH   6   8
ATOM      8  C   UNL A   1      31.721  26.889  24.144  1.00  0.00     0.195 C 
BRANCH   8   9
ATOM      9  C   UNL A   1      32.281  28.271  24.635  1.00  0.00     0.019 C 
ATOM     10  C   UNL A   1      31.212  29.372  24.723  1.00  0.00     0.010 C 
BRANCH   9  11
ATOM     11  C   UNL A   1      33.032  28.241  25.995  1.00  0.00     0.002 C 
ATOM     12  C   UNL A   1      32.172  28.431  27.238  1.00  0.00     0.004 C 
ENDBRANCH   9  11
ENDBRANCH   8   9
BRANCH   8  13
ATOM     13  N   UNL A   1      30.436  26.534  24.803  1.00  0.00    -0.339 N 
ATOM     14  C   UNL A   1      30.142  25.527  25.682  1.00  0.00     0.244 C 
ATOM     15  H   UNL A   1      29.676  27.116  24.572  1.00  0.00     0.164 HD
ATOM     16  O   UNL A   1      29.281  25.695  26.540  1.00  0.00    -0.270 OA
BRANCH  14  17
ATOM     17  C   UNL A   1      30.699  24.182  25.447  1.00  0.00     0.073 C 
ATOM     18  C   UNL A   1      31.466  23.548  26.347  1.00  0.00     0.035 C 
BRANCH  18  19
ATOM     19  C   UNL A   1      32.121  22.299  26.098  1.00  0.00     0.074 A 
ATOM     20  C   UNL A   1      33.229  21.853  26.791  1.00  0.00     0.095 A 
ATOM     21  N   UNL A   1      31.746  21.518  25.015  1.00  0.00    -0.242 NA
ATOM     22  S   UNL A   1      33.802  20.392  26.094  1.00  0.00    -0.127 S 
ATOM     23  C   UNL A   1      32.572  20.496  24.897  1.00  0.00     0.090 A 
ATOM     24  C   UNL A   1      32.553  19.519  23.770  1.00  0.00     0.079 C 
ENDBRANCH  18  19
ENDBRANCH  14  17
ENDBRANCH   8  13
ENDBRANCH   6   8
ENDBRANCH   5   6
ENDBRANCH   4   5
ENDBRANCH   3   4
ENDBRANCH   2   3
ENDBRANCH   1   2
BRANCH   1  25
ATOM     25  C   UNL A   1      36.919  22.229  23.925  1.00  0.00     0.188 C 
BRANCH  25  26
ATOM     26  O   UNL A   1      37.203  20.930  24.404  1.00  0.00    -0.376 OA
BRANCH  26  27
ATOM     27  C   UNL A   1      38.182  20.763  25.422  1.00  0.00     0.202 C 
BRANCH  27  28
ATOM     28  C   UNL A   1      39.196  19.602  25.416  1.00  0.00     0.261 C 
BRANCH  28  29
ATOM     29  O   UNL A   1      40.186  19.568  26.464  1.00  0.00    -0.460 OA
BRANCH  29  30
ATOM     30  C   UNL A   1      41.418  20.059  26.206  1.00  0.00     0.338 C 
ATOM     31  O   UNL A   1      42.278  19.535  25.512  1.00  0.00    -0.246 OA
BRANCH  30  32
ATOM     32  C   UNL A   1      41.443  21.468  26.678  1.00  0.00     0.060 A 
ATOM     33  C   UNL A   1      40.888  22.458  25.853  1.00  0.00     0.016 A 
ATOM     34  C   UNL A   1      41.951  21.811  27.932  1.00  0.00     0.016 A 
ATOM     35  C   UNL A   1      40.854  23.791  26.265  1.00  0.00     0.010 A 
ATOM     36  C   UNL A   1      41.965  23.156  28.325  1.00  0.00     0.010 A 
ATOM     37  C   UNL A   1      41.447  24.157  27.478  1.00  0.00    -0.014 A 
BRANCH  37  38
ATOM     38  C   UNL A   1      41.795  25.584  27.710  1.00  0.00     0.031 A 
ATOM     39  C   UNL A   1      43.114  26.064  27.164  1.00  0.00     0.074 A 
ATOM     40  C   UNL A   1      40.964  26.451  28.315  1.00  0.00     0.049 A 
ATOM     41  N   UNL A   1      43.729  27.204  27.336  1.00  0.00    -0.248 NA
ATOM     42  C   UNL A   1      43.838  25.113  26.303  1.00  0.00     0.031 C 
ATOM     43  C   UNL A   1      39.614  26.147  28.786  1.00  0.00     0.029 A 
ATOM     44  N   UNL A   1      41.142  27.776  28.639  1.00  0.00    -0.354 N 
ATOM     45  C   UNL A   1      44.922  27.098  26.627  1.00  0.00     0.074 A 
ATOM     46  C   UNL A   1      44.951  25.775  26.043  1.00  0.00     0.031 C 
ATOM     47  C   UNL A   1      39.093  27.251  29.353  1.00  0.00     0.029 A 
ATOM     48  C   UNL A   1      40.090  28.321  29.338  1.00  0.00     0.049 A 
ATOM     49  H   UNL A   1      41.948  28.286  28.394  1.00  0.00     0.167 HD
ATOM     50  C   UNL A   1      45.905  28.019  26.478  1.00  0.00     0.034 A 
ATOM     51  C   UNL A   1      39.968  29.528  29.931  1.00  0.00     0.034 A 
ATOM     52  C   UNL A   1      45.861  29.332  27.067  1.00  0.00     0.049 A 
ATOM     53  C   UNL A   1      41.122  30.504  29.851  1.00  0.00     0.074 A 
ATOM     54  C   UNL A   1      46.812  30.335  27.014  1.00  0.00     0.029 A 
ATOM     55  N   UNL A   1      44.805  29.826  27.823  1.00  0.00    -0.354 N 
ATOM     56  N   UNL A   1      42.278  30.371  29.242  1.00  0.00    -0.248 NA
ATOM     57  C   UNL A   1      40.956  31.790  30.545  1.00  0.00     0.031 C 
ATOM     58  C   UNL A   1      46.359  31.410  27.788  1.00  0.00     0.029 A 
ATOM     59  C   UNL A   1      45.092  31.108  28.261  1.00  0.00     0.049 A 
ATOM     60  H   UNL A   1      43.974  29.336  28.019  1.00  0.00     0.167 HD
ATOM     61  C   UNL A   1      42.965  31.566  29.459  1.00  0.00     0.074 A 
ATOM     62  C   UNL A   1      42.087  32.411  30.242  1.00  0.00     0.031 C 
ATOM     63  C   UNL A   1      44.206  31.934  29.048  1.00  0.00     0.034 A 
BRANCH  50  64
ATOM     64  C   UNL A   1      47.134  27.591  25.714  1.00  0.00     0.023 A 
ATOM     65  C   UNL A   1      47.336  27.948  24.369  1.00  0.00     0.031 A 
ATOM     66  C   UNL A   1      48.085  26.754  26.324  1.00  0.00     0.131 A 
ATOM     67  C   UNL A   1      48.418  27.406  23.657  1.00  0.00     0.055 A 
ATOM     68  C   UNL A   1      49.205  26.287  25.634  1.00  0.00     0.041 A 
ATOM     69  F   UNL A   1      47.929  26.355  27.596  1.00  0.00    -0.206 F 
ATOM     70  C   UNL A   1      49.367  26.598  24.288  1.00  0.00     0.022 A 
BRANCH  67  71
ATOM     71  S   UNL A   1      48.477  27.639  21.859  1.00  0.00     0.124 S 
ATOM     72  O   UNL A   1      49.590  28.574  21.719  1.00  0.00    -0.237 OA
ATOM     73  O   UNL A   1      48.714  26.284  21.374  1.00  0.00    -0.237 OA
ATOM     74  O   UNL A   1      47.162  28.194  21.543  1.00  0.00    -0.744 OA
ENDBRANCH  67  71
ENDBRANCH  50  64
BRANCH  51  75
ATOM     75  C   UNL A   1      38.750  29.865  30.730  1.00  0.00     0.023 A 
ATOM     76  C   UNL A   1      37.743  30.701  30.220  1.00  0.00     0.031 A 
ATOM     77  C   UNL A   1      38.614  29.409  32.055  1.00  0.00     0.131 A 
ATOM     78  C   UNL A   1      36.670  31.087  31.041  1.00  0.00     0.055 A 
ATOM     79  C   UNL A   1      37.517  29.751  32.848  1.00  0.00     0.041 A 
ATOM     80  F   UNL A   1      39.551  28.618  32.601  1.00  0.00    -0.206 F 
ATOM     81  C   UNL A   1      36.542  30.605  32.346  1.00  0.00     0.022 A 
BRANCH  78  82
ATOM     82  S   UNL A   1      35.480  32.302  30.407  1.00  0.00     0.124 S 
ATOM     83  O   UNL A   1      35.059  31.681  29.156  1.00  0.00    -0.237 OA
ATOM     84  O   UNL A   1      34.486  32.336  31.474  1.00  0.00    -0.237 OA
ATOM     85  O   UNL A   1      36.279  33.518  30.264  1.00  0.00    -0.744 OA
ENDBRANCH  78  82
ENDBRANCH  51  75
BRANCH  63  86
ATOM     86  C   UNL A   1      44.662  33.331  29.396  1.00  0.00     0.023 A 
ATOM     87  C   UNL A   1      45.390  33.605  30.566  1.00  0.00     0.031 A 
ATOM     88  C   UNL A   1      44.364  34.404  28.536  1.00  0.00     0.131 A 
ATOM     89  C   UNL A   1      45.750  34.927  30.872  1.00  0.00     0.055 A 
ATOM     90  C   UNL A   1      44.775  35.707  28.815  1.00  0.00     0.041 A 
ATOM     91  F   UNL A   1      43.672  34.199  27.404  1.00  0.00    -0.206 F 
ATOM     92  C   UNL A   1      45.461  35.977  29.995  1.00  0.00     0.022 A 
BRANCH  89  93
ATOM     93  S   UNL A   1      46.527  35.271  32.474  1.00  0.00     0.124 S 
ATOM     94  O   UNL A   1      46.181  36.674  32.685  1.00  0.00    -0.237 OA
ATOM     95  O   UNL A   1      45.869  34.312  33.354  1.00  0.00    -0.237 OA
ATOM     96  O   UNL A   1      47.945  35.014  32.229  1.00  0.00    -0.744 OA
ENDBRANCH  89  93
ENDBRANCH  63  86
ENDBRANCH  37  38
ENDBRANCH  30  32
ENDBRANCH  29  30
ENDBRANCH  28  29
ENDBRANCH  27  28
ENDBRANCH  26  27
ENDBRANCH  25  26
ENDBRANCH   1  25
TORSDOF 25
ENDMDL
MODEL 2
REMARK VINA RESULT:      -9.4      2.968      7.976
REMARK SMILES CC[C@H](C)[C@@H](NC(=O)/C=C/c1csc(C)n1)C(=O)OCCOCCOCCOC(=O)c1ccc(-c2c3nc(c(-c4cc(S(=O)(=O)[O-])ccc4F)c4ccc([nH]4)c(-c4cc(S(=O)(=O)[O-])ccc4F)c4nc(c(-c5cc(S(=O)(=O)[O-])ccc5F)c5ccc2[nH]5)C=C4)C=C3)cc1
REMARK SMILES IDX 23 1 22 2 21 3 20 4 19 5 17 6 18 7 5 8 3 9 4 10 2 11 1 12
REMARK SMILES IDX 6 13 7 14 8 16 9 17 10 18 11 19 12 20 16 21 13 22 14 23
REMARK SMILES IDX 15 24 24 25 25 26 26 27 27 28 28 29 29 30 30 31 31 32 32 33
REMARK SMILES IDX 93 34 33 35 92 36 34 37 35 38 36 39 86 40 37 41 91 42 85 43
REMARK SMILES IDX 87 44 38 45 90 46 84 47 83 48 39 50 71 51 51 52 70 53 52 54
REMARK SMILES IDX 55 55 69 56 88 57 53 58 54 59 68 61 89 62 56 63 40 64 41 65
REMARK SMILES IDX 49 66 42 67 48 68 50 69 47 70 43 71 44 72 45 73 46 74 72 75
REMARK SMILES IDX 73 76 81 77 74 78 80 79 82 80 79 81 75 82 76 83 77 84 78 85
REMARK SMILES IDX 57 86 58 87 66 88 59 89 65 90 67 91 64 92 60 93 61 94 62 95
REMARK SMILES IDX 63 96
REMARK H PARENT 6 15 87 49 55 60
REMARK Flexibility Score: inf
ROOT
ATOM      1  C   UNL A   1      38.616  21.581  25.733  1.00  0.00     0.188 C 
ENDROOT
BRANCH   1   2
ATOM      2  O   UNL A   1      37.380  22.283  25.812  1.00  0.00    -0.376 OA
BRANCH   2   3
ATOM      3  C   UNL A   1      36.528  22.051  24.696  1.00  0.00     0.202 C 
BRANCH   3   4
ATOM      4  C   UNL A   1      35.859  23.277  24.062  1.00  0.00     0.261 C 
BRANCH   4   5
ATOM      5  O   UNL A   1      35.193  23.237  22.774  1.00  0.00    -0.462 OA
BRANCH   5   6
ATOM      6  C   UNL A   1      33.924  23.650  22.558  1.00  0.00     0.329 C 
ATOM      7  O   UNL A   1      33.303  23.552  21.505  1.00  0.00    -0.250 OA
BRANCH   6   8
ATOM      8  C   UNL A   1      33.350  24.403  23.765  1.00  0.00     0.195 C 
BRANCH   8   9
ATOM      9  C   UNL A   1      33.262  25.949  23.507  1.00  0.00     0.019 C 
ATOM     10  C   UNL A   1      31.832  26.447  23.237  1.00  0.00     0.010 C 
BRANCH   9  11
ATOM     11  C   UNL A   1      33.865  26.847  24.622  1.00  0.00     0.002 C 
ATOM     12  C   UNL A   1      33.375  26.576  26.038  1.00  0.00     0.004 C 
ENDBRANCH   9  11
ENDBRANCH   8   9
BRANCH   8  13
ATOM     13  N   UNL A   1      32.044  23.824  24.177  1.00  0.00    -0.339 N 
ATOM     14  C   UNL A   1      31.768  22.731  24.953  1.00  0.00     0.244 C 
ATOM     15  H   UNL A   1      31.253  24.302  23.840  1.00  0.00     0.164 HD
ATOM     16  O   UNL A   1      30.762  22.716  25.655  1.00  0.00    -0.270 OA
BRANCH  14  17
ATOM     17  C   UNL A   1      32.556  21.499  24.767  1.00  0.00     0.073 C 
ATOM     18  C   UNL A   1      32.089  20.283  25.090  1.00  0.00     0.035 C 
BRANCH  18  19
ATOM     19  C   UNL A   1      32.874  19.086  25.038  1.00  0.00     0.074 A 
ATOM     20  C   UNL A   1      34.141  19.013  24.494  1.00  0.00     0.095 A 
ATOM     21  N   UNL A   1      32.321  17.872  25.417  1.00  0.00    -0.242 NA
ATOM     22  S   UNL A   1      34.677  17.382  24.486  1.00  0.00    -0.127 S 
ATOM     23  C   UNL A   1      33.168  16.896  25.153  1.00  0.00     0.090 A 
ATOM     24  C   UNL A   1      32.861  15.445  25.309  1.00  0.00     0.079 C 
ENDBRANCH  18  19
ENDBRANCH  14  17
ENDBRANCH   8  13
ENDBRANCH   6   8
ENDBRANCH   5   6
ENDBRANCH   4   5
ENDBRANCH   3   4
ENDBRANCH   2   3
ENDBRANCH   1   2
BRANCH   1  25
ATOM     25  C   UNL A   1      39.698  22.298  26.519  1.00  0.00     0.188 C 
BRANCH  25  26
ATOM     26  O   UNL A   1      40.242  21.564  27.598  1.00  0.00    -0.376 OA
BRANCH  26  27
ATOM     27  C   UNL A   1      41.167  20.518  27.331  1.00  0.00     0.202 C 
BRANCH  27  28
ATOM     28  C   UNL A   1      42.290  20.651  26.282  1.00  0.00     0.261 C 
BRANCH  28  29
ATOM     29  O   UNL A   1      43.246  21.717  26.454  1.00  0.00    -0.460 OA
BRANCH  29  30
ATOM     30  C   UNL A   1      43.305  22.688  25.516  1.00  0.00     0.338 C 
ATOM     31  O   UNL A   1      43.246  22.533  24.305  1.00  0.00    -0.246 OA
BRANCH  30  32
ATOM     32  C   UNL A   1      43.173  23.991  26.218  1.00  0.00     0.060 A 
ATOM     33  C   UNL A   1      42.981  25.149  25.446  1.00  0.00     0.016 A 
ATOM     34  C   UNL A   1      43.181  24.078  27.612  1.00  0.00     0.016 A 
ATOM     35  C   UNL A   1      42.816  26.392  26.057  1.00  0.00     0.010 A 
ATOM     36  C   UNL A   1      43.066  25.333  28.224  1.00  0.00     0.010 A 
ATOM     37  C   UNL A   1      42.917  26.501  27.449  1.00  0.00    -0.014 A 
BRANCH  37  38
ATOM     38  C   UNL A   1      43.174  27.835  28.052  1.00  0.00     0.031 A 
ATOM     39  C   UNL A   1      41.991  28.563  28.634  1.00  0.00     0.074 A 
ATOM     40  C   UNL A   1      44.405  28.367  28.152  1.00  0.00     0.049 A 
ATOM     41  N   UNL A   1      41.899  29.783  29.092  1.00  0.00    -0.248 NA
ATOM     42  C   UNL A   1      40.735  27.797  28.703  1.00  0.00     0.031 C 
ATOM     43  C   UNL A   1      45.648  27.720  27.736  1.00  0.00     0.029 A 
ATOM     44  N   UNL A   1      44.810  29.588  28.639  1.00  0.00    -0.354 N 
ATOM     45  C   UNL A   1      40.571  29.939  29.479  1.00  0.00     0.074 A 
ATOM     46  C   UNL A   1      39.894  28.697  29.182  1.00  0.00     0.031 C 
ATOM     47  C   UNL A   1      46.674  28.557  27.972  1.00  0.00     0.029 A 
ATOM     48  C   UNL A   1      46.159  29.820  28.500  1.00  0.00     0.049 A 
ATOM     49  H   UNL A   1      44.191  30.236  29.049  1.00  0.00     0.167 HD
ATOM     50  C   UNL A   1      39.970  31.022  30.031  1.00  0.00     0.034 A 
ATOM     51  C   UNL A   1      46.881  30.937  28.732  1.00  0.00     0.034 A 
ATOM     52  C   UNL A   1      40.659  32.253  30.320  1.00  0.00     0.049 A 
ATOM     53  C   UNL A   1      46.173  32.175  29.243  1.00  0.00     0.074 A 
ATOM     54  C   UNL A   1      40.147  33.426  30.846  1.00  0.00     0.029 A 
ATOM     55  N   UNL A   1      42.014  32.472  30.106  1.00  0.00    -0.354 N 
ATOM     56  N   UNL A   1      44.904  32.340  29.538  1.00  0.00    -0.248 NA
ATOM     57  C   UNL A   1      46.996  33.376  29.445  1.00  0.00     0.031 C 
ATOM     58  C   UNL A   1      41.177  34.372  30.889  1.00  0.00     0.029 A 
ATOM     59  C   UNL A   1      42.349  33.767  30.464  1.00  0.00     0.049 A 
ATOM     60  H   UNL A   1      42.643  31.804  29.749  1.00  0.00     0.167 HD
ATOM     61  C   UNL A   1      44.783  33.656  29.983  1.00  0.00     0.074 A 
ATOM     62  C   UNL A   1      46.111  34.233  29.932  1.00  0.00     0.031 C 
ATOM     63  C   UNL A   1      43.679  34.328  30.399  1.00  0.00     0.034 A 
BRANCH  50  64
ATOM     64  C   UNL A   1      38.483  30.930  30.273  1.00  0.00     0.023 A 
ATOM     65  C   UNL A   1      37.546  31.416  29.343  1.00  0.00     0.031 A 
ATOM     66  C   UNL A   1      37.998  30.409  31.486  1.00  0.00     0.131 A 
ATOM     67  C   UNL A   1      36.183  31.443  29.675  1.00  0.00     0.055 A 
ATOM     68  C   UNL A   1      36.634  30.362  31.774  1.00  0.00     0.041 A 
ATOM     69  F   UNL A   1      38.847  29.959  32.424  1.00  0.00    -0.206 F 
ATOM     70  C   UNL A   1      35.718  30.897  30.873  1.00  0.00     0.022 A 
BRANCH  67  71
ATOM     71  S   UNL A   1      35.045  32.350  28.591  1.00  0.00     0.124 S 
ATOM     72  O   UNL A   1      34.010  32.769  29.533  1.00  0.00    -0.237 OA
ATOM     73  O   UNL A   1      35.894  33.411  28.060  1.00  0.00    -0.237 OA
ATOM     74  O   UNL A   1      34.623  31.343  27.619  1.00  0.00    -0.744 OA
ENDBRANCH  67  71
ENDBRANCH  50  64
BRANCH  51  75
ATOM     75  C   UNL A   1      48.340  30.983  28.409  1.00  0.00     0.023 A 
ATOM     76  C   UNL A   1      49.305  30.465  29.288  1.00  0.00     0.031 A 
ATOM     77  C   UNL A   1      48.793  31.619  27.238  1.00  0.00     0.131 A 
ATOM     78  C   UNL A   1      50.672  30.628  29.003  1.00  0.00     0.055 A 
ATOM     79  C   UNL A   1      50.151  31.728  26.932  1.00  0.00     0.041 A 
ATOM     80  F   UNL A   1      47.918  32.144  26.367  1.00  0.00    -0.206 F 
ATOM     81  C   UNL A   1      51.101  31.242  27.824  1.00  0.00     0.022 A 
BRANCH  78  82
ATOM     82  S   UNL A   1      51.890  30.100  30.240  1.00  0.00     0.124 S 
ATOM     83  O   UNL A   1      53.139  30.558  29.641  1.00  0.00    -0.237 OA
ATOM     84  O   UNL A   1      51.445  30.820  31.428  1.00  0.00    -0.237 OA
ATOM     85  O   UNL A   1      51.716  28.650  30.292  1.00  0.00    -0.744 OA
ENDBRANCH  78  82
ENDBRANCH  51  75
BRANCH  63  86
ATOM     86  C   UNL A   1      43.873  35.746  30.881  1.00  0.00     0.023 A 
ATOM     87  C   UNL A   1      43.745  36.847  30.017  1.00  0.00     0.031 A 
ATOM     88  C   UNL A   1      44.189  35.995  32.229  1.00  0.00     0.131 A 
ATOM     89  C   UNL A   1      43.983  38.144  30.498  1.00  0.00     0.055 A 
ATOM     90  C   UNL A   1      44.367  37.291  32.715  1.00  0.00     0.041 A 
ATOM     91  F   UNL A   1      44.322  34.981  33.097  1.00  0.00    -0.206 F 
ATOM     92  C   UNL A   1      44.277  38.373  31.846  1.00  0.00     0.022 A 
BRANCH  89  93
ATOM     93  S   UNL A   1      43.989  39.525  29.322  1.00  0.00     0.124 S 
ATOM     94  O   UNL A   1      45.176  40.268  29.732  1.00  0.00    -0.237 OA
ATOM     95  O   UNL A   1      44.077  38.840  28.037  1.00  0.00    -0.237 OA
ATOM     96  O   UNL A   1      42.717  40.199  29.578  1.00  0.00    -0.744 OA
ENDBRANCH  89  93
ENDBRANCH  63  86
ENDBRANCH  37  38
ENDBRANCH  30  32
ENDBRANCH  29  30
ENDBRANCH  28  29
ENDBRANCH  27  28
ENDBRANCH  26  27
ENDBRANCH  25  26
ENDBRANCH   1  25
TORSDOF 25
ENDMDL
MODEL 3
REMARK VINA RESULT:      -9.3      4.708      7.516
REMARK SMILES CC[C@H](C)[C@@H](NC(=O)/C=C/c1csc(C)n1)C(=O)OCCOCCOCCOC(=O)c1ccc(-c2c3nc(c(-c4cc(S(=O)(=O)[O-])ccc4F)c4ccc([nH]4)c(-c4cc(S(=O)(=O)[O-])ccc4F)c4nc(c(-c5cc(S(=O)(=O)[O-])ccc5F)c5ccc2[nH]5)C=C4)C=C3)cc1
REMARK SMILES IDX 23 1 22 2 21 3 20 4 19 5 17 6 18 7 5 8 3 9 4 10 2 11 1 12
REMARK SMILES IDX 6 13 7 14 8 16 9 17 10 18 11 19 12 20 16 21 13 22 14 23
REMARK SMILES IDX 15 24 24 25 25 26 26 27 27 28 28 29 29 30 30 31 31 32 32 33
REMARK SMILES IDX 93 34 33 35 92 36 34 37 35 38 36 39 86 40 37 41 91 42 85 43
REMARK SMILES IDX 87 44 38 45 90 46 84 47 83 48 39 50 71 51 51 52 70 53 52 54
REMARK SMILES IDX 55 55 69 56 88 57 53 58 54 59 68 61 89 62 56 63 40 64 41 65
REMARK SMILES IDX 49 66 42 67 48 68 50 69 47 70 43 71 44 72 45 73 46 74 72 75
REMARK SMILES IDX 73 76 81 77 74 78 80 79 82 80 79 81 75 82 76 83 77 84 78 85
REMARK SMILES IDX 57 86 58 87 66 88 59 89 65 90 67 91 64 92 60 93 61 94 62 95
REMARK SMILES IDX 63 96
REMARK H PARENT 6 15 87 49 55 60
REMARK Flexibility Score: inf
ROOT
ATOM      1  C   UNL A   1      39.441  21.156  25.805  1.00  0.00     0.188 C 
ENDROOT
BRANCH   1   2
ATOM      2  O   UNL A   1      38.083  21.579  25.854  1.00  0.00    -0.376 OA
BRANCH   2   3
ATOM      3  C   UNL A   1      37.195  20.702  25.170  1.00  0.00     0.202 C 
BRANCH   3   4
ATOM      4  C   UNL A   1      35.745  21.173  24.998  1.00  0.00     0.261 C 
BRANCH   4   5
ATOM      5  O   UNL A   1      35.255  21.797  23.784  1.00  0.00    -0.462 OA
BRANCH   5   6
ATOM      6  C   UNL A   1      34.637  22.999  23.739  1.00  0.00     0.329 C 
ATOM      7  O   UNL A   1      35.112  24.068  24.102  1.00  0.00    -0.250 OA
BRANCH   6   8
ATOM      8  C   UNL A   1      33.175  22.877  23.292  1.00  0.00     0.195 C 
BRANCH   8   9
ATOM      9  C   UNL A   1      32.174  23.210  24.454  1.00  0.00     0.019 C 
ATOM     10  C   UNL A   1      30.698  23.176  24.023  1.00  0.00     0.010 C 
BRANCH   9  11
ATOM     11  C   UNL A   1      32.309  22.327  25.725  1.00  0.00     0.002 C 
ATOM     12  C   UNL A   1      33.142  22.910  26.860  1.00  0.00     0.004 C 
ENDBRANCH   9  11
ENDBRANCH   8   9
BRANCH   8  13
ATOM     13  N   UNL A   1      32.923  23.697  22.077  1.00  0.00    -0.339 N 
ATOM     14  C   UNL A   1      32.959  25.054  21.905  1.00  0.00     0.244 C 
ATOM     15  H   UNL A   1      32.695  23.183  21.269  1.00  0.00     0.164 HD
ATOM     16  O   UNL A   1      33.301  25.525  20.824  1.00  0.00    -0.270 OA
BRANCH  14  17
ATOM     17  C   UNL A   1      32.374  25.927  22.939  1.00  0.00     0.073 C 
ATOM     18  C   UNL A   1      32.619  27.245  22.999  1.00  0.00     0.035 C 
BRANCH  18  19
ATOM     19  C   UNL A   1      32.168  28.093  24.061  1.00  0.00     0.074 A 
ATOM     20  C   UNL A   1      32.110  29.470  23.982  1.00  0.00     0.095 A 
ATOM     21  N   UNL A   1      31.894  27.560  25.312  1.00  0.00    -0.242 NA
ATOM     22  S   UNL A   1      31.664  30.122  25.507  1.00  0.00    -0.127 S 
ATOM     23  C   UNL A   1      31.638  28.534  26.164  1.00  0.00     0.090 A 
ATOM     24  C   UNL A   1      31.427  28.342  27.628  1.00  0.00     0.079 C 
ENDBRANCH  18  19
ENDBRANCH  14  17
ENDBRANCH   8  13
ENDBRANCH   6   8
ENDBRANCH   5   6
ENDBRANCH   4   5
ENDBRANCH   3   4
ENDBRANCH   2   3
ENDBRANCH   1   2
BRANCH   1  25
ATOM     25  C   UNL A   1      40.274  21.888  26.841  1.00  0.00     0.188 C 
BRANCH  25  26
ATOM     26  O   UNL A   1      41.352  21.146  27.377  1.00  0.00    -0.376 OA
BRANCH  26  27
ATOM     27  C   UNL A   1      42.405  20.728  26.517  1.00  0.00     0.202 C 
BRANCH  27  28
ATOM     28  C   UNL A   1      43.154  21.705  25.588  1.00  0.00     0.261 C 
BRANCH  28  29
ATOM     29  O   UNL A   1      43.836  22.821  26.196  1.00  0.00    -0.460 OA
BRANCH  29  30
ATOM     30  C   UNL A   1      43.855  24.001  25.539  1.00  0.00     0.338 C 
ATOM     31  O   UNL A   1      44.225  24.186  24.387  1.00  0.00    -0.246 OA
BRANCH  30  32
ATOM     32  C   UNL A   1      43.092  24.979  26.357  1.00  0.00     0.060 A 
ATOM     33  C   UNL A   1      43.608  26.276  26.501  1.00  0.00     0.016 A 
ATOM     34  C   UNL A   1      41.862  24.651  26.932  1.00  0.00     0.016 A 
ATOM     35  C   UNL A   1      42.913  27.242  27.229  1.00  0.00     0.010 A 
ATOM     36  C   UNL A   1      41.188  25.605  27.706  1.00  0.00     0.010 A 
ATOM     37  C   UNL A   1      41.727  26.895  27.887  1.00  0.00    -0.014 A 
BRANCH  37  38
ATOM     38  C   UNL A   1      41.231  27.764  28.987  1.00  0.00     0.031 A 
ATOM     39  C   UNL A   1      42.041  27.791  30.256  1.00  0.00     0.074 A 
ATOM     40  C   UNL A   1      40.151  28.555  28.864  1.00  0.00     0.049 A 
ATOM     41  N   UNL A   1      41.775  28.340  31.411  1.00  0.00    -0.248 NA
ATOM     42  C   UNL A   1      43.336  27.090  30.207  1.00  0.00     0.031 C 
ATOM     43  C   UNL A   1      39.346  28.713  27.654  1.00  0.00     0.029 A 
ATOM     44  N   UNL A   1      39.542  29.380  29.781  1.00  0.00    -0.354 N 
ATOM     45  C   UNL A   1      42.855  28.032  32.233  1.00  0.00     0.074 A 
ATOM     46  C   UNL A   1      43.767  27.229  31.449  1.00  0.00     0.031 C 
ATOM     47  C   UNL A   1      38.340  29.569  27.909  1.00  0.00     0.029 A 
ATOM     48  C   UNL A   1      38.394  29.976  29.314  1.00  0.00     0.049 A 
ATOM     49  H   UNL A   1      39.895  29.528  30.688  1.00  0.00     0.167 HD
ATOM     50  C   UNL A   1      43.066  28.385  33.524  1.00  0.00     0.034 A 
ATOM     51  C   UNL A   1      37.474  30.724  29.959  1.00  0.00     0.034 A 
ATOM     52  C   UNL A   1      42.146  29.184  34.291  1.00  0.00     0.049 A 
ATOM     53  C   UNL A   1      37.668  31.014  31.433  1.00  0.00     0.074 A 
ATOM     54  C   UNL A   1      42.238  29.575  35.615  1.00  0.00     0.029 A 
ATOM     55  N   UNL A   1      40.961  29.717  33.801  1.00  0.00    -0.354 N 
ATOM     56  N   UNL A   1      38.654  30.659  32.224  1.00  0.00    -0.248 NA
ATOM     57  C   UNL A   1      36.621  31.802  32.099  1.00  0.00     0.031 C 
ATOM     58  C   UNL A   1      41.079  30.288  35.942  1.00  0.00     0.029 A 
ATOM     59  C   UNL A   1      40.301  30.411  34.802  1.00  0.00     0.049 A 
ATOM     60  H   UNL A   1      40.636  29.616  32.877  1.00  0.00     0.167 HD
ATOM     61  C   UNL A   1      38.356  31.200  33.474  1.00  0.00     0.074 A 
ATOM     62  C   UNL A   1      37.108  31.919  33.326  1.00  0.00     0.031 C 
ATOM     63  C   UNL A   1      39.051  31.116  34.638  1.00  0.00     0.034 A 
BRANCH  50  64
ATOM     64  C   UNL A   1      44.301  27.830  34.192  1.00  0.00     0.023 A 
ATOM     65  C   UNL A   1      44.301  26.582  34.838  1.00  0.00     0.031 A 
ATOM     66  C   UNL A   1      45.478  28.598  34.240  1.00  0.00     0.131 A 
ATOM     67  C   UNL A   1      45.427  26.174  35.570  1.00  0.00     0.055 A 
ATOM     68  C   UNL A   1      46.624  28.149  34.899  1.00  0.00     0.041 A 
ATOM     69  F   UNL A   1      45.527  29.811  33.668  1.00  0.00    -0.206 F 
ATOM     70  C   UNL A   1      46.596  26.938  35.584  1.00  0.00     0.022 A 
BRANCH  67  71
ATOM     71  S   UNL A   1      45.285  24.713  36.636  1.00  0.00     0.124 S 
ATOM     72  O   UNL A   1      45.692  23.644  35.727  1.00  0.00    -0.237 OA
ATOM     73  O   UNL A   1      46.214  25.021  37.717  1.00  0.00    -0.237 OA
ATOM     74  O   UNL A   1      43.872  24.698  37.011  1.00  0.00    -0.744 OA
ENDBRANCH  67  71
ENDBRANCH  50  64
BRANCH  51  75
ATOM     75  C   UNL A   1      36.238  31.187  29.257  1.00  0.00     0.023 A 
ATOM     76  C   UNL A   1      35.797  32.518  29.344  1.00  0.00     0.031 A 
ATOM     77  C   UNL A   1      35.437  30.276  28.543  1.00  0.00     0.131 A 
ATOM     78  C   UNL A   1      34.572  32.889  28.764  1.00  0.00     0.055 A 
ATOM     79  C   UNL A   1      34.248  30.663  27.921  1.00  0.00     0.041 A 
ATOM     80  F   UNL A   1      35.801  28.989  28.436  1.00  0.00    -0.206 F 
ATOM     81  C   UNL A   1      33.802  31.975  28.041  1.00  0.00     0.022 A 
BRANCH  78  82
ATOM     82  S   UNL A   1      33.949  34.572  29.042  1.00  0.00     0.124 S 
ATOM     83  O   UNL A   1      33.990  34.666  30.497  1.00  0.00    -0.237 OA
ATOM     84  O   UNL A   1      34.925  35.378  28.318  1.00  0.00    -0.237 OA
ATOM     85  O   UNL A   1      32.611  34.540  28.454  1.00  0.00    -0.744 OA
ENDBRANCH  78  82
ENDBRANCH  51  75
BRANCH  63  86
ATOM     86  C   UNL A   1      38.498  31.864  35.828  1.00  0.00     0.023 A 
ATOM     87  C   UNL A   1      37.906  31.197  36.914  1.00  0.00     0.031 A 
ATOM     88  C   UNL A   1      38.570  33.268  35.873  1.00  0.00     0.131 A 
ATOM     89  C   UNL A   1      37.361  31.937  37.975  1.00  0.00     0.055 A 
ATOM     90  C   UNL A   1      38.080  33.995  36.958  1.00  0.00     0.041 A 
ATOM     91  F   UNL A   1      39.127  33.955  34.863  1.00  0.00    -0.206 F 
ATOM     92  C   UNL A   1      37.460  33.331  38.011  1.00  0.00     0.022 A 
BRANCH  89  93
ATOM     93  S   UNL A   1      36.445  31.059  39.272  1.00  0.00     0.124 S 
ATOM     94  O   UNL A   1      37.426  31.002  40.351  1.00  0.00    -0.237 OA
ATOM     95  O   UNL A   1      35.301  31.937  39.494  1.00  0.00    -0.237 OA
ATOM     96  O   UNL A   1      36.126  29.773  38.655  1.00  0.00    -0.744 OA
ENDBRANCH  89  93
ENDBRANCH  63  86
ENDBRANCH  37  38
ENDBRANCH  30  32
ENDBRANCH  29  30
ENDBRANCH  28  29
ENDBRANCH  27  28
ENDBRANCH  26  27
ENDBRANCH  25  26
ENDBRANCH   1  25
TORSDOF 25
ENDMDL
