MODEL 1
REMARK VINA RESULT:     -10.7      0.000      0.000
REMARK SMILES CC(C)(C)C[N@H+]1[C@@H](C(=O)OCCOCCOCCOC(=O)c2ccc(-c3c4nc(c(-c5cc(S(=O)(=O)[O-])ccc5F)c5ccc([nH]5)c(-c5cc(S(=O)(=O)[O-])ccc5F)c5nc(c(-c6cc(S(=O)(=O)[O-])ccc6F)c6ccc3[nH]6)C=C5)C=C4)cc2)CC[C@H]2CCCC[C@@H]21
REMARK SMILES IDX 15 1 14 2 13 3 12 4 11 5 10 6 8 7 9 8 7 9 6 10 92 11 85 13
REMARK SMILES IDX 87 14 91 15 86 16 88 17 90 18 89 19 5 20 2 21 1 22 3 23 4 24
REMARK SMILES IDX 16 25 17 26 18 27 19 28 20 29 21 30 22 31 23 32 84 33 24 34
REMARK SMILES IDX 83 35 25 36 26 37 27 38 77 39 28 40 82 41 76 42 78 43 29 44
REMARK SMILES IDX 81 45 75 46 74 47 30 49 62 50 42 51 61 52 43 53 46 54 60 55
REMARK SMILES IDX 79 56 44 57 45 58 59 60 80 61 47 62 31 63 32 64 40 65 33 66
REMARK SMILES IDX 39 67 41 68 38 69 34 70 35 71 36 72 37 73 63 74 64 75 72 76
REMARK SMILES IDX 65 77 71 78 73 79 70 80 66 81 67 82 68 83 69 84 48 85 49 86
REMARK SMILES IDX 57 87 50 88 56 89 58 90 55 91 51 92 52 93 53 94 54 95
REMARK H PARENT 6 12 78 48 46 59
REMARK Flexibility Score: inf
ROOT
ATOM      1  C   UNL A   1      34.030  22.028  24.896  1.00  0.00     0.188 C 
ENDROOT
BRANCH   1   2
ATOM      2  C   UNL A   1      32.943  21.781  25.988  1.00  0.00     0.188 C 
BRANCH   2   3
ATOM      3  O   UNL A   1      31.703  22.487  25.850  1.00  0.00    -0.376 OA
BRANCH   3   4
ATOM      4  C   UNL A   1      31.283  22.871  24.520  1.00  0.00     0.202 C 
BRANCH   4   5
ATOM      5  C   UNL A   1      31.772  24.260  24.003  1.00  0.00     0.261 C 
BRANCH   5   6
ATOM      6  O   UNL A   1      31.364  24.547  22.623  1.00  0.00    -0.459 OA
BRANCH   6   7
ATOM      7  C   UNL A   1      31.638  25.805  22.150  1.00  0.00     0.364 C 
ATOM      8  O   UNL A   1      31.425  26.111  20.977  1.00  0.00    -0.245 OA
BRANCH   7   9
ATOM      9  C   UNL A   1      32.265  26.833  23.160  1.00  0.00     0.295 C 
ATOM     10  N   UNL A   1      31.405  27.906  23.745  1.00  0.00    -0.320 N 
ATOM     11  C   UNL A   1      32.058  28.480  24.957  1.00  0.00     0.187 C 
ATOM     12  H   UNL A   1      30.527  27.421  23.929  1.00  0.00     0.349 HD
ATOM     13  C   UNL A   1      33.597  27.444  22.645  1.00  0.00     0.078 C 
ATOM     14  C   UNL A   1      33.597  28.344  24.989  1.00  0.00     0.048 C 
ATOM     15  C   UNL A   1      31.498  27.908  26.265  1.00  0.00     0.065 C 
ATOM     16  C   UNL A   1      34.184  28.520  23.593  1.00  0.00     0.016 C 
ATOM     17  C   UNL A   1      34.121  29.314  26.051  1.00  0.00     0.010 C 
ATOM     18  C   UNL A   1      32.052  28.706  27.456  1.00  0.00     0.006 C 
ATOM     19  C   UNL A   1      33.576  28.897  27.425  1.00  0.00     0.001 C 
BRANCH  10  20
ATOM     20  C   UNL A   1      31.100  29.071  22.863  1.00  0.00     0.269 C 
BRANCH  20  21
ATOM     21  C   UNL A   1      29.642  29.498  22.725  1.00  0.00     0.011 C 
ATOM     22  C   UNL A   1      29.353  30.242  21.411  1.00  0.00     0.017 C 
ATOM     23  C   UNL A   1      29.325  30.563  23.763  1.00  0.00     0.017 C 
ATOM     24  C   UNL A   1      28.815  28.282  23.138  1.00  0.00     0.017 C 
ENDBRANCH  20  21
ENDBRANCH  10  20
ENDBRANCH   7   9
ENDBRANCH   6   7
ENDBRANCH   5   6
ENDBRANCH   4   5
ENDBRANCH   3   4
ENDBRANCH   2   3
ENDBRANCH   1   2
BRANCH   1  25
ATOM     25  O   UNL A   1      34.992  20.985  24.862  1.00  0.00    -0.376 OA
BRANCH  25  26
ATOM     26  C   UNL A   1      36.361  21.296  24.624  1.00  0.00     0.202 C 
BRANCH  26  27
ATOM     27  C   UNL A   1      37.376  21.216  25.774  1.00  0.00     0.261 C 
BRANCH  27  28
ATOM     28  O   UNL A   1      38.544  22.036  25.609  1.00  0.00    -0.460 OA
BRANCH  28  29
ATOM     29  C   UNL A   1      39.491  22.024  26.583  1.00  0.00     0.338 C 
ATOM     30  O   UNL A   1      40.034  21.036  27.049  1.00  0.00    -0.246 OA
BRANCH  29  31
ATOM     31  C   UNL A   1      39.822  23.440  26.938  1.00  0.00     0.060 A 
ATOM     32  C   UNL A   1      39.220  24.492  26.231  1.00  0.00     0.016 A 
ATOM     33  C   UNL A   1      40.606  23.730  28.065  1.00  0.00     0.016 A 
ATOM     34  C   UNL A   1      39.309  25.807  26.717  1.00  0.00     0.010 A 
ATOM     35  C   UNL A   1      40.736  25.049  28.519  1.00  0.00     0.010 A 
ATOM     36  C   UNL A   1      40.075  26.097  27.863  1.00  0.00    -0.014 A 
BRANCH  36  37
ATOM     37  C   UNL A   1      40.409  27.508  28.204  1.00  0.00     0.031 A 
ATOM     38  C   UNL A   1      41.857  27.899  28.098  1.00  0.00     0.074 A 
ATOM     39  C   UNL A   1      39.505  28.414  28.630  1.00  0.00     0.049 A 
ATOM     40  N   UNL A   1      42.427  29.058  28.302  1.00  0.00    -0.248 NA
ATOM     41  C   UNL A   1      42.785  26.827  27.704  1.00  0.00     0.031 C 
ATOM     42  C   UNL A   1      38.068  28.191  28.781  1.00  0.00     0.029 A 
ATOM     43  N   UNL A   1      39.678  29.722  29.031  1.00  0.00    -0.354 N 
ATOM     44  C   UNL A   1      43.771  28.865  28.009  1.00  0.00     0.074 A 
ATOM     45  C   UNL A   1      43.938  27.470  27.665  1.00  0.00     0.031 C 
ATOM     46  C   UNL A   1      37.496  29.317  29.255  1.00  0.00     0.029 A 
ATOM     47  C   UNL A   1      38.525  30.339  29.461  1.00  0.00     0.049 A 
ATOM     48  H   UNL A   1      40.552  30.176  29.009  1.00  0.00     0.167 HD
ATOM     49  C   UNL A   1      44.783  29.762  28.016  1.00  0.00     0.034 A 
ATOM     50  C   UNL A   1      38.329  31.575  29.977  1.00  0.00     0.034 A 
ATOM     51  C   UNL A   1      44.653  31.121  28.463  1.00  0.00     0.049 A 
ATOM     52  C   UNL A   1      39.509  32.518  30.126  1.00  0.00     0.074 A 
ATOM     53  C   UNL A   1      45.631  32.096  28.547  1.00  0.00     0.029 A 
ATOM     54  N   UNL A   1      43.483  31.686  28.947  1.00  0.00    -0.354 N 
ATOM     55  N   UNL A   1      40.764  32.340  29.781  1.00  0.00    -0.248 NA
ATOM     56  C   UNL A   1      39.241  33.831  30.733  1.00  0.00     0.031 C 
ATOM     57  C   UNL A   1      45.069  33.225  29.151  1.00  0.00     0.029 A 
ATOM     58  C   UNL A   1      43.722  32.983  29.369  1.00  0.00     0.049 A 
ATOM     59  H   UNL A   1      42.610  31.232  28.985  1.00  0.00     0.167 HD
ATOM     60  C   UNL A   1      41.418  33.535  30.090  1.00  0.00     0.074 A 
ATOM     61  C   UNL A   1      40.423  34.424  30.644  1.00  0.00     0.031 C 
ATOM     62  C   UNL A   1      42.724  33.868  29.921  1.00  0.00     0.034 A 
BRANCH  49  63
ATOM     63  C   UNL A   1      46.128  29.247  27.584  1.00  0.00     0.023 A 
ATOM     64  C   UNL A   1      46.385  28.942  26.235  1.00  0.00     0.031 A 
ATOM     65  C   UNL A   1      47.126  28.970  28.532  1.00  0.00     0.131 A 
ATOM     66  C   UNL A   1      47.580  28.303  25.882  1.00  0.00     0.055 A 
ATOM     67  C   UNL A   1      48.347  28.406  28.161  1.00  0.00     0.041 A 
ATOM     68  F   UNL A   1      46.915  29.208  29.835  1.00  0.00    -0.206 F 
ATOM     69  C   UNL A   1      48.573  28.054  26.833  1.00  0.00     0.022 A 
BRANCH  66  70
ATOM     70  S   UNL A   1      47.747  27.657  24.196  1.00  0.00     0.124 S 
ATOM     71  O   UNL A   1      47.217  26.303  24.345  1.00  0.00    -0.237 OA
ATOM     72  O   UNL A   1      46.929  28.581  23.420  1.00  0.00    -0.237 OA
ATOM     73  O   UNL A   1      49.185  27.731  23.943  1.00  0.00    -0.744 OA
ENDBRANCH  66  70
ENDBRANCH  49  63
BRANCH  50  74
ATOM     74  C   UNL A   1      36.980  32.015  30.454  1.00  0.00     0.023 A 
ATOM     75  C   UNL A   1      36.059  32.619  29.580  1.00  0.00     0.031 A 
ATOM     76  C   UNL A   1      36.648  31.961  31.819  1.00  0.00     0.131 A 
ATOM     77  C   UNL A   1      34.886  33.203  30.088  1.00  0.00     0.055 A 
ATOM     78  C   UNL A   1      35.454  32.493  32.311  1.00  0.00     0.041 A 
ATOM     79  F   UNL A   1      37.494  31.406  32.702  1.00  0.00    -0.206 F 
ATOM     80  C   UNL A   1      34.572  33.135  31.447  1.00  0.00     0.022 A 
BRANCH  77  81
ATOM     81  S   UNL A   1      33.826  34.157  28.964  1.00  0.00     0.124 S 
ATOM     82  O   UNL A   1      34.764  35.143  28.438  1.00  0.00    -0.237 OA
ATOM     83  O   UNL A   1      33.379  33.133  28.026  1.00  0.00    -0.237 OA
ATOM     84  O   UNL A   1      32.788  34.690  29.843  1.00  0.00    -0.744 OA
ENDBRANCH  77  81
ENDBRANCH  50  74
BRANCH  62  85
ATOM     85  C   UNL A   1      43.146  35.274  30.280  1.00  0.00     0.023 A 
ATOM     86  C   UNL A   1      43.392  35.667  31.607  1.00  0.00     0.031 A 
ATOM     87  C   UNL A   1      43.332  36.230  29.263  1.00  0.00     0.131 A 
ATOM     88  C   UNL A   1      43.773  36.990  31.886  1.00  0.00     0.055 A 
ATOM     89  C   UNL A   1      43.763  37.527  29.542  1.00  0.00     0.041 A 
ATOM     90  F   UNL A   1      43.114  35.911  27.977  1.00  0.00    -0.206 F 
ATOM     91  C   UNL A   1      43.977  37.917  30.860  1.00  0.00     0.022 A 
BRANCH  88  92
ATOM     92  S   UNL A   1      43.939  37.509  33.617  1.00  0.00     0.124 S 
ATOM     93  O   UNL A   1      42.937  38.565  33.717  1.00  0.00    -0.237 OA
ATOM     94  O   UNL A   1      43.642  36.277  34.342  1.00  0.00    -0.237 OA
ATOM     95  O   UNL A   1      45.327  37.959  33.709  1.00  0.00    -0.744 OA
ENDBRANCH  88  92
ENDBRANCH  62  85
ENDBRANCH  36  37
ENDBRANCH  29  31
ENDBRANCH  28  29
ENDBRANCH  27  28
ENDBRANCH  26  27
ENDBRANCH  25  26
ENDBRANCH   1  25
TORSDOF 22
ENDMDL
MODEL 2
REMARK VINA RESULT:     -10.1      3.487      5.347
REMARK SMILES CC(C)(C)C[N@H+]1[C@@H](C(=O)OCCOCCOCCOC(=O)c2ccc(-c3c4nc(c(-c5cc(S(=O)(=O)[O-])ccc5F)c5ccc([nH]5)c(-c5cc(S(=O)(=O)[O-])ccc5F)c5nc(c(-c6cc(S(=O)(=O)[O-])ccc6F)c6ccc3[nH]6)C=C5)C=C4)cc2)CC[C@H]2CCCC[C@@H]21
REMARK SMILES IDX 15 1 14 2 13 3 12 4 11 5 10 6 8 7 9 8 7 9 6 10 92 11 85 13
REMARK SMILES IDX 87 14 91 15 86 16 88 17 90 18 89 19 5 20 2 21 1 22 3 23 4 24
REMARK SMILES IDX 16 25 17 26 18 27 19 28 20 29 21 30 22 31 23 32 84 33 24 34
REMARK SMILES IDX 83 35 25 36 26 37 27 38 77 39 28 40 82 41 76 42 78 43 29 44
REMARK SMILES IDX 81 45 75 46 74 47 30 49 62 50 42 51 61 52 43 53 46 54 60 55
REMARK SMILES IDX 79 56 44 57 45 58 59 60 80 61 47 62 31 63 32 64 40 65 33 66
REMARK SMILES IDX 39 67 41 68 38 69 34 70 35 71 36 72 37 73 63 74 64 75 72 76
REMARK SMILES IDX 65 77 71 78 73 79 70 80 66 81 67 82 68 83 69 84 48 85 49 86
REMARK SMILES IDX 57 87 50 88 56 89 58 90 55 91 51 92 52 93 53 94 54 95
REMARK H PARENT 6 12 78 48 46 59
REMARK Flexibility Score: inf
ROOT
ATOM      1  C   UNL A   1      40.871  21.475  27.409  1.00  0.00     0.188 C 
ENDROOT
BRANCH   1   2
ATOM      2  C   UNL A   1      39.891  22.268  26.492  1.00  0.00     0.188 C 
BRANCH   2   3
ATOM      3  O   UNL A   1      39.049  23.244  27.120  1.00  0.00    -0.376 OA
BRANCH   3   4
ATOM      4  C   UNL A   1      38.321  24.162  26.271  1.00  0.00     0.202 C 
BRANCH   4   5
ATOM      5  C   UNL A   1      36.836  23.798  25.955  1.00  0.00     0.261 C 
BRANCH   5   6
ATOM      6  O   UNL A   1      36.595  23.506  24.538  1.00  0.00    -0.459 OA
BRANCH   6   7
ATOM      7  C   UNL A   1      35.285  23.384  24.150  1.00  0.00     0.364 C 
ATOM      8  O   UNL A   1      34.811  22.297  23.820  1.00  0.00    -0.245 OA
BRANCH   7   9
ATOM      9  C   UNL A   1      34.420  24.695  24.112  1.00  0.00     0.295 C 
ATOM     10  N   UNL A   1      33.413  24.943  25.189  1.00  0.00    -0.320 N 
ATOM     11  C   UNL A   1      33.026  26.383  25.205  1.00  0.00     0.187 C 
ATOM     12  H   UNL A   1      33.895  24.626  26.030  1.00  0.00     0.349 HD
ATOM     13  C   UNL A   1      33.781  24.954  22.720  1.00  0.00     0.078 C 
ATOM     14  C   UNL A   1      33.207  27.118  23.857  1.00  0.00     0.048 C 
ATOM     15  C   UNL A   1      33.755  27.186  26.290  1.00  0.00     0.065 C 
ATOM     16  C   UNL A   1      32.859  26.199  22.691  1.00  0.00     0.016 C 
ATOM     17  C   UNL A   1      32.403  28.419  23.933  1.00  0.00     0.010 C 
ATOM     18  C   UNL A   1      33.140  28.591  26.393  1.00  0.00     0.006 C 
ATOM     19  C   UNL A   1      32.988  29.306  25.042  1.00  0.00     0.001 C 
BRANCH  10  20
ATOM     20  C   UNL A   1      32.132  24.184  25.091  1.00  0.00     0.269 C 
BRANCH  20  21
ATOM     21  C   UNL A   1      31.948  22.976  26.004  1.00  0.00     0.011 C 
ATOM     22  C   UNL A   1      31.819  21.651  25.233  1.00  0.00     0.017 C 
ATOM     23  C   UNL A   1      30.598  23.065  26.698  1.00  0.00     0.017 C 
ATOM     24  C   UNL A   1      32.980  23.139  27.118  1.00  0.00     0.017 C 
ENDBRANCH  20  21
ENDBRANCH  10  20
ENDBRANCH   7   9
ENDBRANCH   6   7
ENDBRANCH   5   6
ENDBRANCH   4   5
ENDBRANCH   3   4
ENDBRANCH   2   3
ENDBRANCH   1   2
BRANCH   1  25
ATOM     25  O   UNL A   1      41.951  20.919  26.674  1.00  0.00    -0.376 OA
BRANCH  25  26
ATOM     26  C   UNL A   1      41.979  19.520  26.410  1.00  0.00     0.202 C 
BRANCH  26  27
ATOM     27  C   UNL A   1      43.166  18.906  25.653  1.00  0.00     0.261 C 
BRANCH  27  28
ATOM     28  O   UNL A   1      43.594  19.644  24.497  1.00  0.00    -0.460 OA
BRANCH  28  29
ATOM     29  C   UNL A   1      44.882  20.073  24.438  1.00  0.00     0.338 C 
ATOM     30  O   UNL A   1      45.829  19.450  23.987  1.00  0.00    -0.246 OA
BRANCH  29  31
ATOM     31  C   UNL A   1      44.936  21.479  24.947  1.00  0.00     0.060 A 
ATOM     32  C   UNL A   1      44.469  22.528  24.141  1.00  0.00     0.016 A 
ATOM     33  C   UNL A   1      45.307  21.746  26.274  1.00  0.00     0.016 A 
ATOM     34  C   UNL A   1      44.266  23.803  24.694  1.00  0.00     0.010 A 
ATOM     35  C   UNL A   1      45.151  23.031  26.810  1.00  0.00     0.010 A 
ATOM     36  C   UNL A   1      44.612  24.067  26.033  1.00  0.00    -0.014 A 
BRANCH  36  37
ATOM     37  C   UNL A   1      44.675  25.470  26.529  1.00  0.00     0.031 A 
ATOM     38  C   UNL A   1      46.033  26.115  26.547  1.00  0.00     0.074 A 
ATOM     39  C   UNL A   1      43.607  26.154  26.988  1.00  0.00     0.049 A 
ATOM     40  N   UNL A   1      46.378  27.326  26.897  1.00  0.00    -0.248 NA
ATOM     41  C   UNL A   1      47.153  25.268  26.106  1.00  0.00     0.031 C 
ATOM     42  C   UNL A   1      42.228  25.671  27.032  1.00  0.00     0.029 A 
ATOM     43  N   UNL A   1      43.527  27.422  27.524  1.00  0.00    -0.354 N 
ATOM     44  C   UNL A   1      47.745  27.402  26.666  1.00  0.00     0.074 A 
ATOM     45  C   UNL A   1      48.173  26.102  26.198  1.00  0.00     0.031 C 
ATOM     46  C   UNL A   1      41.445  26.624  27.578  1.00  0.00     0.029 A 
ATOM     47  C   UNL A   1      42.266  27.780  27.944  1.00  0.00     0.049 A 
ATOM     48  H   UNL A   1      44.306  28.021  27.598  1.00  0.00     0.167 HD
ATOM     49  C   UNL A   1      48.580  28.455  26.821  1.00  0.00     0.034 A 
ATOM     50  C   UNL A   1      41.832  28.902  28.565  1.00  0.00     0.034 A 
ATOM     51  C   UNL A   1      48.192  29.715  27.390  1.00  0.00     0.049 A 
ATOM     52  C   UNL A   1      42.817  30.014  28.874  1.00  0.00     0.074 A 
ATOM     53  C   UNL A   1      48.975  30.831  27.625  1.00  0.00     0.029 A 
ATOM     54  N   UNL A   1      46.920  30.014  27.857  1.00  0.00    -0.354 N 
ATOM     55  N   UNL A   1      44.097  30.094  28.588  1.00  0.00    -0.248 NA
ATOM     56  C   UNL A   1      42.295  31.189  29.590  1.00  0.00     0.031 C 
ATOM     57  C   UNL A   1      48.196  31.775  28.302  1.00  0.00     0.029 A 
ATOM     58  C   UNL A   1      46.907  31.281  28.416  1.00  0.00     0.049 A 
ATOM     59  H   UNL A   1      46.142  29.414  27.798  1.00  0.00     0.167 HD
ATOM     60  C   UNL A   1      44.513  31.344  29.050  1.00  0.00     0.074 A 
ATOM     61  C   UNL A   1      43.354  31.984  29.629  1.00  0.00     0.031 C 
ATOM     62  C   UNL A   1      45.745  31.916  28.992  1.00  0.00     0.034 A 
BRANCH  49  63
ATOM     63  C   UNL A   1      50.012  28.230  26.420  1.00  0.00     0.023 A 
ATOM     64  C   UNL A   1      50.454  28.535  25.120  1.00  0.00     0.031 A 
ATOM     65  C   UNL A   1      50.915  27.623  27.307  1.00  0.00     0.131 A 
ATOM     66  C   UNL A   1      51.742  28.158  24.718  1.00  0.00     0.055 A 
ATOM     67  C   UNL A   1      52.223  27.323  26.923  1.00  0.00     0.041 A 
ATOM     68  F   UNL A   1      50.530  27.278  28.545  1.00  0.00    -0.206 F 
ATOM     69  C   UNL A   1      52.637  27.574  25.618  1.00  0.00     0.022 A 
BRANCH  66  70
ATOM     70  S   UNL A   1      52.170  28.291  22.961  1.00  0.00     0.124 S 
ATOM     71  O   UNL A   1      53.584  28.656  23.029  1.00  0.00    -0.237 OA
ATOM     72  O   UNL A   1      51.879  26.953  22.462  1.00  0.00    -0.237 OA
ATOM     73  O   UNL A   1      51.285  29.347  22.473  1.00  0.00    -0.744 OA
ENDBRANCH  66  70
ENDBRANCH  49  63
BRANCH  50  74
ATOM     74  C   UNL A   1      40.407  29.048  29.002  1.00  0.00     0.023 A 
ATOM     75  C   UNL A   1      40.043  28.922  30.354  1.00  0.00     0.031 A 
ATOM     76  C   UNL A   1      39.376  29.183  28.056  1.00  0.00     0.131 A 
ATOM     77  C   UNL A   1      38.686  28.864  30.714  1.00  0.00     0.055 A 
ATOM     78  C   UNL A   1      38.029  29.180  28.426  1.00  0.00     0.041 A 
ATOM     79  F   UNL A   1      39.663  29.295  26.750  1.00  0.00    -0.206 F 
ATOM     80  C   UNL A   1      37.676  29.003  29.760  1.00  0.00     0.022 A 
BRANCH  77  81
ATOM     81  S   UNL A   1      38.254  28.488  32.438  1.00  0.00     0.124 S 
ATOM     82  O   UNL A   1      36.892  29.003  32.521  1.00  0.00    -0.237 OA
ATOM     83  O   UNL A   1      38.395  27.036  32.476  1.00  0.00    -0.237 OA
ATOM     84  O   UNL A   1      39.251  29.228  33.208  1.00  0.00    -0.744 OA
ENDBRANCH  77  81
ENDBRANCH  50  74
BRANCH  62  85
ATOM     85  C   UNL A   1      45.894  33.326  29.510  1.00  0.00     0.023 A 
ATOM     86  C   UNL A   1      45.678  34.452  28.695  1.00  0.00     0.031 A 
ATOM     87  C   UNL A   1      46.231  33.545  30.860  1.00  0.00     0.131 A 
ATOM     88  C   UNL A   1      45.839  35.742  29.227  1.00  0.00     0.055 A 
ATOM     89  C   UNL A   1      46.337  34.829  31.395  1.00  0.00     0.041 A 
ATOM     90  F   UNL A   1      46.447  32.509  31.686  1.00  0.00    -0.206 F 
ATOM     91  C   UNL A   1      46.150  35.938  30.575  1.00  0.00     0.022 A 
BRANCH  88  92
ATOM     92  S   UNL A   1      45.700  37.171  28.117  1.00  0.00     0.124 S 
ATOM     93  O   UNL A   1      45.327  36.542  26.854  1.00  0.00    -0.237 OA
ATOM     94  O   UNL A   1      44.663  37.969  28.763  1.00  0.00    -0.237 OA
ATOM     95  O   UNL A   1      47.038  37.760  28.145  1.00  0.00    -0.744 OA
ENDBRANCH  88  92
ENDBRANCH  62  85
ENDBRANCH  36  37
ENDBRANCH  29  31
ENDBRANCH  28  29
ENDBRANCH  27  28
ENDBRANCH  26  27
ENDBRANCH  25  26
ENDBRANCH   1  25
TORSDOF 22
ENDMDL
MODEL 3
REMARK VINA RESULT:     -10.0      2.258      7.765
REMARK SMILES CC(C)(C)C[N@H+]1[C@@H](C(=O)OCCOCCOCCOC(=O)c2ccc(-c3c4nc(c(-c5cc(S(=O)(=O)[O-])ccc5F)c5ccc([nH]5)c(-c5cc(S(=O)(=O)[O-])ccc5F)c5nc(c(-c6cc(S(=O)(=O)[O-])ccc6F)c6ccc3[nH]6)C=C5)C=C4)cc2)CC[C@H]2CCCC[C@@H]21
REMARK SMILES IDX 15 1 14 2 13 3 12 4 11 5 10 6 8 7 9 8 7 9 6 10 92 11 85 13
REMARK SMILES IDX 87 14 91 15 86 16 88 17 90 18 89 19 5 20 2 21 1 22 3 23 4 24
REMARK SMILES IDX 16 25 17 26 18 27 19 28 20 29 21 30 22 31 23 32 84 33 24 34
REMARK SMILES IDX 83 35 25 36 26 37 27 38 77 39 28 40 82 41 76 42 78 43 29 44
REMARK SMILES IDX 81 45 75 46 74 47 30 49 62 50 42 51 61 52 43 53 46 54 60 55
REMARK SMILES IDX 79 56 44 57 45 58 59 60 80 61 47 62 31 63 32 64 40 65 33 66
REMARK SMILES IDX 39 67 41 68 38 69 34 70 35 71 36 72 37 73 63 74 64 75 72 76
REMARK SMILES IDX 65 77 71 78 73 79 70 80 66 81 67 82 68 83 69 84 48 85 49 86
REMARK SMILES IDX 57 87 50 88 56 89 58 90 55 91 51 92 52 93 53 94 54 95
REMARK H PARENT 6 12 78 48 46 59
REMARK Flexibility Score: inf
ROOT
ATOM      1  C   UNL A   1      33.427  22.891  25.943  1.00  0.00     0.188 C 
ENDROOT
BRANCH   1   2
ATOM      2  C   UNL A   1      32.562  22.964  27.238  1.00  0.00     0.188 C 
BRANCH   2   3
ATOM      3  O   UNL A   1      31.321  23.679  27.158  1.00  0.00    -0.376 OA
BRANCH   3   4
ATOM      4  C   UNL A   1      30.546  23.562  25.942  1.00  0.00     0.202 C 
BRANCH   4   5
ATOM      5  C   UNL A   1      30.441  24.841  25.052  1.00  0.00     0.261 C 
BRANCH   5   6
ATOM      6  O   UNL A   1      30.559  24.564  23.616  1.00  0.00    -0.459 OA
BRANCH   6   7
ATOM      7  C   UNL A   1      31.420  25.360  22.906  1.00  0.00     0.364 C 
ATOM      8  O   UNL A   1      31.661  25.147  21.717  1.00  0.00    -0.245 OA
BRANCH   7   9
ATOM      9  C   UNL A   1      32.115  26.538  23.679  1.00  0.00     0.295 C 
ATOM     10  N   UNL A   1      31.331  27.768  24.004  1.00  0.00    -0.320 N 
ATOM     11  C   UNL A   1      32.020  28.546  25.074  1.00  0.00     0.187 C 
ATOM     12  H   UNL A   1      30.421  27.394  24.275  1.00  0.00     0.349 HD
ATOM     13  C   UNL A   1      33.487  26.933  23.066  1.00  0.00     0.078 C 
ATOM     14  C   UNL A   1      33.546  28.317  25.160  1.00  0.00     0.048 C 
ATOM     15  C   UNL A   1      31.420  28.309  26.466  1.00  0.00     0.065 C 
ATOM     16  C   UNL A   1      34.145  28.147  23.768  1.00  0.00     0.016 C 
ATOM     17  C   UNL A   1      34.133  29.458  25.996  1.00  0.00     0.010 C 
ATOM     18  C   UNL A   1      32.026  29.308  27.465  1.00  0.00     0.006 C 
ATOM     19  C   UNL A   1      33.559  29.386  27.418  1.00  0.00     0.001 C 
BRANCH  10  20
ATOM     20  C   UNL A   1      31.107  28.732  22.887  1.00  0.00     0.269 C 
BRANCH  20  21
ATOM     21  C   UNL A   1      29.731  29.378  22.768  1.00  0.00     0.011 C 
ATOM     22  C   UNL A   1      29.556  30.189  21.473  1.00  0.00     0.017 C 
ATOM     23  C   UNL A   1      29.581  30.453  23.832  1.00  0.00     0.017 C 
ATOM     24  C   UNL A   1      28.729  28.292  23.156  1.00  0.00     0.017 C 
ENDBRANCH  20  21
ENDBRANCH  10  20
ENDBRANCH   7   9
ENDBRANCH   6   7
ENDBRANCH   5   6
ENDBRANCH   4   5
ENDBRANCH   3   4
ENDBRANCH   2   3
ENDBRANCH   1   2
BRANCH   1  25
ATOM     25  O   UNL A   1      33.592  21.555  25.492  1.00  0.00    -0.376 OA
BRANCH  25  26
ATOM     26  C   UNL A   1      34.729  21.210  24.707  1.00  0.00     0.202 C 
BRANCH  26  27
ATOM     27  C   UNL A   1      36.005  20.697  25.391  1.00  0.00     0.261 C 
BRANCH  27  28
ATOM     28  O   UNL A   1      37.178  21.494  25.163  1.00  0.00    -0.460 OA
BRANCH  28  29
ATOM     29  C   UNL A   1      38.364  21.067  25.668  1.00  0.00     0.338 C 
ATOM     30  O   UNL A   1      38.760  19.914  25.705  1.00  0.00    -0.246 OA
BRANCH  29  31
ATOM     31  C   UNL A   1      39.151  22.264  26.103  1.00  0.00     0.060 A 
ATOM     32  C   UNL A   1      40.509  22.121  26.429  1.00  0.00     0.016 A 
ATOM     33  C   UNL A   1      38.591  23.549  26.044  1.00  0.00     0.016 A 
ATOM     34  C   UNL A   1      41.319  23.259  26.578  1.00  0.00     0.010 A 
ATOM     35  C   UNL A   1      39.391  24.682  26.243  1.00  0.00     0.010 A 
ATOM     36  C   UNL A   1      40.764  24.550  26.493  1.00  0.00    -0.014 A 
BRANCH  36  37
ATOM     37  C   UNL A   1      41.551  25.735  26.937  1.00  0.00     0.031 A 
ATOM     38  C   UNL A   1      40.824  26.743  27.784  1.00  0.00     0.074 A 
ATOM     39  C   UNL A   1      42.834  25.959  26.591  1.00  0.00     0.049 A 
ATOM     40  N   UNL A   1      41.262  27.845  28.332  1.00  0.00    -0.248 NA
ATOM     41  C   UNL A   1      39.404  26.458  28.045  1.00  0.00     0.031 C 
ATOM     42  C   UNL A   1      43.675  25.078  25.782  1.00  0.00     0.029 A 
ATOM     43  N   UNL A   1      43.659  27.026  26.878  1.00  0.00    -0.354 N 
ATOM     44  C   UNL A   1      40.187  28.356  29.047  1.00  0.00     0.074 A 
ATOM     45  C   UNL A   1      39.064  27.473  28.818  1.00  0.00     0.031 C 
ATOM     46  C   UNL A   1      44.887  25.648  25.626  1.00  0.00     0.029 A 
ATOM     47  C   UNL A   1      44.909  26.945  26.306  1.00  0.00     0.049 A 
ATOM     48  H   UNL A   1      43.378  27.781  27.444  1.00  0.00     0.167 HD
ATOM     49  C   UNL A   1      40.128  29.457  29.830  1.00  0.00     0.034 A 
ATOM     50  C   UNL A   1      45.939  27.822  26.317  1.00  0.00     0.034 A 
ATOM     51  C   UNL A   1      41.200  30.402  29.975  1.00  0.00     0.049 A 
ATOM     52  C   UNL A   1      45.799  29.131  27.074  1.00  0.00     0.074 A 
ATOM     53  C   UNL A   1      41.222  31.571  30.715  1.00  0.00     0.029 A 
ATOM     54  N   UNL A   1      42.426  30.313  29.331  1.00  0.00    -0.354 N 
ATOM     55  N   UNL A   1      44.795  29.567  27.800  1.00  0.00    -0.248 NA
ATOM     56  C   UNL A   1      46.936  30.063  27.013  1.00  0.00     0.031 C 
ATOM     57  C   UNL A   1      42.432  32.225  30.458  1.00  0.00     0.029 A 
ATOM     58  C   UNL A   1      43.196  31.425  29.624  1.00  0.00     0.049 A 
ATOM     59  H   UNL A   1      42.706  29.567  28.752  1.00  0.00     0.167 HD
ATOM     60  C   UNL A   1      45.203  30.800  28.313  1.00  0.00     0.074 A 
ATOM     61  C   UNL A   1      46.540  31.037  27.819  1.00  0.00     0.031 C 
ATOM     62  C   UNL A   1      44.533  31.656  29.129  1.00  0.00     0.034 A 
BRANCH  49  63
ATOM     63  C   UNL A   1      38.818  29.707  30.525  1.00  0.00     0.023 A 
ATOM     64  C   UNL A   1      37.917  30.673  30.041  1.00  0.00     0.031 A 
ATOM     65  C   UNL A   1      38.508  29.047  31.725  1.00  0.00     0.131 A 
ATOM     66  C   UNL A   1      36.787  31.010  30.797  1.00  0.00     0.055 A 
ATOM     67  C   UNL A   1      37.339  29.332  32.431  1.00  0.00     0.041 A 
ATOM     68  F   UNL A   1      39.353  28.145  32.246  1.00  0.00    -0.206 F 
ATOM     69  C   UNL A   1      36.480  30.329  31.978  1.00  0.00     0.022 A 
BRANCH  66  70
ATOM     70  S   UNL A   1      35.817  32.458  30.299  1.00  0.00     0.124 S 
ATOM     71  O   UNL A   1      36.635  33.553  30.816  1.00  0.00    -0.237 OA
ATOM     72  O   UNL A   1      35.772  32.325  28.848  1.00  0.00    -0.237 OA
ATOM     73  O   UNL A   1      34.541  32.267  30.984  1.00  0.00    -0.744 OA
ENDBRANCH  66  70
ENDBRANCH  49  63
BRANCH  50  74
ATOM     74  C   UNL A   1      47.199  27.554  25.554  1.00  0.00     0.023 A 
ATOM     75  C   UNL A   1      47.309  27.880  24.191  1.00  0.00     0.031 A 
ATOM     76  C   UNL A   1      48.260  26.847  26.145  1.00  0.00     0.131 A 
ATOM     77  C   UNL A   1      48.419  27.440  23.450  1.00  0.00     0.055 A 
ATOM     78  C   UNL A   1      49.388  26.461  25.417  1.00  0.00     0.041 A 
ATOM     79  F   UNL A   1      48.206  26.498  27.441  1.00  0.00    -0.206 F 
ATOM     80  C   UNL A   1      49.465  26.742  24.056  1.00  0.00     0.022 A 
BRANCH  77  81
ATOM     81  S   UNL A   1      48.426  27.694  21.652  1.00  0.00     0.124 S 
ATOM     82  O   UNL A   1      49.600  28.541  21.477  1.00  0.00    -0.237 OA
ATOM     83  O   UNL A   1      48.540  26.328  21.153  1.00  0.00    -0.237 OA
ATOM     84  O   UNL A   1      47.143  28.344  21.394  1.00  0.00    -0.744 OA
ENDBRANCH  77  81
ENDBRANCH  50  74
BRANCH  62  85
ATOM     85  C   UNL A   1      45.254  32.899  29.592  1.00  0.00     0.023 A 
ATOM     86  C   UNL A   1      45.253  34.090  28.844  1.00  0.00     0.031 A 
ATOM     87  C   UNL A   1      45.932  32.897  30.826  1.00  0.00     0.131 A 
ATOM     88  C   UNL A   1      45.949  35.215  29.318  1.00  0.00     0.055 A 
ATOM     89  C   UNL A   1      46.575  34.034  31.317  1.00  0.00     0.041 A 
ATOM     90  F   UNL A   1      45.964  31.789  31.585  1.00  0.00    -0.206 F 
ATOM     91  C   UNL A   1      46.594  35.199  30.557  1.00  0.00     0.022 A 
BRANCH  88  92
ATOM     92  S   UNL A   1      46.056  36.688  28.263  1.00  0.00     0.124 S 
ATOM     93  O   UNL A   1      47.489  36.772  28.001  1.00  0.00    -0.237 OA
ATOM     94  O   UNL A   1      45.220  36.319  27.125  1.00  0.00    -0.237 OA
ATOM     95  O   UNL A   1      45.516  37.753  29.106  1.00  0.00    -0.744 OA
ENDBRANCH  88  92
ENDBRANCH  62  85
ENDBRANCH  36  37
ENDBRANCH  29  31
ENDBRANCH  28  29
ENDBRANCH  27  28
ENDBRANCH  26  27
ENDBRANCH  25  26
ENDBRANCH   1  25
TORSDOF 22
ENDMDL
