MODEL 1
REMARK VINA RESULT:     -12.4      0.000      0.000
REMARK SMILES CS(=O)(=O)c1ccc(C2=NN(c3ccc(C(=O)OCCOCCOCCOC(=O)c4ccc(-c5c6nc(c(-c7cc(S(=O)(=O)[O-])ccc7F)c7ccc([nH]7)c(-c7cc(S(=O)(=O)[O-])ccc7F)c7nc(c(-c8cc(S(=O)(=O)[O-])ccc8F)c8ccc5[nH]8)C=C7)C=C6)cc4)cc3)[C@H](c3ccc(F)cc3)C2)cc1
REMARK SMILES IDX 22 1 21 2 20 3 19 4 18 5 16 6 17 7 15 8 12 9 13 10 94 11
REMARK SMILES IDX 14 12 93 13 11 14 9 15 10 16 103 17 95 18 8 19 5 20 6 21
REMARK SMILES IDX 105 22 7 23 104 24 2 25 1 26 3 27 4 28 96 29 97 30 102 31
REMARK SMILES IDX 98 32 101 33 99 34 100 35 23 36 24 37 25 38 26 39 27 40
REMARK SMILES IDX 28 41 29 42 30 43 31 44 92 45 32 46 91 47 33 48 34 49 35 50
REMARK SMILES IDX 85 51 36 52 90 53 84 54 86 55 37 56 89 57 83 58 82 59 38 61
REMARK SMILES IDX 70 62 50 63 69 64 51 65 54 66 68 67 87 68 52 69 53 70 67 72
REMARK SMILES IDX 88 73 55 74 39 75 40 76 48 77 41 78 47 79 49 80 46 81 42 82
REMARK SMILES IDX 43 83 44 84 45 85 71 86 72 87 80 88 73 89 79 90 81 91 78 92
REMARK SMILES IDX 74 93 75 94 76 95 77 96 56 97 57 98 65 99 58 100 64 101
REMARK SMILES IDX 66 102 63 103 59 104 60 105 61 106 62 107
REMARK H PARENT 86 60 54 71
REMARK Flexibility Score: inf
ROOT
ATOM      1  C   UNL A   1      32.815  36.061  29.624  1.00  0.00     0.188 C 
ENDROOT
BRANCH   1   2
ATOM      2  O   UNL A   1      34.011  35.640  29.001  1.00  0.00    -0.376 OA
BRANCH   2   3
ATOM      3  C   UNL A   1      34.207  34.279  28.658  1.00  0.00     0.202 C 
BRANCH   3   4
ATOM      4  C   UNL A   1      33.119  33.382  28.045  1.00  0.00     0.261 C 
BRANCH   4   5
ATOM      5  O   UNL A   1      33.577  32.331  27.190  1.00  0.00    -0.460 OA
BRANCH   5   6
ATOM      6  C   UNL A   1      34.133  31.264  27.820  1.00  0.00     0.338 C 
ATOM      7  O   UNL A   1      34.893  31.297  28.774  1.00  0.00    -0.246 OA
BRANCH   6   8
ATOM      8  C   UNL A   1      33.575  29.999  27.281  1.00  0.00     0.060 A 
ATOM      9  C   UNL A   1      32.603  27.635  26.103  1.00  0.00     0.060 A 
ATOM     10  C   UNL A   1      33.981  27.843  26.239  1.00  0.00     0.029 A 
ATOM     11  C   UNL A   1      31.726  28.570  26.676  1.00  0.00     0.029 A 
ATOM     12  C   UNL A   1      34.466  29.023  26.816  1.00  0.00     0.018 A 
ATOM     13  C   UNL A   1      32.201  29.756  27.245  1.00  0.00     0.018 A 
BRANCH   9  14
ATOM     14  N   UNL A   1      32.087  26.614  25.289  1.00  0.00    -0.257 N 
ATOM     15  C   UNL A   1      32.340  24.622  24.541  1.00  0.00     0.071 C 
ATOM     16  N   UNL A   1      32.295  25.310  25.640  1.00  0.00    -0.176 NA
ATOM     17  C   UNL A   1      32.254  25.412  23.265  1.00  0.00     0.091 C 
ATOM     18  C   UNL A   1      32.139  26.834  23.827  1.00  0.00     0.144 C 
BRANCH  15  19
ATOM     19  C   UNL A   1      32.398  23.149  24.499  1.00  0.00    -0.002 A 
ATOM     20  C   UNL A   1      32.659  20.385  24.244  1.00  0.00     0.067 A 
ATOM     21  C   UNL A   1      31.974  21.107  23.262  1.00  0.00     0.021 A 
ATOM     22  C   UNL A   1      33.194  21.034  25.363  1.00  0.00     0.021 A 
ATOM     23  C   UNL A   1      31.831  22.492  23.401  1.00  0.00     0.011 A 
ATOM     24  C   UNL A   1      33.074  22.423  25.484  1.00  0.00     0.011 A 
BRANCH  20  25
ATOM     25  S   UNL A   1      32.912  18.632  24.052  1.00  0.00     0.175 S 
ATOM     26  C   UNL A   1      32.542  18.260  22.359  1.00  0.00     0.163 C 
ATOM     27  O   UNL A   1      31.921  17.962  24.873  1.00  0.00    -0.224 OA
ATOM     28  O   UNL A   1      34.328  18.404  24.272  1.00  0.00    -0.224 OA
ENDBRANCH  20  25
ENDBRANCH  15  19
BRANCH  18  29
ATOM     29  C   UNL A   1      30.971  27.700  23.354  1.00  0.00    -0.023 A 
ATOM     30  C   UNL A   1      31.109  28.805  22.499  1.00  0.00     0.009 A 
ATOM     31  C   UNL A   1      29.663  27.325  23.734  1.00  0.00     0.009 A 
ATOM     32  C   UNL A   1      29.983  29.493  22.029  1.00  0.00     0.039 A 
ATOM     33  C   UNL A   1      28.539  27.976  23.223  1.00  0.00     0.039 A 
ATOM     34  C   UNL A   1      28.711  29.058  22.376  1.00  0.00     0.123 A 
ATOM     35  F   UNL A   1      27.637  29.686  21.880  1.00  0.00    -0.207 F 
ENDBRANCH  18  29
ENDBRANCH   9  14
ENDBRANCH   6   8
ENDBRANCH   5   6
ENDBRANCH   4   5
ENDBRANCH   3   4
ENDBRANCH   2   3
ENDBRANCH   1   2
BRANCH   1  36
ATOM     36  C   UNL A   1      32.820  36.428  31.122  1.00  0.00     0.188 C 
BRANCH  36  37
ATOM     37  O   UNL A   1      34.053  36.582  31.786  1.00  0.00    -0.376 OA
BRANCH  37  38
ATOM     38  C   UNL A   1      34.619  35.495  32.498  1.00  0.00     0.202 C 
BRANCH  38  39
ATOM     39  C   UNL A   1      35.946  34.788  32.157  1.00  0.00     0.261 C 
BRANCH  39  40
ATOM     40  O   UNL A   1      36.333  33.664  32.947  1.00  0.00    -0.460 OA
BRANCH  40  41
ATOM     41  C   UNL A   1      35.765  32.485  32.595  1.00  0.00     0.338 C 
ATOM     42  O   UNL A   1      34.581  32.184  32.675  1.00  0.00    -0.246 OA
BRANCH  41  43
ATOM     43  C   UNL A   1      36.776  31.647  31.929  1.00  0.00     0.060 A 
ATOM     44  C   UNL A   1      37.666  30.889  32.706  1.00  0.00     0.016 A 
ATOM     45  C   UNL A   1      36.866  31.644  30.539  1.00  0.00     0.016 A 
ATOM     46  C   UNL A   1      38.663  30.133  32.088  1.00  0.00     0.010 A 
ATOM     47  C   UNL A   1      37.881  30.909  29.924  1.00  0.00     0.010 A 
ATOM     48  C   UNL A   1      38.802  30.173  30.696  1.00  0.00    -0.014 A 
BRANCH  48  49
ATOM     49  C   UNL A   1      40.019  29.638  30.038  1.00  0.00     0.031 A 
ATOM     50  C   UNL A   1      41.200  30.560  29.894  1.00  0.00     0.074 A 
ATOM     51  C   UNL A   1      40.066  28.386  29.546  1.00  0.00     0.049 A 
ATOM     52  N   UNL A   1      42.299  30.403  29.206  1.00  0.00    -0.248 NA
ATOM     53  C   UNL A   1      41.117  31.840  30.618  1.00  0.00     0.031 C 
ATOM     54  C   UNL A   1      39.014  27.382  29.683  1.00  0.00     0.029 A 
ATOM     55  N   UNL A   1      41.037  27.757  28.804  1.00  0.00    -0.354 N 
ATOM     56  C   UNL A   1      43.028  31.573  29.390  1.00  0.00     0.074 A 
ATOM     57  C   UNL A   1      42.239  32.436  30.243  1.00  0.00     0.031 C 
ATOM     58  C   UNL A   1      39.386  26.270  29.023  1.00  0.00     0.029 A 
ATOM     59  C   UNL A   1      40.673  26.503  28.368  1.00  0.00     0.049 A 
ATOM     60  H   UNL A   1      41.912  28.164  28.604  1.00  0.00     0.167 HD
ATOM     61  C   UNL A   1      44.242  31.897  28.885  1.00  0.00     0.034 A 
ATOM     62  C   UNL A   1      41.287  25.666  27.505  1.00  0.00     0.034 A 
ATOM     63  C   UNL A   1      45.011  31.025  28.035  1.00  0.00     0.049 A 
ATOM     64  C   UNL A   1      42.602  26.091  26.881  1.00  0.00     0.074 A 
ATOM     65  C   UNL A   1      46.261  31.247  27.485  1.00  0.00     0.029 A 
ATOM     66  N   UNL A   1      44.601  29.773  27.600  1.00  0.00    -0.354 N 
ATOM     67  N   UNL A   1      43.283  27.200  27.059  1.00  0.00    -0.248 NA
ATOM     68  C   UNL A   1      43.233  25.151  25.941  1.00  0.00     0.031 C 
ATOM     69  C   UNL A   1      46.569  30.168  26.652  1.00  0.00     0.029 A 
ATOM     70  C   UNL A   1      45.559  29.227  26.763  1.00  0.00     0.049 A 
ATOM     71  H   UNL A   1      43.754  29.337  27.849  1.00  0.00     0.167 HD
ATOM     72  C   UNL A   1      44.445  27.061  26.299  1.00  0.00     0.074 A 
ATOM     73  C   UNL A   1      44.371  25.766  25.660  1.00  0.00     0.031 C 
ATOM     74  C   UNL A   1      45.485  27.920  26.154  1.00  0.00     0.034 A 
BRANCH  61  75
ATOM     75  C   UNL A   1      44.787  33.270  29.187  1.00  0.00     0.023 A 
ATOM     76  C   UNL A   1      44.417  34.400  28.439  1.00  0.00     0.031 A 
ATOM     77  C   UNL A   1      45.683  33.448  30.256  1.00  0.00     0.131 A 
ATOM     78  C   UNL A   1      44.975  35.651  28.743  1.00  0.00     0.055 A 
ATOM     79  C   UNL A   1      46.176  34.707  30.601  1.00  0.00     0.041 A 
ATOM     80  F   UNL A   1      46.092  32.399  30.986  1.00  0.00    -0.206 F 
ATOM     81  C   UNL A   1      45.830  35.817  29.837  1.00  0.00     0.022 A 
BRANCH  78  82
ATOM     82  S   UNL A   1      44.653  37.042  27.625  1.00  0.00     0.124 S 
ATOM     83  O   UNL A   1      44.870  38.187  28.506  1.00  0.00    -0.237 OA
ATOM     84  O   UNL A   1      45.651  36.845  26.579  1.00  0.00    -0.237 OA
ATOM     85  O   UNL A   1      43.266  36.835  27.211  1.00  0.00    -0.744 OA
ENDBRANCH  78  82
ENDBRANCH  61  75
BRANCH  62  86
ATOM     86  C   UNL A   1      40.662  24.365  27.115  1.00  0.00     0.023 A 
ATOM     87  C   UNL A   1      39.448  24.330  26.408  1.00  0.00     0.031 A 
ATOM     88  C   UNL A   1      41.208  23.139  27.536  1.00  0.00     0.131 A 
ATOM     89  C   UNL A   1      38.785  23.109  26.212  1.00  0.00     0.055 A 
ATOM     90  C   UNL A   1      40.582  21.920  27.273  1.00  0.00     0.041 A 
ATOM     91  F   UNL A   1      42.360  23.109  28.225  1.00  0.00    -0.206 F 
ATOM     92  C   UNL A   1      39.350  21.902  26.626  1.00  0.00     0.022 A 
BRANCH  89  93
ATOM     93  S   UNL A   1      37.098  23.138  25.542  1.00  0.00     0.124 S 
ATOM     94  O   UNL A   1      36.635  24.453  25.972  1.00  0.00    -0.237 OA
ATOM     95  O   UNL A   1      37.338  22.976  24.112  1.00  0.00    -0.237 OA
ATOM     96  O   UNL A   1      36.452  22.003  26.198  1.00  0.00    -0.744 OA
ENDBRANCH  89  93
ENDBRANCH  62  86
BRANCH  74  97
ATOM     97  C   UNL A   1      46.679  27.455  25.355  1.00  0.00     0.023 A 
ATOM     98  C   UNL A   1      46.915  27.871  24.034  1.00  0.00     0.031 A 
ATOM     99  C   UNL A   1      47.623  26.600  25.958  1.00  0.00     0.131 A 
ATOM    100  C   UNL A   1      48.047  27.402  23.347  1.00  0.00     0.055 A 
ATOM    101  C   UNL A   1      48.776  26.189  25.291  1.00  0.00     0.041 A 
ATOM    102  F   UNL A   1      47.446  26.169  27.217  1.00  0.00    -0.206 F 
ATOM    103  C   UNL A   1      48.989  26.582  23.975  1.00  0.00     0.022 A 
BRANCH 100 104
ATOM    104  S   UNL A   1      48.245  27.825  21.594  1.00  0.00     0.124 S 
ATOM    105  O   UNL A   1      46.935  28.379  21.266  1.00  0.00    -0.237 OA
ATOM    106  O   UNL A   1      49.350  28.777  21.624  1.00  0.00    -0.237 OA
ATOM    107  O   UNL A   1      48.550  26.541  20.964  1.00  0.00    -0.744 OA
ENDBRANCH 100 104
ENDBRANCH  74  97
ENDBRANCH  48  49
ENDBRANCH  41  43
ENDBRANCH  40  41
ENDBRANCH  39  40
ENDBRANCH  38  39
ENDBRANCH  37  38
ENDBRANCH  36  37
ENDBRANCH   1  36
TORSDOF 24
ENDMDL
MODEL 2
REMARK VINA RESULT:     -11.6      2.017      2.386
REMARK SMILES CS(=O)(=O)c1ccc(C2=NN(c3ccc(C(=O)OCCOCCOCCOC(=O)c4ccc(-c5c6nc(c(-c7cc(S(=O)(=O)[O-])ccc7F)c7ccc([nH]7)c(-c7cc(S(=O)(=O)[O-])ccc7F)c7nc(c(-c8cc(S(=O)(=O)[O-])ccc8F)c8ccc5[nH]8)C=C7)C=C6)cc4)cc3)[C@H](c3ccc(F)cc3)C2)cc1
REMARK SMILES IDX 22 1 21 2 20 3 19 4 18 5 16 6 17 7 15 8 12 9 13 10 94 11
REMARK SMILES IDX 14 12 93 13 11 14 9 15 10 16 103 17 95 18 8 19 5 20 6 21
REMARK SMILES IDX 105 22 7 23 104 24 2 25 1 26 3 27 4 28 96 29 97 30 102 31
REMARK SMILES IDX 98 32 101 33 99 34 100 35 23 36 24 37 25 38 26 39 27 40
REMARK SMILES IDX 28 41 29 42 30 43 31 44 92 45 32 46 91 47 33 48 34 49 35 50
REMARK SMILES IDX 85 51 36 52 90 53 84 54 86 55 37 56 89 57 83 58 82 59 38 61
REMARK SMILES IDX 70 62 50 63 69 64 51 65 54 66 68 67 87 68 52 69 53 70 67 72
REMARK SMILES IDX 88 73 55 74 39 75 40 76 48 77 41 78 47 79 49 80 46 81 42 82
REMARK SMILES IDX 43 83 44 84 45 85 71 86 72 87 80 88 73 89 79 90 81 91 78 92
REMARK SMILES IDX 74 93 75 94 76 95 77 96 56 97 57 98 65 99 58 100 64 101
REMARK SMILES IDX 66 102 63 103 59 104 60 105 61 106 62 107
REMARK H PARENT 86 60 54 71
REMARK Flexibility Score: inf
ROOT
ATOM      1  C   UNL A   1      32.894  35.674  28.953  1.00  0.00     0.188 C 
ENDROOT
BRANCH   1   2
ATOM      2  O   UNL A   1      34.242  35.458  28.587  1.00  0.00    -0.376 OA
BRANCH   2   3
ATOM      3  C   UNL A   1      34.806  34.159  28.640  1.00  0.00     0.202 C 
BRANCH   3   4
ATOM      4  C   UNL A   1      34.006  32.888  28.970  1.00  0.00     0.261 C 
BRANCH   4   5
ATOM      5  O   UNL A   1      33.682  32.042  27.863  1.00  0.00    -0.460 OA
BRANCH   5   6
ATOM      6  C   UNL A   1      34.646  31.155  27.504  1.00  0.00     0.338 C 
ATOM      7  O   UNL A   1      35.851  31.303  27.622  1.00  0.00    -0.246 OA
BRANCH   6   8
ATOM      8  C   UNL A   1      34.033  29.878  27.063  1.00  0.00     0.060 A 
ATOM      9  C   UNL A   1      32.989  27.451  26.093  1.00  0.00     0.060 A 
ATOM     10  C   UNL A   1      34.324  27.532  26.506  1.00  0.00     0.029 A 
ATOM     11  C   UNL A   1      32.159  28.567  26.289  1.00  0.00     0.029 A 
ATOM     12  C   UNL A   1      34.848  28.741  26.980  1.00  0.00     0.018 A 
ATOM     13  C   UNL A   1      32.675  29.781  26.752  1.00  0.00     0.018 A 
BRANCH   9  14
ATOM     14  N   UNL A   1      32.508  26.355  25.358  1.00  0.00    -0.257 N 
ATOM     15  C   UNL A   1      32.875  24.356  24.681  1.00  0.00     0.071 C 
ATOM     16  N   UNL A   1      32.843  25.090  25.750  1.00  0.00    -0.176 NA
ATOM     17  C   UNL A   1      32.647  25.075  23.381  1.00  0.00     0.091 C 
ATOM     18  C   UNL A   1      32.452  26.509  23.887  1.00  0.00     0.144 C 
BRANCH  15  19
ATOM     19  C   UNL A   1      33.051  22.891  24.697  1.00  0.00    -0.002 A 
ATOM     20  C   UNL A   1      33.335  20.125  24.502  1.00  0.00     0.067 A 
ATOM     21  C   UNL A   1      32.064  20.697  24.398  1.00  0.00     0.021 A 
ATOM     22  C   UNL A   1      34.461  20.926  24.726  1.00  0.00     0.021 A 
ATOM     23  C   UNL A   1      31.922  22.084  24.512  1.00  0.00     0.011 A 
ATOM     24  C   UNL A   1      34.320  22.316  24.811  1.00  0.00     0.011 A 
BRANCH  20  25
ATOM     25  S   UNL A   1      33.546  18.368  24.291  1.00  0.00     0.175 S 
ATOM     26  C   UNL A   1      32.668  17.600  25.625  1.00  0.00     0.163 C 
ATOM     27  O   UNL A   1      34.957  18.079  24.472  1.00  0.00    -0.224 OA
ATOM     28  O   UNL A   1      32.878  18.030  23.048  1.00  0.00    -0.224 OA
ENDBRANCH  20  25
ENDBRANCH  15  19
BRANCH  18  29
ATOM     29  C   UNL A   1      31.191  27.257  23.455  1.00  0.00    -0.023 A 
ATOM     30  C   UNL A   1      29.890  26.884  23.828  1.00  0.00     0.009 A 
ATOM     31  C   UNL A   1      31.341  28.441  22.699  1.00  0.00     0.009 A 
ATOM     32  C   UNL A   1      28.789  27.674  23.476  1.00  0.00     0.039 A 
ATOM     33  C   UNL A   1      30.251  29.256  22.394  1.00  0.00     0.039 A 
ATOM     34  C   UNL A   1      28.981  28.862  22.784  1.00  0.00     0.123 A 
ATOM     35  F   UNL A   1      27.930  29.641  22.497  1.00  0.00    -0.207 F 
ENDBRANCH  18  29
ENDBRANCH   9  14
ENDBRANCH   6   8
ENDBRANCH   5   6
ENDBRANCH   4   5
ENDBRANCH   3   4
ENDBRANCH   2   3
ENDBRANCH   1   2
BRANCH   1  36
ATOM     36  C   UNL A   1      32.560  36.208  30.361  1.00  0.00     0.188 C 
BRANCH  36  37
ATOM     37  O   UNL A   1      33.604  36.398  31.289  1.00  0.00    -0.376 OA
BRANCH  37  38
ATOM     38  C   UNL A   1      34.050  35.318  32.090  1.00  0.00     0.202 C 
BRANCH  38  39
ATOM     39  C   UNL A   1      35.515  34.868  32.261  1.00  0.00     0.261 C 
BRANCH  39  40
ATOM     40  O   UNL A   1      35.770  33.664  32.985  1.00  0.00    -0.460 OA
BRANCH  40  41
ATOM     41  C   UNL A   1      35.675  32.522  32.261  1.00  0.00     0.338 C 
ATOM     42  O   UNL A   1      34.649  31.958  31.906  1.00  0.00    -0.246 OA
BRANCH  41  43
ATOM     43  C   UNL A   1      37.021  32.130  31.809  1.00  0.00     0.060 A 
ATOM     44  C   UNL A   1      37.467  32.531  30.541  1.00  0.00     0.016 A 
ATOM     45  C   UNL A   1      37.821  31.335  32.627  1.00  0.00     0.016 A 
ATOM     46  C   UNL A   1      38.719  32.121  30.079  1.00  0.00     0.010 A 
ATOM     47  C   UNL A   1      39.061  30.903  32.152  1.00  0.00     0.010 A 
ATOM     48  C   UNL A   1      39.504  31.270  30.866  1.00  0.00    -0.014 A 
BRANCH  48  49
ATOM     49  C   UNL A   1      40.683  30.576  30.291  1.00  0.00     0.031 A 
ATOM     50  C   UNL A   1      41.958  31.363  30.151  1.00  0.00     0.074 A 
ATOM     51  C   UNL A   1      40.618  29.301  29.866  1.00  0.00     0.049 A 
ATOM     52  N   UNL A   1      43.060  31.057  29.521  1.00  0.00    -0.248 NA
ATOM     53  C   UNL A   1      41.982  32.684  30.804  1.00  0.00     0.031 C 
ATOM     54  C   UNL A   1      39.461  28.419  30.008  1.00  0.00     0.029 A 
ATOM     55  N   UNL A   1      41.545  28.535  29.201  1.00  0.00    -0.354 N 
ATOM     56  C   UNL A   1      43.900  32.155  29.676  1.00  0.00     0.074 A 
ATOM     57  C   UNL A   1      43.174  33.139  30.448  1.00  0.00     0.031 C 
ATOM     58  C   UNL A   1      39.739  27.240  29.423  1.00  0.00     0.029 A 
ATOM     59  C   UNL A   1      41.068  27.303  28.814  1.00  0.00     0.049 A 
ATOM     60  H   UNL A   1      42.464  28.839  29.018  1.00  0.00     0.167 HD
ATOM     61  C   UNL A   1      45.159  32.324  29.209  1.00  0.00     0.034 A 
ATOM     62  C   UNL A   1      41.624  26.361  28.023  1.00  0.00     0.034 A 
ATOM     63  C   UNL A   1      45.865  31.331  28.439  1.00  0.00     0.049 A 
ATOM     64  C   UNL A   1      42.999  26.614  27.435  1.00  0.00     0.074 A 
ATOM     65  C   UNL A   1      47.151  31.393  27.933  1.00  0.00     0.029 A 
ATOM     66  N   UNL A   1      45.343  30.106  28.051  1.00  0.00    -0.354 N 
ATOM     67  N   UNL A   1      43.785  27.656  27.586  1.00  0.00    -0.248 NA
ATOM     68  C   UNL A   1      43.563  25.564  26.574  1.00  0.00     0.031 C 
ATOM     69  C   UNL A   1      47.377  30.244  27.171  1.00  0.00     0.029 A 
ATOM     70  C   UNL A   1      46.270  29.419  27.286  1.00  0.00     0.049 A 
ATOM     71  H   UNL A   1      44.446  29.774  28.285  1.00  0.00     0.167 HD
ATOM     72  C   UNL A   1      44.954  27.356  26.886  1.00  0.00     0.074 A 
ATOM     73  C   UNL A   1      44.770  26.042  26.311  1.00  0.00     0.031 C 
ATOM     74  C   UNL A   1      46.083  28.095  26.742  1.00  0.00     0.034 A 
BRANCH  61  75
ATOM     75  C   UNL A   1      45.833  33.648  29.463  1.00  0.00     0.023 A 
ATOM     76  C   UNL A   1      45.665  34.747  28.604  1.00  0.00     0.031 A 
ATOM     77  C   UNL A   1      46.647  33.813  30.598  1.00  0.00     0.131 A 
ATOM     78  C   UNL A   1      46.337  35.950  28.872  1.00  0.00     0.055 A 
ATOM     79  C   UNL A   1      47.253  35.034  30.898  1.00  0.00     0.041 A 
ATOM     80  F   UNL A   1      46.865  32.788  31.436  1.00  0.00    -0.206 F 
ATOM     81  C   UNL A   1      47.106  36.109  30.027  1.00  0.00     0.022 A 
BRANCH  78  82
ATOM     82  S   UNL A   1      46.279  37.272  27.631  1.00  0.00     0.124 S 
ATOM     83  O   UNL A   1      45.009  36.996  26.964  1.00  0.00    -0.237 OA
ATOM     84  O   UNL A   1      46.318  38.478  28.451  1.00  0.00    -0.237 OA
ATOM     85  O   UNL A   1      47.469  37.031  26.818  1.00  0.00    -0.744 OA
ENDBRANCH  78  82
ENDBRANCH  61  75
BRANCH  62  86
ATOM     86  C   UNL A   1      40.881  25.112  27.673  1.00  0.00     0.023 A 
ATOM     87  C   UNL A   1      41.451  23.846  27.892  1.00  0.00     0.031 A 
ATOM     88  C   UNL A   1      39.638  25.163  27.017  1.00  0.00     0.131 A 
ATOM     89  C   UNL A   1      40.821  22.696  27.392  1.00  0.00     0.055 A 
ATOM     90  C   UNL A   1      38.978  24.010  26.587  1.00  0.00     0.041 A 
ATOM     91  F   UNL A   1      39.048  26.344  26.770  1.00  0.00    -0.206 F 
ATOM     92  C   UNL A   1      39.581  22.767  26.755  1.00  0.00     0.022 A 
BRANCH  89  93
ATOM     93  S   UNL A   1      41.720  21.121  27.453  1.00  0.00     0.124 S 
ATOM     94  O   UNL A   1      40.728  20.241  28.062  1.00  0.00    -0.237 OA
ATOM     95  O   UNL A   1      42.010  20.884  26.042  1.00  0.00    -0.237 OA
ATOM     96  O   UNL A   1      42.881  21.424  28.285  1.00  0.00    -0.744 OA
ENDBRANCH  89  93
ENDBRANCH  62  86
BRANCH  74  97
ATOM     97  C   UNL A   1      47.251  27.466  26.021  1.00  0.00     0.023 A 
ATOM     98  C   UNL A   1      48.277  26.783  26.694  1.00  0.00     0.031 A 
ATOM     99  C   UNL A   1      47.308  27.524  24.614  1.00  0.00     0.131 A 
ATOM    100  C   UNL A   1      49.335  26.218  25.964  1.00  0.00     0.055 A 
ATOM    101  C   UNL A   1      48.328  26.908  23.892  1.00  0.00     0.041 A 
ATOM    102  F   UNL A   1      46.355  28.166  23.919  1.00  0.00    -0.206 F 
ATOM    103  C   UNL A   1      49.355  26.258  24.567  1.00  0.00     0.022 A 
BRANCH 100 104
ATOM    104  S   UNL A   1      50.727  25.482  26.865  1.00  0.00     0.124 S 
ATOM    105  O   UNL A   1      50.083  24.379  27.571  1.00  0.00    -0.237 OA
ATOM    106  O   UNL A   1      51.635  25.106  25.787  1.00  0.00    -0.237 OA
ATOM    107  O   UNL A   1      51.198  26.572  27.718  1.00  0.00    -0.744 OA
ENDBRANCH 100 104
ENDBRANCH  74  97
ENDBRANCH  48  49
ENDBRANCH  41  43
ENDBRANCH  40  41
ENDBRANCH  39  40
ENDBRANCH  38  39
ENDBRANCH  37  38
ENDBRANCH  36  37
ENDBRANCH   1  36
TORSDOF 24
ENDMDL
MODEL 3
REMARK VINA RESULT:     -11.2      4.483     10.756
REMARK SMILES CS(=O)(=O)c1ccc(C2=NN(c3ccc(C(=O)OCCOCCOCCOC(=O)c4ccc(-c5c6nc(c(-c7cc(S(=O)(=O)[O-])ccc7F)c7ccc([nH]7)c(-c7cc(S(=O)(=O)[O-])ccc7F)c7nc(c(-c8cc(S(=O)(=O)[O-])ccc8F)c8ccc5[nH]8)C=C7)C=C6)cc4)cc3)[C@H](c3ccc(F)cc3)C2)cc1
REMARK SMILES IDX 22 1 21 2 20 3 19 4 18 5 16 6 17 7 15 8 12 9 13 10 94 11
REMARK SMILES IDX 14 12 93 13 11 14 9 15 10 16 103 17 95 18 8 19 5 20 6 21
REMARK SMILES IDX 105 22 7 23 104 24 2 25 1 26 3 27 4 28 96 29 97 30 102 31
REMARK SMILES IDX 98 32 101 33 99 34 100 35 23 36 24 37 25 38 26 39 27 40
REMARK SMILES IDX 28 41 29 42 30 43 31 44 92 45 32 46 91 47 33 48 34 49 35 50
REMARK SMILES IDX 85 51 36 52 90 53 84 54 86 55 37 56 89 57 83 58 82 59 38 61
REMARK SMILES IDX 70 62 50 63 69 64 51 65 54 66 68 67 87 68 52 69 53 70 67 72
REMARK SMILES IDX 88 73 55 74 39 75 40 76 48 77 41 78 47 79 49 80 46 81 42 82
REMARK SMILES IDX 43 83 44 84 45 85 71 86 72 87 80 88 73 89 79 90 81 91 78 92
REMARK SMILES IDX 74 93 75 94 76 95 77 96 56 97 57 98 65 99 58 100 64 101
REMARK SMILES IDX 66 102 63 103 59 104 60 105 61 106 62 107
REMARK H PARENT 86 60 54 71
REMARK Flexibility Score: inf
ROOT
ATOM      1  C   UNL A   1      43.037  24.143  28.508  1.00  0.00     0.188 C 
ENDROOT
BRANCH   1   2
ATOM      2  O   UNL A   1      43.290  22.906  27.874  1.00  0.00    -0.376 OA
BRANCH   2   3
ATOM      3  C   UNL A   1      42.239  22.175  27.268  1.00  0.00     0.202 C 
BRANCH   3   4
ATOM      4  C   UNL A   1      40.773  22.238  27.729  1.00  0.00     0.261 C 
BRANCH   4   5
ATOM      5  O   UNL A   1      39.829  22.709  26.763  1.00  0.00    -0.460 OA
BRANCH   5   6
ATOM      6  C   UNL A   1      39.188  21.745  26.052  1.00  0.00     0.338 C 
ATOM      7  O   UNL A   1      39.527  20.578  25.939  1.00  0.00    -0.246 OA
BRANCH   6   8
ATOM      8  C   UNL A   1      37.902  22.262  25.523  1.00  0.00     0.060 A 
ATOM      9  C   UNL A   1      35.391  23.215  24.682  1.00  0.00     0.060 A 
ATOM     10  C   UNL A   1      36.067  23.838  25.737  1.00  0.00     0.029 A 
ATOM     11  C   UNL A   1      36.047  22.190  23.981  1.00  0.00     0.029 A 
ATOM     12  C   UNL A   1      37.312  23.360  26.164  1.00  0.00     0.018 A 
ATOM     13  C   UNL A   1      37.285  21.699  24.404  1.00  0.00     0.018 A 
BRANCH   9  14
ATOM     14  N   UNL A   1      34.037  23.478  24.413  1.00  0.00    -0.257 N 
ATOM     15  C   UNL A   1      32.442  24.906  24.497  1.00  0.00     0.071 C 
ATOM     16  N   UNL A   1      33.659  24.747  24.076  1.00  0.00    -0.176 NA
ATOM     17  C   UNL A   1      31.860  23.760  25.275  1.00  0.00     0.091 C 
ATOM     18  C   UNL A   1      33.041  22.782  25.256  1.00  0.00     0.144 C 
BRANCH  15  19
ATOM     19  C   UNL A   1      31.618  26.091  24.193  1.00  0.00    -0.002 A 
ATOM     20  C   UNL A   1      30.178  28.350  23.421  1.00  0.00     0.067 A 
ATOM     21  C   UNL A   1      31.517  28.481  23.801  1.00  0.00     0.021 A 
ATOM     22  C   UNL A   1      29.550  27.099  23.446  1.00  0.00     0.021 A 
ATOM     23  C   UNL A   1      32.233  27.348  24.203  1.00  0.00     0.011 A 
ATOM     24  C   UNL A   1      30.276  25.963  23.822  1.00  0.00     0.011 A 
BRANCH  20  25
ATOM     25  S   UNL A   1      29.270  29.767  22.840  1.00  0.00     0.175 S 
ATOM     26  C   UNL A   1      27.559  29.306  22.871  1.00  0.00     0.163 C 
ATOM     27  O   UNL A   1      29.641  29.978  21.453  1.00  0.00    -0.224 OA
ATOM     28  O   UNL A   1      29.480  30.811  23.826  1.00  0.00    -0.224 OA
ENDBRANCH  20  25
ENDBRANCH  15  19
BRANCH  18  29
ATOM     29  C   UNL A   1      32.787  21.360  24.755  1.00  0.00    -0.023 A 
ATOM     30  C   UNL A   1      32.410  21.046  23.440  1.00  0.00     0.009 A 
ATOM     31  C   UNL A   1      33.018  20.286  25.643  1.00  0.00     0.009 A 
ATOM     32  C   UNL A   1      32.291  19.714  23.026  1.00  0.00     0.039 A 
ATOM     33  C   UNL A   1      32.952  18.959  25.218  1.00  0.00     0.039 A 
ATOM     34  C   UNL A   1      32.585  18.685  23.911  1.00  0.00     0.123 A 
ATOM     35  F   UNL A   1      32.521  17.413  23.495  1.00  0.00    -0.207 F 
ENDBRANCH  18  29
ENDBRANCH   9  14
ENDBRANCH   6   8
ENDBRANCH   5   6
ENDBRANCH   4   5
ENDBRANCH   3   4
ENDBRANCH   2   3
ENDBRANCH   1   2
BRANCH   1  36
ATOM     36  C   UNL A   1      43.605  25.443  27.906  1.00  0.00     0.188 C 
BRANCH  36  37
ATOM     37  O   UNL A   1      43.662  25.583  26.504  1.00  0.00    -0.376 OA
BRANCH  37  38
ATOM     38  C   UNL A   1      42.525  26.027  25.786  1.00  0.00     0.202 C 
BRANCH  38  39
ATOM     39  C   UNL A   1      41.076  25.549  26.006  1.00  0.00     0.261 C 
BRANCH  39  40
ATOM     40  O   UNL A   1      40.147  26.461  26.593  1.00  0.00    -0.460 OA
BRANCH  40  41
ATOM     41  C   UNL A   1      40.094  26.442  27.947  1.00  0.00     0.338 C 
ATOM     42  O   UNL A   1      39.758  25.504  28.659  1.00  0.00    -0.246 OA
BRANCH  41  43
ATOM     43  C   UNL A   1      40.669  27.695  28.465  1.00  0.00     0.060 A 
ATOM     44  C   UNL A   1      41.331  27.691  29.702  1.00  0.00     0.016 A 
ATOM     45  C   UNL A   1      40.518  28.877  27.742  1.00  0.00     0.016 A 
ATOM     46  C   UNL A   1      41.834  28.882  30.229  1.00  0.00     0.010 A 
ATOM     47  C   UNL A   1      40.997  30.071  28.284  1.00  0.00     0.010 A 
ATOM     48  C   UNL A   1      41.631  30.085  29.542  1.00  0.00    -0.014 A 
BRANCH  48  49
ATOM     49  C   UNL A   1      41.875  31.389  30.206  1.00  0.00     0.031 A 
ATOM     50  C   UNL A   1      43.164  32.102  29.894  1.00  0.00     0.074 A 
ATOM     51  C   UNL A   1      41.003  31.909  31.088  1.00  0.00     0.049 A 
ATOM     52  N   UNL A   1      43.697  33.146  30.470  1.00  0.00    -0.248 NA
ATOM     53  C   UNL A   1      43.964  31.547  28.789  1.00  0.00     0.031 C 
ATOM     54  C   UNL A   1      39.696  31.346  31.420  1.00  0.00     0.029 A 
ATOM     55  N   UNL A   1      41.103  33.021  31.890  1.00  0.00    -0.354 N 
ATOM     56  C   UNL A   1      44.906  33.359  29.817  1.00  0.00     0.074 A 
ATOM     57  C   UNL A   1      45.034  32.327  28.812  1.00  0.00     0.031 C 
ATOM     58  C   UNL A   1      39.127  32.102  32.377  1.00  0.00     0.029 A 
ATOM     59  C   UNL A   1      40.052  33.166  32.767  1.00  0.00     0.049 A 
ATOM     60  H   UNL A   1      41.856  33.654  31.842  1.00  0.00     0.167 HD
ATOM     61  C   UNL A   1      45.827  34.326  30.045  1.00  0.00     0.034 A 
ATOM     62  C   UNL A   1      39.883  34.028  33.792  1.00  0.00     0.034 A 
ATOM     63  C   UNL A   1      45.681  35.345  31.053  1.00  0.00     0.049 A 
ATOM     64  C   UNL A   1      40.971  35.043  34.085  1.00  0.00     0.074 A 
ATOM     65  C   UNL A   1      46.545  36.383  31.353  1.00  0.00     0.029 A 
ATOM     66  N   UNL A   1      44.614  35.448  31.933  1.00  0.00    -0.354 N 
ATOM     67  N   UNL A   1      42.112  35.236  33.464  1.00  0.00    -0.248 NA
ATOM     68  C   UNL A   1      40.747  35.958  35.215  1.00  0.00     0.031 C 
ATOM     69  C   UNL A   1      46.042  37.062  32.466  1.00  0.00     0.029 A 
ATOM     70  C   UNL A   1      44.814  36.511  32.796  1.00  0.00     0.049 A 
ATOM     71  H   UNL A   1      43.830  34.852  31.942  1.00  0.00     0.167 HD
ATOM     72  C   UNL A   1      42.709  36.328  34.093  1.00  0.00     0.074 A 
ATOM     73  C   UNL A   1      41.807  36.749  35.142  1.00  0.00     0.031 C 
ATOM     74  C   UNL A   1      43.891  36.937  33.821  1.00  0.00     0.034 A 
BRANCH  61  75
ATOM     75  C   UNL A   1      47.096  34.294  29.233  1.00  0.00     0.023 A 
ATOM     76  C   UNL A   1      47.168  34.837  27.939  1.00  0.00     0.031 A 
ATOM     77  C   UNL A   1      48.261  33.722  29.777  1.00  0.00     0.131 A 
ATOM     78  C   UNL A   1      48.368  34.757  27.215  1.00  0.00     0.055 A 
ATOM     79  C   UNL A   1      49.470  33.712  29.080  1.00  0.00     0.041 A 
ATOM     80  F   UNL A   1      48.241  33.163  30.997  1.00  0.00    -0.206 F 
ATOM     81  C   UNL A   1      49.526  34.224  27.788  1.00  0.00     0.022 A 
BRANCH  78  82
ATOM     82  S   UNL A   1      48.366  35.262  25.473  1.00  0.00     0.124 S 
ATOM     83  O   UNL A   1      47.137  34.641  24.986  1.00  0.00    -0.237 OA
ATOM     84  O   UNL A   1      48.351  36.718  25.566  1.00  0.00    -0.237 OA
ATOM     85  O   UNL A   1      49.601  34.683  24.947  1.00  0.00    -0.744 OA
ENDBRANCH  78  82
ENDBRANCH  61  75
BRANCH  62  86
ATOM     86  C   UNL A   1      38.675  33.954  34.670  1.00  0.00     0.023 A 
ATOM     87  C   UNL A   1      38.749  33.390  35.955  1.00  0.00     0.031 A 
ATOM     88  C   UNL A   1      37.408  34.346  34.201  1.00  0.00     0.131 A 
ATOM     89  C   UNL A   1      37.575  33.162  36.690  1.00  0.00     0.055 A 
ATOM     90  C   UNL A   1      36.252  34.185  34.966  1.00  0.00     0.041 A 
ATOM     91  F   UNL A   1      37.272  34.881  32.977  1.00  0.00    -0.206 F 
ATOM     92  C   UNL A   1      36.329  33.570  36.212  1.00  0.00     0.022 A 
BRANCH  89  93
ATOM     93  S   UNL A   1      37.686  32.186  38.216  1.00  0.00     0.124 S 
ATOM     94  O   UNL A   1      39.102  32.317  38.545  1.00  0.00    -0.237 OA
ATOM     95  O   UNL A   1      36.754  32.888  39.092  1.00  0.00    -0.237 OA
ATOM     96  O   UNL A   1      37.263  30.851  37.798  1.00  0.00    -0.744 OA
ENDBRANCH  89  93
ENDBRANCH  62  86
BRANCH  74  97
ATOM     97  C   UNL A   1      44.237  38.186  34.595  1.00  0.00     0.023 A 
ATOM     98  C   UNL A   1      43.750  39.455  34.240  1.00  0.00     0.031 A 
ATOM     99  C   UNL A   1      45.047  38.086  35.744  1.00  0.00     0.131 A 
ATOM    100  C   UNL A   1      44.107  40.578  35.004  1.00  0.00     0.055 A 
ATOM    101  C   UNL A   1      45.346  39.195  36.532  1.00  0.00     0.041 A 
ATOM    102  F   UNL A   1      45.541  36.899  36.128  1.00  0.00    -0.206 F 
ATOM    103  C   UNL A   1      44.884  40.452  36.160  1.00  0.00     0.022 A 
BRANCH 100 104
ATOM    104  S   UNL A   1      43.598  42.224  34.435  1.00  0.00     0.124 S 
ATOM    105  O   UNL A   1      44.872  42.813  34.035  1.00  0.00    -0.237 OA
ATOM    106  O   UNL A   1      42.673  41.908  33.352  1.00  0.00    -0.237 OA
ATOM    107  O   UNL A   1      42.984  42.822  35.619  1.00  0.00    -0.744 OA
ENDBRANCH 100 104
ENDBRANCH  74  97
ENDBRANCH  48  49
ENDBRANCH  41  43
ENDBRANCH  40  41
ENDBRANCH  39  40
ENDBRANCH  38  39
ENDBRANCH  37  38
ENDBRANCH  36  37
ENDBRANCH   1  36
TORSDOF 24
ENDMDL
