MODEL 1
REMARK VINA RESULT:      -8.8      0.000      0.000
REMARK SMILES CCC(CC)(C(=O)OCCOCCOCCOC(=O)c1ccc(-c2c3nc(c(-c4cc(S(=O)(=O)[O-])ccc4F)c4ccc([nH]4)c(-c4cc(S(=O)(=O)[O-])ccc4F)c4nc(c(-c5cc(S(=O)(=O)[O-])ccc5F)c5ccc2[nH]5)C=C4)C=C3)cc1)n1nnnc1C[C@@H](C)C(C)(C)C
REMARK SMILES IDX 12 1 11 2 10 3 9 4 8 5 6 6 7 7 3 8 2 9 1 10 4 11 5 12 83 13
REMARK SMILES IDX 84 14 87 15 85 16 86 17 88 18 89 19 90 20 91 21 92 22 93 23
REMARK SMILES IDX 94 24 13 25 14 26 15 27 16 28 17 29 18 30 19 31 20 32 21 33
REMARK SMILES IDX 82 34 22 35 81 36 23 37 24 38 25 39 75 40 26 41 80 42 74 43
REMARK SMILES IDX 76 44 27 45 79 46 73 47 72 48 28 50 60 51 40 52 59 53 41 54
REMARK SMILES IDX 44 55 58 56 77 57 42 58 43 59 57 61 78 62 45 63 29 64 30 65
REMARK SMILES IDX 38 66 31 67 37 68 39 69 36 70 32 71 33 72 34 73 35 74 61 75
REMARK SMILES IDX 62 76 70 77 63 78 69 79 71 80 68 81 64 82 65 83 66 84 67 85
REMARK SMILES IDX 46 86 47 87 55 88 48 89 54 90 56 91 53 92 49 93 50 94 51 95
REMARK SMILES IDX 52 96
REMARK H PARENT 76 49 44 60
REMARK Flexibility Score: inf
ROOT
ATOM      1  C   UNL A   1      34.201  30.906  27.737  1.00  0.00     0.188 C 
ENDROOT
BRANCH   1   2
ATOM      2  O   UNL A   1      32.807  30.920  27.454  1.00  0.00    -0.376 OA
BRANCH   2   3
ATOM      3  C   UNL A   1      32.343  30.463  26.192  1.00  0.00     0.202 C 
BRANCH   3   4
ATOM      4  C   UNL A   1      32.949  29.172  25.631  1.00  0.00     0.261 C 
BRANCH   4   5
ATOM      5  O   UNL A   1      31.999  28.188  25.151  1.00  0.00    -0.461 OA
BRANCH   5   6
ATOM      6  C   UNL A   1      32.542  27.087  24.548  1.00  0.00     0.334 C 
ATOM      7  O   UNL A   1      33.751  26.972  24.380  1.00  0.00    -0.249 OA
BRANCH   6   8
ATOM      8  C   UNL A   1      31.492  26.072  23.994  1.00  0.00     0.163 C 
BRANCH   8   9
ATOM      9  C   UNL A   1      30.989  25.034  25.034  1.00  0.00     0.039 C 
ATOM     10  C   UNL A   1      31.701  25.083  26.386  1.00  0.00     0.007 C 
ENDBRANCH   8   9
BRANCH   8  11
ATOM     11  C   UNL A   1      30.273  26.978  23.567  1.00  0.00     0.039 C 
ATOM     12  C   UNL A   1      28.886  26.451  23.930  1.00  0.00     0.007 C 
ENDBRANCH   8  11
BRANCH   8  13
ATOM     13  N   UNL A   1      32.093  25.464  22.781  1.00  0.00    -0.212 N 
ATOM     14  N   UNL A   1      32.324  26.304  21.739  1.00  0.00    -0.044 NA
ATOM     15  C   UNL A   1      32.590  24.215  22.427  1.00  0.00     0.152 A 
ATOM     16  N   UNL A   1      33.070  25.644  20.880  1.00  0.00    -0.024 NA
ATOM     17  N   UNL A   1      33.256  24.369  21.295  1.00  0.00    -0.114 NA
BRANCH  15  18
ATOM     18  C   UNL A   1      32.554  22.886  23.122  1.00  0.00     0.083 C 
BRANCH  18  19
ATOM     19  C   UNL A   1      33.876  22.453  23.832  1.00  0.00    -0.001 C 
ATOM     20  C   UNL A   1      34.636  23.689  24.360  1.00  0.00     0.008 C 
BRANCH  19  21
ATOM     21  C   UNL A   1      33.657  21.375  24.981  1.00  0.00    -0.035 C 
ATOM     22  C   UNL A   1      33.746  22.031  26.376  1.00  0.00     0.011 C 
ATOM     23  C   UNL A   1      32.251  20.740  24.876  1.00  0.00     0.011 C 
ATOM     24  C   UNL A   1      34.682  20.227  24.935  1.00  0.00     0.011 C 
ENDBRANCH  19  21
ENDBRANCH  18  19
ENDBRANCH  15  18
ENDBRANCH   8  13
ENDBRANCH   6   8
ENDBRANCH   5   6
ENDBRANCH   4   5
ENDBRANCH   3   4
ENDBRANCH   2   3
ENDBRANCH   1   2
BRANCH   1  25
ATOM     25  C   UNL A   1      34.933  32.250  27.848  1.00  0.00     0.188 C 
BRANCH  25  26
ATOM     26  O   UNL A   1      36.059  32.235  28.705  1.00  0.00    -0.376 OA
BRANCH  26  27
ATOM     27  C   UNL A   1      35.858  31.636  29.977  1.00  0.00     0.202 C 
BRANCH  27  28
ATOM     28  C   UNL A   1      36.865  30.537  30.345  1.00  0.00     0.261 C 
BRANCH  28  29
ATOM     29  O   UNL A   1      38.239  30.841  30.037  1.00  0.00    -0.460 OA
BRANCH  29  30
ATOM     30  C   UNL A   1      38.825  30.113  29.062  1.00  0.00     0.338 C 
ATOM     31  O   UNL A   1      38.553  30.145  27.869  1.00  0.00    -0.246 OA
BRANCH  30  32
ATOM     32  C   UNL A   1      39.987  29.408  29.640  1.00  0.00     0.060 A 
ATOM     33  C   UNL A   1      41.146  30.144  29.884  1.00  0.00     0.016 A 
ATOM     34  C   UNL A   1      39.975  28.039  29.891  1.00  0.00     0.016 A 
ATOM     35  C   UNL A   1      42.309  29.532  30.347  1.00  0.00     0.010 A 
ATOM     36  C   UNL A   1      41.147  27.417  30.356  1.00  0.00     0.010 A 
ATOM     37  C   UNL A   1      42.330  28.155  30.562  1.00  0.00    -0.014 A 
BRANCH  37  38
ATOM     38  C   UNL A   1      43.632  27.477  30.810  1.00  0.00     0.031 A 
ATOM     39  C   UNL A   1      43.993  27.124  32.226  1.00  0.00     0.074 A 
ATOM     40  C   UNL A   1      44.442  27.094  29.804  1.00  0.00     0.049 A 
ATOM     41  N   UNL A   1      45.129  26.708  32.721  1.00  0.00    -0.248 NA
ATOM     42  C   UNL A   1      42.916  27.258  33.220  1.00  0.00     0.031 C 
ATOM     43  C   UNL A   1      44.142  27.219  28.378  1.00  0.00     0.029 A 
ATOM     44  N   UNL A   1      45.686  26.510  29.833  1.00  0.00    -0.354 N 
ATOM     45  C   UNL A   1      44.919  26.578  34.091  1.00  0.00     0.074 A 
ATOM     46  C   UNL A   1      43.546  26.959  34.344  1.00  0.00     0.031 C 
ATOM     47  C   UNL A   1      45.174  26.727  27.670  1.00  0.00     0.029 A 
ATOM     48  C   UNL A   1      46.239  26.326  28.586  1.00  0.00     0.049 A 
ATOM     49  H   UNL A   1      46.137  26.247  30.667  1.00  0.00     0.167 HD
ATOM     50  C   UNL A   1      45.799  26.188  35.045  1.00  0.00     0.034 A 
ATOM     51  C   UNL A   1      47.479  25.934  28.228  1.00  0.00     0.034 A 
ATOM     52  C   UNL A   1      47.156  25.785  34.765  1.00  0.00     0.049 A 
ATOM     53  C   UNL A   1      48.486  25.624  29.313  1.00  0.00     0.074 A 
ATOM     54  C   UNL A   1      48.143  25.399  35.655  1.00  0.00     0.029 A 
ATOM     55  N   UNL A   1      47.715  25.708  33.495  1.00  0.00    -0.354 N 
ATOM     56  N   UNL A   1      48.324  25.621  30.616  1.00  0.00    -0.248 NA
ATOM     57  C   UNL A   1      49.848  25.285  28.877  1.00  0.00     0.031 C 
ATOM     58  C   UNL A   1      49.316  25.154  34.930  1.00  0.00     0.029 A 
ATOM     59  C   UNL A   1      49.040  25.312  33.581  1.00  0.00     0.049 A 
ATOM     60  H   UNL A   1      47.238  25.906  32.657  1.00  0.00     0.167 HD
ATOM     61  C   UNL A   1      49.556  25.255  31.152  1.00  0.00     0.074 A 
ATOM     62  C   UNL A   1      50.448  25.035  30.033  1.00  0.00     0.031 C 
ATOM     63  C   UNL A   1      49.919  25.108  32.453  1.00  0.00     0.034 A 
BRANCH  50  64
ATOM     64  C   UNL A   1      45.342  26.279  36.481  1.00  0.00     0.023 A 
ATOM     65  C   UNL A   1      45.518  27.439  37.255  1.00  0.00     0.031 A 
ATOM     66  C   UNL A   1      44.766  25.153  37.098  1.00  0.00     0.131 A 
ATOM     67  C   UNL A   1      45.187  27.422  38.619  1.00  0.00     0.055 A 
ATOM     68  C   UNL A   1      44.366  25.170  38.434  1.00  0.00     0.041 A 
ATOM     69  F   UNL A   1      44.600  24.010  36.415  1.00  0.00    -0.206 F 
ATOM     70  C   UNL A   1      44.589  26.304  39.208  1.00  0.00     0.022 A 
BRANCH  67  71
ATOM     71  S   UNL A   1      45.683  28.829  39.653  1.00  0.00     0.124 S 
ATOM     72  O   UNL A   1      47.107  28.934  39.346  1.00  0.00    -0.237 OA
ATOM     73  O   UNL A   1      44.840  29.905  39.147  1.00  0.00    -0.237 OA
ATOM     74  O   UNL A   1      45.378  28.382  41.011  1.00  0.00    -0.744 OA
ENDBRANCH  67  71
ENDBRANCH  50  64
BRANCH  51  75
ATOM     75  C   UNL A   1      47.886  25.900  26.790  1.00  0.00     0.023 A 
ATOM     76  C   UNL A   1      48.933  26.701  26.305  1.00  0.00     0.031 A 
ATOM     77  C   UNL A   1      47.178  25.113  25.863  1.00  0.00     0.131 A 
ATOM     78  C   UNL A   1      49.217  26.726  24.929  1.00  0.00     0.055 A 
ATOM     79  C   UNL A   1      47.502  25.098  24.505  1.00  0.00     0.041 A 
ATOM     80  F   UNL A   1      46.154  24.343  26.265  1.00  0.00    -0.206 F 
ATOM     81  C   UNL A   1      48.519  25.917  24.029  1.00  0.00     0.022 A 
BRANCH  78  82
ATOM     82  S   UNL A   1      50.450  27.907  24.310  1.00  0.00     0.124 S 
ATOM     83  O   UNL A   1      51.694  27.173  24.520  1.00  0.00    -0.237 OA
ATOM     84  O   UNL A   1      50.036  28.084  22.923  1.00  0.00    -0.237 OA
ATOM     85  O   UNL A   1      50.264  29.075  25.168  1.00  0.00    -0.744 OA
ENDBRANCH  78  82
ENDBRANCH  51  75
BRANCH  63  86
ATOM     86  C   UNL A   1      51.328  24.642  32.725  1.00  0.00     0.023 A 
ATOM     87  C   UNL A   1      51.660  23.277  32.784  1.00  0.00     0.031 A 
ATOM     88  C   UNL A   1      52.353  25.582  32.932  1.00  0.00     0.131 A 
ATOM     89  C   UNL A   1      52.973  22.890  33.092  1.00  0.00     0.055 A 
ATOM     90  C   UNL A   1      53.669  25.192  33.184  1.00  0.00     0.041 A 
ATOM     91  F   UNL A   1      52.091  26.898  32.887  1.00  0.00    -0.206 F 
ATOM     92  C   UNL A   1      53.983  23.840  33.278  1.00  0.00     0.022 A 
BRANCH  89  93
ATOM     93  S   UNL A   1      53.334  21.128  33.328  1.00  0.00     0.124 S 
ATOM     94  O   UNL A   1      52.040  20.608  33.757  1.00  0.00    -0.237 OA
ATOM     95  O   UNL A   1      53.777  20.719  31.999  1.00  0.00    -0.237 OA
ATOM     96  O   UNL A   1      54.375  21.125  34.355  1.00  0.00    -0.744 OA
ENDBRANCH  89  93
ENDBRANCH  63  86
ENDBRANCH  37  38
ENDBRANCH  30  32
ENDBRANCH  29  30
ENDBRANCH  28  29
ENDBRANCH  27  28
ENDBRANCH  26  27
ENDBRANCH  25  26
ENDBRANCH   1  25
TORSDOF 26
ENDMDL
MODEL 2
REMARK VINA RESULT:      -8.4      5.769      9.128
REMARK SMILES CCC(CC)(C(=O)OCCOCCOCCOC(=O)c1ccc(-c2c3nc(c(-c4cc(S(=O)(=O)[O-])ccc4F)c4ccc([nH]4)c(-c4cc(S(=O)(=O)[O-])ccc4F)c4nc(c(-c5cc(S(=O)(=O)[O-])ccc5F)c5ccc2[nH]5)C=C4)C=C3)cc1)n1nnnc1C[C@@H](C)C(C)(C)C
REMARK SMILES IDX 12 1 11 2 10 3 9 4 8 5 6 6 7 7 3 8 2 9 1 10 4 11 5 12 83 13
REMARK SMILES IDX 84 14 87 15 85 16 86 17 88 18 89 19 90 20 91 21 92 22 93 23
REMARK SMILES IDX 94 24 13 25 14 26 15 27 16 28 17 29 18 30 19 31 20 32 21 33
REMARK SMILES IDX 82 34 22 35 81 36 23 37 24 38 25 39 75 40 26 41 80 42 74 43
REMARK SMILES IDX 76 44 27 45 79 46 73 47 72 48 28 50 60 51 40 52 59 53 41 54
REMARK SMILES IDX 44 55 58 56 77 57 42 58 43 59 57 61 78 62 45 63 29 64 30 65
REMARK SMILES IDX 38 66 31 67 37 68 39 69 36 70 32 71 33 72 34 73 35 74 61 75
REMARK SMILES IDX 62 76 70 77 63 78 69 79 71 80 68 81 64 82 65 83 66 84 67 85
REMARK SMILES IDX 46 86 47 87 55 88 48 89 54 90 56 91 53 92 49 93 50 94 51 95
REMARK SMILES IDX 52 96
REMARK H PARENT 76 49 44 60
REMARK Flexibility Score: inf
ROOT
ATOM      1  C   UNL A   1      41.033  22.448  26.618  1.00  0.00     0.188 C 
ENDROOT
BRANCH   1   2
ATOM      2  O   UNL A   1      39.645  22.733  26.749  1.00  0.00    -0.376 OA
BRANCH   2   3
ATOM      3  C   UNL A   1      39.232  24.030  27.156  1.00  0.00     0.202 C 
BRANCH   3   4
ATOM      4  C   UNL A   1      37.785  24.444  26.867  1.00  0.00     0.261 C 
BRANCH   4   5
ATOM      5  O   UNL A   1      36.982  23.468  26.157  1.00  0.00    -0.461 OA
BRANCH   5   6
ATOM      6  C   UNL A   1      35.854  23.955  25.554  1.00  0.00     0.334 C 
ATOM      7  O   UNL A   1      35.685  25.156  25.375  1.00  0.00    -0.249 OA
BRANCH   6   8
ATOM      8  C   UNL A   1      34.774  22.873  25.239  1.00  0.00     0.163 C 
BRANCH   8   9
ATOM      9  C   UNL A   1      35.328  21.428  25.112  1.00  0.00     0.039 C 
ATOM     10  C   UNL A   1      36.722  21.326  24.493  1.00  0.00     0.007 C 
ENDBRANCH   8   9
BRANCH   8  11
ATOM     11  C   UNL A   1      33.804  22.926  26.482  1.00  0.00     0.039 C 
ATOM     12  C   UNL A   1      33.780  21.681  27.367  1.00  0.00     0.007 C 
ENDBRANCH   8  11
BRANCH   8  13
ATOM     13  N   UNL A   1      34.045  23.344  24.035  1.00  0.00    -0.212 N 
ATOM     14  N   UNL A   1      34.661  23.145  22.841  1.00  0.00    -0.044 NA
ATOM     15  C   UNL A   1      32.793  23.891  23.771  1.00  0.00     0.152 A 
ATOM     16  N   UNL A   1      33.769  23.393  21.909  1.00  0.00    -0.024 NA
ATOM     17  N   UNL A   1      32.614  23.834  22.462  1.00  0.00    -0.114 NA
BRANCH  15  18
ATOM     18  C   UNL A   1      31.707  24.394  24.674  1.00  0.00     0.083 C 
BRANCH  18  19
ATOM     19  C   UNL A   1      31.188  25.837  24.376  1.00  0.00    -0.001 C 
ATOM     20  C   UNL A   1      29.730  25.998  24.859  1.00  0.00     0.008 C 
BRANCH  19  21
ATOM     21  C   UNL A   1      32.122  26.982  24.966  1.00  0.00    -0.035 C 
ATOM     22  C   UNL A   1      33.335  27.233  24.044  1.00  0.00     0.011 C 
ATOM     23  C   UNL A   1      31.353  28.320  25.064  1.00  0.00     0.011 C 
ATOM     24  C   UNL A   1      32.659  26.658  26.372  1.00  0.00     0.011 C 
ENDBRANCH  19  21
ENDBRANCH  18  19
ENDBRANCH  15  18
ENDBRANCH   8  13
ENDBRANCH   6   8
ENDBRANCH   5   6
ENDBRANCH   4   5
ENDBRANCH   3   4
ENDBRANCH   2   3
ENDBRANCH   1   2
BRANCH   1  25
ATOM     25  C   UNL A   1      41.699  21.575  27.690  1.00  0.00     0.188 C 
BRANCH  25  26
ATOM     26  O   UNL A   1      41.715  20.191  27.392  1.00  0.00    -0.376 OA
BRANCH  26  27
ATOM     27  C   UNL A   1      41.791  19.858  26.013  1.00  0.00     0.202 C 
BRANCH  27  28
ATOM     28  C   UNL A   1      42.996  18.992  25.619  1.00  0.00     0.261 C 
BRANCH  28  29
ATOM     29  O   UNL A   1      44.264  19.675  25.620  1.00  0.00    -0.460 OA
BRANCH  29  30
ATOM     30  C   UNL A   1      44.641  20.271  24.468  1.00  0.00     0.338 C 
ATOM     31  O   UNL A   1      44.385  19.887  23.334  1.00  0.00    -0.246 OA
BRANCH  30  32
ATOM     32  C   UNL A   1      45.250  21.576  24.795  1.00  0.00     0.060 A 
ATOM     33  C   UNL A   1      45.592  21.826  26.123  1.00  0.00     0.016 A 
ATOM     34  C   UNL A   1      45.435  22.569  23.838  1.00  0.00     0.016 A 
ATOM     35  C   UNL A   1      46.091  23.065  26.522  1.00  0.00     0.010 A 
ATOM     36  C   UNL A   1      45.936  23.821  24.236  1.00  0.00     0.010 A 
ATOM     37  C   UNL A   1      46.243  24.087  25.586  1.00  0.00    -0.014 A 
BRANCH  37  38
ATOM     38  C   UNL A   1      46.531  25.468  26.057  1.00  0.00     0.031 A 
ATOM     39  C   UNL A   1      45.385  26.305  26.554  1.00  0.00     0.074 A 
ATOM     40  C   UNL A   1      47.787  25.951  26.133  1.00  0.00     0.049 A 
ATOM     41  N   UNL A   1      45.341  27.581  26.838  1.00  0.00    -0.248 NA
ATOM     42  C   UNL A   1      44.112  25.597  26.764  1.00  0.00     0.031 C 
ATOM     43  C   UNL A   1      49.005  25.195  25.845  1.00  0.00     0.029 A 
ATOM     44  N   UNL A   1      48.243  27.197  26.489  1.00  0.00    -0.354 N 
ATOM     45  C   UNL A   1      44.026  27.839  27.211  1.00  0.00     0.074 A 
ATOM     46  C   UNL A   1      43.308  26.586  27.118  1.00  0.00     0.031 C 
ATOM     47  C   UNL A   1      50.069  25.995  26.035  1.00  0.00     0.029 A 
ATOM     48  C   UNL A   1      49.609  27.337  26.380  1.00  0.00     0.049 A 
ATOM     49  H   UNL A   1      47.650  27.921  26.794  1.00  0.00     0.167 HD
ATOM     50  C   UNL A   1      43.472  29.019  27.583  1.00  0.00     0.034 A 
ATOM     51  C   UNL A   1      50.388  28.433  26.491  1.00  0.00     0.034 A 
ATOM     52  C   UNL A   1      44.215  30.251  27.696  1.00  0.00     0.049 A 
ATOM     53  C   UNL A   1      49.733  29.765  26.783  1.00  0.00     0.074 A 
ATOM     54  C   UNL A   1      43.752  31.510  28.036  1.00  0.00     0.029 A 
ATOM     55  N   UNL A   1      45.581  30.377  27.479  1.00  0.00    -0.354 N 
ATOM     56  N   UNL A   1      48.468  30.032  27.015  1.00  0.00    -0.248 NA
ATOM     57  C   UNL A   1      50.610  30.944  26.808  1.00  0.00     0.031 C 
ATOM     58  C   UNL A   1      44.825  32.407  27.959  1.00  0.00     0.029 A 
ATOM     59  C   UNL A   1      45.972  31.695  27.646  1.00  0.00     0.049 A 
ATOM     60  H   UNL A   1      46.185  29.635  27.240  1.00  0.00     0.167 HD
ATOM     61  C   UNL A   1      48.404  31.405  27.239  1.00  0.00     0.074 A 
ATOM     62  C   UNL A   1      49.758  31.908  27.125  1.00  0.00     0.031 C 
ATOM     63  C   UNL A   1      47.326  32.182  27.518  1.00  0.00     0.034 A 
BRANCH  50  64
ATOM     64  C   UNL A   1      41.978  29.041  27.794  1.00  0.00     0.023 A 
ATOM     65  C   UNL A   1      41.395  28.937  29.069  1.00  0.00     0.031 A 
ATOM     66  C   UNL A   1      41.121  29.114  26.680  1.00  0.00     0.131 A 
ATOM     67  C   UNL A   1      40.000  28.837  29.191  1.00  0.00     0.055 A 
ATOM     68  C   UNL A   1      39.733  29.095  26.815  1.00  0.00     0.041 A 
ATOM     69  F   UNL A   1      41.622  29.187  25.437  1.00  0.00    -0.206 F 
ATOM     70  C   UNL A   1      39.164  28.940  28.076  1.00  0.00     0.022 A 
BRANCH  67  71
ATOM     71  S   UNL A   1      39.296  28.422  30.811  1.00  0.00     0.124 S 
ATOM     72  O   UNL A   1      38.392  29.547  31.038  1.00  0.00    -0.237 OA
ATOM     73  O   UNL A   1      38.662  27.134  30.559  1.00  0.00    -0.237 OA
ATOM     74  O   UNL A   1      40.461  28.383  31.693  1.00  0.00    -0.744 OA
ENDBRANCH  67  71
ENDBRANCH  50  64
BRANCH  51  75
ATOM     75  C   UNL A   1      51.858  28.356  26.232  1.00  0.00     0.023 A 
ATOM     76  C   UNL A   1      52.372  28.344  24.925  1.00  0.00     0.031 A 
ATOM     77  C   UNL A   1      52.767  28.220  27.297  1.00  0.00     0.131 A 
ATOM     78  C   UNL A   1      53.750  28.160  24.716  1.00  0.00     0.055 A 
ATOM     79  C   UNL A   1      54.141  28.096  27.086  1.00  0.00     0.041 A 
ATOM     80  F   UNL A   1      52.331  28.204  28.566  1.00  0.00    -0.206 F 
ATOM     81  C   UNL A   1      54.639  28.053  25.789  1.00  0.00     0.022 A 
BRANCH  78  82
ATOM     82  S   UNL A   1      54.360  27.963  23.017  1.00  0.00     0.124 S 
ATOM     83  O   UNL A   1      54.991  29.257  22.777  1.00  0.00    -0.237 OA
ATOM     84  O   UNL A   1      55.262  26.825  23.144  1.00  0.00    -0.237 OA
ATOM     85  O   UNL A   1      53.144  27.710  22.246  1.00  0.00    -0.744 OA
ENDBRANCH  78  82
ENDBRANCH  51  75
BRANCH  63  86
ATOM     86  C   UNL A   1      47.581  33.648  27.767  1.00  0.00     0.023 A 
ATOM     87  C   UNL A   1      47.961  34.131  29.032  1.00  0.00     0.031 A 
ATOM     88  C   UNL A   1      47.437  34.576  26.721  1.00  0.00     0.131 A 
ATOM     89  C   UNL A   1      48.136  35.509  29.230  1.00  0.00     0.055 A 
ATOM     90  C   UNL A   1      47.665  35.940  26.910  1.00  0.00     0.041 A 
ATOM     91  F   UNL A   1      47.076  34.169  25.493  1.00  0.00    -0.206 F 
ATOM     92  C   UNL A   1      48.005  36.415  28.173  1.00  0.00     0.022 A 
BRANCH  89  93
ATOM     93  S   UNL A   1      48.460  36.117  30.908  1.00  0.00     0.124 S 
ATOM     94  O   UNL A   1      49.758  36.763  30.753  1.00  0.00    -0.237 OA
ATOM     95  O   UNL A   1      47.327  37.008  31.142  1.00  0.00    -0.237 OA
ATOM     96  O   UNL A   1      48.466  34.900  31.719  1.00  0.00    -0.744 OA
ENDBRANCH  89  93
ENDBRANCH  63  86
ENDBRANCH  37  38
ENDBRANCH  30  32
ENDBRANCH  29  30
ENDBRANCH  28  29
ENDBRANCH  27  28
ENDBRANCH  26  27
ENDBRANCH  25  26
ENDBRANCH   1  25
TORSDOF 26
ENDMDL
MODEL 3
REMARK VINA RESULT:      -8.3      7.640     11.031
REMARK SMILES CCC(CC)(C(=O)OCCOCCOCCOC(=O)c1ccc(-c2c3nc(c(-c4cc(S(=O)(=O)[O-])ccc4F)c4ccc([nH]4)c(-c4cc(S(=O)(=O)[O-])ccc4F)c4nc(c(-c5cc(S(=O)(=O)[O-])ccc5F)c5ccc2[nH]5)C=C4)C=C3)cc1)n1nnnc1C[C@@H](C)C(C)(C)C
REMARK SMILES IDX 12 1 11 2 10 3 9 4 8 5 6 6 7 7 3 8 2 9 1 10 4 11 5 12 83 13
REMARK SMILES IDX 84 14 87 15 85 16 86 17 88 18 89 19 90 20 91 21 92 22 93 23
REMARK SMILES IDX 94 24 13 25 14 26 15 27 16 28 17 29 18 30 19 31 20 32 21 33
REMARK SMILES IDX 82 34 22 35 81 36 23 37 24 38 25 39 75 40 26 41 80 42 74 43
REMARK SMILES IDX 76 44 27 45 79 46 73 47 72 48 28 50 60 51 40 52 59 53 41 54
REMARK SMILES IDX 44 55 58 56 77 57 42 58 43 59 57 61 78 62 45 63 29 64 30 65
REMARK SMILES IDX 38 66 31 67 37 68 39 69 36 70 32 71 33 72 34 73 35 74 61 75
REMARK SMILES IDX 62 76 70 77 63 78 69 79 71 80 68 81 64 82 65 83 66 84 67 85
REMARK SMILES IDX 46 86 47 87 55 88 48 89 54 90 56 91 53 92 49 93 50 94 51 95
REMARK SMILES IDX 52 96
REMARK H PARENT 76 49 44 60
REMARK Flexibility Score: inf
ROOT
ATOM      1  C   UNL A   1      39.605  23.775  26.921  1.00  0.00     0.188 C 
ENDROOT
BRANCH   1   2
ATOM      2  O   UNL A   1      38.408  24.310  26.369  1.00  0.00    -0.376 OA
BRANCH   2   3
ATOM      3  C   UNL A   1      37.389  23.429  25.921  1.00  0.00     0.202 C 
BRANCH   3   4
ATOM      4  C   UNL A   1      36.108  24.047  25.350  1.00  0.00     0.261 C 
BRANCH   4   5
ATOM      5  O   UNL A   1      35.131  23.107  24.835  1.00  0.00    -0.461 OA
BRANCH   5   6
ATOM      6  C   UNL A   1      33.824  23.399  25.114  1.00  0.00     0.334 C 
ATOM      7  O   UNL A   1      33.458  23.704  26.244  1.00  0.00    -0.249 OA
BRANCH   6   8
ATOM      8  C   UNL A   1      32.848  23.190  23.914  1.00  0.00     0.163 C 
BRANCH   8   9
ATOM      9  C   UNL A   1      32.790  21.735  23.377  1.00  0.00     0.039 C 
ATOM     10  C   UNL A   1      32.222  20.710  24.358  1.00  0.00     0.007 C 
ENDBRANCH   8   9
BRANCH   8  11
ATOM     11  C   UNL A   1      31.432  23.559  24.505  1.00  0.00     0.039 C 
ATOM     12  C   UNL A   1      30.406  24.090  23.505  1.00  0.00     0.007 C 
ENDBRANCH   8  11
BRANCH   8  13
ATOM     13  N   UNL A   1      33.220  24.195  22.888  1.00  0.00    -0.212 N 
ATOM     14  N   UNL A   1      33.260  23.757  21.603  1.00  0.00    -0.044 NA
ATOM     15  C   UNL A   1      33.474  25.563  22.869  1.00  0.00     0.152 A 
ATOM     16  N   UNL A   1      33.359  24.824  20.842  1.00  0.00    -0.024 NA
ATOM     17  N   UNL A   1      33.473  25.940  21.602  1.00  0.00    -0.114 NA
BRANCH  15  18
ATOM     18  C   UNL A   1      33.639  26.569  23.969  1.00  0.00     0.083 C 
BRANCH  18  19
ATOM     19  C   UNL A   1      32.318  27.154  24.560  1.00  0.00    -0.001 C 
ATOM     20  C   UNL A   1      32.370  27.155  26.104  1.00  0.00     0.008 C 
BRANCH  19  21
ATOM     21  C   UNL A   1      31.950  28.594  23.994  1.00  0.00    -0.035 C 
ATOM     22  C   UNL A   1      31.532  29.545  25.135  1.00  0.00     0.011 C 
ATOM     23  C   UNL A   1      33.173  29.240  23.302  1.00  0.00     0.011 C 
ATOM     24  C   UNL A   1      30.806  28.563  22.964  1.00  0.00     0.011 C 
ENDBRANCH  19  21
ENDBRANCH  18  19
ENDBRANCH  15  18
ENDBRANCH   8  13
ENDBRANCH   6   8
ENDBRANCH   5   6
ENDBRANCH   4   5
ENDBRANCH   3   4
ENDBRANCH   2   3
ENDBRANCH   1   2
BRANCH   1  25
ATOM     25  C   UNL A   1      40.938  24.432  26.539  1.00  0.00     0.188 C 
BRANCH  25  26
ATOM     26  O   UNL A   1      40.948  25.844  26.647  1.00  0.00    -0.376 OA
BRANCH  26  27
ATOM     27  C   UNL A   1      42.227  26.442  26.801  1.00  0.00     0.202 C 
BRANCH  27  28
ATOM     28  C   UNL A   1      42.930  26.820  25.490  1.00  0.00     0.261 C 
BRANCH  28  29
ATOM     29  O   UNL A   1      43.604  28.093  25.504  1.00  0.00    -0.460 OA
BRANCH  29  30
ATOM     30  C   UNL A   1      44.786  28.155  26.153  1.00  0.00     0.338 C 
ATOM     31  O   UNL A   1      45.816  27.570  25.843  1.00  0.00    -0.246 OA
BRANCH  30  32
ATOM     32  C   UNL A   1      44.695  29.199  27.193  1.00  0.00     0.060 A 
ATOM     33  C   UNL A   1      43.755  30.215  27.023  1.00  0.00     0.016 A 
ATOM     34  C   UNL A   1      45.547  29.227  28.293  1.00  0.00     0.016 A 
ATOM     35  C   UNL A   1      43.669  31.280  27.917  1.00  0.00     0.010 A 
ATOM     36  C   UNL A   1      45.465  30.301  29.197  1.00  0.00     0.010 A 
ATOM     37  C   UNL A   1      44.543  31.349  29.001  1.00  0.00    -0.014 A 
BRANCH  37  38
ATOM     38  C   UNL A   1      44.615  32.603  29.799  1.00  0.00     0.031 A 
ATOM     39  C   UNL A   1      43.726  32.731  31.005  1.00  0.00     0.074 A 
ATOM     40  C   UNL A   1      45.508  33.574  29.527  1.00  0.00     0.049 A 
ATOM     41  N   UNL A   1      43.466  33.777  31.745  1.00  0.00    -0.248 NA
ATOM     42  C   UNL A   1      43.039  31.503  31.435  1.00  0.00     0.031 C 
ATOM     43  C   UNL A   1      46.542  33.511  28.495  1.00  0.00     0.029 A 
ATOM     44  N   UNL A   1      45.692  34.805  30.109  1.00  0.00    -0.354 N 
ATOM     45  C   UNL A   1      42.547  33.347  32.697  1.00  0.00     0.074 A 
ATOM     46  C   UNL A   1      42.299  31.944  32.439  1.00  0.00     0.031 C 
ATOM     47  C   UNL A   1      47.251  34.654  28.517  1.00  0.00     0.029 A 
ATOM     48  C   UNL A   1      46.674  35.560  29.507  1.00  0.00     0.049 A 
ATOM     49  H   UNL A   1      45.172  35.118  30.883  1.00  0.00     0.167 HD
ATOM     50  C   UNL A   1      41.959  34.064  33.686  1.00  0.00     0.034 A 
ATOM     51  C   UNL A   1      47.027  36.849  29.695  1.00  0.00     0.034 A 
ATOM     52  C   UNL A   1      42.244  35.455  33.943  1.00  0.00     0.049 A 
ATOM     53  C   UNL A   1      46.271  37.668  30.717  1.00  0.00     0.074 A 
ATOM     54  C   UNL A   1      41.687  36.288  34.897  1.00  0.00     0.029 A 
ATOM     55  N   UNL A   1      43.173  36.217  33.245  1.00  0.00    -0.354 N 
ATOM     56  N   UNL A   1      45.314  37.293  31.534  1.00  0.00    -0.248 NA
ATOM     57  C   UNL A   1      46.631  39.089  30.826  1.00  0.00     0.031 C 
ATOM     58  C   UNL A   1      42.231  37.568  34.733  1.00  0.00     0.029 A 
ATOM     59  C   UNL A   1      43.183  37.516  33.726  1.00  0.00     0.049 A 
ATOM     60  H   UNL A   1      43.743  35.881  32.515  1.00  0.00     0.167 HD
ATOM     61  C   UNL A   1      44.978  38.426  32.272  1.00  0.00     0.074 A 
ATOM     62  C   UNL A   1      45.841  39.493  31.810  1.00  0.00     0.031 C 
ATOM     63  C   UNL A   1      44.043  38.572  33.246  1.00  0.00     0.034 A 
BRANCH  50  64
ATOM     64  C   UNL A   1      40.882  33.375  34.488  1.00  0.00     0.023 A 
ATOM     65  C   UNL A   1      39.514  33.546  34.215  1.00  0.00     0.031 A 
ATOM     66  C   UNL A   1      41.241  32.572  35.586  1.00  0.00     0.131 A 
ATOM     67  C   UNL A   1      38.557  32.980  35.072  1.00  0.00     0.055 A 
ATOM     68  C   UNL A   1      40.285  31.947  36.386  1.00  0.00     0.041 A 
ATOM     69  F   UNL A   1      42.532  32.396  35.910  1.00  0.00    -0.206 F 
ATOM     70  C   UNL A   1      38.932  32.162  36.141  1.00  0.00     0.022 A 
BRANCH  67  71
ATOM     71  S   UNL A   1      36.816  33.448  34.862  1.00  0.00     0.124 S 
ATOM     72  O   UNL A   1      36.322  32.374  34.004  1.00  0.00    -0.237 OA
ATOM     73  O   UNL A   1      36.322  33.448  36.234  1.00  0.00    -0.237 OA
ATOM     74  O   UNL A   1      36.887  34.761  34.224  1.00  0.00    -0.744 OA
ENDBRANCH  67  71
ENDBRANCH  50  64
BRANCH  51  75
ATOM     75  C   UNL A   1      48.076  37.487  28.843  1.00  0.00     0.023 A 
ATOM     76  C   UNL A   1      49.416  37.557  29.259  1.00  0.00     0.031 A 
ATOM     77  C   UNL A   1      47.734  38.104  27.625  1.00  0.00     0.131 A 
ATOM     78  C   UNL A   1      50.354  38.260  28.484  1.00  0.00     0.055 A 
ATOM     79  C   UNL A   1      48.681  38.751  26.831  1.00  0.00     0.041 A 
ATOM     80  F   UNL A   1      46.464  38.087  27.188  1.00  0.00    -0.206 F 
ATOM     81  C   UNL A   1      49.998  38.843  27.266  1.00  0.00     0.022 A 
BRANCH  78  82
ATOM     82  S   UNL A   1      52.033  38.490  29.137  1.00  0.00     0.124 S 
ATOM     83  O   UNL A   1      52.509  37.113  29.222  1.00  0.00    -0.237 OA
ATOM     84  O   UNL A   1      52.651  39.320  28.110  1.00  0.00    -0.237 OA
ATOM     85  O   UNL A   1      51.811  39.153  30.421  1.00  0.00    -0.744 OA
ENDBRANCH  78  82
ENDBRANCH  51  75
BRANCH  63  86
ATOM     86  C   UNL A   1      43.946  39.925  33.908  1.00  0.00     0.023 A 
ATOM     87  C   UNL A   1      44.632  40.220  35.099  1.00  0.00     0.031 A 
ATOM     88  C   UNL A   1      43.149  40.932  33.336  1.00  0.00     0.131 A 
ATOM     89  C   UNL A   1      44.470  41.474  35.706  1.00  0.00     0.055 A 
ATOM     90  C   UNL A   1      43.034  42.197  33.916  1.00  0.00     0.041 A 
ATOM     91  F   UNL A   1      42.472  40.704  32.199  1.00  0.00    -0.206 F 
ATOM     92  C   UNL A   1      43.686  42.469  35.114  1.00  0.00     0.022 A 
BRANCH  89  93
ATOM     93  S   UNL A   1      45.231  41.766  37.327  1.00  0.00     0.124 S 
ATOM     94  O   UNL A   1      45.098  43.212  37.470  1.00  0.00    -0.237 OA
ATOM     95  O   UNL A   1      44.401  40.958  38.213  1.00  0.00    -0.237 OA
ATOM     96  O   UNL A   1      46.601  41.285  37.154  1.00  0.00    -0.744 OA
ENDBRANCH  89  93
ENDBRANCH  63  86
ENDBRANCH  37  38
ENDBRANCH  30  32
ENDBRANCH  29  30
ENDBRANCH  28  29
ENDBRANCH  27  28
ENDBRANCH  26  27
ENDBRANCH  25  26
ENDBRANCH   1  25
TORSDOF 26
ENDMDL
