MODEL 1
REMARK VINA RESULT:      -9.2      0.000      0.000
REMARK SMILES CC(C)Cc1noc(CCCCC(=O)OCCOCCOCCOC(=O)c2ccc(-c3c4nc(c(-c5cc(S(=O)(=O)[O-])ccc5F)c5ccc([nH]5)c(-c5cc(S(=O)(=O)[O-])ccc5F)c5nc(c(-c6cc(S(=O)(=O)[O-])ccc6F)c6ccc3[nH]6)C=C5)C=C4)cc2)n1
REMARK SMILES IDX 18 1 17 2 16 3 15 4 13 5 14 6 12 7 11 8 10 9 9 10 8 11 5 12
REMARK SMILES IDX 6 13 90 14 7 15 4 16 2 17 1 18 3 19 19 20 20 21 21 22 22 23
REMARK SMILES IDX 23 24 24 25 25 26 26 27 27 28 28 29 89 30 29 31 88 32 30 33
REMARK SMILES IDX 31 34 32 35 82 36 33 37 87 38 81 39 83 40 34 41 86 42 80 43
REMARK SMILES IDX 79 44 35 46 67 47 47 48 66 49 48 50 51 51 65 52 84 53 49 54
REMARK SMILES IDX 50 55 64 57 85 58 52 59 36 60 37 61 45 62 38 63 44 64 46 65
REMARK SMILES IDX 43 66 39 67 40 68 41 69 42 70 68 71 69 72 77 73 70 74 76 75
REMARK SMILES IDX 78 76 75 77 71 78 72 79 73 80 74 81 53 82 54 83 62 84 55 85
REMARK SMILES IDX 61 86 63 87 60 88 56 89 57 90 58 91 59 92
REMARK H PARENT 83 45 51 56
REMARK Flexibility Score: inf
ROOT
ATOM      1  O   UNL A   1      35.808  23.051  26.441  1.00  0.00    -0.376 OA
ENDROOT
BRANCH   1   2
ATOM      2  C   UNL A   1      35.145  21.807  26.220  1.00  0.00     0.202 C 
BRANCH   2   3
ATOM      3  C   UNL A   1      33.931  21.841  25.281  1.00  0.00     0.261 C 
BRANCH   3   4
ATOM      4  O   UNL A   1      33.347  23.151  25.154  1.00  0.00    -0.463 OA
BRANCH   4   5
ATOM      5  C   UNL A   1      33.488  23.749  23.943  1.00  0.00     0.305 C 
ATOM      6  O   UNL A   1      34.320  23.432  23.101  1.00  0.00    -0.252 OA
BRANCH   5   7
ATOM      7  C   UNL A   1      32.446  24.817  23.669  1.00  0.00     0.123 C 
BRANCH   7   8
ATOM      8  C   UNL A   1      30.964  24.441  23.686  1.00  0.00     0.012 C 
BRANCH   8   9
ATOM      9  C   UNL A   1      29.947  25.587  23.728  1.00  0.00     0.010 C 
BRANCH   9  10
ATOM     10  C   UNL A   1      30.501  26.955  24.116  1.00  0.00     0.100 C 
BRANCH  10  11
ATOM     11  C   UNL A   1      29.928  28.057  23.310  1.00  0.00     0.226 A 
ATOM     12  C   UNL A   1      28.920  29.689  22.491  1.00  0.00     0.172 A 
ATOM     13  N   UNL A   1      29.810  29.374  21.542  1.00  0.00    -0.063 NA
ATOM     14  N   UNL A   1      28.969  28.901  23.613  1.00  0.00    -0.196 NA
ATOM     15  O   UNL A   1      30.480  28.279  22.083  1.00  0.00    -0.339 OA
BRANCH  12  16
ATOM     16  C   UNL A   1      28.010  30.857  22.393  1.00  0.00     0.084 C 
BRANCH  16  17
ATOM     17  C   UNL A   1      28.648  32.128  21.807  1.00  0.00    -0.010 C 
ATOM     18  C   UNL A   1      27.827  32.702  20.651  1.00  0.00     0.008 C 
ATOM     19  C   UNL A   1      28.798  33.178  22.911  1.00  0.00     0.008 C 
ENDBRANCH  16  17
ENDBRANCH  12  16
ENDBRANCH  10  11
ENDBRANCH   9  10
ENDBRANCH   8   9
ENDBRANCH   7   8
ENDBRANCH   5   7
ENDBRANCH   4   5
ENDBRANCH   3   4
ENDBRANCH   2   3
ENDBRANCH   1   2
BRANCH   1  20
ATOM     20  C   UNL A   1      36.944  23.324  25.627  1.00  0.00     0.188 C 
BRANCH  20  21
ATOM     21  C   UNL A   1      37.506  22.145  24.831  1.00  0.00     0.188 C 
BRANCH  21  22
ATOM     22  O   UNL A   1      37.933  21.020  25.592  1.00  0.00    -0.376 OA
BRANCH  22  23
ATOM     23  C   UNL A   1      39.321  21.004  25.949  1.00  0.00     0.202 C 
BRANCH  23  24
ATOM     24  C   UNL A   1      40.011  19.623  25.982  1.00  0.00     0.261 C 
BRANCH  24  25
ATOM     25  O   UNL A   1      41.265  19.562  26.699  1.00  0.00    -0.460 OA
BRANCH  25  26
ATOM     26  C   UNL A   1      42.346  20.152  26.135  1.00  0.00     0.338 C 
ATOM     27  O   UNL A   1      43.057  19.667  25.271  1.00  0.00    -0.246 OA
BRANCH  26  28
ATOM     28  C   UNL A   1      42.359  21.591  26.526  1.00  0.00     0.060 A 
ATOM     29  C   UNL A   1      42.306  22.556  25.508  1.00  0.00     0.016 A 
ATOM     30  C   UNL A   1      42.343  22.001  27.864  1.00  0.00     0.016 A 
ATOM     31  C   UNL A   1      42.287  23.919  25.820  1.00  0.00     0.010 A 
ATOM     32  C   UNL A   1      42.336  23.367  28.176  1.00  0.00     0.010 A 
ATOM     33  C   UNL A   1      42.346  24.336  27.156  1.00  0.00    -0.014 A 
BRANCH  33  34
ATOM     34  C   UNL A   1      42.656  25.757  27.480  1.00  0.00     0.031 A 
ATOM     35  C   UNL A   1      44.043  26.260  27.173  1.00  0.00     0.074 A 
ATOM     36  C   UNL A   1      41.745  26.597  28.005  1.00  0.00     0.049 A 
ATOM     37  N   UNL A   1      44.583  27.426  27.414  1.00  0.00    -0.248 NA
ATOM     38  C   UNL A   1      44.942  25.305  26.505  1.00  0.00     0.031 C 
ATOM     39  C   UNL A   1      40.353  26.266  28.297  1.00  0.00     0.029 A 
ATOM     40  N   UNL A   1      41.865  27.912  28.391  1.00  0.00    -0.354 N 
ATOM     41  C   UNL A   1      45.886  27.346  26.932  1.00  0.00     0.074 A 
ATOM     42  C   UNL A   1      46.064  26.001  26.427  1.00  0.00     0.031 C 
ATOM     43  C   UNL A   1      39.750  27.346  28.826  1.00  0.00     0.029 A 
ATOM     44  C   UNL A   1      40.720  28.435  28.949  1.00  0.00     0.049 A 
ATOM     45  H   UNL A   1      42.693  28.432  28.280  1.00  0.00     0.167 HD
ATOM     46  C   UNL A   1      46.846  28.304  26.902  1.00  0.00     0.034 A 
ATOM     47  C   UNL A   1      40.491  29.638  29.516  1.00  0.00     0.034 A 
ATOM     48  C   UNL A   1      46.669  29.637  27.423  1.00  0.00     0.049 A 
ATOM     49  C   UNL A   1      41.610  30.658  29.577  1.00  0.00     0.074 A 
ATOM     50  C   UNL A   1      47.576  30.681  27.438  1.00  0.00     0.029 A 
ATOM     51  N   UNL A   1      45.515  30.107  28.036  1.00  0.00    -0.354 N 
ATOM     52  N   UNL A   1      42.838  30.569  29.122  1.00  0.00    -0.248 NA
ATOM     53  C   UNL A   1      41.306  31.941  30.228  1.00  0.00     0.031 C 
ATOM     54  C   UNL A   1      47.002  31.753  28.131  1.00  0.00     0.029 A 
ATOM     55  C   UNL A   1      45.702  31.411  28.467  1.00  0.00     0.049 A 
ATOM     56  H   UNL A   1      44.685  29.589  28.149  1.00  0.00     0.167 HD
ATOM     57  C   UNL A   1      43.438  31.798  29.398  1.00  0.00     0.074 A 
ATOM     58  C   UNL A   1      42.435  32.611  30.052  1.00  0.00     0.031 C 
ATOM     59  C   UNL A   1      44.701  32.218  29.127  1.00  0.00     0.034 A 
BRANCH  46  60
ATOM     60  C   UNL A   1      48.191  27.911  26.340  1.00  0.00     0.023 A 
ATOM     61  C   UNL A   1      48.468  27.980  24.963  1.00  0.00     0.031 A 
ATOM     62  C   UNL A   1      49.194  27.410  27.188  1.00  0.00     0.131 A 
ATOM     63  C   UNL A   1      49.681  27.479  24.467  1.00  0.00     0.055 A 
ATOM     64  C   UNL A   1      50.435  26.997  26.698  1.00  0.00     0.041 A 
ATOM     65  F   UNL A   1      48.979  27.294  28.507  1.00  0.00    -0.206 F 
ATOM     66  C   UNL A   1      50.677  27.013  25.327  1.00  0.00     0.022 A 
BRANCH  63  67
ATOM     67  S   UNL A   1      49.868  27.285  22.673  1.00  0.00     0.124 S 
ATOM     68  O   UNL A   1      49.656  28.653  22.205  1.00  0.00    -0.237 OA
ATOM     69  O   UNL A   1      51.227  26.772  22.552  1.00  0.00    -0.237 OA
ATOM     70  O   UNL A   1      48.809  26.342  22.317  1.00  0.00    -0.744 OA
ENDBRANCH  63  67
ENDBRANCH  46  60
BRANCH  47  71
ATOM     71  C   UNL A   1      39.163  29.951  30.127  1.00  0.00     0.023 A 
ATOM     72  C   UNL A   1      38.176  30.650  29.413  1.00  0.00     0.031 A 
ATOM     73  C   UNL A   1      38.890  29.614  31.466  1.00  0.00     0.131 A 
ATOM     74  C   UNL A   1      36.984  31.029  30.054  1.00  0.00     0.055 A 
ATOM     75  C   UNL A   1      37.681  29.944  32.080  1.00  0.00     0.041 A 
ATOM     76  F   UNL A   1      39.803  28.957  32.200  1.00  0.00    -0.206 F 
ATOM     77  C   UNL A   1      36.724  30.667  31.376  1.00  0.00     0.022 A 
BRANCH  74  78
ATOM     78  S   UNL A   1      35.810  32.085  29.158  1.00  0.00     0.124 S 
ATOM     79  O   UNL A   1      35.491  31.257  28.001  1.00  0.00    -0.237 OA
ATOM     80  O   UNL A   1      34.743  32.254  30.140  1.00  0.00    -0.237 OA
ATOM     81  O   UNL A   1      36.585  33.289  28.870  1.00  0.00    -0.744 OA
ENDBRANCH  74  78
ENDBRANCH  47  71
BRANCH  59  82
ATOM     82  C   UNL A   1      45.054  33.646  29.482  1.00  0.00     0.023 A 
ATOM     83  C   UNL A   1      44.869  34.710  28.582  1.00  0.00     0.031 A 
ATOM     84  C   UNL A   1      45.583  33.943  30.752  1.00  0.00     0.131 A 
ATOM     85  C   UNL A   1      45.255  36.011  28.945  1.00  0.00     0.055 A 
ATOM     86  C   UNL A   1      45.907  35.248  31.130  1.00  0.00     0.041 A 
ATOM     87  F   UNL A   1      45.786  32.969  31.654  1.00  0.00    -0.206 F 
ATOM     88  C   UNL A   1      45.755  36.288  30.220  1.00  0.00     0.022 A 
BRANCH  85  89
ATOM     89  S   UNL A   1      45.179  37.326  27.698  1.00  0.00     0.124 S 
ATOM     90  O   UNL A   1      45.882  38.418  28.365  1.00  0.00    -0.237 OA
ATOM     91  O   UNL A   1      45.871  36.723  26.564  1.00  0.00    -0.237 OA
ATOM     92  O   UNL A   1      43.745  37.538  27.508  1.00  0.00    -0.744 OA
ENDBRANCH  85  89
ENDBRANCH  59  82
ENDBRANCH  33  34
ENDBRANCH  26  28
ENDBRANCH  25  26
ENDBRANCH  24  25
ENDBRANCH  23  24
ENDBRANCH  22  23
ENDBRANCH  21  22
ENDBRANCH  20  21
ENDBRANCH   1  20
TORSDOF 26
ENDMDL
MODEL 2
REMARK VINA RESULT:      -8.9      1.690      1.978
REMARK SMILES CC(C)Cc1noc(CCCCC(=O)OCCOCCOCCOC(=O)c2ccc(-c3c4nc(c(-c5cc(S(=O)(=O)[O-])ccc5F)c5ccc([nH]5)c(-c5cc(S(=O)(=O)[O-])ccc5F)c5nc(c(-c6cc(S(=O)(=O)[O-])ccc6F)c6ccc3[nH]6)C=C5)C=C4)cc2)n1
REMARK SMILES IDX 18 1 17 2 16 3 15 4 13 5 14 6 12 7 11 8 10 9 9 10 8 11 5 12
REMARK SMILES IDX 6 13 90 14 7 15 4 16 2 17 1 18 3 19 19 20 20 21 21 22 22 23
REMARK SMILES IDX 23 24 24 25 25 26 26 27 27 28 28 29 89 30 29 31 88 32 30 33
REMARK SMILES IDX 31 34 32 35 82 36 33 37 87 38 81 39 83 40 34 41 86 42 80 43
REMARK SMILES IDX 79 44 35 46 67 47 47 48 66 49 48 50 51 51 65 52 84 53 49 54
REMARK SMILES IDX 50 55 64 57 85 58 52 59 36 60 37 61 45 62 38 63 44 64 46 65
REMARK SMILES IDX 43 66 39 67 40 68 41 69 42 70 68 71 69 72 77 73 70 74 76 75
REMARK SMILES IDX 78 76 75 77 71 78 72 79 73 80 74 81 53 82 54 83 62 84 55 85
REMARK SMILES IDX 61 86 63 87 60 88 56 89 57 90 58 91 59 92
REMARK H PARENT 83 45 51 56
REMARK Flexibility Score: inf
ROOT
ATOM      1  O   UNL A   1      35.496  22.029  26.104  1.00  0.00    -0.376 OA
ENDROOT
BRANCH   1   2
ATOM      2  C   UNL A   1      34.784  21.045  25.356  1.00  0.00     0.202 C 
BRANCH   2   3
ATOM      3  C   UNL A   1      33.933  21.562  24.188  1.00  0.00     0.261 C 
BRANCH   3   4
ATOM      4  O   UNL A   1      33.384  22.873  24.421  1.00  0.00    -0.463 OA
BRANCH   4   5
ATOM      5  C   UNL A   1      33.573  23.781  23.429  1.00  0.00     0.305 C 
ATOM      6  O   UNL A   1      34.383  23.659  22.517  1.00  0.00    -0.252 OA
BRANCH   5   7
ATOM      7  C   UNL A   1      32.615  24.955  23.491  1.00  0.00     0.123 C 
BRANCH   7   8
ATOM      8  C   UNL A   1      32.695  26.046  22.423  1.00  0.00     0.012 C 
BRANCH   8   9
ATOM      9  C   UNL A   1      31.382  26.704  21.987  1.00  0.00     0.010 C 
BRANCH   9  10
ATOM     10  C   UNL A   1      30.305  26.818  23.063  1.00  0.00     0.100 C 
BRANCH  10  11
ATOM     11  C   UNL A   1      29.815  28.204  23.241  1.00  0.00     0.226 A 
ATOM     12  C   UNL A   1      28.791  30.016  23.370  1.00  0.00     0.172 A 
ATOM     13  N   UNL A   1      29.976  30.297  23.926  1.00  0.00    -0.063 NA
ATOM     14  N   UNL A   1      28.646  28.720  22.943  1.00  0.00    -0.196 NA
ATOM     15  O   UNL A   1      30.666  29.090  23.834  1.00  0.00    -0.339 OA
BRANCH  12  16
ATOM     16  C   UNL A   1      27.676  30.992  23.305  1.00  0.00     0.084 C 
BRANCH  16  17
ATOM     17  C   UNL A   1      27.921  32.196  22.378  1.00  0.00    -0.010 C 
ATOM     18  C   UNL A   1      29.009  33.125  22.921  1.00  0.00     0.008 C 
ATOM     19  C   UNL A   1      28.310  31.695  20.985  1.00  0.00     0.008 C 
ENDBRANCH  16  17
ENDBRANCH  12  16
ENDBRANCH  10  11
ENDBRANCH   9  10
ENDBRANCH   8   9
ENDBRANCH   7   8
ENDBRANCH   5   7
ENDBRANCH   4   5
ENDBRANCH   3   4
ENDBRANCH   2   3
ENDBRANCH   1   2
BRANCH   1  20
ATOM     20  C   UNL A   1      36.577  22.678  25.441  1.00  0.00     0.188 C 
BRANCH  20  21
ATOM     21  C   UNL A   1      37.619  21.766  24.792  1.00  0.00     0.188 C 
BRANCH  21  22
ATOM     22  O   UNL A   1      38.208  20.783  25.637  1.00  0.00    -0.376 OA
BRANCH  22  23
ATOM     23  C   UNL A   1      39.622  20.905  25.836  1.00  0.00     0.202 C 
BRANCH  23  24
ATOM     24  C   UNL A   1      40.396  19.598  26.115  1.00  0.00     0.261 C 
BRANCH  24  25
ATOM     25  O   UNL A   1      41.669  19.750  26.781  1.00  0.00    -0.460 OA
BRANCH  25  26
ATOM     26  C   UNL A   1      42.633  20.464  26.151  1.00  0.00     0.338 C 
ATOM     27  O   UNL A   1      43.293  20.089  25.197  1.00  0.00    -0.246 OA
BRANCH  26  28
ATOM     28  C   UNL A   1      42.558  21.878  26.620  1.00  0.00     0.060 A 
ATOM     29  C   UNL A   1      42.425  22.890  25.656  1.00  0.00     0.016 A 
ATOM     30  C   UNL A   1      42.537  22.213  27.978  1.00  0.00     0.016 A 
ATOM     31  C   UNL A   1      42.323  24.230  26.043  1.00  0.00     0.010 A 
ATOM     32  C   UNL A   1      42.447  23.556  28.364  1.00  0.00     0.010 A 
ATOM     33  C   UNL A   1      42.376  24.578  27.399  1.00  0.00    -0.014 A 
BRANCH  33  34
ATOM     34  C   UNL A   1      42.598  25.996  27.796  1.00  0.00     0.031 A 
ATOM     35  C   UNL A   1      44.004  26.534  27.722  1.00  0.00     0.074 A 
ATOM     36  C   UNL A   1      41.596  26.806  28.187  1.00  0.00     0.049 A 
ATOM     37  N   UNL A   1      44.472  27.705  28.069  1.00  0.00    -0.248 NA
ATOM     38  C   UNL A   1      45.018  25.613  27.186  1.00  0.00     0.031 C 
ATOM     39  C   UNL A   1      40.184  26.440  28.250  1.00  0.00     0.029 A 
ATOM     40  N   UNL A   1      41.623  28.113  28.614  1.00  0.00    -0.354 N 
ATOM     41  C   UNL A   1      45.837  27.662  27.797  1.00  0.00     0.074 A 
ATOM     42  C   UNL A   1      46.122  26.333  27.300  1.00  0.00     0.031 C 
ATOM     43  C   UNL A   1      39.480  27.496  28.698  1.00  0.00     0.029 A 
ATOM     44  C   UNL A   1      40.393  28.601  28.995  1.00  0.00     0.049 A 
ATOM     45  H   UNL A   1      42.446  28.652  28.645  1.00  0.00     0.167 HD
ATOM     46  C   UNL A   1      46.766  28.639  27.938  1.00  0.00     0.034 A 
ATOM     47  C   UNL A   1      40.049  29.786  29.542  1.00  0.00     0.034 A 
ATOM     48  C   UNL A   1      46.479  29.956  28.451  1.00  0.00     0.049 A 
ATOM     49  C   UNL A   1      41.121  30.825  29.799  1.00  0.00     0.074 A 
ATOM     50  C   UNL A   1      47.347  31.017  28.630  1.00  0.00     0.029 A 
ATOM     51  N   UNL A   1      45.232  30.388  28.883  1.00  0.00    -0.354 N 
ATOM     52  N   UNL A   1      42.407  30.772  29.542  1.00  0.00    -0.248 NA
ATOM     53  C   UNL A   1      40.688  32.087  30.420  1.00  0.00     0.031 C 
ATOM     54  C   UNL A   1      46.647  32.061  29.245  1.00  0.00     0.029 A 
ATOM     55  C   UNL A   1      45.318  31.686  29.365  1.00  0.00     0.049 A 
ATOM     56  H   UNL A   1      44.407  29.851  28.854  1.00  0.00     0.167 HD
ATOM     57  C   UNL A   1      42.928  32.006  29.934  1.00  0.00     0.074 A 
ATOM     58  C   UNL A   1      41.815  32.783  30.438  1.00  0.00     0.031 C 
ATOM     59  C   UNL A   1      44.207  32.457  29.874  1.00  0.00     0.034 A 
BRANCH  46  60
ATOM     60  C   UNL A   1      48.192  28.286  27.588  1.00  0.00     0.023 A 
ATOM     61  C   UNL A   1      48.623  28.180  26.254  1.00  0.00     0.031 A 
ATOM     62  C   UNL A   1      49.121  28.000  28.603  1.00  0.00     0.131 A 
ATOM     63  C   UNL A   1      49.917  27.718  25.970  1.00  0.00     0.055 A 
ATOM     64  C   UNL A   1      50.436  27.629  28.316  1.00  0.00     0.041 A 
ATOM     65  F   UNL A   1      48.761  28.057  29.895  1.00  0.00    -0.206 F 
ATOM     66  C   UNL A   1      50.835  27.468  26.992  1.00  0.00     0.022 A 
BRANCH  63  67
ATOM     67  S   UNL A   1      50.326  27.285  24.257  1.00  0.00     0.124 S 
ATOM     68  O   UNL A   1      50.393  28.602  23.628  1.00  0.00    -0.237 OA
ATOM     69  O   UNL A   1      51.594  26.582  24.404  1.00  0.00    -0.237 OA
ATOM     70  O   UNL A   1      49.198  26.458  23.833  1.00  0.00    -0.744 OA
ENDBRANCH  63  67
ENDBRANCH  46  60
BRANCH  47  71
ATOM     71  C   UNL A   1      38.635  30.057  29.942  1.00  0.00     0.023 A 
ATOM     72  C   UNL A   1      37.761  30.766  29.101  1.00  0.00     0.031 A 
ATOM     73  C   UNL A   1      38.159  29.671  31.209  1.00  0.00     0.131 A 
ATOM     74  C   UNL A   1      36.474  31.105  29.554  1.00  0.00     0.055 A 
ATOM     75  C   UNL A   1      36.861  29.962  31.631  1.00  0.00     0.041 A 
ATOM     76  F   UNL A   1      38.956  29.003  32.058  1.00  0.00    -0.206 F 
ATOM     77  C   UNL A   1      36.014  30.694  30.806  1.00  0.00     0.022 A 
BRANCH  74  78
ATOM     78  S   UNL A   1      35.437  32.173  28.515  1.00  0.00     0.124 S 
ATOM     79  O   UNL A   1      36.428  33.070  27.931  1.00  0.00    -0.237 OA
ATOM     80  O   UNL A   1      34.826  31.210  27.605  1.00  0.00    -0.237 OA
ATOM     81  O   UNL A   1      34.521  32.792  29.471  1.00  0.00    -0.744 OA
ENDBRANCH  74  78
ENDBRANCH  47  71
BRANCH  59  82
ATOM     82  C   UNL A   1      44.467  33.882  30.309  1.00  0.00     0.023 A 
ATOM     83  C   UNL A   1      44.837  34.210  31.625  1.00  0.00     0.031 A 
ATOM     84  C   UNL A   1      44.348  34.933  29.379  1.00  0.00     0.131 A 
ATOM     85  C   UNL A   1      45.024  35.553  31.988  1.00  0.00     0.055 A 
ATOM     86  C   UNL A   1      44.596  36.261  29.730  1.00  0.00     0.041 A 
ATOM     87  F   UNL A   1      43.995  34.685  28.107  1.00  0.00    -0.206 F 
ATOM     88  C   UNL A   1      44.924  36.579  31.044  1.00  0.00     0.022 A 
BRANCH  85  89
ATOM     89  S   UNL A   1      45.313  35.957  33.732  1.00  0.00     0.124 S 
ATOM     90  O   UNL A   1      45.270  37.416  33.718  1.00  0.00    -0.237 OA
ATOM     91  O   UNL A   1      44.196  35.294  34.397  1.00  0.00    -0.237 OA
ATOM     92  O   UNL A   1      46.628  35.379  34.006  1.00  0.00    -0.744 OA
ENDBRANCH  85  89
ENDBRANCH  59  82
ENDBRANCH  33  34
ENDBRANCH  26  28
ENDBRANCH  25  26
ENDBRANCH  24  25
ENDBRANCH  23  24
ENDBRANCH  22  23
ENDBRANCH  21  22
ENDBRANCH  20  21
ENDBRANCH   1  20
TORSDOF 26
ENDMDL
MODEL 3
REMARK VINA RESULT:      -8.7      3.049      3.614
REMARK SMILES CC(C)Cc1noc(CCCCC(=O)OCCOCCOCCOC(=O)c2ccc(-c3c4nc(c(-c5cc(S(=O)(=O)[O-])ccc5F)c5ccc([nH]5)c(-c5cc(S(=O)(=O)[O-])ccc5F)c5nc(c(-c6cc(S(=O)(=O)[O-])ccc6F)c6ccc3[nH]6)C=C5)C=C4)cc2)n1
REMARK SMILES IDX 18 1 17 2 16 3 15 4 13 5 14 6 12 7 11 8 10 9 9 10 8 11 5 12
REMARK SMILES IDX 6 13 90 14 7 15 4 16 2 17 1 18 3 19 19 20 20 21 21 22 22 23
REMARK SMILES IDX 23 24 24 25 25 26 26 27 27 28 28 29 89 30 29 31 88 32 30 33
REMARK SMILES IDX 31 34 32 35 82 36 33 37 87 38 81 39 83 40 34 41 86 42 80 43
REMARK SMILES IDX 79 44 35 46 67 47 47 48 66 49 48 50 51 51 65 52 84 53 49 54
REMARK SMILES IDX 50 55 64 57 85 58 52 59 36 60 37 61 45 62 38 63 44 64 46 65
REMARK SMILES IDX 43 66 39 67 40 68 41 69 42 70 68 71 69 72 77 73 70 74 76 75
REMARK SMILES IDX 78 76 75 77 71 78 72 79 73 80 74 81 53 82 54 83 62 84 55 85
REMARK SMILES IDX 61 86 63 87 60 88 56 89 57 90 58 91 59 92
REMARK H PARENT 83 45 51 56
REMARK Flexibility Score: inf
ROOT
ATOM      1  O   UNL A   1      35.133  22.135  26.317  1.00  0.00    -0.376 OA
ENDROOT
BRANCH   1   2
ATOM      2  C   UNL A   1      34.453  21.390  25.308  1.00  0.00     0.202 C 
BRANCH   2   3
ATOM      3  C   UNL A   1      33.557  22.194  24.356  1.00  0.00     0.261 C 
BRANCH   3   4
ATOM      4  O   UNL A   1      33.058  23.414  24.938  1.00  0.00    -0.463 OA
BRANCH   4   5
ATOM      5  C   UNL A   1      31.843  23.331  25.538  1.00  0.00     0.305 C 
ATOM      6  O   UNL A   1      31.151  22.320  25.577  1.00  0.00    -0.252 OA
BRANCH   5   7
ATOM      7  C   UNL A   1      31.433  24.604  26.255  1.00  0.00     0.123 C 
BRANCH   7   8
ATOM      8  C   UNL A   1      30.261  25.424  25.716  1.00  0.00     0.012 C 
BRANCH   8   9
ATOM      9  C   UNL A   1      30.456  26.940  25.602  1.00  0.00     0.010 C 
BRANCH   9  10
ATOM     10  C   UNL A   1      31.339  27.413  24.451  1.00  0.00     0.100 C 
BRANCH  10  11
ATOM     11  C   UNL A   1      30.602  28.224  23.456  1.00  0.00     0.226 A 
ATOM     12  C   UNL A   1      29.257  29.288  22.269  1.00  0.00     0.172 A 
ATOM     13  N   UNL A   1      30.444  29.597  21.733  1.00  0.00    -0.063 NA
ATOM     14  N   UNL A   1      29.312  28.447  23.351  1.00  0.00    -0.196 NA
ATOM     15  O   UNL A   1      31.345  28.881  22.519  1.00  0.00    -0.339 OA
BRANCH  12  16
ATOM     16  C   UNL A   1      27.979  29.881  21.802  1.00  0.00     0.084 C 
BRANCH  16  17
ATOM     17  C   UNL A   1      27.667  31.277  22.367  1.00  0.00    -0.010 C 
ATOM     18  C   UNL A   1      27.594  31.274  23.896  1.00  0.00     0.008 C 
ATOM     19  C   UNL A   1      28.736  32.267  21.898  1.00  0.00     0.008 C 
ENDBRANCH  16  17
ENDBRANCH  12  16
ENDBRANCH  10  11
ENDBRANCH   9  10
ENDBRANCH   8   9
ENDBRANCH   7   8
ENDBRANCH   5   7
ENDBRANCH   4   5
ENDBRANCH   3   4
ENDBRANCH   2   3
ENDBRANCH   1   2
BRANCH   1  20
ATOM     20  C   UNL A   1      35.993  23.179  25.870  1.00  0.00     0.188 C 
BRANCH  20  21
ATOM     21  C   UNL A   1      37.262  22.744  25.137  1.00  0.00     0.188 C 
BRANCH  21  22
ATOM     22  O   UNL A   1      37.963  21.638  25.695  1.00  0.00    -0.376 OA
BRANCH  22  23
ATOM     23  C   UNL A   1      39.167  21.960  26.403  1.00  0.00     0.202 C 
BRANCH  23  24
ATOM     24  C   UNL A   1      40.442  21.196  25.984  1.00  0.00     0.261 C 
BRANCH  24  25
ATOM     25  O   UNL A   1      41.672  21.635  26.603  1.00  0.00    -0.460 OA
BRANCH  25  26
ATOM     26  C   UNL A   1      42.445  22.515  25.921  1.00  0.00     0.338 C 
ATOM     27  O   UNL A   1      42.982  22.312  24.845  1.00  0.00    -0.246 OA
BRANCH  26  28
ATOM     28  C   UNL A   1      42.300  23.860  26.550  1.00  0.00     0.060 A 
ATOM     29  C   UNL A   1      42.076  24.963  25.711  1.00  0.00     0.016 A 
ATOM     30  C   UNL A   1      42.301  24.038  27.937  1.00  0.00     0.016 A 
ATOM     31  C   UNL A   1      41.905  26.242  26.250  1.00  0.00     0.010 A 
ATOM     32  C   UNL A   1      42.141  25.322  28.476  1.00  0.00     0.010 A 
ATOM     33  C   UNL A   1      41.979  26.438  27.635  1.00  0.00    -0.014 A 
BRANCH  33  34
ATOM     34  C   UNL A   1      42.127  27.814  28.185  1.00  0.00     0.031 A 
ATOM     35  C   UNL A   1      43.519  28.385  28.284  1.00  0.00     0.074 A 
ATOM     36  C   UNL A   1      41.074  28.562  28.566  1.00  0.00     0.049 A 
ATOM     37  N   UNL A   1      43.924  29.524  28.782  1.00  0.00    -0.248 NA
ATOM     38  C   UNL A   1      44.600  27.541  27.750  1.00  0.00     0.031 C 
ATOM     39  C   UNL A   1      39.672  28.164  28.471  1.00  0.00     0.029 A 
ATOM     40  N   UNL A   1      41.029  29.821  29.118  1.00  0.00    -0.354 N 
ATOM     41  C   UNL A   1      45.307  29.535  28.625  1.00  0.00     0.074 A 
ATOM     42  C   UNL A   1      45.670  28.268  28.028  1.00  0.00     0.031 C 
ATOM     43  C   UNL A   1      38.904  29.156  28.957  1.00  0.00     0.029 A 
ATOM     44  C   UNL A   1      39.758  30.244  29.437  1.00  0.00     0.049 A 
ATOM     45  H   UNL A   1      41.831  30.370  29.271  1.00  0.00     0.167 HD
ATOM     46  C   UNL A   1      46.193  30.512  28.939  1.00  0.00     0.034 A 
ATOM     47  C   UNL A   1      39.337  31.361  30.066  1.00  0.00     0.034 A 
ATOM     48  C   UNL A   1      45.828  31.765  29.551  1.00  0.00     0.049 A 
ATOM     49  C   UNL A   1      40.353  32.391  30.513  1.00  0.00     0.074 A 
ATOM     50  C   UNL A   1      46.648  32.821  29.906  1.00  0.00     0.029 A 
ATOM     51  N   UNL A   1      44.537  32.128  29.915  1.00  0.00    -0.354 N 
ATOM     52  N   UNL A   1      41.658  32.389  30.364  1.00  0.00    -0.248 NA
ATOM     53  C   UNL A   1      39.836  33.576  31.214  1.00  0.00     0.031 C 
ATOM     54  C   UNL A   1      45.869  33.785  30.557  1.00  0.00     0.029 A 
ATOM     55  C   UNL A   1      44.546  33.373  30.526  1.00  0.00     0.049 A 
ATOM     56  H   UNL A   1      43.733  31.581  29.763  1.00  0.00     0.167 HD
ATOM     57  C   UNL A   1      42.109  33.588  30.916  1.00  0.00     0.074 A 
ATOM     58  C   UNL A   1      40.937  34.289  31.396  1.00  0.00     0.031 C 
ATOM     59  C   UNL A   1      43.375  34.068  31.010  1.00  0.00     0.034 A 
BRANCH  46  60
ATOM     60  C   UNL A   1      47.652  30.223  28.680  1.00  0.00     0.023 A 
ATOM     61  C   UNL A   1      48.493  29.696  29.677  1.00  0.00     0.031 A 
ATOM     62  C   UNL A   1      48.224  30.529  27.433  1.00  0.00     0.131 A 
ATOM     63  C   UNL A   1      49.869  29.571  29.438  1.00  0.00     0.055 A 
ATOM     64  C   UNL A   1      49.579  30.316  27.171  1.00  0.00     0.041 A 
ATOM     65  F   UNL A   1      47.480  31.059  26.450  1.00  0.00    -0.206 F 
ATOM     66  C   UNL A   1      50.414  29.851  28.183  1.00  0.00     0.022 A 
BRANCH  63  67
ATOM     67  S   UNL A   1      50.961  29.202  30.839  1.00  0.00     0.124 S 
ATOM     68  O   UNL A   1      52.141  28.671  30.161  1.00  0.00    -0.237 OA
ATOM     69  O   UNL A   1      51.118  30.507  31.469  1.00  0.00    -0.237 OA
ATOM     70  O   UNL A   1      50.204  28.221  31.615  1.00  0.00    -0.744 OA
ENDBRANCH  63  67
ENDBRANCH  46  60
BRANCH  47  71
ATOM     71  C   UNL A   1      37.887  31.564  30.367  1.00  0.00     0.023 A 
ATOM     72  C   UNL A   1      36.983  31.971  29.372  1.00  0.00     0.031 A 
ATOM     73  C   UNL A   1      37.399  31.422  31.679  1.00  0.00     0.131 A 
ATOM     74  C   UNL A   1      35.651  32.265  29.712  1.00  0.00     0.055 A 
ATOM     75  C   UNL A   1      36.061  31.660  32.000  1.00  0.00     0.041 A 
ATOM     76  F   UNL A   1      38.221  31.047  32.672  1.00  0.00    -0.206 F 
ATOM     77  C   UNL A   1      35.182  32.096  31.015  1.00  0.00     0.022 A 
BRANCH  74  78
ATOM     78  S   UNL A   1      34.559  32.958  28.440  1.00  0.00     0.124 S 
ATOM     79  O   UNL A   1      33.907  31.760  27.924  1.00  0.00    -0.237 OA
ATOM     80  O   UNL A   1      33.718  33.861  29.220  1.00  0.00    -0.237 OA
ATOM     81  O   UNL A   1      35.483  33.613  27.517  1.00  0.00    -0.744 OA
ENDBRANCH  74  78
ENDBRANCH  47  71
BRANCH  59  82
ATOM     82  C   UNL A   1      43.559  35.448  31.602  1.00  0.00     0.023 A 
ATOM     83  C   UNL A   1      43.583  35.672  32.989  1.00  0.00     0.031 A 
ATOM     84  C   UNL A   1      43.718  36.560  30.753  1.00  0.00     0.131 A 
ATOM     85  C   UNL A   1      43.711  36.979  33.487  1.00  0.00     0.055 A 
ATOM     86  C   UNL A   1      43.909  37.850  31.254  1.00  0.00     0.041 A 
ATOM     87  F   UNL A   1      43.701  36.411  29.419  1.00  0.00    -0.206 F 
ATOM     88  C   UNL A   1      43.893  38.067  32.628  1.00  0.00     0.022 A 
BRANCH  85  89
ATOM     89  S   UNL A   1      43.549  37.257  35.272  1.00  0.00     0.124 S 
ATOM     90  O   UNL A   1      44.130  38.587  35.427  1.00  0.00    -0.237 OA
ATOM     91  O   UNL A   1      42.107  37.165  35.473  1.00  0.00    -0.237 OA
ATOM     92  O   UNL A   1      44.327  36.169  35.862  1.00  0.00    -0.744 OA
ENDBRANCH  85  89
ENDBRANCH  59  82
ENDBRANCH  33  34
ENDBRANCH  26  28
ENDBRANCH  25  26
ENDBRANCH  24  25
ENDBRANCH  23  24
ENDBRANCH  22  23
ENDBRANCH  21  22
ENDBRANCH  20  21
ENDBRANCH   1  20
TORSDOF 26
ENDMDL
