MODEL 1
REMARK VINA RESULT:     -10.2      0.000      0.000
REMARK SMILES C[C@]1(C(=O)OCCOCCOCCOC(=O)c2ccc(-c3c4nc(c(-c5cc(S(=O)(=O)[O-])ccc5F)c5ccc([nH]5)c(-c5cc(S(=O)(=O)[O-])ccc5F)c5nc(c(-c6cc(S(=O)(=O)[O-])ccc6F)c6ccc3[nH]6)C=C5)C=C4)cc2)COC[C@@H]1NC(=O)[C@H]1C=C[C@@H]([NH3+])C1
REMARK SMILES IDX 9 1 8 2 7 3 6 4 5 5 3 6 4 7 2 8 1 9 80 10 83 11 81 12 82 13
REMARK SMILES IDX 84 14 85 15 86 17 87 18 88 19 92 20 89 21 90 22 91 23 10 27
REMARK SMILES IDX 11 28 12 29 13 30 14 31 15 32 16 33 17 34 18 35 79 36 19 37
REMARK SMILES IDX 78 38 20 39 21 40 22 41 72 42 23 43 77 44 71 45 73 46 24 47
REMARK SMILES IDX 76 48 70 49 69 50 25 52 57 53 37 54 56 55 38 56 41 57 55 58
REMARK SMILES IDX 74 59 39 60 40 61 54 63 75 64 42 65 26 66 27 67 35 68 28 69
REMARK SMILES IDX 34 70 36 71 33 72 29 73 30 74 31 75 32 76 58 77 59 78 67 79
REMARK SMILES IDX 60 80 66 81 68 82 65 83 61 84 62 85 63 86 64 87 43 88 44 89
REMARK SMILES IDX 52 90 45 91 51 92 53 93 50 94 46 95 47 96 48 97 49 98
REMARK H PARENT 84 16 91 24 91 25 91 26 73 51 41 62
REMARK Flexibility Score: inf
ROOT
ATOM      1  C   UNL A   1      31.647  28.356  27.212  1.00  0.00     0.188 C 
ENDROOT
BRANCH   1   2
ATOM      2  O   UNL A   1      30.777  27.312  26.786  1.00  0.00    -0.376 OA
BRANCH   2   3
ATOM      3  C   UNL A   1      31.332  26.316  25.926  1.00  0.00     0.202 C 
BRANCH   3   4
ATOM      4  C   UNL A   1      32.328  25.333  26.560  1.00  0.00     0.261 C 
BRANCH   4   5
ATOM      5  O   UNL A   1      33.423  24.935  25.697  1.00  0.00    -0.463 OA
BRANCH   5   6
ATOM      6  C   UNL A   1      33.623  23.598  25.563  1.00  0.00     0.316 C 
ATOM      7  O   UNL A   1      33.696  22.832  26.522  1.00  0.00    -0.251 OA
BRANCH   6   8
ATOM      8  C   UNL A   1      33.760  23.088  24.124  1.00  0.00     0.111 C 
ATOM      9  C   UNL A   1      35.109  23.681  23.668  1.00  0.00     0.028 C 
ATOM     10  C   UNL A   1      33.800  21.558  24.202  1.00  0.00     0.181 C 
ATOM     11  C   UNL A   1      32.590  23.371  23.171  1.00  0.00     0.127 C 
ATOM     12  O   UNL A   1      32.696  21.000  23.482  1.00  0.00    -0.378 OA
ATOM     13  C   UNL A   1      31.918  22.037  22.896  1.00  0.00     0.186 C 
BRANCH  11  14
ATOM     14  N   UNL A   1      32.895  24.202  21.990  1.00  0.00    -0.349 N 
ATOM     15  C   UNL A   1      32.915  25.509  21.643  1.00  0.00     0.227 C 
ATOM     16  H   UNL A   1      33.165  23.637  21.231  1.00  0.00     0.163 HD
ATOM     17  O   UNL A   1      33.061  25.705  20.425  1.00  0.00    -0.274 OA
BRANCH  15  18
ATOM     18  C   UNL A   1      32.894  26.732  22.570  1.00  0.00     0.107 C 
ATOM     19  C   UNL A   1      33.896  27.828  22.474  1.00  0.00    -0.012 C 
ATOM     20  C   UNL A   1      31.551  27.471  22.440  1.00  0.00     0.087 C 
ATOM     21  C   UNL A   1      33.328  29.039  22.506  1.00  0.00     0.033 C 
ATOM     22  C   UNL A   1      31.851  28.962  22.653  1.00  0.00     0.205 C 
BRANCH  22  23
ATOM     23  N   UNL A   1      31.152  29.795  21.694  1.00  0.00    -0.352 N 
ATOM     24  H   UNL A   1      30.998  30.720  22.096  1.00  0.00     0.345 HD
ATOM     25  H   UNL A   1      30.254  29.369  21.466  1.00  0.00     0.345 HD
ATOM     26  H   UNL A   1      31.712  29.881  20.847  1.00  0.00     0.345 HD
ENDBRANCH  22  23
ENDBRANCH  15  18
ENDBRANCH  11  14
ENDBRANCH   6   8
ENDBRANCH   5   6
ENDBRANCH   4   5
ENDBRANCH   3   4
ENDBRANCH   2   3
ENDBRANCH   1   2
BRANCH   1  27
ATOM     27  C   UNL A   1      32.238  29.208  26.091  1.00  0.00     0.188 C 
BRANCH  27  28
ATOM     28  O   UNL A   1      31.871  30.578  26.162  1.00  0.00    -0.376 OA
BRANCH  28  29
ATOM     29  C   UNL A   1      32.481  31.395  27.162  1.00  0.00     0.202 C 
BRANCH  29  30
ATOM     30  C   UNL A   1      32.250  32.920  27.114  1.00  0.00     0.261 C 
BRANCH  30  31
ATOM     31  O   UNL A   1      32.336  33.615  28.375  1.00  0.00    -0.460 OA
BRANCH  31  32
ATOM     32  C   UNL A   1      33.325  34.531  28.523  1.00  0.00     0.338 C 
ATOM     33  O   UNL A   1      33.210  35.732  28.399  1.00  0.00    -0.246 OA
BRANCH  32  34
ATOM     34  C   UNL A   1      34.508  33.852  29.131  1.00  0.00     0.060 A 
ATOM     35  C   UNL A   1      34.268  32.756  29.971  1.00  0.00     0.016 A 
ATOM     36  C   UNL A   1      35.825  34.216  28.829  1.00  0.00     0.016 A 
ATOM     37  C   UNL A   1      35.334  32.061  30.548  1.00  0.00     0.010 A 
ATOM     38  C   UNL A   1      36.894  33.517  29.410  1.00  0.00     0.010 A 
ATOM     39  C   UNL A   1      36.655  32.457  30.304  1.00  0.00    -0.014 A 
BRANCH  39  40
ATOM     40  C   UNL A   1      37.758  31.874  31.118  1.00  0.00     0.031 A 
ATOM     41  C   UNL A   1      38.562  30.738  30.536  1.00  0.00     0.074 A 
ATOM     42  C   UNL A   1      38.092  32.375  32.322  1.00  0.00     0.049 A 
ATOM     43  N   UNL A   1      39.580  30.090  31.042  1.00  0.00    -0.248 NA
ATOM     44  C   UNL A   1      38.156  30.272  29.201  1.00  0.00     0.031 C 
ATOM     45  C   UNL A   1      37.428  33.496  32.985  1.00  0.00     0.029 A 
ATOM     46  N   UNL A   1      39.085  32.009  33.200  1.00  0.00    -0.354 N 
ATOM     47  C   UNL A   1      39.942  29.145  30.088  1.00  0.00     0.074 A 
ATOM     48  C   UNL A   1      38.999  29.272  28.996  1.00  0.00     0.031 C 
ATOM     49  C   UNL A   1      38.035  33.729  34.162  1.00  0.00     0.029 A 
ATOM     50  C   UNL A   1      39.109  32.754  34.357  1.00  0.00     0.049 A 
ATOM     51  H   UNL A   1      39.721  31.280  33.018  1.00  0.00     0.167 HD
ATOM     52  C   UNL A   1      40.971  28.261  30.109  1.00  0.00     0.034 A 
ATOM     53  C   UNL A   1      39.894  32.654  35.451  1.00  0.00     0.034 A 
ATOM     54  C   UNL A   1      41.899  28.126  31.207  1.00  0.00     0.049 A 
ATOM     55  C   UNL A   1      40.977  31.600  35.490  1.00  0.00     0.074 A 
ATOM     56  C   UNL A   1      42.979  27.266  31.321  1.00  0.00     0.029 A 
ATOM     57  N   UNL A   1      41.851  28.855  32.388  1.00  0.00    -0.354 N 
ATOM     58  N   UNL A   1      41.316  30.722  34.573  1.00  0.00    -0.248 NA
ATOM     59  C   UNL A   1      41.792  31.535  36.711  1.00  0.00     0.031 C 
ATOM     60  C   UNL A   1      43.529  27.416  32.598  1.00  0.00     0.029 A 
ATOM     61  C   UNL A   1      42.857  28.438  33.249  1.00  0.00     0.049 A 
ATOM     62  H   UNL A   1      41.199  29.566  32.586  1.00  0.00     0.167 HD
ATOM     63  C   UNL A   1      42.406  30.026  35.098  1.00  0.00     0.074 A 
ATOM     64  C   UNL A   1      42.681  30.606  36.395  1.00  0.00     0.031 C 
ATOM     65  C   UNL A   1      43.117  29.002  34.553  1.00  0.00     0.034 A 
BRANCH  52  66
ATOM     66  C   UNL A   1      41.111  27.334  28.923  1.00  0.00     0.023 A 
ATOM     67  C   UNL A   1      42.088  27.536  27.931  1.00  0.00     0.031 A 
ATOM     68  C   UNL A   1      40.232  26.247  28.767  1.00  0.00     0.131 A 
ATOM     69  C   UNL A   1      42.115  26.710  26.797  1.00  0.00     0.055 A 
ATOM     70  C   UNL A   1      40.322  25.377  27.679  1.00  0.00     0.041 A 
ATOM     71  F   UNL A   1      39.262  26.018  29.665  1.00  0.00    -0.206 F 
ATOM     72  C   UNL A   1      41.258  25.615  26.678  1.00  0.00     0.022 A 
BRANCH  69  73
ATOM     73  S   UNL A   1      43.184  27.180  25.408  1.00  0.00     0.124 S 
ATOM     74  O   UNL A   1      43.370  25.898  24.732  1.00  0.00    -0.237 OA
ATOM     75  O   UNL A   1      42.370  28.162  24.702  1.00  0.00    -0.237 OA
ATOM     76  O   UNL A   1      44.379  27.709  26.059  1.00  0.00    -0.744 OA
ENDBRANCH  69  73
ENDBRANCH  52  66
BRANCH  53  77
ATOM     77  C   UNL A   1      39.673  33.544  36.632  1.00  0.00     0.023 A 
ATOM     78  C   UNL A   1      40.543  34.611  36.919  1.00  0.00     0.031 A 
ATOM     79  C   UNL A   1      38.630  33.288  37.540  1.00  0.00     0.131 A 
ATOM     80  C   UNL A   1      40.386  35.343  38.108  1.00  0.00     0.055 A 
ATOM     81  C   UNL A   1      38.441  34.058  38.688  1.00  0.00     0.041 A 
ATOM     82  F   UNL A   1      37.776  32.274  37.323  1.00  0.00    -0.206 F 
ATOM     83  C   UNL A   1      39.331  35.084  38.985  1.00  0.00     0.022 A 
BRANCH  80  84
ATOM     84  S   UNL A   1      41.643  36.577  38.544  1.00  0.00     0.124 S 
ATOM     85  O   UNL A   1      40.832  37.623  39.157  1.00  0.00    -0.237 OA
ATOM     86  O   UNL A   1      42.507  35.824  39.446  1.00  0.00    -0.237 OA
ATOM     87  O   UNL A   1      42.241  36.924  37.257  1.00  0.00    -0.744 OA
ENDBRANCH  80  84
ENDBRANCH  53  77
BRANCH  65  88
ATOM     88  C   UNL A   1      44.292  28.477  35.353  1.00  0.00     0.023 A 
ATOM     89  C   UNL A   1      44.152  27.425  36.277  1.00  0.00     0.031 A 
ATOM     90  C   UNL A   1      45.562  29.071  35.224  1.00  0.00     0.131 A 
ATOM     91  C   UNL A   1      45.233  27.061  37.095  1.00  0.00     0.055 A 
ATOM     92  C   UNL A   1      46.654  28.649  35.984  1.00  0.00     0.041 A 
ATOM     93  F   UNL A   1      45.761  30.081  34.363  1.00  0.00    -0.206 F 
ATOM     94  C   UNL A   1      46.488  27.654  36.942  1.00  0.00     0.022 A 
BRANCH  91  95
ATOM     95  S   UNL A   1      44.936  25.909  38.466  1.00  0.00     0.124 S 
ATOM     96  O   UNL A   1      44.188  26.742  39.404  1.00  0.00    -0.237 OA
ATOM     97  O   UNL A   1      44.181  24.843  37.817  1.00  0.00    -0.237 OA
ATOM     98  O   UNL A   1      46.281  25.541  38.902  1.00  0.00    -0.744 OA
ENDBRANCH  91  95
ENDBRANCH  65  88
ENDBRANCH  39  40
ENDBRANCH  32  34
ENDBRANCH  31  32
ENDBRANCH  30  31
ENDBRANCH  29  30
ENDBRANCH  28  29
ENDBRANCH  27  28
ENDBRANCH   1  27
TORSDOF 23
ENDMDL
MODEL 2
REMARK VINA RESULT:     -10.1      1.895      8.024
REMARK SMILES C[C@]1(C(=O)OCCOCCOCCOC(=O)c2ccc(-c3c4nc(c(-c5cc(S(=O)(=O)[O-])ccc5F)c5ccc([nH]5)c(-c5cc(S(=O)(=O)[O-])ccc5F)c5nc(c(-c6cc(S(=O)(=O)[O-])ccc6F)c6ccc3[nH]6)C=C5)C=C4)cc2)COC[C@@H]1NC(=O)[C@H]1C=C[C@@H]([NH3+])C1
REMARK SMILES IDX 9 1 8 2 7 3 6 4 5 5 3 6 4 7 2 8 1 9 80 10 83 11 81 12 82 13
REMARK SMILES IDX 84 14 85 15 86 17 87 18 88 19 92 20 89 21 90 22 91 23 10 27
REMARK SMILES IDX 11 28 12 29 13 30 14 31 15 32 16 33 17 34 18 35 79 36 19 37
REMARK SMILES IDX 78 38 20 39 21 40 22 41 72 42 23 43 77 44 71 45 73 46 24 47
REMARK SMILES IDX 76 48 70 49 69 50 25 52 57 53 37 54 56 55 38 56 41 57 55 58
REMARK SMILES IDX 74 59 39 60 40 61 54 63 75 64 42 65 26 66 27 67 35 68 28 69
REMARK SMILES IDX 34 70 36 71 33 72 29 73 30 74 31 75 32 76 58 77 59 78 67 79
REMARK SMILES IDX 60 80 66 81 68 82 65 83 61 84 62 85 63 86 64 87 43 88 44 89
REMARK SMILES IDX 52 90 45 91 51 92 53 93 50 94 46 95 47 96 48 97 49 98
REMARK H PARENT 84 16 91 24 91 25 91 26 73 51 41 62
REMARK Flexibility Score: inf
ROOT
ATOM      1  C   UNL A   1      33.314  29.003  26.006  1.00  0.00     0.188 C 
ENDROOT
BRANCH   1   2
ATOM      2  O   UNL A   1      33.816  28.741  24.698  1.00  0.00    -0.376 OA
BRANCH   2   3
ATOM      3  C   UNL A   1      32.878  28.787  23.623  1.00  0.00     0.202 C 
BRANCH   3   4
ATOM      4  C   UNL A   1      33.332  28.188  22.282  1.00  0.00     0.261 C 
BRANCH   4   5
ATOM      5  O   UNL A   1      33.665  26.778  22.327  1.00  0.00    -0.463 OA
BRANCH   5   6
ATOM      6  C   UNL A   1      32.616  25.916  22.352  1.00  0.00     0.316 C 
ATOM      7  O   UNL A   1      31.666  25.994  21.575  1.00  0.00    -0.251 OA
BRANCH   6   8
ATOM      8  C   UNL A   1      32.680  24.822  23.424  1.00  0.00     0.111 C 
ATOM      9  C   UNL A   1      31.367  24.043  23.212  1.00  0.00     0.028 C 
ATOM     10  C   UNL A   1      33.914  23.969  23.107  1.00  0.00     0.181 C 
ATOM     11  C   UNL A   1      32.919  25.279  24.871  1.00  0.00     0.127 C 
ATOM     12  O   UNL A   1      34.841  24.022  24.196  1.00  0.00    -0.378 OA
ATOM     13  C   UNL A   1      34.321  24.830  25.245  1.00  0.00     0.186 C 
BRANCH  11  14
ATOM     14  N   UNL A   1      31.853  24.962  25.840  1.00  0.00    -0.349 N 
ATOM     15  C   UNL A   1      31.332  23.880  26.463  1.00  0.00     0.227 C 
ATOM     16  H   UNL A   1      31.381  25.780  26.114  1.00  0.00     0.163 HD
ATOM     17  O   UNL A   1      30.271  24.108  27.068  1.00  0.00    -0.274 OA
BRANCH  15  18
ATOM     18  C   UNL A   1      31.947  22.480  26.594  1.00  0.00     0.107 C 
ATOM     19  C   UNL A   1      32.254  21.627  25.413  1.00  0.00    -0.012 C 
ATOM     20  C   UNL A   1      33.295  22.561  27.330  1.00  0.00     0.087 C 
ATOM     21  C   UNL A   1      33.473  21.081  25.485  1.00  0.00     0.033 C 
ATOM     22  C   UNL A   1      34.183  21.457  26.737  1.00  0.00     0.205 C 
BRANCH  22  23
ATOM     23  N   UNL A   1      35.533  21.924  26.492  1.00  0.00    -0.352 N 
ATOM     24  H   UNL A   1      36.074  21.183  26.045  1.00  0.00     0.345 HD
ATOM     25  H   UNL A   1      35.970  22.177  27.378  1.00  0.00     0.345 HD
ATOM     26  H   UNL A   1      35.505  22.740  25.881  1.00  0.00     0.345 HD
ENDBRANCH  22  23
ENDBRANCH  15  18
ENDBRANCH  11  14
ENDBRANCH   6   8
ENDBRANCH   5   6
ENDBRANCH   4   5
ENDBRANCH   3   4
ENDBRANCH   2   3
ENDBRANCH   1   2
BRANCH   1  27
ATOM     27  C   UNL A   1      31.803  29.206  26.092  1.00  0.00     0.188 C 
BRANCH  27  28
ATOM     28  O   UNL A   1      31.427  30.430  26.709  1.00  0.00    -0.376 OA
BRANCH  28  29
ATOM     29  C   UNL A   1      32.423  31.438  26.881  1.00  0.00     0.202 C 
BRANCH  29  30
ATOM     30  C   UNL A   1      31.968  32.898  27.091  1.00  0.00     0.261 C 
BRANCH  30  31
ATOM     31  O   UNL A   1      33.017  33.867  27.295  1.00  0.00    -0.460 OA
BRANCH  31  32
ATOM     32  C   UNL A   1      33.318  34.211  28.572  1.00  0.00     0.338 C 
ATOM     33  O   UNL A   1      32.599  34.821  29.335  1.00  0.00    -0.246 OA
BRANCH  32  34
ATOM     34  C   UNL A   1      34.558  33.483  28.975  1.00  0.00     0.060 A 
ATOM     35  C   UNL A   1      34.407  32.272  29.665  1.00  0.00     0.016 A 
ATOM     36  C   UNL A   1      35.840  33.921  28.621  1.00  0.00     0.016 A 
ATOM     37  C   UNL A   1      35.528  31.530  30.045  1.00  0.00     0.010 A 
ATOM     38  C   UNL A   1      36.964  33.174  29.005  1.00  0.00     0.010 A 
ATOM     39  C   UNL A   1      36.817  31.991  29.752  1.00  0.00    -0.014 A 
BRANCH  39  40
ATOM     40  C   UNL A   1      37.995  31.327  30.379  1.00  0.00     0.031 A 
ATOM     41  C   UNL A   1      38.310  31.631  31.822  1.00  0.00     0.074 A 
ATOM     42  C   UNL A   1      38.737  30.422  29.713  1.00  0.00     0.049 A 
ATOM     43  N   UNL A   1      39.261  31.159  32.586  1.00  0.00    -0.248 NA
ATOM     44  C   UNL A   1      37.430  32.603  32.488  1.00  0.00     0.031 C 
ATOM     45  C   UNL A   1      38.519  30.004  28.329  1.00  0.00     0.029 A 
ATOM     46  N   UNL A   1      39.823  29.683  30.119  1.00  0.00    -0.354 N 
ATOM     47  C   UNL A   1      39.092  31.769  33.825  1.00  0.00     0.074 A 
ATOM     48  C   UNL A   1      37.978  32.684  33.691  1.00  0.00     0.031 C 
ATOM     49  C   UNL A   1      39.440  29.079  28.004  1.00  0.00     0.029 A 
ATOM     50  C   UNL A   1      40.335  28.862  29.140  1.00  0.00     0.049 A 
ATOM     51  H   UNL A   1      40.200  29.736  31.026  1.00  0.00     0.167 HD
ATOM     52  C   UNL A   1      39.788  31.577  34.974  1.00  0.00     0.034 A 
ATOM     53  C   UNL A   1      41.408  28.043  29.153  1.00  0.00     0.034 A 
ATOM     54  C   UNL A   1      40.909  30.676  35.099  1.00  0.00     0.049 A 
ATOM     55  C   UNL A   1      42.226  27.914  30.419  1.00  0.00     0.074 A 
ATOM     56  C   UNL A   1      41.676  30.405  36.220  1.00  0.00     0.029 A 
ATOM     57  N   UNL A   1      41.438  29.910  34.068  1.00  0.00    -0.354 N 
ATOM     58  N   UNL A   1      42.044  28.487  31.587  1.00  0.00    -0.248 NA
ATOM     59  C   UNL A   1      43.385  27.014  30.368  1.00  0.00     0.031 C 
ATOM     60  C   UNL A   1      42.713  29.544  35.849  1.00  0.00     0.029 A 
ATOM     61  C   UNL A   1      42.541  29.198  34.518  1.00  0.00     0.049 A 
ATOM     62  H   UNL A   1      41.081  29.875  33.151  1.00  0.00     0.167 HD
ATOM     63  C   UNL A   1      43.050  27.988  32.416  1.00  0.00     0.074 A 
ATOM     64  C   UNL A   1      43.812  27.049  31.620  1.00  0.00     0.031 C 
ATOM     65  C   UNL A   1      43.316  28.277  33.718  1.00  0.00     0.034 A 
BRANCH  52  66
ATOM     66  C   UNL A   1      39.384  32.403  36.173  1.00  0.00     0.023 A 
ATOM     67  C   UNL A   1      40.020  33.616  36.491  1.00  0.00     0.031 A 
ATOM     68  C   UNL A   1      38.364  31.954  37.031  1.00  0.00     0.131 A 
ATOM     69  C   UNL A   1      39.681  34.298  37.670  1.00  0.00     0.055 A 
ATOM     70  C   UNL A   1      37.971  32.681  38.155  1.00  0.00     0.041 A 
ATOM     71  F   UNL A   1      37.737  30.790  36.797  1.00  0.00    -0.206 F 
ATOM     72  C   UNL A   1      38.641  33.854  38.489  1.00  0.00     0.022 A 
BRANCH  69  73
ATOM     73  S   UNL A   1      40.721  35.688  38.198  1.00  0.00     0.124 S 
ATOM     74  O   UNL A   1      42.018  35.316  37.638  1.00  0.00    -0.237 OA
ATOM     75  O   UNL A   1      40.061  36.829  37.576  1.00  0.00    -0.237 OA
ATOM     76  O   UNL A   1      40.644  35.639  39.655  1.00  0.00    -0.744 OA
ENDBRANCH  69  73
ENDBRANCH  52  66
BRANCH  53  77
ATOM     77  C   UNL A   1      41.815  27.300  27.921  1.00  0.00     0.023 A 
ATOM     78  C   UNL A   1      41.491  25.944  27.742  1.00  0.00     0.031 A 
ATOM     79  C   UNL A   1      42.609  27.918  26.939  1.00  0.00     0.131 A 
ATOM     80  C   UNL A   1      42.002  25.240  26.638  1.00  0.00     0.055 A 
ATOM     81  C   UNL A   1      43.063  27.231  25.812  1.00  0.00     0.041 A 
ATOM     82  F   UNL A   1      42.960  29.209  27.064  1.00  0.00    -0.206 F 
ATOM     83  C   UNL A   1      42.772  25.879  25.664  1.00  0.00     0.022 A 
BRANCH  80  84
ATOM     84  S   UNL A   1      41.731  23.448  26.544  1.00  0.00     0.124 S 
ATOM     85  O   UNL A   1      42.382  22.985  27.764  1.00  0.00    -0.237 OA
ATOM     86  O   UNL A   1      40.275  23.362  26.522  1.00  0.00    -0.237 OA
ATOM     87  O   UNL A   1      42.395  23.068  25.299  1.00  0.00    -0.744 OA
ENDBRANCH  80  84
ENDBRANCH  53  77
BRANCH  65  88
ATOM     88  C   UNL A   1      44.460  27.529  34.370  1.00  0.00     0.023 A 
ATOM     89  C   UNL A   1      44.250  26.367  35.135  1.00  0.00     0.031 A 
ATOM     90  C   UNL A   1      45.778  28.013  34.264  1.00  0.00     0.131 A 
ATOM     91  C   UNL A   1      45.318  25.784  35.834  1.00  0.00     0.055 A 
ATOM     92  C   UNL A   1      46.850  27.380  34.896  1.00  0.00     0.041 A 
ATOM     93  F   UNL A   1      46.046  29.118  33.551  1.00  0.00    -0.206 F 
ATOM     94  C   UNL A   1      46.620  26.271  35.705  1.00  0.00     0.022 A 
BRANCH  91  95
ATOM     95  S   UNL A   1      44.957  24.471  37.034  1.00  0.00     0.124 S 
ATOM     96  O   UNL A   1      43.544  24.702  37.320  1.00  0.00    -0.237 OA
ATOM     97  O   UNL A   1      45.264  23.263  36.275  1.00  0.00    -0.237 OA
ATOM     98  O   UNL A   1      45.868  24.758  38.141  1.00  0.00    -0.744 OA
ENDBRANCH  91  95
ENDBRANCH  65  88
ENDBRANCH  39  40
ENDBRANCH  32  34
ENDBRANCH  31  32
ENDBRANCH  30  31
ENDBRANCH  29  30
ENDBRANCH  28  29
ENDBRANCH  27  28
ENDBRANCH   1  27
TORSDOF 23
ENDMDL
MODEL 3
REMARK VINA RESULT:      -9.9      2.321      3.497
REMARK SMILES C[C@]1(C(=O)OCCOCCOCCOC(=O)c2ccc(-c3c4nc(c(-c5cc(S(=O)(=O)[O-])ccc5F)c5ccc([nH]5)c(-c5cc(S(=O)(=O)[O-])ccc5F)c5nc(c(-c6cc(S(=O)(=O)[O-])ccc6F)c6ccc3[nH]6)C=C5)C=C4)cc2)COC[C@@H]1NC(=O)[C@H]1C=C[C@@H]([NH3+])C1
REMARK SMILES IDX 9 1 8 2 7 3 6 4 5 5 3 6 4 7 2 8 1 9 80 10 83 11 81 12 82 13
REMARK SMILES IDX 84 14 85 15 86 17 87 18 88 19 92 20 89 21 90 22 91 23 10 27
REMARK SMILES IDX 11 28 12 29 13 30 14 31 15 32 16 33 17 34 18 35 79 36 19 37
REMARK SMILES IDX 78 38 20 39 21 40 22 41 72 42 23 43 77 44 71 45 73 46 24 47
REMARK SMILES IDX 76 48 70 49 69 50 25 52 57 53 37 54 56 55 38 56 41 57 55 58
REMARK SMILES IDX 74 59 39 60 40 61 54 63 75 64 42 65 26 66 27 67 35 68 28 69
REMARK SMILES IDX 34 70 36 71 33 72 29 73 30 74 31 75 32 76 58 77 59 78 67 79
REMARK SMILES IDX 60 80 66 81 68 82 65 83 61 84 62 85 63 86 64 87 43 88 44 89
REMARK SMILES IDX 52 90 45 91 51 92 53 93 50 94 46 95 47 96 48 97 49 98
REMARK H PARENT 84 16 91 24 91 25 91 26 73 51 41 62
REMARK Flexibility Score: inf
ROOT
ATOM      1  C   UNL A   1      33.302  29.031  26.134  1.00  0.00     0.188 C 
ENDROOT
BRANCH   1   2
ATOM      2  O   UNL A   1      33.927  28.948  24.857  1.00  0.00    -0.376 OA
BRANCH   2   3
ATOM      3  C   UNL A   1      33.068  28.906  23.717  1.00  0.00     0.202 C 
BRANCH   3   4
ATOM      4  C   UNL A   1      31.833  27.996  23.814  1.00  0.00     0.261 C 
BRANCH   4   5
ATOM      5  O   UNL A   1      31.949  26.734  23.111  1.00  0.00    -0.463 OA
BRANCH   5   6
ATOM      6  C   UNL A   1      31.290  25.681  23.660  1.00  0.00     0.316 C 
ATOM      7  O   UNL A   1      30.065  25.628  23.748  1.00  0.00    -0.251 OA
BRANCH   6   8
ATOM      8  C   UNL A   1      32.176  24.542  24.179  1.00  0.00     0.111 C 
ATOM      9  C   UNL A   1      31.171  23.399  24.425  1.00  0.00     0.028 C 
ATOM     10  C   UNL A   1      33.163  24.207  23.055  1.00  0.00     0.181 C 
ATOM     11  C   UNL A   1      33.084  24.856  25.376  1.00  0.00     0.127 C 
ATOM     12  O   UNL A   1      34.506  24.427  23.499  1.00  0.00    -0.378 OA
ATOM     13  C   UNL A   1      34.510  24.863  24.854  1.00  0.00     0.186 C 
BRANCH  11  14
ATOM     14  N   UNL A   1      32.844  24.070  26.602  1.00  0.00    -0.349 N 
ATOM     15  C   UNL A   1      33.067  22.822  27.071  1.00  0.00     0.227 C 
ATOM     16  H   UNL A   1      32.385  24.618  27.278  1.00  0.00     0.163 HD
ATOM     17  O   UNL A   1      32.483  22.571  28.139  1.00  0.00    -0.274 OA
BRANCH  15  18
ATOM     18  C   UNL A   1      34.020  21.759  26.508  1.00  0.00     0.107 C 
ATOM     19  C   UNL A   1      33.868  21.191  25.140  1.00  0.00    -0.012 C 
ATOM     20  C   UNL A   1      35.464  22.289  26.510  1.00  0.00     0.087 C 
ATOM     21  C   UNL A   1      35.028  21.150  24.475  1.00  0.00     0.033 C 
ATOM     22  C   UNL A   1      36.160  21.663  25.291  1.00  0.00     0.205 C 
BRANCH  22  23
ATOM     23  N   UNL A   1      36.968  22.632  24.576  1.00  0.00    -0.352 N 
ATOM     24  H   UNL A   1      36.667  22.672  23.602  1.00  0.00     0.345 HD
ATOM     25  H   UNL A   1      37.948  22.354  24.618  1.00  0.00     0.345 HD
ATOM     26  H   UNL A   1      36.856  23.550  25.005  1.00  0.00     0.345 HD
ENDBRANCH  22  23
ENDBRANCH  15  18
ENDBRANCH  11  14
ENDBRANCH   6   8
ENDBRANCH   5   6
ENDBRANCH   4   5
ENDBRANCH   3   4
ENDBRANCH   2   3
ENDBRANCH   1   2
BRANCH   1  27
ATOM     27  C   UNL A   1      34.144  29.686  27.228  1.00  0.00     0.188 C 
BRANCH  27  28
ATOM     28  O   UNL A   1      33.865  31.066  27.413  1.00  0.00    -0.376 OA
BRANCH  28  29
ATOM     29  C   UNL A   1      32.604  31.570  26.972  1.00  0.00     0.202 C 
BRANCH  29  30
ATOM     30  C   UNL A   1      32.400  33.098  26.904  1.00  0.00     0.261 C 
BRANCH  30  31
ATOM     31  O   UNL A   1      32.226  33.772  28.168  1.00  0.00    -0.460 OA
BRANCH  31  32
ATOM     32  C   UNL A   1      33.180  34.660  28.546  1.00  0.00     0.338 C 
ATOM     33  O   UNL A   1      33.036  35.858  28.654  1.00  0.00    -0.246 OA
BRANCH  32  34
ATOM     34  C   UNL A   1      34.351  33.896  29.069  1.00  0.00     0.060 A 
ATOM     35  C   UNL A   1      34.104  32.895  30.019  1.00  0.00     0.016 A 
ATOM     36  C   UNL A   1      35.653  34.088  28.591  1.00  0.00     0.016 A 
ATOM     37  C   UNL A   1      35.155  32.127  30.527  1.00  0.00     0.010 A 
ATOM     38  C   UNL A   1      36.706  33.316  29.103  1.00  0.00     0.010 A 
ATOM     39  C   UNL A   1      36.470  32.354  30.102  1.00  0.00    -0.014 A 
BRANCH  39  40
ATOM     40  C   UNL A   1      37.598  31.709  30.832  1.00  0.00     0.031 A 
ATOM     41  C   UNL A   1      38.398  30.644  30.126  1.00  0.00     0.074 A 
ATOM     42  C   UNL A   1      37.956  32.098  32.070  1.00  0.00     0.049 A 
ATOM     43  N   UNL A   1      39.434  29.963  30.544  1.00  0.00    -0.248 NA
ATOM     44  C   UNL A   1      37.965  30.302  28.762  1.00  0.00     0.031 C 
ATOM     45  C   UNL A   1      37.297  33.143  32.852  1.00  0.00     0.029 A 
ATOM     46  N   UNL A   1      38.973  31.661  32.886  1.00  0.00    -0.354 N 
ATOM     47  C   UNL A   1      39.782  29.117  29.496  1.00  0.00     0.074 A 
ATOM     48  C   UNL A   1      38.813  29.336  28.443  1.00  0.00     0.031 C 
ATOM     49  C   UNL A   1      37.930  33.269  34.032  1.00  0.00     0.029 A 
ATOM     50  C   UNL A   1      39.017  32.293  34.108  1.00  0.00     0.049 A 
ATOM     51  H   UNL A   1      39.611  30.960  32.621  1.00  0.00     0.167 HD
ATOM     52  C   UNL A   1      40.820  28.247  29.409  1.00  0.00     0.034 A 
ATOM     53  C   UNL A   1      39.829  32.099  35.170  1.00  0.00     0.034 A 
ATOM     54  C   UNL A   1      41.775  28.019  30.468  1.00  0.00     0.049 A 
ATOM     55  C   UNL A   1      40.924  31.058  35.083  1.00  0.00     0.074 A 
ATOM     56  C   UNL A   1      42.866  27.166  30.474  1.00  0.00     0.029 A 
ATOM     57  N   UNL A   1      41.748  28.632  31.714  1.00  0.00    -0.354 N 
ATOM     58  N   UNL A   1      41.249  30.276  34.078  1.00  0.00    -0.248 NA
ATOM     59  C   UNL A   1      41.768  30.887  36.273  1.00  0.00     0.031 C 
ATOM     60  C   UNL A   1      43.445  27.200  31.746  1.00  0.00     0.029 A 
ATOM     61  C   UNL A   1      42.779  28.147  32.507  1.00  0.00     0.049 A 
ATOM     62  H   UNL A   1      41.095  29.313  31.993  1.00  0.00     0.167 HD
ATOM     63  C   UNL A   1      42.358  29.546  34.509  1.00  0.00     0.074 A 
ATOM     64  C   UNL A   1      42.658  30.003  35.849  1.00  0.00     0.031 C 
ATOM     65  C   UNL A   1      43.065  28.587  33.853  1.00  0.00     0.034 A 
BRANCH  52  66
ATOM     66  C   UNL A   1      40.940  27.440  28.137  1.00  0.00     0.023 A 
ATOM     67  C   UNL A   1      40.556  26.088  28.074  1.00  0.00     0.031 A 
ATOM     68  C   UNL A   1      41.475  28.024  26.975  1.00  0.00     0.131 A 
ATOM     69  C   UNL A   1      40.779  25.350  26.902  1.00  0.00     0.055 A 
ATOM     70  C   UNL A   1      41.614  27.307  25.785  1.00  0.00     0.041 A 
ATOM     71  F   UNL A   1      41.885  29.302  26.979  1.00  0.00    -0.206 F 
ATOM     72  C   UNL A   1      41.279  25.957  25.748  1.00  0.00     0.022 A 
BRANCH  69  73
ATOM     73  S   UNL A   1      40.553  23.550  26.953  1.00  0.00     0.124 S 
ATOM     74  O   UNL A   1      39.150  23.418  26.567  1.00  0.00    -0.237 OA
ATOM     75  O   UNL A   1      41.530  23.082  25.978  1.00  0.00    -0.237 OA
ATOM     76  O   UNL A   1      40.842  23.208  28.343  1.00  0.00    -0.744 OA
ENDBRANCH  69  73
ENDBRANCH  52  66
BRANCH  53  77
ATOM     77  C   UNL A   1      39.628  32.870  36.434  1.00  0.00     0.023 A 
ATOM     78  C   UNL A   1      38.786  32.398  37.455  1.00  0.00     0.031 A 
ATOM     79  C   UNL A   1      40.216  34.136  36.604  1.00  0.00     0.131 A 
ATOM     80  C   UNL A   1      38.514  33.208  38.571  1.00  0.00     0.055 A 
ATOM     81  C   UNL A   1      39.992  34.910  37.743  1.00  0.00     0.041 A 
ATOM     82  F   UNL A   1      41.021  34.643  35.656  1.00  0.00    -0.206 F 
ATOM     83  C   UNL A   1      39.124  34.454  38.729  1.00  0.00     0.022 A 
BRANCH  80  84
ATOM     84  S   UNL A   1      37.268  32.653  39.769  1.00  0.00     0.124 S 
ATOM     85  O   UNL A   1      36.049  32.694  38.970  1.00  0.00    -0.237 OA
ATOM     86  O   UNL A   1      37.758  31.325  40.123  1.00  0.00    -0.237 OA
ATOM     87  O   UNL A   1      37.352  33.650  40.833  1.00  0.00    -0.744 OA
ENDBRANCH  80  84
ENDBRANCH  53  77
BRANCH  65  88
ATOM     88  C   UNL A   1      44.264  28.003  34.572  1.00  0.00     0.023 A 
ATOM     89  C   UNL A   1      44.152  26.883  35.416  1.00  0.00     0.031 A 
ATOM     90  C   UNL A   1      45.530  28.605  34.448  1.00  0.00     0.131 A 
ATOM     91  C   UNL A   1      45.257  26.457  36.168  1.00  0.00     0.055 A 
ATOM     92  C   UNL A   1      46.646  28.126  35.138  1.00  0.00     0.041 A 
ATOM     93  F   UNL A   1      45.704  29.678  33.661  1.00  0.00    -0.206 F 
ATOM     94  C   UNL A   1      46.508  27.060  36.021  1.00  0.00     0.022 A 
BRANCH  91  95
ATOM     95  S   UNL A   1      45.001  25.203  37.456  1.00  0.00     0.124 S 
ATOM     96  O   UNL A   1      43.584  24.890  37.297  1.00  0.00    -0.237 OA
ATOM     97  O   UNL A   1      45.934  24.155  37.057  1.00  0.00    -0.237 OA
ATOM     98  O   UNL A   1      45.346  25.905  38.691  1.00  0.00    -0.744 OA
ENDBRANCH  91  95
ENDBRANCH  65  88
ENDBRANCH  39  40
ENDBRANCH  32  34
ENDBRANCH  31  32
ENDBRANCH  30  31
ENDBRANCH  29  30
ENDBRANCH  28  29
ENDBRANCH  27  28
ENDBRANCH   1  27
TORSDOF 23
ENDMDL
