MODEL 1
REMARK VINA RESULT:     -10.3      0.000      0.000
REMARK SMILES N#Cc1ccccc1Cn1cccc1C(=O)OCCOCCOCCOC(=O)c1ccc(-c2c3nc(c(-c4cc(S(=O)(=O)[O-])ccc4F)c4ccc([nH]4)c(-c4cc(S(=O)(=O)[O-])ccc4F)c4nc(c(-c5cc(S(=O)(=O)[O-])ccc5F)c5ccc2[nH]5)C=C4)C=C3)cc1
REMARK SMILES IDX 21 1 20 2 19 3 18 4 17 5 15 6 16 7 14 8 10 9 11 10 12 11
REMARK SMILES IDX 13 12 9 13 8 14 3 15 4 16 5 17 7 18 6 19 2 20 1 21 22 22
REMARK SMILES IDX 23 23 24 24 25 25 26 26 27 27 28 28 29 29 30 30 91 31 31 32
REMARK SMILES IDX 90 33 32 34 33 35 34 36 84 37 35 38 89 39 83 40 85 41 36 42
REMARK SMILES IDX 88 43 82 44 81 45 37 47 69 48 49 49 68 50 50 51 53 52 67 53
REMARK SMILES IDX 86 54 51 55 52 56 66 58 87 59 54 60 38 61 39 62 47 63 40 64
REMARK SMILES IDX 46 65 48 66 45 67 41 68 42 69 43 70 44 71 70 72 71 73 79 74
REMARK SMILES IDX 72 75 78 76 80 77 77 78 73 79 74 80 75 81 76 82 55 83 56 84
REMARK SMILES IDX 64 85 57 86 63 87 65 88 62 89 58 90 59 91 60 92 61 93
REMARK H PARENT 85 46 53 57
REMARK Flexibility Score: inf
ROOT
ATOM      1  C   UNL A   1      31.781  29.842  25.148  1.00  0.00     0.188 C 
ENDROOT
BRANCH   1   2
ATOM      2  O   UNL A   1      30.517  29.985  24.546  1.00  0.00    -0.376 OA
BRANCH   2   3
ATOM      3  C   UNL A   1      29.912  28.900  23.867  1.00  0.00     0.202 C 
BRANCH   3   4
ATOM      4  C   UNL A   1      30.607  27.939  22.874  1.00  0.00     0.261 C 
BRANCH   4   5
ATOM      5  O   UNL A   1      30.446  26.531  23.068  1.00  0.00    -0.459 OA
BRANCH   5   6
ATOM      6  C   UNL A   1      31.585  25.792  22.990  1.00  0.00     0.355 C 
ATOM      7  O   UNL A   1      32.393  25.854  22.071  1.00  0.00    -0.244 OA
BRANCH   6   8
ATOM      8  C   UNL A   1      31.823  25.080  24.228  1.00  0.00     0.127 A 
ATOM      9  N   UNL A   1      32.458  23.863  24.460  1.00  0.00    -0.338 N 
ATOM     10  C   UNL A   1      32.599  23.720  25.828  1.00  0.00     0.087 A 
ATOM     11  C   UNL A   1      31.836  24.666  26.464  1.00  0.00     0.020 A 
ATOM     12  C   UNL A   1      31.377  25.538  25.466  1.00  0.00     0.035 A 
BRANCH   9  13
ATOM     13  C   UNL A   1      33.067  22.953  23.471  1.00  0.00     0.159 C 
BRANCH  13  14
ATOM     14  C   UNL A   1      34.404  22.352  23.899  1.00  0.00    -0.010 A 
ATOM     15  C   UNL A   1      34.498  21.171  24.665  1.00  0.00     0.057 A 
ATOM     16  C   UNL A   1      35.751  20.723  25.133  1.00  0.00     0.020 A 
ATOM     17  C   UNL A   1      36.924  21.392  24.789  1.00  0.00     0.001 A 
ATOM     18  C   UNL A   1      35.616  22.945  23.490  1.00  0.00     0.007 A 
ATOM     19  C   UNL A   1      36.857  22.485  23.940  1.00  0.00     0.000 A 
BRANCH  15  20
ATOM     20  C   UNL A   1      33.365  20.334  24.907  1.00  0.00     0.099 C 
ATOM     21  N   UNL A   1      32.405  19.702  25.150  1.00  0.00    -0.192 NA
ENDBRANCH  15  20
ENDBRANCH  13  14
ENDBRANCH   9  13
ENDBRANCH   6   8
ENDBRANCH   5   6
ENDBRANCH   4   5
ENDBRANCH   3   4
ENDBRANCH   2   3
ENDBRANCH   1   2
BRANCH   1  22
ATOM     22  C   UNL A   1      31.764  29.568  26.659  1.00  0.00     0.188 C 
BRANCH  22  23
ATOM     23  O   UNL A   1      32.513  28.509  27.220  1.00  0.00    -0.376 OA
BRANCH  23  24
ATOM     24  C   UNL A   1      33.874  28.239  26.924  1.00  0.00     0.202 C 
BRANCH  24  25
ATOM     25  C   UNL A   1      35.005  29.266  26.936  1.00  0.00     0.261 C 
BRANCH  25  26
ATOM     26  O   UNL A   1      36.099  28.986  27.778  1.00  0.00    -0.460 OA
BRANCH  26  27
ATOM     27  C   UNL A   1      36.719  30.122  28.138  1.00  0.00     0.338 C 
ATOM     28  O   UNL A   1      36.485  31.262  27.770  1.00  0.00    -0.246 OA
BRANCH  27  29
ATOM     29  C   UNL A   1      37.848  29.790  28.981  1.00  0.00     0.060 A 
ATOM     30  C   UNL A   1      39.073  30.353  28.625  1.00  0.00     0.016 A 
ATOM     31  C   UNL A   1      37.712  28.599  29.699  1.00  0.00     0.016 A 
ATOM     32  C   UNL A   1      40.194  29.590  28.824  1.00  0.00     0.010 A 
ATOM     33  C   UNL A   1      38.823  27.808  29.830  1.00  0.00     0.010 A 
ATOM     34  C   UNL A   1      40.043  28.299  29.356  1.00  0.00    -0.014 A 
BRANCH  34  35
ATOM     35  C   UNL A   1      41.268  27.559  29.645  1.00  0.00     0.031 A 
ATOM     36  C   UNL A   1      41.367  26.434  28.564  1.00  0.00     0.074 A 
ATOM     37  C   UNL A   1      41.927  27.955  30.790  1.00  0.00     0.049 A 
ATOM     38  N   UNL A   1      41.804  25.224  28.666  1.00  0.00    -0.248 NA
ATOM     39  C   UNL A   1      40.765  26.628  27.197  1.00  0.00     0.031 C 
ATOM     40  C   UNL A   1      41.612  29.161  31.615  1.00  0.00     0.029 A 
ATOM     41  N   UNL A   1      42.990  27.457  31.514  1.00  0.00    -0.354 N 
ATOM     42  C   UNL A   1      41.837  24.660  27.366  1.00  0.00     0.074 A 
ATOM     43  C   UNL A   1      41.022  25.491  26.547  1.00  0.00     0.031 C 
ATOM     44  C   UNL A   1      42.370  29.218  32.742  1.00  0.00     0.029 A 
ATOM     45  C   UNL A   1      43.270  28.079  32.783  1.00  0.00     0.049 A 
ATOM     46  H   UNL A   1      43.534  26.709  31.177  1.00  0.00     0.167 HD
ATOM     47  C   UNL A   1      42.703  23.659  27.034  1.00  0.00     0.034 A 
ATOM     48  C   UNL A   1      44.127  27.647  33.780  1.00  0.00     0.034 A 
ATOM     49  C   UNL A   1      43.433  23.299  28.204  1.00  0.00     0.049 A 
ATOM     50  C   UNL A   1      44.802  26.520  33.117  1.00  0.00     0.074 A 
ATOM     51  C   UNL A   1      43.036  22.682  29.361  1.00  0.00     0.029 A 
ATOM     52  N   UNL A   1      44.609  23.986  28.424  1.00  0.00    -0.354 N 
ATOM     53  N   UNL A   1      45.695  26.641  32.185  1.00  0.00    -0.248 NA
ATOM     54  C   UNL A   1      44.344  25.158  33.419  1.00  0.00     0.031 C 
ATOM     55  C   UNL A   1      43.635  23.500  30.335  1.00  0.00     0.029 A 
ATOM     56  C   UNL A   1      44.646  24.283  29.759  1.00  0.00     0.049 A 
ATOM     57  H   UNL A   1      45.287  24.218  27.750  1.00  0.00     0.167 HD
ATOM     58  C   UNL A   1      45.647  25.417  31.572  1.00  0.00     0.074 A 
ATOM     59  C   UNL A   1      45.097  24.493  32.546  1.00  0.00     0.031 C 
ATOM     60  C   UNL A   1      45.508  25.344  30.222  1.00  0.00     0.034 A 
BRANCH  47  61
ATOM     61  C   UNL A   1      43.223  23.104  25.736  1.00  0.00     0.023 A 
ATOM     62  C   UNL A   1      43.290  21.689  25.678  1.00  0.00     0.031 A 
ATOM     63  C   UNL A   1      43.955  23.800  24.770  1.00  0.00     0.131 A 
ATOM     64  C   UNL A   1      44.209  21.032  24.858  1.00  0.00     0.055 A 
ATOM     65  C   UNL A   1      44.807  23.130  23.874  1.00  0.00     0.041 A 
ATOM     66  F   UNL A   1      43.948  25.140  24.710  1.00  0.00    -0.206 F 
ATOM     67  C   UNL A   1      44.977  21.747  23.950  1.00  0.00     0.022 A 
BRANCH  64  68
ATOM     68  S   UNL A   1      44.513  19.273  25.186  1.00  0.00     0.124 S 
ATOM     69  O   UNL A   1      44.335  18.685  23.862  1.00  0.00    -0.237 OA
ATOM     70  O   UNL A   1      45.880  19.288  25.697  1.00  0.00    -0.237 OA
ATOM     71  O   UNL A   1      43.486  18.931  26.166  1.00  0.00    -0.744 OA
ENDBRANCH  64  68
ENDBRANCH  47  61
BRANCH  48  72
ATOM     72  C   UNL A   1      44.548  27.839  35.258  1.00  0.00     0.023 A 
ATOM     73  C   UNL A   1      44.545  26.907  36.316  1.00  0.00     0.031 A 
ATOM     74  C   UNL A   1      45.091  29.121  35.638  1.00  0.00     0.131 A 
ATOM     75  C   UNL A   1      45.148  27.241  37.581  1.00  0.00     0.055 A 
ATOM     76  C   UNL A   1      45.772  29.399  36.823  1.00  0.00     0.041 A 
ATOM     77  F   UNL A   1      44.979  30.208  34.865  1.00  0.00    -0.206 F 
ATOM     78  C   UNL A   1      45.824  28.445  37.802  1.00  0.00     0.022 A 
BRANCH  75  79
ATOM     79  S   UNL A   1      45.087  26.120  39.023  1.00  0.00     0.124 S 
ATOM     80  O   UNL A   1      43.872  26.560  39.699  1.00  0.00    -0.237 OA
ATOM     81  O   UNL A   1      45.042  24.800  38.406  1.00  0.00    -0.237 OA
ATOM     82  O   UNL A   1      46.329  26.416  39.739  1.00  0.00    -0.744 OA
ENDBRANCH  75  79
ENDBRANCH  48  72
BRANCH  60  83
ATOM     83  C   UNL A   1      45.968  26.577  29.441  1.00  0.00     0.023 A 
ATOM     84  C   UNL A   1      45.011  27.390  28.802  1.00  0.00     0.031 A 
ATOM     85  C   UNL A   1      47.313  26.926  29.209  1.00  0.00     0.131 A 
ATOM     86  C   UNL A   1      45.394  28.458  27.965  1.00  0.00     0.055 A 
ATOM     87  C   UNL A   1      47.700  27.990  28.375  1.00  0.00     0.041 A 
ATOM     88  F   UNL A   1      48.308  26.241  29.772  1.00  0.00    -0.206 F 
ATOM     89  C   UNL A   1      46.737  28.763  27.746  1.00  0.00     0.022 A 
BRANCH  86  90
ATOM     90  S   UNL A   1      44.108  29.464  27.174  1.00  0.00     0.124 S 
ATOM     91  O   UNL A   1      43.404  30.040  28.314  1.00  0.00    -0.237 OA
ATOM     92  O   UNL A   1      44.890  30.395  26.367  1.00  0.00    -0.237 OA
ATOM     93  O   UNL A   1      43.336  28.488  26.403  1.00  0.00    -0.744 OA
ENDBRANCH  86  90
ENDBRANCH  60  83
ENDBRANCH  34  35
ENDBRANCH  27  29
ENDBRANCH  26  27
ENDBRANCH  25  26
ENDBRANCH  24  25
ENDBRANCH  23  24
ENDBRANCH  22  23
ENDBRANCH   1  22
TORSDOF 23
ENDMDL
MODEL 2
REMARK VINA RESULT:      -9.6      2.916      7.798
REMARK SMILES N#Cc1ccccc1Cn1cccc1C(=O)OCCOCCOCCOC(=O)c1ccc(-c2c3nc(c(-c4cc(S(=O)(=O)[O-])ccc4F)c4ccc([nH]4)c(-c4cc(S(=O)(=O)[O-])ccc4F)c4nc(c(-c5cc(S(=O)(=O)[O-])ccc5F)c5ccc2[nH]5)C=C4)C=C3)cc1
REMARK SMILES IDX 21 1 20 2 19 3 18 4 17 5 15 6 16 7 14 8 10 9 11 10 12 11
REMARK SMILES IDX 13 12 9 13 8 14 3 15 4 16 5 17 7 18 6 19 2 20 1 21 22 22
REMARK SMILES IDX 23 23 24 24 25 25 26 26 27 27 28 28 29 29 30 30 91 31 31 32
REMARK SMILES IDX 90 33 32 34 33 35 34 36 84 37 35 38 89 39 83 40 85 41 36 42
REMARK SMILES IDX 88 43 82 44 81 45 37 47 69 48 49 49 68 50 50 51 53 52 67 53
REMARK SMILES IDX 86 54 51 55 52 56 66 58 87 59 54 60 38 61 39 62 47 63 40 64
REMARK SMILES IDX 46 65 48 66 45 67 41 68 42 69 43 70 44 71 70 72 71 73 79 74
REMARK SMILES IDX 72 75 78 76 80 77 77 78 73 79 74 80 75 81 76 82 55 83 56 84
REMARK SMILES IDX 64 85 57 86 63 87 65 88 62 89 58 90 59 91 60 92 61 93
REMARK H PARENT 85 46 53 57
REMARK Flexibility Score: inf
ROOT
ATOM      1  C   UNL A   1      32.637  29.461  24.952  1.00  0.00     0.188 C 
ENDROOT
BRANCH   1   2
ATOM      2  O   UNL A   1      31.510  29.177  24.158  1.00  0.00    -0.376 OA
BRANCH   2   3
ATOM      3  C   UNL A   1      31.148  27.839  23.868  1.00  0.00     0.202 C 
BRANCH   3   4
ATOM      4  C   UNL A   1      31.839  26.566  24.408  1.00  0.00     0.261 C 
BRANCH   4   5
ATOM      5  O   UNL A   1      31.203  25.303  24.188  1.00  0.00    -0.459 OA
BRANCH   5   6
ATOM      6  C   UNL A   1      32.039  24.249  23.988  1.00  0.00     0.355 C 
ATOM      7  O   UNL A   1      32.446  23.883  22.891  1.00  0.00    -0.244 OA
BRANCH   6   8
ATOM      8  C   UNL A   1      32.550  23.751  25.247  1.00  0.00     0.127 A 
ATOM      9  N   UNL A   1      33.847  23.416  25.625  1.00  0.00    -0.338 N 
ATOM     10  C   UNL A   1      33.839  23.180  26.987  1.00  0.00     0.087 A 
ATOM     11  C   UNL A   1      32.541  23.088  27.423  1.00  0.00     0.020 A 
ATOM     12  C   UNL A   1      31.734  23.477  26.344  1.00  0.00     0.035 A 
BRANCH   9  13
ATOM     13  C   UNL A   1      35.076  23.480  24.809  1.00  0.00     0.159 C 
BRANCH  13  14
ATOM     14  C   UNL A   1      36.002  22.275  24.961  1.00  0.00    -0.010 A 
ATOM     15  C   UNL A   1      37.332  22.391  25.421  1.00  0.00     0.057 A 
ATOM     16  C   UNL A   1      38.182  21.266  25.432  1.00  0.00     0.020 A 
ATOM     17  C   UNL A   1      37.710  20.008  25.061  1.00  0.00     0.001 A 
ATOM     18  C   UNL A   1      35.533  20.974  24.688  1.00  0.00     0.007 A 
ATOM     19  C   UNL A   1      36.375  19.859  24.720  1.00  0.00     0.000 A 
BRANCH  15  20
ATOM     20  C   UNL A   1      37.834  23.604  25.985  1.00  0.00     0.099 C 
ATOM     21  N   UNL A   1      38.305  24.562  26.476  1.00  0.00    -0.192 NA
ENDBRANCH  15  20
ENDBRANCH  13  14
ENDBRANCH   9  13
ENDBRANCH   6   8
ENDBRANCH   5   6
ENDBRANCH   4   5
ENDBRANCH   3   4
ENDBRANCH   2   3
ENDBRANCH   1   2
BRANCH   1  22
ATOM     22  C   UNL A   1      32.342  30.157  26.288  1.00  0.00     0.188 C 
BRANCH  22  23
ATOM     23  O   UNL A   1      33.039  29.807  27.467  1.00  0.00    -0.376 OA
BRANCH  23  24
ATOM     24  C   UNL A   1      34.452  29.800  27.596  1.00  0.00     0.202 C 
BRANCH  24  25
ATOM     25  C   UNL A   1      35.283  30.878  28.289  1.00  0.00     0.261 C 
BRANCH  25  26
ATOM     26  O   UNL A   1      36.669  30.860  28.039  1.00  0.00    -0.460 OA
BRANCH  26  27
ATOM     27  C   UNL A   1      37.350  30.639  29.177  1.00  0.00     0.338 C 
ATOM     28  O   UNL A   1      37.306  31.271  30.220  1.00  0.00    -0.246 OA
BRANCH  27  29
ATOM     29  C   UNL A   1      38.289  29.560  28.956  1.00  0.00     0.060 A 
ATOM     30  C   UNL A   1      39.079  29.194  30.046  1.00  0.00     0.016 A 
ATOM     31  C   UNL A   1      38.659  29.369  27.622  1.00  0.00     0.016 A 
ATOM     32  C   UNL A   1      40.367  28.806  29.784  1.00  0.00     0.010 A 
ATOM     33  C   UNL A   1      39.967  29.052  27.367  1.00  0.00     0.010 A 
ATOM     34  C   UNL A   1      40.813  28.812  28.453  1.00  0.00    -0.014 A 
BRANCH  34  35
ATOM     35  C   UNL A   1      42.158  28.297  28.208  1.00  0.00     0.031 A 
ATOM     36  C   UNL A   1      43.093  29.545  28.100  1.00  0.00     0.074 A 
ATOM     37  C   UNL A   1      42.232  26.930  28.040  1.00  0.00     0.049 A 
ATOM     38  N   UNL A   1      44.119  29.748  27.343  1.00  0.00    -0.248 NA
ATOM     39  C   UNL A   1      42.765  30.816  28.839  1.00  0.00     0.031 C 
ATOM     40  C   UNL A   1      41.127  25.952  28.280  1.00  0.00     0.029 A 
ATOM     41  N   UNL A   1      43.224  26.059  27.644  1.00  0.00    -0.354 N 
ATOM     42  C   UNL A   1      44.720  30.968  27.741  1.00  0.00     0.074 A 
ATOM     43  C   UNL A   1      43.751  31.658  28.521  1.00  0.00     0.031 C 
ATOM     44  C   UNL A   1      41.480  24.689  27.920  1.00  0.00     0.029 A 
ATOM     45  C   UNL A   1      42.843  24.687  27.422  1.00  0.00     0.049 A 
ATOM     46  H   UNL A   1      44.153  26.360  27.519  1.00  0.00     0.167 HD
ATOM     47  C   UNL A   1      46.050  31.214  27.553  1.00  0.00     0.034 A 
ATOM     48  C   UNL A   1      43.582  23.676  26.832  1.00  0.00     0.034 A 
ATOM     49  C   UNL A   1      46.612  30.102  26.862  1.00  0.00     0.049 A 
ATOM     50  C   UNL A   1      44.895  24.322  26.684  1.00  0.00     0.074 A 
ATOM     51  C   UNL A   1      46.431  29.649  25.582  1.00  0.00     0.029 A 
ATOM     52  N   UNL A   1      47.106  29.083  27.649  1.00  0.00    -0.354 N 
ATOM     53  N   UNL A   1      45.714  24.562  27.661  1.00  0.00    -0.248 NA
ATOM     54  C   UNL A   1      45.261  24.865  25.369  1.00  0.00     0.031 C 
ATOM     55  C   UNL A   1      46.248  28.272  25.794  1.00  0.00     0.029 A 
ATOM     56  C   UNL A   1      46.708  27.910  27.068  1.00  0.00     0.049 A 
ATOM     57  H   UNL A   1      47.640  29.181  28.470  1.00  0.00     0.167 HD
ATOM     58  C   UNL A   1      46.499  25.559  27.146  1.00  0.00     0.074 A 
ATOM     59  C   UNL A   1      46.410  25.448  25.703  1.00  0.00     0.031 C 
ATOM     60  C   UNL A   1      46.690  26.702  27.857  1.00  0.00     0.034 A 
BRANCH  47  61
ATOM     61  C   UNL A   1      47.032  32.195  28.134  1.00  0.00     0.023 A 
ATOM     62  C   UNL A   1      47.520  31.856  29.420  1.00  0.00     0.031 A 
ATOM     63  C   UNL A   1      47.221  33.519  27.727  1.00  0.00     0.131 A 
ATOM     64  C   UNL A   1      47.957  32.830  30.319  1.00  0.00     0.055 A 
ATOM     65  C   UNL A   1      47.755  34.483  28.600  1.00  0.00     0.041 A 
ATOM     66  F   UNL A   1      46.823  33.950  26.522  1.00  0.00    -0.206 F 
ATOM     67  C   UNL A   1      48.076  34.153  29.918  1.00  0.00     0.022 A 
BRANCH  64  68
ATOM     68  S   UNL A   1      48.136  32.342  32.059  1.00  0.00     0.124 S 
ATOM     69  O   UNL A   1      49.273  31.430  32.000  1.00  0.00    -0.237 OA
ATOM     70  O   UNL A   1      48.382  33.625  32.712  1.00  0.00    -0.237 OA
ATOM     71  O   UNL A   1      46.851  31.723  32.369  1.00  0.00    -0.744 OA
ENDBRANCH  64  68
ENDBRANCH  47  61
BRANCH  48  72
ATOM     72  C   UNL A   1      43.521  22.249  26.232  1.00  0.00     0.023 A 
ATOM     73  C   UNL A   1      44.555  21.472  25.670  1.00  0.00     0.031 A 
ATOM     74  C   UNL A   1      42.262  21.548  26.299  1.00  0.00     0.131 A 
ATOM     75  C   UNL A   1      44.324  20.091  25.330  1.00  0.00     0.055 A 
ATOM     76  C   UNL A   1      42.075  20.184  26.075  1.00  0.00     0.041 A 
ATOM     77  F   UNL A   1      41.109  22.165  26.582  1.00  0.00    -0.206 F 
ATOM     78  C   UNL A   1      43.120  19.436  25.606  1.00  0.00     0.022 A 
BRANCH  75  79
ATOM     79  S   UNL A   1      45.586  19.060  24.503  1.00  0.00     0.124 S 
ATOM     80  O   UNL A   1      45.573  17.851  25.319  1.00  0.00    -0.237 OA
ATOM     81  O   UNL A   1      45.062  18.931  23.149  1.00  0.00    -0.237 OA
ATOM     82  O   UNL A   1      46.806  19.860  24.610  1.00  0.00    -0.744 OA
ENDBRANCH  75  79
ENDBRANCH  48  72
BRANCH  60  83
ATOM     83  C   UNL A   1      46.493  26.581  29.370  1.00  0.00     0.023 A 
ATOM     84  C   UNL A   1      45.411  27.243  29.983  1.00  0.00     0.031 A 
ATOM     85  C   UNL A   1      47.384  25.933  30.248  1.00  0.00     0.131 A 
ATOM     86  C   UNL A   1      45.263  27.269  31.385  1.00  0.00     0.055 A 
ATOM     87  C   UNL A   1      47.241  25.956  31.646  1.00  0.00     0.041 A 
ATOM     88  F   UNL A   1      48.437  25.259  29.785  1.00  0.00    -0.206 F 
ATOM     89  C   UNL A   1      46.175  26.629  32.223  1.00  0.00     0.022 A 
BRANCH  86  90
ATOM     90  S   UNL A   1      43.846  28.141  32.107  1.00  0.00     0.124 S 
ATOM     91  O   UNL A   1      44.019  29.502  31.612  1.00  0.00    -0.237 OA
ATOM     92  O   UNL A   1      42.711  27.401  31.563  1.00  0.00    -0.237 OA
ATOM     93  O   UNL A   1      44.043  27.982  33.548  1.00  0.00    -0.744 OA
ENDBRANCH  86  90
ENDBRANCH  60  83
ENDBRANCH  34  35
ENDBRANCH  27  29
ENDBRANCH  26  27
ENDBRANCH  25  26
ENDBRANCH  24  25
ENDBRANCH  23  24
ENDBRANCH  22  23
ENDBRANCH   1  22
TORSDOF 23
ENDMDL
MODEL 3
REMARK VINA RESULT:      -9.1      1.633      2.317
REMARK SMILES N#Cc1ccccc1Cn1cccc1C(=O)OCCOCCOCCOC(=O)c1ccc(-c2c3nc(c(-c4cc(S(=O)(=O)[O-])ccc4F)c4ccc([nH]4)c(-c4cc(S(=O)(=O)[O-])ccc4F)c4nc(c(-c5cc(S(=O)(=O)[O-])ccc5F)c5ccc2[nH]5)C=C4)C=C3)cc1
REMARK SMILES IDX 21 1 20 2 19 3 18 4 17 5 15 6 16 7 14 8 10 9 11 10 12 11
REMARK SMILES IDX 13 12 9 13 8 14 3 15 4 16 5 17 7 18 6 19 2 20 1 21 22 22
REMARK SMILES IDX 23 23 24 24 25 25 26 26 27 27 28 28 29 29 30 30 91 31 31 32
REMARK SMILES IDX 90 33 32 34 33 35 34 36 84 37 35 38 89 39 83 40 85 41 36 42
REMARK SMILES IDX 88 43 82 44 81 45 37 47 69 48 49 49 68 50 50 51 53 52 67 53
REMARK SMILES IDX 86 54 51 55 52 56 66 58 87 59 54 60 38 61 39 62 47 63 40 64
REMARK SMILES IDX 46 65 48 66 45 67 41 68 42 69 43 70 44 71 70 72 71 73 79 74
REMARK SMILES IDX 72 75 78 76 80 77 77 78 73 79 74 80 75 81 76 82 55 83 56 84
REMARK SMILES IDX 64 85 57 86 63 87 65 88 62 89 58 90 59 91 60 92 61 93
REMARK H PARENT 85 46 53 57
REMARK Flexibility Score: inf
ROOT
ATOM      1  C   UNL A   1      33.087  29.779  25.549  1.00  0.00     0.188 C 
ENDROOT
BRANCH   1   2
ATOM      2  O   UNL A   1      31.804  29.508  25.038  1.00  0.00    -0.376 OA
BRANCH   2   3
ATOM      3  C   UNL A   1      31.586  28.405  24.177  1.00  0.00     0.202 C 
BRANCH   3   4
ATOM      4  C   UNL A   1      30.355  27.469  24.182  1.00  0.00     0.261 C 
BRANCH   4   5
ATOM      5  O   UNL A   1      30.519  26.135  24.671  1.00  0.00    -0.459 OA
BRANCH   5   6
ATOM      6  C   UNL A   1      30.708  26.018  26.013  1.00  0.00     0.355 C 
ATOM      7  O   UNL A   1      30.802  26.964  26.787  1.00  0.00    -0.244 OA
BRANCH   6   8
ATOM      8  C   UNL A   1      30.573  24.640  26.434  1.00  0.00     0.127 A 
ATOM      9  N   UNL A   1      31.538  23.651  26.606  1.00  0.00    -0.338 N 
ATOM     10  C   UNL A   1      30.925  22.568  27.209  1.00  0.00     0.087 A 
ATOM     11  C   UNL A   1      29.565  22.739  27.170  1.00  0.00     0.020 A 
ATOM     12  C   UNL A   1      29.344  24.047  26.717  1.00  0.00     0.035 A 
BRANCH   9  13
ATOM     13  C   UNL A   1      32.995  23.756  26.390  1.00  0.00     0.159 C 
BRANCH  13  14
ATOM     14  C   UNL A   1      33.442  23.508  24.951  1.00  0.00    -0.010 A 
ATOM     15  C   UNL A   1      34.792  23.603  24.546  1.00  0.00     0.057 A 
ATOM     16  C   UNL A   1      35.137  23.480  23.184  1.00  0.00     0.020 A 
ATOM     17  C   UNL A   1      34.170  23.189  22.224  1.00  0.00     0.001 A 
ATOM     18  C   UNL A   1      32.509  23.117  23.969  1.00  0.00     0.007 A 
ATOM     19  C   UNL A   1      32.861  22.976  22.624  1.00  0.00     0.000 A 
BRANCH  15  20
ATOM     20  C   UNL A   1      35.858  23.721  25.490  1.00  0.00     0.099 C 
ATOM     21  N   UNL A   1      36.782  23.797  26.212  1.00  0.00    -0.192 NA
ENDBRANCH  15  20
ENDBRANCH  13  14
ENDBRANCH   9  13
ENDBRANCH   6   8
ENDBRANCH   5   6
ENDBRANCH   4   5
ENDBRANCH   3   4
ENDBRANCH   2   3
ENDBRANCH   1   2
BRANCH   1  22
ATOM     22  C   UNL A   1      33.119  30.376  26.963  1.00  0.00     0.188 C 
BRANCH  22  23
ATOM     23  O   UNL A   1      34.343  30.686  27.600  1.00  0.00    -0.376 OA
BRANCH  23  24
ATOM     24  C   UNL A   1      34.921  31.981  27.646  1.00  0.00     0.202 C 
BRANCH  24  25
ATOM     25  C   UNL A   1      36.052  32.413  28.577  1.00  0.00     0.261 C 
BRANCH  25  26
ATOM     26  O   UNL A   1      37.190  31.584  28.611  1.00  0.00    -0.460 OA
BRANCH  26  27
ATOM     27  C   UNL A   1      37.005  30.566  29.470  1.00  0.00     0.338 C 
ATOM     28  O   UNL A   1      36.263  30.517  30.438  1.00  0.00    -0.246 OA
BRANCH  27  29
ATOM     29  C   UNL A   1      37.943  29.511  29.149  1.00  0.00     0.060 A 
ATOM     30  C   UNL A   1      37.931  28.397  29.989  1.00  0.00     0.016 A 
ATOM     31  C   UNL A   1      39.053  29.919  28.405  1.00  0.00     0.016 A 
ATOM     32  C   UNL A   1      39.134  27.791  30.242  1.00  0.00     0.010 A 
ATOM     33  C   UNL A   1      40.263  29.359  28.715  1.00  0.00     0.010 A 
ATOM     34  C   UNL A   1      40.293  28.327  29.659  1.00  0.00    -0.014 A 
BRANCH  34  35
ATOM     35  C   UNL A   1      41.537  27.594  29.873  1.00  0.00     0.031 A 
ATOM     36  C   UNL A   1      41.586  26.482  28.776  1.00  0.00     0.074 A 
ATOM     37  C   UNL A   1      42.254  27.983  30.985  1.00  0.00     0.049 A 
ATOM     38  N   UNL A   1      42.037  25.274  28.841  1.00  0.00    -0.248 NA
ATOM     39  C   UNL A   1      40.909  26.685  27.446  1.00  0.00     0.031 C 
ATOM     40  C   UNL A   1      41.975  29.178  31.839  1.00  0.00     0.029 A 
ATOM     41  N   UNL A   1      43.359  27.487  31.644  1.00  0.00    -0.354 N 
ATOM     42  C   UNL A   1      42.004  24.725  27.535  1.00  0.00     0.074 A 
ATOM     43  C   UNL A   1      41.139  25.557  26.770  1.00  0.00     0.031 C 
ATOM     44  C   UNL A   1      42.793  29.229  32.924  1.00  0.00     0.029 A 
ATOM     45  C   UNL A   1      43.702  28.098  32.903  1.00  0.00     0.049 A 
ATOM     46  H   UNL A   1      43.890  26.747  31.271  1.00  0.00     0.167 HD
ATOM     47  C   UNL A   1      42.859  23.735  27.145  1.00  0.00     0.034 A 
ATOM     48  C   UNL A   1      44.616  27.662  33.848  1.00  0.00     0.034 A 
ATOM     49  C   UNL A   1      43.654  23.368  28.270  1.00  0.00     0.049 A 
ATOM     50  C   UNL A   1      45.262  26.549  33.136  1.00  0.00     0.074 A 
ATOM     51  C   UNL A   1      43.326  22.736  29.440  1.00  0.00     0.029 A 
ATOM     52  N   UNL A   1      44.834  24.063  28.433  1.00  0.00    -0.354 N 
ATOM     53  N   UNL A   1      46.103  26.687  32.159  1.00  0.00    -0.248 NA
ATOM     54  C   UNL A   1      44.833  25.179  33.448  1.00  0.00     0.031 C 
ATOM     55  C   UNL A   1      43.970  23.548  30.389  1.00  0.00     0.029 A 
ATOM     56  C   UNL A   1      44.942  24.346  29.768  1.00  0.00     0.049 A 
ATOM     57  H   UNL A   1      45.474  24.308  27.726  1.00  0.00     0.167 HD
ATOM     58  C   UNL A   1      46.031  25.469  31.536  1.00  0.00     0.074 A 
ATOM     59  C   UNL A   1      45.542  24.530  32.528  1.00  0.00     0.031 C 
ATOM     60  C   UNL A   1      45.819  25.409  30.195  1.00  0.00     0.034 A 
BRANCH  47  61
ATOM     61  C   UNL A   1      43.312  23.197  25.814  1.00  0.00     0.023 A 
ATOM     62  C   UNL A   1      43.359  21.784  25.729  1.00  0.00     0.031 A 
ATOM     63  C   UNL A   1      44.007  23.903  24.828  1.00  0.00     0.131 A 
ATOM     64  C   UNL A   1      44.231  21.131  24.855  1.00  0.00     0.055 A 
ATOM     65  C   UNL A   1      44.809  23.241  23.882  1.00  0.00     0.041 A 
ATOM     66  F   UNL A   1      44.013  25.243  24.793  1.00  0.00    -0.206 F 
ATOM     67  C   UNL A   1      44.965  21.854  23.925  1.00  0.00     0.022 A 
BRANCH  64  68
ATOM     68  S   UNL A   1      44.529  19.363  25.137  1.00  0.00     0.124 S 
ATOM     69  O   UNL A   1      43.464  19.024  26.075  1.00  0.00    -0.237 OA
ATOM     70  O   UNL A   1      44.391  18.811  23.792  1.00  0.00    -0.237 OA
ATOM     71  O   UNL A   1      45.881  19.332  25.687  1.00  0.00    -0.744 OA
ENDBRANCH  64  68
ENDBRANCH  47  61
BRANCH  48  72
ATOM     72  C   UNL A   1      45.115  27.843  35.302  1.00  0.00     0.023 A 
ATOM     73  C   UNL A   1      46.224  28.570  35.782  1.00  0.00     0.031 A 
ATOM     74  C   UNL A   1      44.325  27.259  36.359  1.00  0.00     0.131 A 
ATOM     75  C   UNL A   1      46.412  28.760  37.198  1.00  0.00     0.055 A 
ATOM     76  C   UNL A   1      44.447  27.540  37.720  1.00  0.00     0.041 A 
ATOM     77  F   UNL A   1      43.370  26.350  36.125  1.00  0.00    -0.206 F 
ATOM     78  C   UNL A   1      45.487  28.316  38.149  1.00  0.00     0.022 A 
BRANCH  75  79
ATOM     79  S   UNL A   1      47.880  29.599  37.889  1.00  0.00     0.124 S 
ATOM     80  O   UNL A   1      48.150  30.619  36.883  1.00  0.00    -0.237 OA
ATOM     81  O   UNL A   1      47.402  30.077  39.181  1.00  0.00    -0.237 OA
ATOM     82  O   UNL A   1      48.880  28.533  37.966  1.00  0.00    -0.744 OA
ENDBRANCH  75  79
ENDBRANCH  48  72
BRANCH  60  83
ATOM     83  C   UNL A   1      46.227  26.654  29.403  1.00  0.00     0.023 A 
ATOM     84  C   UNL A   1      45.245  27.380  28.699  1.00  0.00     0.031 A 
ATOM     85  C   UNL A   1      47.552  27.096  29.225  1.00  0.00     0.131 A 
ATOM     86  C   UNL A   1      45.591  28.453  27.852  1.00  0.00     0.055 A 
ATOM     87  C   UNL A   1      47.902  28.165  28.383  1.00  0.00     0.041 A 
ATOM     88  F   UNL A   1      48.566  26.499  29.853  1.00  0.00    -0.206 F 
ATOM     89  C   UNL A   1      46.917  28.851  27.689  1.00  0.00     0.022 A 
BRANCH  86  90
ATOM     90  S   UNL A   1      44.276  29.343  26.975  1.00  0.00     0.124 S 
ATOM     91  O   UNL A   1      43.524  28.264  26.343  1.00  0.00    -0.237 OA
ATOM     92  O   UNL A   1      43.597  30.048  28.057  1.00  0.00    -0.237 OA
ATOM     93  O   UNL A   1      45.007  30.207  26.048  1.00  0.00    -0.744 OA
ENDBRANCH  86  90
ENDBRANCH  60  83
ENDBRANCH  34  35
ENDBRANCH  27  29
ENDBRANCH  26  27
ENDBRANCH  25  26
ENDBRANCH  24  25
ENDBRANCH  23  24
ENDBRANCH  22  23
ENDBRANCH   1  22
TORSDOF 23
ENDMDL
