MODEL 1
REMARK VINA RESULT:      -8.3      0.000      0.000
REMARK SMILES Cc1cc(F)cc(/C=C/C(=O)OCCOCCOCCOC(=O)c2ccc(-c3c4nc(c(-c5cc(S(=O)(=O)[O-])ccc5F)c5ccc([nH]5)c(-c5cc(S(=O)(=O)[O-])ccc5F)c5nc(c(-c6cc(S(=O)(=O)[O-])ccc6F)c6ccc3[nH]6)C=C5)C=C4)cc2)c1
REMARK SMILES IDX 17 1 16 2 15 3 14 4 13 5 12 6 10 7 11 8 9 9 8 10 7 11 1 12
REMARK SMILES IDX 2 13 3 14 87 15 4 16 5 17 6 18 18 19 19 20 20 21 21 22 22 23
REMARK SMILES IDX 23 24 24 25 25 26 86 27 26 28 85 29 27 30 28 31 29 32 79 33
REMARK SMILES IDX 30 34 84 35 78 36 80 37 31 38 83 39 77 40 76 41 32 43 64 44
REMARK SMILES IDX 44 45 63 46 45 47 48 48 62 49 81 50 46 51 47 52 61 54 82 55
REMARK SMILES IDX 49 56 33 57 34 58 42 59 35 60 41 61 43 62 40 63 36 64 37 65
REMARK SMILES IDX 38 66 39 67 65 68 66 69 74 70 67 71 73 72 75 73 72 74 68 75
REMARK SMILES IDX 69 76 70 77 71 78 50 79 51 80 59 81 52 82 58 83 60 84 57 85
REMARK SMILES IDX 53 86 54 87 55 88 56 89
REMARK H PARENT 80 42 48 53
REMARK Flexibility Score: inf
ROOT
ATOM      1  C   UNL A   1      43.976  18.450  25.737  1.00  0.00     0.188 C 
ENDROOT
BRANCH   1   2
ATOM      2  C   UNL A   1      42.559  19.063  25.721  1.00  0.00     0.188 C 
BRANCH   2   3
ATOM      3  O   UNL A   1      42.402  20.479  25.747  1.00  0.00    -0.376 OA
BRANCH   3   4
ATOM      4  C   UNL A   1      42.431  21.168  26.990  1.00  0.00     0.202 C 
BRANCH   4   5
ATOM      5  C   UNL A   1      41.121  21.430  27.749  1.00  0.00     0.261 C 
BRANCH   5   6
ATOM      6  O   UNL A   1      39.919  21.217  26.990  1.00  0.00    -0.460 OA
BRANCH   6   7
ATOM      7  C   UNL A   1      39.347  22.338  26.484  1.00  0.00     0.330 C 
ATOM      8  O   UNL A   1      38.302  22.394  25.853  1.00  0.00    -0.247 OA
BRANCH   7   9
ATOM      9  C   UNL A   1      40.074  23.571  26.857  1.00  0.00     0.094 C 
ATOM     10  C   UNL A   1      39.543  24.797  26.993  1.00  0.00     0.016 C 
BRANCH  10  11
ATOM     11  C   UNL A   1      40.342  25.974  27.381  1.00  0.00    -0.022 A 
ATOM     12  C   UNL A   1      41.931  29.004  25.662  1.00  0.00     0.044 C 
ATOM     13  C   UNL A   1      41.512  28.022  26.714  1.00  0.00    -0.048 A 
ATOM     14  C   UNL A   1      41.836  28.264  28.052  1.00  0.00     0.042 A 
ATOM     15  C   UNL A   1      40.769  26.873  26.388  1.00  0.00     0.011 A 
ATOM     16  C   UNL A   1      41.443  27.359  29.031  1.00  0.00     0.124 A 
ATOM     17  F   UNL A   1      41.769  27.596  30.308  1.00  0.00    -0.207 F 
ATOM     18  C   UNL A   1      40.714  26.220  28.709  1.00  0.00     0.047 A 
ENDBRANCH  10  11
ENDBRANCH   7   9
ENDBRANCH   6   7
ENDBRANCH   5   6
ENDBRANCH   4   5
ENDBRANCH   3   4
ENDBRANCH   2   3
ENDBRANCH   1   2
BRANCH   1  19
ATOM     19  O   UNL A   1      44.579  18.382  24.461  1.00  0.00    -0.376 OA
BRANCH  19  20
ATOM     20  C   UNL A   1      45.652  19.263  24.179  1.00  0.00     0.202 C 
BRANCH  20  21
ATOM     21  C   UNL A   1      45.929  20.516  25.034  1.00  0.00     0.261 C 
BRANCH  21  22
ATOM     22  O   UNL A   1      46.213  21.742  24.351  1.00  0.00    -0.460 OA
BRANCH  22  23
ATOM     23  C   UNL A   1      45.167  22.541  24.055  1.00  0.00     0.338 C 
ATOM     24  O   UNL A   1      44.298  22.326  23.213  1.00  0.00    -0.246 OA
BRANCH  23  25
ATOM     25  C   UNL A   1      45.145  23.649  25.027  1.00  0.00     0.060 A 
ATOM     26  C   UNL A   1      46.347  24.069  25.611  1.00  0.00     0.016 A 
ATOM     27  C   UNL A   1      43.939  24.273  25.363  1.00  0.00     0.016 A 
ATOM     28  C   UNL A   1      46.342  25.106  26.548  1.00  0.00     0.010 A 
ATOM     29  C   UNL A   1      43.936  25.298  26.313  1.00  0.00     0.010 A 
ATOM     30  C   UNL A   1      45.133  25.704  26.930  1.00  0.00    -0.014 A 
BRANCH  30  31
ATOM     31  C   UNL A   1      45.095  26.631  28.089  1.00  0.00     0.031 A 
ATOM     32  C   UNL A   1      45.278  28.103  27.838  1.00  0.00     0.074 A 
ATOM     33  C   UNL A   1      44.896  26.180  29.341  1.00  0.00     0.049 A 
ATOM     34  N   UNL A   1      45.348  29.093  28.689  1.00  0.00    -0.248 NA
ATOM     35  C   UNL A   1      45.409  28.505  26.429  1.00  0.00     0.031 C 
ATOM     36  C   UNL A   1      44.665  24.784  29.708  1.00  0.00     0.029 A 
ATOM     37  N   UNL A   1      44.867  26.853  30.537  1.00  0.00    -0.354 N 
ATOM     38  C   UNL A   1      45.530  30.239  27.920  1.00  0.00     0.074 A 
ATOM     39  C   UNL A   1      45.605  29.809  26.540  1.00  0.00     0.031 C 
ATOM     40  C   UNL A   1      44.534  24.702  31.043  1.00  0.00     0.029 A 
ATOM     41  C   UNL A   1      44.709  26.030  31.629  1.00  0.00     0.049 A 
ATOM     42  H   UNL A   1      44.951  27.830  30.608  1.00  0.00     0.167 HD
ATOM     43  C   UNL A   1      45.617  31.529  28.328  1.00  0.00     0.034 A 
ATOM     44  C   UNL A   1      44.736  26.314  32.947  1.00  0.00     0.034 A 
ATOM     45  C   UNL A   1      45.568  31.938  29.711  1.00  0.00     0.049 A 
ATOM     46  C   UNL A   1      44.935  27.745  33.388  1.00  0.00     0.074 A 
ATOM     47  C   UNL A   1      45.639  33.216  30.237  1.00  0.00     0.029 A 
ATOM     48  N   UNL A   1      45.453  31.072  30.794  1.00  0.00    -0.354 N 
ATOM     49  N   UNL A   1      45.098  28.822  32.655  1.00  0.00    -0.248 NA
ATOM     50  C   UNL A   1      44.948  27.998  34.836  1.00  0.00     0.031 C 
ATOM     51  C   UNL A   1      45.648  33.117  31.634  1.00  0.00     0.029 A 
ATOM     52  C   UNL A   1      45.491  31.785  31.983  1.00  0.00     0.049 A 
ATOM     53  H   UNL A   1      45.358  30.095  30.725  1.00  0.00     0.167 HD
ATOM     54  C   UNL A   1      45.201  29.884  33.553  1.00  0.00     0.074 A 
ATOM     55  C   UNL A   1      45.071  29.316  34.880  1.00  0.00     0.031 C 
ATOM     56  C   UNL A   1      45.377  31.207  33.304  1.00  0.00     0.034 A 
BRANCH  43  57
ATOM     57  C   UNL A   1      45.836  32.575  27.260  1.00  0.00     0.023 A 
ATOM     58  C   UNL A   1      47.109  33.115  27.001  1.00  0.00     0.031 A 
ATOM     59  C   UNL A   1      44.747  33.082  26.528  1.00  0.00     0.131 A 
ATOM     60  C   UNL A   1      47.247  34.186  26.105  1.00  0.00     0.055 A 
ATOM     61  C   UNL A   1      44.906  34.087  25.572  1.00  0.00     0.041 A 
ATOM     62  F   UNL A   1      43.504  32.625  26.746  1.00  0.00    -0.206 F 
ATOM     63  C   UNL A   1      46.158  34.658  25.369  1.00  0.00     0.022 A 
BRANCH  60  64
ATOM     64  S   UNL A   1      48.834  35.063  26.043  1.00  0.00     0.124 S 
ATOM     65  O   UNL A   1      49.646  34.270  26.962  1.00  0.00    -0.237 OA
ATOM     66  O   UNL A   1      49.191  34.971  24.632  1.00  0.00    -0.237 OA
ATOM     67  O   UNL A   1      48.502  36.406  26.517  1.00  0.00    -0.744 OA
ENDBRANCH  60  64
ENDBRANCH  43  57
BRANCH  44  68
ATOM     68  C   UNL A   1      44.618  25.218  33.954  1.00  0.00     0.023 A 
ATOM     69  C   UNL A   1      45.695  24.362  34.232  1.00  0.00     0.031 A 
ATOM     70  C   UNL A   1      43.403  24.987  34.623  1.00  0.00     0.131 A 
ATOM     71  C   UNL A   1      45.526  23.292  35.126  1.00  0.00     0.055 A 
ATOM     72  C   UNL A   1      43.254  23.954  35.550  1.00  0.00     0.041 A 
ATOM     73  F   UNL A   1      42.339  25.772  34.390  1.00  0.00    -0.206 F 
ATOM     74  C   UNL A   1      44.317  23.092  35.798  1.00  0.00     0.022 A 
BRANCH  71  75
ATOM     75  S   UNL A   1      46.888  22.115  35.346  1.00  0.00     0.124 S 
ATOM     76  O   UNL A   1      46.546  21.080  34.378  1.00  0.00    -0.237 OA
ATOM     77  O   UNL A   1      48.052  22.935  35.024  1.00  0.00    -0.237 OA
ATOM     78  O   UNL A   1      46.776  21.721  36.749  1.00  0.00    -0.744 OA
ENDBRANCH  71  75
ENDBRANCH  44  68
BRANCH  56  79
ATOM     79  C   UNL A   1      45.392  32.141  34.493  1.00  0.00     0.023 A 
ATOM     80  C   UNL A   1      44.209  32.673  35.037  1.00  0.00     0.031 A 
ATOM     81  C   UNL A   1      46.614  32.505  35.088  1.00  0.00     0.131 A 
ATOM     82  C   UNL A   1      44.277  33.580  36.107  1.00  0.00     0.055 A 
ATOM     83  C   UNL A   1      46.671  33.359  36.191  1.00  0.00     0.041 A 
ATOM     84  F   UNL A   1      47.775  32.031  34.609  1.00  0.00    -0.206 F 
ATOM     85  C   UNL A   1      45.499  33.912  36.698  1.00  0.00     0.022 A 
BRANCH  82  86
ATOM     86  S   UNL A   1      42.754  34.396  36.659  1.00  0.00     0.124 S 
ATOM     87  O   UNL A   1      43.146  34.916  37.966  1.00  0.00    -0.237 OA
ATOM     88  O   UNL A   1      42.537  35.392  35.615  1.00  0.00    -0.237 OA
ATOM     89  O   UNL A   1      41.775  33.310  36.693  1.00  0.00    -0.744 OA
ENDBRANCH  82  86
ENDBRANCH  56  79
ENDBRANCH  30  31
ENDBRANCH  23  25
ENDBRANCH  22  23
ENDBRANCH  21  22
ENDBRANCH  20  21
ENDBRANCH  19  20
ENDBRANCH   1  19
TORSDOF 21
ENDMDL
MODEL 2
REMARK VINA RESULT:      -8.3      4.829      7.936
REMARK SMILES Cc1cc(F)cc(/C=C/C(=O)OCCOCCOCCOC(=O)c2ccc(-c3c4nc(c(-c5cc(S(=O)(=O)[O-])ccc5F)c5ccc([nH]5)c(-c5cc(S(=O)(=O)[O-])ccc5F)c5nc(c(-c6cc(S(=O)(=O)[O-])ccc6F)c6ccc3[nH]6)C=C5)C=C4)cc2)c1
REMARK SMILES IDX 17 1 16 2 15 3 14 4 13 5 12 6 10 7 11 8 9 9 8 10 7 11 1 12
REMARK SMILES IDX 2 13 3 14 87 15 4 16 5 17 6 18 18 19 19 20 20 21 21 22 22 23
REMARK SMILES IDX 23 24 24 25 25 26 86 27 26 28 85 29 27 30 28 31 29 32 79 33
REMARK SMILES IDX 30 34 84 35 78 36 80 37 31 38 83 39 77 40 76 41 32 43 64 44
REMARK SMILES IDX 44 45 63 46 45 47 48 48 62 49 81 50 46 51 47 52 61 54 82 55
REMARK SMILES IDX 49 56 33 57 34 58 42 59 35 60 41 61 43 62 40 63 36 64 37 65
REMARK SMILES IDX 38 66 39 67 65 68 66 69 74 70 67 71 73 72 75 73 72 74 68 75
REMARK SMILES IDX 69 76 70 77 71 78 50 79 51 80 59 81 52 82 58 83 60 84 57 85
REMARK SMILES IDX 53 86 54 87 55 88 56 89
REMARK H PARENT 80 42 48 53
REMARK Flexibility Score: inf
ROOT
ATOM      1  C   UNL A   1      34.420  22.477  23.666  1.00  0.00     0.188 C 
ENDROOT
BRANCH   1   2
ATOM      2  C   UNL A   1      34.112  23.931  23.251  1.00  0.00     0.188 C 
BRANCH   2   3
ATOM      3  O   UNL A   1      33.637  24.205  21.937  1.00  0.00    -0.376 OA
BRANCH   3   4
ATOM      4  C   UNL A   1      32.904  25.397  21.687  1.00  0.00     0.202 C 
BRANCH   4   5
ATOM      5  C   UNL A   1      31.897  25.908  22.728  1.00  0.00     0.261 C 
BRANCH   5   6
ATOM      6  O   UNL A   1      31.944  27.321  22.986  1.00  0.00    -0.460 OA
BRANCH   6   7
ATOM      7  C   UNL A   1      31.426  27.711  24.177  1.00  0.00     0.330 C 
ATOM      8  O   UNL A   1      30.262  27.598  24.530  1.00  0.00    -0.247 OA
BRANCH   7   9
ATOM      9  C   UNL A   1      32.454  28.225  25.108  1.00  0.00     0.094 C 
ATOM     10  C   UNL A   1      32.499  29.457  25.641  1.00  0.00     0.016 C 
BRANCH  10  11
ATOM     11  C   UNL A   1      33.558  29.886  26.574  1.00  0.00    -0.022 A 
ATOM     12  C   UNL A   1      34.245  32.846  28.902  1.00  0.00     0.044 C 
ATOM     13  C   UNL A   1      34.402  31.555  28.157  1.00  0.00    -0.048 A 
ATOM     14  C   UNL A   1      35.520  30.751  28.397  1.00  0.00     0.042 A 
ATOM     15  C   UNL A   1      33.429  31.116  27.241  1.00  0.00     0.011 A 
ATOM     16  C   UNL A   1      35.666  29.551  27.713  1.00  0.00     0.124 A 
ATOM     17  F   UNL A   1      36.746  28.794  27.942  1.00  0.00    -0.207 F 
ATOM     18  C   UNL A   1      34.707  29.119  26.802  1.00  0.00     0.047 A 
ENDBRANCH  10  11
ENDBRANCH   7   9
ENDBRANCH   6   7
ENDBRANCH   5   6
ENDBRANCH   4   5
ENDBRANCH   3   4
ENDBRANCH   2   3
ENDBRANCH   1   2
BRANCH   1  19
ATOM     19  O   UNL A   1      35.796  22.222  23.863  1.00  0.00    -0.376 OA
BRANCH  19  20
ATOM     20  C   UNL A   1      36.273  22.106  25.193  1.00  0.00     0.202 C 
BRANCH  20  21
ATOM     21  C   UNL A   1      37.488  21.229  25.552  1.00  0.00     0.261 C 
BRANCH  21  22
ATOM     22  O   UNL A   1      38.790  21.819  25.457  1.00  0.00    -0.460 OA
BRANCH  22  23
ATOM     23  C   UNL A   1      39.615  21.671  26.513  1.00  0.00     0.338 C 
ATOM     24  O   UNL A   1      40.020  20.609  26.982  1.00  0.00    -0.246 OA
BRANCH  23  25
ATOM     25  C   UNL A   1      40.086  23.008  26.919  1.00  0.00     0.060 A 
ATOM     26  C   UNL A   1      39.543  24.140  26.299  1.00  0.00     0.016 A 
ATOM     27  C   UNL A   1      41.062  23.144  27.911  1.00  0.00     0.016 A 
ATOM     28  C   UNL A   1      39.990  25.415  26.658  1.00  0.00     0.010 A 
ATOM     29  C   UNL A   1      41.520  24.419  28.256  1.00  0.00     0.010 A 
ATOM     30  C   UNL A   1      41.005  25.560  27.614  1.00  0.00    -0.014 A 
BRANCH  30  31
ATOM     31  C   UNL A   1      41.646  26.883  27.823  1.00  0.00     0.031 A 
ATOM     32  C   UNL A   1      43.027  27.107  27.268  1.00  0.00     0.074 A 
ATOM     33  C   UNL A   1      41.016  27.870  28.484  1.00  0.00     0.049 A 
ATOM     34  N   UNL A   1      43.812  28.148  27.377  1.00  0.00    -0.248 NA
ATOM     35  C   UNL A   1      43.598  25.996  26.492  1.00  0.00     0.031 C 
ATOM     36  C   UNL A   1      39.664  27.790  29.032  1.00  0.00     0.029 A 
ATOM     37  N   UNL A   1      41.440  29.133  28.817  1.00  0.00    -0.354 N 
ATOM     38  C   UNL A   1      44.972  27.819  26.682  1.00  0.00     0.074 A 
ATOM     39  C   UNL A   1      44.800  26.465  26.198  1.00  0.00     0.031 C 
ATOM     40  C   UNL A   1      39.374  28.950  29.647  1.00  0.00     0.029 A 
ATOM     41  C   UNL A   1      40.532  29.840  29.571  1.00  0.00     0.049 A 
ATOM     42  H   UNL A   1      42.311  29.500  28.541  1.00  0.00     0.167 HD
ATOM     43  C   UNL A   1      46.073  28.579  26.461  1.00  0.00     0.034 A 
ATOM     44  C   UNL A   1      40.636  31.049  30.158  1.00  0.00     0.034 A 
ATOM     45  C   UNL A   1      46.239  29.918  26.975  1.00  0.00     0.049 A 
ATOM     46  C   UNL A   1      41.911  31.843  29.986  1.00  0.00     0.074 A 
ATOM     47  C   UNL A   1      47.308  30.780  26.808  1.00  0.00     0.029 A 
ATOM     48  N   UNL A   1      45.316  30.584  27.775  1.00  0.00    -0.354 N 
ATOM     49  N   UNL A   1      42.999  31.528  29.321  1.00  0.00    -0.248 NA
ATOM     50  C   UNL A   1      41.968  33.157  30.641  1.00  0.00     0.031 C 
ATOM     51  C   UNL A   1      47.067  31.931  27.567  1.00  0.00     0.029 A 
ATOM     52  C   UNL A   1      45.808  31.829  28.139  1.00  0.00     0.049 A 
ATOM     53  H   UNL A   1      44.440  30.224  28.043  1.00  0.00     0.167 HD
ATOM     54  C   UNL A   1      43.856  32.620  29.452  1.00  0.00     0.074 A 
ATOM     55  C   UNL A   1      43.153  33.603  30.250  1.00  0.00     0.031 C 
ATOM     56  C   UNL A   1      45.106  32.797  28.951  1.00  0.00     0.034 A 
BRANCH  43  57
ATOM     57  C   UNL A   1      47.200  27.946  25.680  1.00  0.00     0.023 A 
ATOM     58  C   UNL A   1      47.404  28.227  24.316  1.00  0.00     0.031 A 
ATOM     59  C   UNL A   1      48.046  27.004  26.289  1.00  0.00     0.131 A 
ATOM     60  C   UNL A   1      48.368  27.512  23.589  1.00  0.00     0.055 A 
ATOM     61  C   UNL A   1      49.064  26.361  25.581  1.00  0.00     0.041 A 
ATOM     62  F   UNL A   1      47.887  26.675  27.581  1.00  0.00    -0.206 F 
ATOM     63  C   UNL A   1      49.217  26.598  24.219  1.00  0.00     0.022 A 
BRANCH  60  64
ATOM     64  S   UNL A   1      48.380  27.666  21.782  1.00  0.00     0.124 S 
ATOM     65  O   UNL A   1      47.047  28.204  21.522  1.00  0.00    -0.237 OA
ATOM     66  O   UNL A   1      49.495  28.576  21.550  1.00  0.00    -0.237 OA
ATOM     67  O   UNL A   1      48.589  26.294  21.323  1.00  0.00    -0.744 OA
ENDBRANCH  60  64
ENDBRANCH  43  57
BRANCH  44  68
ATOM     68  C   UNL A   1      39.525  31.573  31.005  1.00  0.00     0.023 A 
ATOM     69  C   UNL A   1      39.516  31.387  32.396  1.00  0.00     0.031 A 
ATOM     70  C   UNL A   1      38.429  32.232  30.421  1.00  0.00     0.131 A 
ATOM     71  C   UNL A   1      38.415  31.822  33.153  1.00  0.00     0.055 A 
ATOM     72  C   UNL A   1      37.361  32.710  31.183  1.00  0.00     0.041 A 
ATOM     73  F   UNL A   1      38.383  32.432  29.094  1.00  0.00    -0.206 F 
ATOM     74  C   UNL A   1      37.345  32.495  32.558  1.00  0.00     0.022 A 
BRANCH  71  75
ATOM     75  S   UNL A   1      38.365  31.430  34.923  1.00  0.00     0.124 S 
ATOM     76  O   UNL A   1      37.248  32.250  35.377  1.00  0.00    -0.237 OA
ATOM     77  O   UNL A   1      38.138  29.988  34.909  1.00  0.00    -0.237 OA
ATOM     78  O   UNL A   1      39.681  31.846  35.402  1.00  0.00    -0.744 OA
ENDBRANCH  71  75
ENDBRANCH  44  68
BRANCH  56  79
ATOM     79  C   UNL A   1      45.775  34.128  29.212  1.00  0.00     0.023 A 
ATOM     80  C   UNL A   1      45.634  35.218  28.334  1.00  0.00     0.031 A 
ATOM     81  C   UNL A   1      46.571  34.303  30.359  1.00  0.00     0.131 A 
ATOM     82  C   UNL A   1      46.321  36.415  28.591  1.00  0.00     0.055 A 
ATOM     83  C   UNL A   1      47.201  35.516  30.640  1.00  0.00     0.041 A 
ATOM     84  F   UNL A   1      46.745  33.296  31.230  1.00  0.00    -0.206 F 
ATOM     85  C   UNL A   1      47.088  36.576  29.747  1.00  0.00     0.022 A 
BRANCH  82  86
ATOM     86  S   UNL A   1      46.274  37.734  27.345  1.00  0.00     0.124 S 
ATOM     87  O   UNL A   1      46.994  38.811  28.018  1.00  0.00    -0.237 OA
ATOM     88  O   UNL A   1      46.959  37.118  26.213  1.00  0.00    -0.237 OA
ATOM     89  O   UNL A   1      44.845  37.972  27.150  1.00  0.00    -0.744 OA
ENDBRANCH  82  86
ENDBRANCH  56  79
ENDBRANCH  30  31
ENDBRANCH  23  25
ENDBRANCH  22  23
ENDBRANCH  21  22
ENDBRANCH  20  21
ENDBRANCH  19  20
ENDBRANCH   1  19
TORSDOF 21
ENDMDL
MODEL 3
REMARK VINA RESULT:      -8.2      4.849     10.638
REMARK SMILES Cc1cc(F)cc(/C=C/C(=O)OCCOCCOCCOC(=O)c2ccc(-c3c4nc(c(-c5cc(S(=O)(=O)[O-])ccc5F)c5ccc([nH]5)c(-c5cc(S(=O)(=O)[O-])ccc5F)c5nc(c(-c6cc(S(=O)(=O)[O-])ccc6F)c6ccc3[nH]6)C=C5)C=C4)cc2)c1
REMARK SMILES IDX 17 1 16 2 15 3 14 4 13 5 12 6 10 7 11 8 9 9 8 10 7 11 1 12
REMARK SMILES IDX 2 13 3 14 87 15 4 16 5 17 6 18 18 19 19 20 20 21 21 22 22 23
REMARK SMILES IDX 23 24 24 25 25 26 86 27 26 28 85 29 27 30 28 31 29 32 79 33
REMARK SMILES IDX 30 34 84 35 78 36 80 37 31 38 83 39 77 40 76 41 32 43 64 44
REMARK SMILES IDX 44 45 63 46 45 47 48 48 62 49 81 50 46 51 47 52 61 54 82 55
REMARK SMILES IDX 49 56 33 57 34 58 42 59 35 60 41 61 43 62 40 63 36 64 37 65
REMARK SMILES IDX 38 66 39 67 65 68 66 69 74 70 67 71 73 72 75 73 72 74 68 75
REMARK SMILES IDX 69 76 70 77 71 78 50 79 51 80 59 81 52 82 58 83 60 84 57 85
REMARK SMILES IDX 53 86 54 87 55 88 56 89
REMARK H PARENT 80 42 48 53
REMARK Flexibility Score: inf
ROOT
ATOM      1  C   UNL A   1      33.614  35.627  30.979  1.00  0.00     0.188 C 
ENDROOT
BRANCH   1   2
ATOM      2  C   UNL A   1      33.473  35.535  32.513  1.00  0.00     0.188 C 
BRANCH   2   3
ATOM      3  O   UNL A   1      34.108  34.472  33.218  1.00  0.00    -0.376 OA
BRANCH   3   4
ATOM      4  C   UNL A   1      35.322  34.716  33.917  1.00  0.00     0.202 C 
BRANCH   4   5
ATOM      5  C   UNL A   1      35.450  34.304  35.391  1.00  0.00     0.261 C 
BRANCH   5   6
ATOM      6  O   UNL A   1      36.396  33.254  35.655  1.00  0.00    -0.460 OA
BRANCH   6   7
ATOM      7  C   UNL A   1      37.680  33.659  35.822  1.00  0.00     0.330 C 
ATOM      8  O   UNL A   1      38.211  33.957  36.881  1.00  0.00    -0.247 OA
BRANCH   7   9
ATOM      9  C   UNL A   1      38.461  33.617  34.567  1.00  0.00     0.094 C 
ATOM     10  C   UNL A   1      38.818  34.673  33.818  1.00  0.00     0.016 C 
BRANCH  10  11
ATOM     11  C   UNL A   1      39.611  34.544  32.581  1.00  0.00    -0.022 A 
ATOM     12  C   UNL A   1      43.305  34.309  31.603  1.00  0.00     0.044 C 
ATOM     13  C   UNL A   1      41.811  34.376  31.513  1.00  0.00    -0.048 A 
ATOM     14  C   UNL A   1      41.188  34.260  30.266  1.00  0.00     0.042 A 
ATOM     15  C   UNL A   1      41.014  34.522  32.663  1.00  0.00     0.011 A 
ATOM     16  C   UNL A   1      39.803  34.315  30.180  1.00  0.00     0.124 A 
ATOM     17  F   UNL A   1      39.218  34.214  28.980  1.00  0.00    -0.207 F 
ATOM     18  C   UNL A   1      39.015  34.466  31.316  1.00  0.00     0.047 A 
ENDBRANCH  10  11
ENDBRANCH   7   9
ENDBRANCH   6   7
ENDBRANCH   5   6
ENDBRANCH   4   5
ENDBRANCH   3   4
ENDBRANCH   2   3
ENDBRANCH   1   2
BRANCH   1  19
ATOM     19  O   UNL A   1      33.181  34.467  30.299  1.00  0.00    -0.376 OA
BRANCH  19  20
ATOM     20  C   UNL A   1      34.136  33.731  29.554  1.00  0.00     0.202 C 
BRANCH  20  21
ATOM     21  C   UNL A   1      33.972  33.471  28.044  1.00  0.00     0.261 C 
BRANCH  21  22
ATOM     22  O   UNL A   1      34.859  32.531  27.426  1.00  0.00    -0.460 OA
BRANCH  22  23
ATOM     23  C   UNL A   1      34.675  31.227  27.713  1.00  0.00     0.338 C 
ATOM     24  O   UNL A   1      33.725  30.528  27.366  1.00  0.00    -0.246 OA
BRANCH  23  25
ATOM     25  C   UNL A   1      35.891  30.727  28.381  1.00  0.00     0.060 A 
ATOM     26  C   UNL A   1      37.130  31.293  28.057  1.00  0.00     0.016 A 
ATOM     27  C   UNL A   1      35.808  29.701  29.327  1.00  0.00     0.016 A 
ATOM     28  C   UNL A   1      38.295  30.820  28.667  1.00  0.00     0.010 A 
ATOM     29  C   UNL A   1      36.976  29.217  29.923  1.00  0.00     0.010 A 
ATOM     30  C   UNL A   1      38.229  29.756  29.578  1.00  0.00    -0.014 A 
BRANCH  30  31
ATOM     31  C   UNL A   1      39.476  29.097  30.043  1.00  0.00     0.031 A 
ATOM     32  C   UNL A   1      40.182  29.663  31.245  1.00  0.00     0.074 A 
ATOM     33  C   UNL A   1      39.970  28.014  29.417  1.00  0.00     0.049 A 
ATOM     34  N   UNL A   1      41.312  29.303  31.796  1.00  0.00    -0.248 NA
ATOM     35  C   UNL A   1      39.520  30.797  31.907  1.00  0.00     0.031 C 
ATOM     36  C   UNL A   1      39.357  27.349  28.270  1.00  0.00     0.029 A 
ATOM     37  N   UNL A   1      41.112  27.290  29.656  1.00  0.00    -0.354 N 
ATOM     38  C   UNL A   1      41.499  30.165  32.872  1.00  0.00     0.074 A 
ATOM     39  C   UNL A   1      40.387  31.092  32.862  1.00  0.00     0.031 C 
ATOM     40  C   UNL A   1      40.138  26.322  27.894  1.00  0.00     0.029 A 
ATOM     41  C   UNL A   1      41.325  26.280  28.747  1.00  0.00     0.049 A 
ATOM     42  H   UNL A   1      41.721  27.475  30.407  1.00  0.00     0.167 HD
ATOM     43  C   UNL A   1      42.500  30.177  33.786  1.00  0.00     0.034 A 
ATOM     44  C   UNL A   1      42.371  25.441  28.602  1.00  0.00     0.034 A 
ATOM     45  C   UNL A   1      43.616  29.262  33.764  1.00  0.00     0.049 A 
ATOM     46  C   UNL A   1      43.528  25.533  29.570  1.00  0.00     0.074 A 
ATOM     47  C   UNL A   1      44.682  29.179  34.643  1.00  0.00     0.029 A 
ATOM     48  N   UNL A   1      43.823  28.281  32.800  1.00  0.00    -0.354 N 
ATOM     49  N   UNL A   1      43.693  26.346  30.589  1.00  0.00    -0.248 NA
ATOM     50  C   UNL A   1      44.637  24.590  29.370  1.00  0.00     0.031 C 
ATOM     51  C   UNL A   1      45.568  28.204  34.168  1.00  0.00     0.029 A 
ATOM     52  C   UNL A   1      45.015  27.615  33.042  1.00  0.00     0.049 A 
ATOM     53  H   UNL A   1      43.210  28.086  32.055  1.00  0.00     0.167 HD
ATOM     54  C   UNL A   1      44.909  25.989  31.170  1.00  0.00     0.074 A 
ATOM     55  C   UNL A   1      45.428  24.882  30.392  1.00  0.00     0.031 C 
ATOM     56  C   UNL A   1      45.534  26.522  32.250  1.00  0.00     0.034 A 
BRANCH  43  57
ATOM     57  C   UNL A   1      42.452  31.253  34.844  1.00  0.00     0.023 A 
ATOM     58  C   UNL A   1      43.178  32.452  34.716  1.00  0.00     0.031 A 
ATOM     59  C   UNL A   1      41.718  31.056  36.027  1.00  0.00     0.131 A 
ATOM     60  C   UNL A   1      43.225  33.362  35.782  1.00  0.00     0.055 A 
ATOM     61  C   UNL A   1      41.696  32.008  37.048  1.00  0.00     0.041 A 
ATOM     62  F   UNL A   1      41.024  29.923  36.220  1.00  0.00    -0.206 F 
ATOM     63  C   UNL A   1      42.467  33.160  36.939  1.00  0.00     0.022 A 
BRANCH  60  64
ATOM     64  S   UNL A   1      44.421  34.724  35.707  1.00  0.00     0.124 S 
ATOM     65  O   UNL A   1      45.373  34.227  34.717  1.00  0.00    -0.237 OA
ATOM     66  O   UNL A   1      43.592  35.849  35.290  1.00  0.00    -0.237 OA
ATOM     67  O   UNL A   1      44.938  34.802  37.072  1.00  0.00    -0.744 OA
ENDBRANCH  60  64
ENDBRANCH  43  57
BRANCH  44  68
ATOM     68  C   UNL A   1      42.404  24.468  27.471  1.00  0.00     0.023 A 
ATOM     69  C   UNL A   1      41.739  23.234  27.548  1.00  0.00     0.031 A 
ATOM     70  C   UNL A   1      43.143  24.747  26.308  1.00  0.00     0.131 A 
ATOM     71  C   UNL A   1      41.857  22.309  26.498  1.00  0.00     0.055 A 
ATOM     72  C   UNL A   1      43.215  23.846  25.243  1.00  0.00     0.041 A 
ATOM     73  F   UNL A   1      43.803  25.909  26.184  1.00  0.00    -0.206 F 
ATOM     74  C   UNL A   1      42.578  22.612  25.340  1.00  0.00     0.022 A 
BRANCH  71  75
ATOM     75  S   UNL A   1      41.114  20.666  26.696  1.00  0.00     0.124 S 
ATOM     76  O   UNL A   1      39.927  20.774  25.855  1.00  0.00    -0.237 OA
ATOM     77  O   UNL A   1      42.173  19.792  26.201  1.00  0.00    -0.237 OA
ATOM     78  O   UNL A   1      40.857  20.578  28.132  1.00  0.00    -0.744 OA
ENDBRANCH  71  75
ENDBRANCH  44  68
BRANCH  56  79
ATOM     79  C   UNL A   1      46.832  25.879  32.687  1.00  0.00     0.023 A 
ATOM     80  C   UNL A   1      46.863  24.803  33.591  1.00  0.00     0.031 A 
ATOM     81  C   UNL A   1      48.058  26.359  32.189  1.00  0.00     0.131 A 
ATOM     82  C   UNL A   1      48.096  24.277  34.010  1.00  0.00     0.055 A 
ATOM     83  C   UNL A   1      49.277  25.791  32.561  1.00  0.00     0.041 A 
ATOM     84  F   UNL A   1      48.090  27.387  31.326  1.00  0.00    -0.206 F 
ATOM     85  C   UNL A   1      49.301  24.752  33.487  1.00  0.00     0.022 A 
BRANCH  82  86
ATOM     86  S   UNL A   1      48.111  23.022  35.320  1.00  0.00     0.124 S 
ATOM     87  O   UNL A   1      49.365  23.317  36.007  1.00  0.00    -0.237 OA
ATOM     88  O   UNL A   1      46.891  23.327  36.059  1.00  0.00    -0.237 OA
ATOM     89  O   UNL A   1      48.091  21.758  34.585  1.00  0.00    -0.744 OA
ENDBRANCH  82  86
ENDBRANCH  56  79
ENDBRANCH  30  31
ENDBRANCH  23  25
ENDBRANCH  22  23
ENDBRANCH  21  22
ENDBRANCH  20  21
ENDBRANCH  19  20
ENDBRANCH   1  19
TORSDOF 21
ENDMDL
