MODEL 1
REMARK VINA RESULT:      -9.4      0.000      0.000
REMARK SMILES O=C(COc1ccc(S(=O)(=O)N2CCC(O)CC2)cc1)OCCOCCOCCOC(=O)c1ccc(-c2c3nc(c(-c4cc(S(=O)(=O)[O-])ccc4F)c4ccc([nH]4)c(-c4cc(S(=O)(=O)[O-])ccc4F)c4nc(c(-c5cc(S(=O)(=O)[O-])ccc5F)c5ccc2[nH]5)C=C4)C=C3)cc1
REMARK SMILES IDX 25 1 24 2 23 3 22 4 21 5 2 6 1 7 3 8 4 9 5 10 6 11 20 12
REMARK SMILES IDX 7 13 19 14 8 15 9 16 10 17 11 18 12 19 13 20 18 21 14 22
REMARK SMILES IDX 17 23 15 24 16 25 26 27 27 28 28 29 29 30 30 31 31 32 32 33
REMARK SMILES IDX 33 34 34 35 95 36 35 37 94 38 36 39 37 40 38 41 88 42 39 43
REMARK SMILES IDX 93 44 87 45 89 46 40 47 92 48 86 49 85 50 41 52 73 53 53 54
REMARK SMILES IDX 72 55 54 56 57 57 71 58 90 59 55 60 56 61 70 63 91 64 58 65
REMARK SMILES IDX 42 66 43 67 51 68 44 69 50 70 52 71 49 72 45 73 46 74 47 75
REMARK SMILES IDX 48 76 74 77 75 78 83 79 76 80 82 81 84 82 81 83 77 84 78 85
REMARK SMILES IDX 79 86 80 87 59 88 60 89 68 90 61 91 67 92 69 93 66 94 62 95
REMARK SMILES IDX 63 96 64 97 65 98
REMARK H PARENT 16 26 89 51 57 62
REMARK Flexibility Score: inf
ROOT
ATOM      1  C   UNL A   1      43.335  18.630  25.789  1.00  0.00     0.188 C 
ENDROOT
BRANCH   1   2
ATOM      2  O   UNL A   1      42.659  19.823  25.436  1.00  0.00    -0.376 OA
BRANCH   2   3
ATOM      3  C   UNL A   1      41.906  20.460  26.446  1.00  0.00     0.202 C 
BRANCH   3   4
ATOM      4  C   UNL A   1      40.412  20.313  26.194  1.00  0.00     0.261 C 
BRANCH   4   5
ATOM      5  O   UNL A   1      39.693  21.546  25.941  1.00  0.00    -0.461 OA
BRANCH   5   6
ATOM      6  C   UNL A   1      38.391  21.691  25.602  1.00  0.00     0.344 C 
ATOM      7  O   UNL A   1      37.792  20.744  25.093  1.00  0.00    -0.248 OA
BRANCH   6   8
ATOM      8  C   UNL A   1      37.703  23.043  25.819  1.00  0.00     0.351 C 
BRANCH   8   9
ATOM      9  O   UNL A   1      37.131  23.689  24.680  1.00  0.00    -0.482 OA
BRANCH   9  10
ATOM     10  C   UNL A   1      35.780  23.765  24.874  1.00  0.00     0.120 A 
ATOM     11  C   UNL A   1      35.267  23.566  26.149  1.00  0.00     0.048 A 
ATOM     12  C   UNL A   1      34.964  24.170  23.827  1.00  0.00     0.048 A 
ATOM     13  C   UNL A   1      33.934  23.894  26.400  1.00  0.00     0.025 A 
ATOM     14  C   UNL A   1      33.677  24.578  24.096  1.00  0.00     0.025 A 
ATOM     15  C   UNL A   1      33.145  24.432  25.372  1.00  0.00     0.082 A 
BRANCH  15  16
ATOM     16  S   UNL A   1      31.483  24.948  25.750  1.00  0.00     0.243 S 
ATOM     17  O   UNL A   1      30.657  24.481  24.659  1.00  0.00    -0.207 OA
ATOM     18  O   UNL A   1      31.233  24.547  27.120  1.00  0.00    -0.207 OA
BRANCH  16  19
ATOM     19  N   UNL A   1      31.473  26.667  25.723  1.00  0.00    -0.198 NA
ATOM     20  C   UNL A   1      31.221  27.302  24.399  1.00  0.00     0.105 C 
ATOM     21  C   UNL A   1      32.449  27.314  26.637  1.00  0.00     0.105 C 
ATOM     22  C   UNL A   1      31.113  28.817  24.487  1.00  0.00     0.048 C 
ATOM     23  C   UNL A   1      32.257  28.822  26.688  1.00  0.00     0.048 C 
ATOM     24  C   UNL A   1      32.255  29.419  25.290  1.00  0.00     0.117 C 
BRANCH  24  25
ATOM     25  O   UNL A   1      33.485  29.157  24.615  1.00  0.00    -0.393 OA
ATOM     26  H   UNL A   1      33.437  29.501  23.709  1.00  0.00     0.210 HD
ENDBRANCH  24  25
ENDBRANCH  16  19
ENDBRANCH  15  16
ENDBRANCH   9  10
ENDBRANCH   8   9
ENDBRANCH   6   8
ENDBRANCH   5   6
ENDBRANCH   4   5
ENDBRANCH   3   4
ENDBRANCH   2   3
ENDBRANCH   1   2
BRANCH   1  27
ATOM     27  C   UNL A   1      44.799  18.613  25.328  1.00  0.00     0.188 C 
BRANCH  27  28
ATOM     28  O   UNL A   1      45.248  19.531  24.338  1.00  0.00    -0.376 OA
BRANCH  28  29
ATOM     29  C   UNL A   1      46.251  20.479  24.660  1.00  0.00     0.202 C 
BRANCH  29  30
ATOM     30  C   UNL A   1      45.937  21.965  24.427  1.00  0.00     0.261 C 
BRANCH  30  31
ATOM     31  O   UNL A   1      45.124  22.610  25.428  1.00  0.00    -0.460 OA
BRANCH  31  32
ATOM     32  C   UNL A   1      44.003  23.237  24.979  1.00  0.00     0.338 C 
ATOM     33  O   UNL A   1      43.232  22.819  24.133  1.00  0.00    -0.246 OA
BRANCH  32  34
ATOM     34  C   UNL A   1      43.733  24.460  25.782  1.00  0.00     0.060 A 
ATOM     35  C   UNL A   1      43.488  25.671  25.115  1.00  0.00     0.016 A 
ATOM     36  C   UNL A   1      43.779  24.436  27.177  1.00  0.00     0.016 A 
ATOM     37  C   UNL A   1      43.329  26.864  25.833  1.00  0.00     0.010 A 
ATOM     38  C   UNL A   1      43.644  25.635  27.893  1.00  0.00     0.010 A 
ATOM     39  C   UNL A   1      43.452  26.861  27.227  1.00  0.00    -0.014 A 
BRANCH  39  40
ATOM     40  C   UNL A   1      43.599  28.134  27.992  1.00  0.00     0.031 A 
ATOM     41  C   UNL A   1      42.356  28.766  28.564  1.00  0.00     0.074 A 
ATOM     42  C   UNL A   1      44.783  28.755  28.138  1.00  0.00     0.049 A 
ATOM     43  N   UNL A   1      42.185  29.953  29.085  1.00  0.00    -0.248 NA
ATOM     44  C   UNL A   1      41.141  27.942  28.518  1.00  0.00     0.031 C 
ATOM     45  C   UNL A   1      46.071  28.233  27.691  1.00  0.00     0.029 A 
ATOM     46  N   UNL A   1      45.085  29.986  28.675  1.00  0.00    -0.354 N 
ATOM     47  C   UNL A   1      40.833  30.032  29.406  1.00  0.00     0.074 A 
ATOM     48  C   UNL A   1      40.233  28.779  28.994  1.00  0.00     0.031 C 
ATOM     49  C   UNL A   1      47.020  29.156  27.932  1.00  0.00     0.029 A 
ATOM     50  C   UNL A   1      46.400  30.354  28.500  1.00  0.00     0.049 A 
ATOM     51  H   UNL A   1      44.425  30.549  29.140  1.00  0.00     0.167 HD
ATOM     52  C   UNL A   1      40.153  31.056  29.982  1.00  0.00     0.034 A 
ATOM     53  C   UNL A   1      47.021  31.534  28.717  1.00  0.00     0.034 A 
ATOM     54  C   UNL A   1      40.761  32.305  30.372  1.00  0.00     0.049 A 
ATOM     55  C   UNL A   1      46.235  32.702  29.272  1.00  0.00     0.074 A 
ATOM     56  C   UNL A   1      40.171  33.394  30.990  1.00  0.00     0.029 A 
ATOM     57  N   UNL A   1      42.091  32.644  30.159  1.00  0.00    -0.354 N 
ATOM     58  N   UNL A   1      44.959  32.768  29.576  1.00  0.00    -0.248 NA
ATOM     59  C   UNL A   1      46.971  33.951  29.514  1.00  0.00     0.031 C 
ATOM     60  C   UNL A   1      41.117  34.421  31.069  1.00  0.00     0.029 A 
ATOM     61  C   UNL A   1      42.327  33.942  30.591  1.00  0.00     0.049 A 
ATOM     62  H   UNL A   1      42.768  32.052  29.761  1.00  0.00     0.167 HD
ATOM     63  C   UNL A   1      44.749  34.055  30.074  1.00  0.00     0.074 A 
ATOM     64  C   UNL A   1      46.029  34.729  30.029  1.00  0.00     0.031 C 
ATOM     65  C   UNL A   1      43.605  34.617  30.538  1.00  0.00     0.034 A 
BRANCH  52  66
ATOM     66  C   UNL A   1      38.660  30.886  30.148  1.00  0.00     0.023 A 
ATOM     67  C   UNL A   1      37.745  31.390  29.207  1.00  0.00     0.031 A 
ATOM     68  C   UNL A   1      38.142  30.265  31.299  1.00  0.00     0.131 A 
ATOM     69  C   UNL A   1      36.369  31.355  29.481  1.00  0.00     0.055 A 
ATOM     70  C   UNL A   1      36.768  30.147  31.518  1.00  0.00     0.041 A 
ATOM     71  F   UNL A   1      38.964  29.784  32.245  1.00  0.00    -0.206 F 
ATOM     72  C   UNL A   1      35.873  30.712  30.618  1.00  0.00     0.022 A 
BRANCH  69  73
ATOM     73  S   UNL A   1      35.255  32.328  28.430  1.00  0.00     0.124 S 
ATOM     74  O   UNL A   1      34.485  33.070  29.425  1.00  0.00    -0.237 OA
ATOM     75  O   UNL A   1      36.186  33.112  27.627  1.00  0.00    -0.237 OA
ATOM     76  O   UNL A   1      34.499  31.313  27.699  1.00  0.00    -0.744 OA
ENDBRANCH  69  73
ENDBRANCH  52  66
BRANCH  53  77
ATOM     77  C   UNL A   1      48.454  31.701  28.334  1.00  0.00     0.023 A 
ATOM     78  C   UNL A   1      49.496  31.353  29.207  1.00  0.00     0.031 A 
ATOM     79  C   UNL A   1      48.799  32.246  27.082  1.00  0.00     0.131 A 
ATOM     80  C   UNL A   1      50.830  31.576  28.828  1.00  0.00     0.055 A 
ATOM     81  C   UNL A   1      50.127  32.418  26.690  1.00  0.00     0.041 A 
ATOM     82  F   UNL A   1      47.842  32.602  26.210  1.00  0.00    -0.206 F 
ATOM     83  C   UNL A   1      51.153  32.089  27.569  1.00  0.00     0.022 A 
BRANCH  80  84
ATOM     84  S   UNL A   1      52.148  31.239  30.029  1.00  0.00     0.124 S 
ATOM     85  O   UNL A   1      53.251  32.023  29.484  1.00  0.00    -0.237 OA
ATOM     86  O   UNL A   1      51.560  31.735  31.270  1.00  0.00    -0.237 OA
ATOM     87  O   UNL A   1      52.314  29.790  29.955  1.00  0.00    -0.744 OA
ENDBRANCH  80  84
ENDBRANCH  53  77
BRANCH  65  88
ATOM     88  C   UNL A   1      43.683  36.018  31.104  1.00  0.00     0.023 A 
ATOM     89  C   UNL A   1      43.757  36.269  32.485  1.00  0.00     0.031 A 
ATOM     90  C   UNL A   1      43.725  37.121  30.230  1.00  0.00     0.131 A 
ATOM     91  C   UNL A   1      43.841  37.592  32.952  1.00  0.00     0.055 A 
ATOM     92  C   UNL A   1      43.863  38.428  30.697  1.00  0.00     0.041 A 
ATOM     93  F   UNL A   1      43.652  36.942  28.901  1.00  0.00    -0.206 F 
ATOM     94  C   UNL A   1      43.916  38.671  32.065  1.00  0.00     0.022 A 
BRANCH  91  95
ATOM     95  S   UNL A   1      43.793  37.899  34.740  1.00  0.00     0.124 S 
ATOM     96  O   UNL A   1      45.000  37.215  35.196  1.00  0.00    -0.237 OA
ATOM     97  O   UNL A   1      43.822  39.356  34.809  1.00  0.00    -0.237 OA
ATOM     98  O   UNL A   1      42.536  37.284  35.161  1.00  0.00    -0.744 OA
ENDBRANCH  91  95
ENDBRANCH  65  88
ENDBRANCH  39  40
ENDBRANCH  32  34
ENDBRANCH  31  32
ENDBRANCH  30  31
ENDBRANCH  29  30
ENDBRANCH  28  29
ENDBRANCH  27  28
ENDBRANCH   1  27
TORSDOF 25
ENDMDL
MODEL 2
REMARK VINA RESULT:      -9.2      5.686     10.950
REMARK SMILES O=C(COc1ccc(S(=O)(=O)N2CCC(O)CC2)cc1)OCCOCCOCCOC(=O)c1ccc(-c2c3nc(c(-c4cc(S(=O)(=O)[O-])ccc4F)c4ccc([nH]4)c(-c4cc(S(=O)(=O)[O-])ccc4F)c4nc(c(-c5cc(S(=O)(=O)[O-])ccc5F)c5ccc2[nH]5)C=C4)C=C3)cc1
REMARK SMILES IDX 25 1 24 2 23 3 22 4 21 5 2 6 1 7 3 8 4 9 5 10 6 11 20 12
REMARK SMILES IDX 7 13 19 14 8 15 9 16 10 17 11 18 12 19 13 20 18 21 14 22
REMARK SMILES IDX 17 23 15 24 16 25 26 27 27 28 28 29 29 30 30 31 31 32 32 33
REMARK SMILES IDX 33 34 34 35 95 36 35 37 94 38 36 39 37 40 38 41 88 42 39 43
REMARK SMILES IDX 93 44 87 45 89 46 40 47 92 48 86 49 85 50 41 52 73 53 53 54
REMARK SMILES IDX 72 55 54 56 57 57 71 58 90 59 55 60 56 61 70 63 91 64 58 65
REMARK SMILES IDX 42 66 43 67 51 68 44 69 50 70 52 71 49 72 45 73 46 74 47 75
REMARK SMILES IDX 48 76 74 77 75 78 83 79 76 80 82 81 84 82 81 83 77 84 78 85
REMARK SMILES IDX 79 86 80 87 59 88 60 89 68 90 61 91 67 92 69 93 66 94 62 95
REMARK SMILES IDX 63 96 64 97 65 98
REMARK H PARENT 16 26 89 51 57 62
REMARK Flexibility Score: inf
ROOT
ATOM      1  C   UNL A   1      34.460  30.805  27.563  1.00  0.00     0.188 C 
ENDROOT
BRANCH   1   2
ATOM      2  O   UNL A   1      33.128  30.505  27.187  1.00  0.00    -0.376 OA
BRANCH   2   3
ATOM      3  C   UNL A   1      32.899  30.182  25.833  1.00  0.00     0.202 C 
BRANCH   3   4
ATOM      4  C   UNL A   1      33.364  28.767  25.518  1.00  0.00     0.261 C 
BRANCH   4   5
ATOM      5  O   UNL A   1      32.833  27.725  26.374  1.00  0.00    -0.461 OA
BRANCH   5   6
ATOM      6  C   UNL A   1      31.540  27.350  26.519  1.00  0.00     0.344 C 
ATOM      7  O   UNL A   1      31.019  27.403  27.633  1.00  0.00    -0.248 OA
BRANCH   6   8
ATOM      8  C   UNL A   1      30.768  26.826  25.304  1.00  0.00     0.351 C 
BRANCH   8   9
ATOM      9  O   UNL A   1      29.810  25.788  25.520  1.00  0.00    -0.482 OA
BRANCH   9  10
ATOM     10  C   UNL A   1      30.479  24.597  25.554  1.00  0.00     0.120 A 
ATOM     11  C   UNL A   1      31.118  24.148  24.404  1.00  0.00     0.048 A 
ATOM     12  C   UNL A   1      30.622  23.930  26.761  1.00  0.00     0.048 A 
ATOM     13  C   UNL A   1      32.009  23.078  24.501  1.00  0.00     0.025 A 
ATOM     14  C   UNL A   1      31.567  22.934  26.874  1.00  0.00     0.025 A 
ATOM     15  C   UNL A   1      32.255  22.489  25.751  1.00  0.00     0.082 A 
BRANCH  15  16
ATOM     16  S   UNL A   1      33.481  21.202  25.863  1.00  0.00     0.243 S 
ATOM     17  O   UNL A   1      33.626  20.904  27.270  1.00  0.00    -0.207 OA
ATOM     18  O   UNL A   1      33.093  20.185  24.906  1.00  0.00    -0.207 OA
BRANCH  16  19
ATOM     19  N   UNL A   1      34.963  21.871  25.309  1.00  0.00    -0.198 NA
ATOM     20  C   UNL A   1      36.035  20.898  24.959  1.00  0.00     0.105 C 
ATOM     21  C   UNL A   1      35.359  23.146  25.962  1.00  0.00     0.105 C 
ATOM     22  C   UNL A   1      37.267  21.567  24.369  1.00  0.00     0.048 C 
ATOM     23  C   UNL A   1      36.581  23.763  25.297  1.00  0.00     0.048 C 
ATOM     24  C   UNL A   1      37.717  22.757  25.202  1.00  0.00     0.117 C 
BRANCH  24  25
ATOM     25  O   UNL A   1      38.108  22.296  26.496  1.00  0.00    -0.393 OA
ATOM     26  H   UNL A   1      38.822  21.645  26.405  1.00  0.00     0.210 HD
ENDBRANCH  24  25
ENDBRANCH  16  19
ENDBRANCH  15  16
ENDBRANCH   9  10
ENDBRANCH   8   9
ENDBRANCH   6   8
ENDBRANCH   5   6
ENDBRANCH   4   5
ENDBRANCH   3   4
ENDBRANCH   2   3
ENDBRANCH   1   2
BRANCH   1  27
ATOM     27  C   UNL A   1      34.574  32.100  28.380  1.00  0.00     0.188 C 
BRANCH  27  28
ATOM     28  O   UNL A   1      34.749  33.349  27.719  1.00  0.00    -0.376 OA
BRANCH  28  29
ATOM     29  C   UNL A   1      34.077  34.500  28.201  1.00  0.00     0.202 C 
BRANCH  29  30
ATOM     30  C   UNL A   1      33.571  34.482  29.651  1.00  0.00     0.261 C 
BRANCH  30  31
ATOM     31  O   UNL A   1      33.297  35.764  30.249  1.00  0.00    -0.460 OA
BRANCH  31  32
ATOM     32  C   UNL A   1      33.001  35.758  31.577  1.00  0.00     0.338 C 
ATOM     33  O   UNL A   1      31.963  36.141  32.088  1.00  0.00    -0.246 OA
BRANCH  32  34
ATOM     34  C   UNL A   1      34.066  35.058  32.345  1.00  0.00     0.060 A 
ATOM     35  C   UNL A   1      35.384  35.540  32.274  1.00  0.00     0.016 A 
ATOM     36  C   UNL A   1      33.790  33.904  33.079  1.00  0.00     0.016 A 
ATOM     37  C   UNL A   1      36.431  34.851  32.900  1.00  0.00     0.010 A 
ATOM     38  C   UNL A   1      34.843  33.202  33.685  1.00  0.00     0.010 A 
ATOM     39  C   UNL A   1      36.174  33.650  33.574  1.00  0.00    -0.014 A 
BRANCH  39  40
ATOM     40  C   UNL A   1      37.284  32.739  33.979  1.00  0.00     0.031 A 
ATOM     41  C   UNL A   1      38.055  33.073  35.229  1.00  0.00     0.074 A 
ATOM     42  C   UNL A   1      37.649  31.674  33.242  1.00  0.00     0.049 A 
ATOM     43  N   UNL A   1      39.174  32.569  35.683  1.00  0.00    -0.248 NA
ATOM     44  C   UNL A   1      37.486  34.138  36.066  1.00  0.00     0.031 C 
ATOM     45  C   UNL A   1      36.959  31.200  32.046  1.00  0.00     0.029 A 
ATOM     46  N   UNL A   1      38.720  30.820  33.377  1.00  0.00    -0.354 N 
ATOM     47  C   UNL A   1      39.461  33.275  36.847  1.00  0.00     0.074 A 
ATOM     48  C   UNL A   1      38.407  34.256  37.009  1.00  0.00     0.031 C 
ATOM     49  C   UNL A   1      37.649  30.165  31.530  1.00  0.00     0.029 A 
ATOM     50  C   UNL A   1      38.856  29.940  32.328  1.00  0.00     0.049 A 
ATOM     51  H   UNL A   1      39.329  30.836  34.150  1.00  0.00     0.167 HD
ATOM     52  C   UNL A   1      40.507  33.125  37.698  1.00  0.00     0.034 A 
ATOM     53  C   UNL A   1      39.860  29.093  32.013  1.00  0.00     0.034 A 
ATOM     54  C   UNL A   1      41.559  32.153  37.515  1.00  0.00     0.049 A 
ATOM     55  C   UNL A   1      41.070  28.998  32.917  1.00  0.00     0.074 A 
ATOM     56  C   UNL A   1      42.647  31.897  38.331  1.00  0.00     0.029 A 
ATOM     57  N   UNL A   1      41.669  31.294  36.429  1.00  0.00    -0.354 N 
ATOM     58  N   UNL A   1      41.332  29.665  34.018  1.00  0.00    -0.248 NA
ATOM     59  C   UNL A   1      42.116  28.037  32.539  1.00  0.00     0.031 C 
ATOM     60  C   UNL A   1      43.459  30.952  37.697  1.00  0.00     0.029 A 
ATOM     61  C   UNL A   1      42.831  30.542  36.531  1.00  0.00     0.049 A 
ATOM     62  H   UNL A   1      41.019  31.228  35.694  1.00  0.00     0.167 HD
ATOM     63  C   UNL A   1      42.557  29.181  34.477  1.00  0.00     0.074 A 
ATOM     64  C   UNL A   1      42.981  28.167  33.535  1.00  0.00     0.031 C 
ATOM     65  C   UNL A   1      43.256  29.535  35.585  1.00  0.00     0.034 A 
BRANCH  52  66
ATOM     66  C   UNL A   1      40.599  34.090  38.858  1.00  0.00     0.023 A 
ATOM     67  C   UNL A   1      40.000  33.820  40.101  1.00  0.00     0.031 A 
ATOM     68  C   UNL A   1      41.242  35.331  38.696  1.00  0.00     0.131 A 
ATOM     69  C   UNL A   1      39.969  34.811  41.093  1.00  0.00     0.055 A 
ATOM     70  C   UNL A   1      41.292  36.275  39.723  1.00  0.00     0.041 A 
ATOM     71  F   UNL A   1      41.813  35.658  37.526  1.00  0.00    -0.206 F 
ATOM     72  C   UNL A   1      40.634  36.028  40.922  1.00  0.00     0.022 A 
BRANCH  69  73
ATOM     73  S   UNL A   1      38.886  34.563  42.528  1.00  0.00     0.124 S 
ATOM     74  O   UNL A   1      37.891  35.614  42.331  1.00  0.00    -0.237 OA
ATOM     75  O   UNL A   1      38.418  33.196  42.335  1.00  0.00    -0.237 OA
ATOM     76  O   UNL A   1      39.777  34.765  43.669  1.00  0.00    -0.744 OA
ENDBRANCH  69  73
ENDBRANCH  52  66
BRANCH  53  77
ATOM     77  C   UNL A   1      39.806  28.317  30.739  1.00  0.00     0.023 A 
ATOM     78  C   UNL A   1      40.510  28.725  29.596  1.00  0.00     0.031 A 
ATOM     79  C   UNL A   1      39.012  27.157  30.643  1.00  0.00     0.131 A 
ATOM     80  C   UNL A   1      40.390  27.997  28.402  1.00  0.00     0.055 A 
ATOM     81  C   UNL A   1      38.936  26.407  29.468  1.00  0.00     0.041 A 
ATOM     82  F   UNL A   1      38.312  26.724  31.704  1.00  0.00    -0.206 F 
ATOM     83  C   UNL A   1      39.622  26.830  28.335  1.00  0.00     0.022 A 
BRANCH  80  84
ATOM     84  S   UNL A   1      41.206  28.625  26.908  1.00  0.00     0.124 S 
ATOM     85  O   UNL A   1      42.216  29.512  27.475  1.00  0.00    -0.237 OA
ATOM     86  O   UNL A   1      41.702  27.396  26.296  1.00  0.00    -0.237 OA
ATOM     87  O   UNL A   1      40.125  29.290  26.184  1.00  0.00    -0.744 OA
ENDBRANCH  80  84
ENDBRANCH  53  77
BRANCH  65  88
ATOM     88  C   UNL A   1      44.531  28.779  35.890  1.00  0.00     0.023 A 
ATOM     89  C   UNL A   1      45.789  29.209  35.433  1.00  0.00     0.031 A 
ATOM     90  C   UNL A   1      44.481  27.624  36.693  1.00  0.00     0.131 A 
ATOM     91  C   UNL A   1      46.940  28.473  35.759  1.00  0.00     0.055 A 
ATOM     92  C   UNL A   1      45.634  26.928  37.059  1.00  0.00     0.041 A 
ATOM     93  F   UNL A   1      43.306  27.163  37.154  1.00  0.00    -0.206 F 
ATOM     94  C   UNL A   1      46.873  27.348  36.587  1.00  0.00     0.022 A 
BRANCH  91  95
ATOM     95  S   UNL A   1      48.533  28.967  35.042  1.00  0.00     0.124 S 
ATOM     96  O   UNL A   1      48.122  29.555  33.770  1.00  0.00    -0.237 OA
ATOM     97  O   UNL A   1      49.050  29.900  36.038  1.00  0.00    -0.237 OA
ATOM     98  O   UNL A   1      49.267  27.708  34.934  1.00  0.00    -0.744 OA
ENDBRANCH  91  95
ENDBRANCH  65  88
ENDBRANCH  39  40
ENDBRANCH  32  34
ENDBRANCH  31  32
ENDBRANCH  30  31
ENDBRANCH  29  30
ENDBRANCH  28  29
ENDBRANCH  27  28
ENDBRANCH   1  27
TORSDOF 25
ENDMDL
MODEL 3
REMARK VINA RESULT:      -9.2      3.285      8.449
REMARK SMILES O=C(COc1ccc(S(=O)(=O)N2CCC(O)CC2)cc1)OCCOCCOCCOC(=O)c1ccc(-c2c3nc(c(-c4cc(S(=O)(=O)[O-])ccc4F)c4ccc([nH]4)c(-c4cc(S(=O)(=O)[O-])ccc4F)c4nc(c(-c5cc(S(=O)(=O)[O-])ccc5F)c5ccc2[nH]5)C=C4)C=C3)cc1
REMARK SMILES IDX 25 1 24 2 23 3 22 4 21 5 2 6 1 7 3 8 4 9 5 10 6 11 20 12
REMARK SMILES IDX 7 13 19 14 8 15 9 16 10 17 11 18 12 19 13 20 18 21 14 22
REMARK SMILES IDX 17 23 15 24 16 25 26 27 27 28 28 29 29 30 30 31 31 32 32 33
REMARK SMILES IDX 33 34 34 35 95 36 35 37 94 38 36 39 37 40 38 41 88 42 39 43
REMARK SMILES IDX 93 44 87 45 89 46 40 47 92 48 86 49 85 50 41 52 73 53 53 54
REMARK SMILES IDX 72 55 54 56 57 57 71 58 90 59 55 60 56 61 70 63 91 64 58 65
REMARK SMILES IDX 42 66 43 67 51 68 44 69 50 70 52 71 49 72 45 73 46 74 47 75
REMARK SMILES IDX 48 76 74 77 75 78 83 79 76 80 82 81 84 82 81 83 77 84 78 85
REMARK SMILES IDX 79 86 80 87 59 88 60 89 68 90 61 91 67 92 69 93 66 94 62 95
REMARK SMILES IDX 63 96 64 97 65 98
REMARK H PARENT 16 26 89 51 57 62
REMARK Flexibility Score: inf
ROOT
ATOM      1  C   UNL A   1      34.080  22.585  26.176  1.00  0.00     0.188 C 
ENDROOT
BRANCH   1   2
ATOM      2  O   UNL A   1      34.962  23.692  26.161  1.00  0.00    -0.376 OA
BRANCH   2   3
ATOM      3  C   UNL A   1      35.150  24.348  24.925  1.00  0.00     0.202 C 
BRANCH   3   4
ATOM      4  C   UNL A   1      34.294  23.723  23.834  1.00  0.00     0.261 C 
BRANCH   4   5
ATOM      5  O   UNL A   1      33.545  24.652  23.012  1.00  0.00    -0.461 OA
BRANCH   5   6
ATOM      6  C   UNL A   1      32.227  24.610  22.703  1.00  0.00     0.344 C 
ATOM      7  O   UNL A   1      31.566  23.622  23.021  1.00  0.00    -0.248 OA
BRANCH   6   8
ATOM      8  C   UNL A   1      31.599  25.772  21.926  1.00  0.00     0.351 C 
BRANCH   8   9
ATOM      9  O   UNL A   1      32.431  26.891  21.615  1.00  0.00    -0.482 OA
BRANCH   9  10
ATOM     10  C   UNL A   1      32.310  27.800  22.629  1.00  0.00     0.120 A 
ATOM     11  C   UNL A   1      31.108  27.886  23.320  1.00  0.00     0.048 A 
ATOM     12  C   UNL A   1      33.424  28.520  23.035  1.00  0.00     0.048 A 
ATOM     13  C   UNL A   1      31.062  28.618  24.508  1.00  0.00     0.025 A 
ATOM     14  C   UNL A   1      33.403  29.166  24.251  1.00  0.00     0.025 A 
ATOM     15  C   UNL A   1      32.227  29.235  24.989  1.00  0.00     0.082 A 
BRANCH  15  16
ATOM     16  S   UNL A   1      32.167  30.065  26.563  1.00  0.00     0.243 S 
ATOM     17  O   UNL A   1      31.541  31.346  26.322  1.00  0.00    -0.207 OA
ATOM     18  O   UNL A   1      31.612  29.113  27.505  1.00  0.00    -0.207 OA
BRANCH  16  19
ATOM     19  N   UNL A   1      33.792  30.352  27.042  1.00  0.00    -0.198 NA
ATOM     20  C   UNL A   1      34.583  29.154  27.440  1.00  0.00     0.105 C 
ATOM     21  C   UNL A   1      34.012  31.617  27.789  1.00  0.00     0.105 C 
ATOM     22  C   UNL A   1      36.039  29.482  27.735  1.00  0.00     0.048 C 
ATOM     23  C   UNL A   1      35.491  31.885  28.020  1.00  0.00     0.048 C 
ATOM     24  C   UNL A   1      36.170  30.684  28.657  1.00  0.00     0.117 C 
BRANCH  24  25
ATOM     25  O   UNL A   1      35.582  30.367  29.919  1.00  0.00    -0.393 OA
ATOM     26  H   UNL A   1      35.061  29.552  29.838  1.00  0.00     0.210 HD
ENDBRANCH  24  25
ENDBRANCH  16  19
ENDBRANCH  15  16
ENDBRANCH   9  10
ENDBRANCH   8   9
ENDBRANCH   6   8
ENDBRANCH   5   6
ENDBRANCH   4   5
ENDBRANCH   3   4
ENDBRANCH   2   3
ENDBRANCH   1   2
BRANCH   1  27
ATOM     27  C   UNL A   1      34.720  21.302  25.625  1.00  0.00     0.188 C 
BRANCH  27  28
ATOM     28  O   UNL A   1      36.070  20.982  25.946  1.00  0.00    -0.376 OA
BRANCH  28  29
ATOM     29  C   UNL A   1      37.084  21.150  24.970  1.00  0.00     0.202 C 
BRANCH  29  30
ATOM     30  C   UNL A   1      38.449  20.498  25.233  1.00  0.00     0.261 C 
BRANCH  30  31
ATOM     31  O   UNL A   1      39.044  20.757  26.521  1.00  0.00    -0.460 OA
BRANCH  31  32
ATOM     32  C   UNL A   1      40.374  21.039  26.523  1.00  0.00     0.338 C 
ATOM     33  O   UNL A   1      41.257  20.363  26.024  1.00  0.00    -0.246 OA
BRANCH  32  34
ATOM     34  C   UNL A   1      40.620  22.394  27.086  1.00  0.00     0.060 A 
ATOM     35  C   UNL A   1      39.985  23.500  26.497  1.00  0.00     0.016 A 
ATOM     36  C   UNL A   1      41.511  22.590  28.142  1.00  0.00     0.016 A 
ATOM     37  C   UNL A   1      40.268  24.802  26.933  1.00  0.00     0.010 A 
ATOM     38  C   UNL A   1      41.812  23.895  28.560  1.00  0.00     0.010 A 
ATOM     39  C   UNL A   1      41.219  25.011  27.938  1.00  0.00    -0.014 A 
BRANCH  39  40
ATOM     40  C   UNL A   1      41.770  26.371  28.209  1.00  0.00     0.031 A 
ATOM     41  C   UNL A   1      43.174  26.671  27.754  1.00  0.00     0.074 A 
ATOM     42  C   UNL A   1      41.080  27.307  28.886  1.00  0.00     0.049 A 
ATOM     43  N   UNL A   1      43.947  27.687  28.039  1.00  0.00    -0.248 NA
ATOM     44  C   UNL A   1      43.789  25.670  26.872  1.00  0.00     0.031 C 
ATOM     45  C   UNL A   1      39.696  27.177  29.333  1.00  0.00     0.029 A 
ATOM     46  N   UNL A   1      41.471  28.543  29.349  1.00  0.00    -0.354 N 
ATOM     47  C   UNL A   1      45.154  27.435  27.393  1.00  0.00     0.074 A 
ATOM     48  C   UNL A   1      45.010  26.158  26.725  1.00  0.00     0.031 C 
ATOM     49  C   UNL A   1      39.366  28.272  30.044  1.00  0.00     0.029 A 
ATOM     50  C   UNL A   1      40.530  29.153  30.148  1.00  0.00     0.049 A 
ATOM     51  H   UNL A   1      42.339  28.952  29.128  1.00  0.00     0.167 HD
ATOM     52  C   UNL A   1      46.279  28.194  27.365  1.00  0.00     0.034 A 
ATOM     53  C   UNL A   1      40.614  30.259  30.919  1.00  0.00     0.034 A 
ATOM     54  C   UNL A   1      46.414  29.457  28.050  1.00  0.00     0.049 A 
ATOM     55  C   UNL A   1      41.904  31.049  30.957  1.00  0.00     0.074 A 
ATOM     56  C   UNL A   1      47.497  30.319  28.062  1.00  0.00     0.029 A 
ATOM     57  N   UNL A   1      45.445  30.029  28.864  1.00  0.00    -0.354 N 
ATOM     58  N   UNL A   1      43.038  30.808  30.341  1.00  0.00    -0.248 NA
ATOM     59  C   UNL A   1      41.924  32.260  31.791  1.00  0.00     0.031 C 
ATOM     60  C   UNL A   1      47.219  31.362  28.951  1.00  0.00     0.029 A 
ATOM     61  C   UNL A   1      45.923  31.207  29.419  1.00  0.00     0.049 A 
ATOM     62  H   UNL A   1      44.549  29.654  29.023  1.00  0.00     0.167 HD
ATOM     63  C   UNL A   1      43.894  31.852  30.690  1.00  0.00     0.074 A 
ATOM     64  C   UNL A   1      43.146  32.725  31.569  1.00  0.00     0.031 C 
ATOM     65  C   UNL A   1      45.177  32.073  30.303  1.00  0.00     0.034 A 
BRANCH  52  66
ATOM     66  C   UNL A   1      47.474  27.629  26.631  1.00  0.00     0.023 A 
ATOM     67  C   UNL A   1      47.706  27.895  25.270  1.00  0.00     0.031 A 
ATOM     68  C   UNL A   1      48.362  26.758  27.289  1.00  0.00     0.131 A 
ATOM     69  C   UNL A   1      48.732  27.221  24.590  1.00  0.00     0.055 A 
ATOM     70  C   UNL A   1      49.440  26.166  26.629  1.00  0.00     0.041 A 
ATOM     71  F   UNL A   1      48.181  26.447  28.583  1.00  0.00    -0.206 F 
ATOM     72  C   UNL A   1      49.617  26.379  25.267  1.00  0.00     0.022 A 
BRANCH  69  73
ATOM     73  S   UNL A   1      48.771  27.311  22.778  1.00  0.00     0.124 S 
ATOM     74  O   UNL A   1      50.161  27.688  22.532  1.00  0.00    -0.237 OA
ATOM     75  O   UNL A   1      48.397  25.956  22.389  1.00  0.00    -0.237 OA
ATOM     76  O   UNL A   1      47.788  28.346  22.465  1.00  0.00    -0.744 OA
ENDBRANCH  69  73
ENDBRANCH  52  66
BRANCH  53  77
ATOM     77  C   UNL A   1      39.463  30.648  31.786  1.00  0.00     0.023 A 
ATOM     78  C   UNL A   1      38.541  31.631  31.393  1.00  0.00     0.031 A 
ATOM     79  C   UNL A   1      39.288  30.052  33.050  1.00  0.00     0.131 A 
ATOM     80  C   UNL A   1      37.504  32.006  32.262  1.00  0.00     0.055 A 
ATOM     81  C   UNL A   1      38.226  30.390  33.889  1.00  0.00     0.041 A 
ATOM     82  F   UNL A   1      40.144  29.110  33.480  1.00  0.00    -0.206 F 
ATOM     83  C   UNL A   1      37.329  31.379  33.500  1.00  0.00     0.022 A 
BRANCH  80  84
ATOM     84  S   UNL A   1      36.410  33.370  31.780  1.00  0.00     0.124 S 
ATOM     85  O   UNL A   1      35.118  32.697  31.695  1.00  0.00    -0.237 OA
ATOM     86  O   UNL A   1      36.577  34.299  32.893  1.00  0.00    -0.237 OA
ATOM     87  O   UNL A   1      36.966  33.818  30.506  1.00  0.00    -0.744 OA
ENDBRANCH  80  84
ENDBRANCH  53  77
BRANCH  65  88
ATOM     88  C   UNL A   1      45.848  33.346  30.772  1.00  0.00     0.023 A 
ATOM     89  C   UNL A   1      45.722  34.563  30.078  1.00  0.00     0.031 A 
ATOM     90  C   UNL A   1      46.595  33.342  31.965  1.00  0.00     0.131 A 
ATOM     91  C   UNL A   1      46.358  35.716  30.568  1.00  0.00     0.055 A 
ATOM     92  C   UNL A   1      47.179  34.502  32.475  1.00  0.00     0.041 A 
ATOM     93  F   UNL A   1      46.754  32.208  32.666  1.00  0.00    -0.206 F 
ATOM     94  C   UNL A   1      47.067  35.697  31.773  1.00  0.00     0.022 A 
BRANCH  91  95
ATOM     95  S   UNL A   1      46.299  37.239  29.583  1.00  0.00     0.124 S 
ATOM     96  O   UNL A   1      47.363  38.033  30.190  1.00  0.00    -0.237 OA
ATOM     97  O   UNL A   1      46.560  36.750  28.233  1.00  0.00    -0.237 OA
ATOM     98  O   UNL A   1      44.946  37.742  29.808  1.00  0.00    -0.744 OA
ENDBRANCH  91  95
ENDBRANCH  65  88
ENDBRANCH  39  40
ENDBRANCH  32  34
ENDBRANCH  31  32
ENDBRANCH  30  31
ENDBRANCH  29  30
ENDBRANCH  28  29
ENDBRANCH  27  28
ENDBRANCH   1  27
TORSDOF 25
ENDMDL
