MODEL 1
REMARK VINA RESULT:      -9.0      0.000      0.000
REMARK SMILES CC(C)CCOc1ccccc1-c1cc(C(=O)OCCOCCOCCOC(=O)c2ccc(-c3c4nc(c(-c5cc(S(=O)(=O)[O-])ccc5F)c5ccc([nH]5)c(-c5cc(S(=O)(=O)[O-])ccc5F)c5nc(c(-c6cc(S(=O)(=O)[O-])ccc6F)c6ccc3[nH]6)C=C5)C=C4)cc2)no1
REMARK SMILES IDX 22 1 21 2 20 3 19 4 18 5 16 6 17 7 15 8 13 9 14 10 94 11
REMARK SMILES IDX 93 12 12 13 7 14 8 15 9 16 11 17 10 18 6 19 5 20 4 21 2 22
REMARK SMILES IDX 1 23 3 24 23 25 24 26 25 27 26 28 27 29 28 30 29 31 30 32
REMARK SMILES IDX 31 33 92 34 32 35 91 36 33 37 34 38 35 39 85 40 36 41 90 42
REMARK SMILES IDX 84 43 86 44 37 45 89 46 83 47 82 48 38 50 70 51 50 52 69 53
REMARK SMILES IDX 51 54 54 55 68 56 87 57 52 58 53 59 67 61 88 62 55 63 39 64
REMARK SMILES IDX 40 65 48 66 41 67 47 68 49 69 46 70 42 71 43 72 44 73 45 74
REMARK SMILES IDX 71 75 72 76 80 77 73 78 79 79 81 80 78 81 74 82 75 83 76 84
REMARK SMILES IDX 77 85 56 86 57 87 65 88 58 89 64 90 66 91 63 92 59 93 60 94
REMARK SMILES IDX 61 95 62 96
REMARK H PARENT 86 49 54 60
REMARK Flexibility Score: inf
ROOT
ATOM      1  C   UNL A   1      42.983  20.102  25.915  1.00  0.00     0.188 C 
ENDROOT
BRANCH   1   2
ATOM      2  O   UNL A   1      41.793  20.689  25.414  1.00  0.00    -0.376 OA
BRANCH   2   3
ATOM      3  C   UNL A   1      41.151  21.721  26.144  1.00  0.00     0.202 C 
BRANCH   3   4
ATOM      4  C   UNL A   1      39.637  21.661  26.447  1.00  0.00     0.261 C 
BRANCH   4   5
ATOM      5  O   UNL A   1      38.749  22.294  25.507  1.00  0.00    -0.458 OA
BRANCH   5   6
ATOM      6  C   UNL A   1      37.730  21.540  24.986  1.00  0.00     0.360 C 
ATOM      7  O   UNL A   1      37.683  20.319  25.039  1.00  0.00    -0.244 OA
BRANCH   6   8
ATOM      8  C   UNL A   1      36.676  22.391  24.402  1.00  0.00     0.192 A 
ATOM      9  C   UNL A   1      34.315  24.083  24.455  1.00  0.00     0.171 A 
ATOM     10  C   UNL A   1      35.259  23.074  25.381  1.00  0.00     0.090 A 
ATOM     11  O   UNL A   1      35.066  24.113  22.724  1.00  0.00    -0.355 OA
ATOM     12  N   UNL A   1      36.669  22.925  22.800  1.00  0.00    -0.072 NA
BRANCH   9  13
ATOM     13  C   UNL A   1      33.593  25.287  24.841  1.00  0.00     0.062 A 
ATOM     14  C   UNL A   1      32.297  25.480  24.300  1.00  0.00     0.130 A 
ATOM     15  C   UNL A   1      31.483  26.487  24.799  1.00  0.00     0.047 A 
ATOM     16  C   UNL A   1      31.955  27.299  25.832  1.00  0.00     0.004 A 
ATOM     17  C   UNL A   1      34.065  26.108  25.862  1.00  0.00     0.016 A 
ATOM     18  C   UNL A   1      33.242  27.123  26.349  1.00  0.00     0.001 A 
BRANCH  14  19
ATOM     19  O   UNL A   1      31.830  24.732  23.237  1.00  0.00    -0.493 OA
BRANCH  19  20
ATOM     20  C   UNL A   1      30.877  23.702  23.580  1.00  0.00     0.230 C 
BRANCH  20  21
ATOM     21  C   UNL A   1      31.543  22.309  23.711  1.00  0.00     0.044 C 
BRANCH  21  22
ATOM     22  C   UNL A   1      31.694  21.890  25.348  1.00  0.00    -0.014 C 
ATOM     23  C   UNL A   1      32.515  20.328  25.177  1.00  0.00     0.007 C 
ATOM     24  C   UNL A   1      31.866  23.103  27.240  1.00  0.00     0.007 C 
ENDBRANCH  21  22
ENDBRANCH  20  21
ENDBRANCH  19  20
ENDBRANCH  14  19
ENDBRANCH   9  13
ENDBRANCH   6   8
ENDBRANCH   5   6
ENDBRANCH   4   5
ENDBRANCH   3   4
ENDBRANCH   2   3
ENDBRANCH   1   2
BRANCH   1  25
ATOM     25  C   UNL A   1      44.343  20.471  25.287  1.00  0.00     0.188 C 
BRANCH  25  26
ATOM     26  O   UNL A   1      44.286  21.287  24.146  1.00  0.00    -0.376 OA
BRANCH  26  27
ATOM     27  C   UNL A   1      44.799  22.597  24.243  1.00  0.00     0.202 C 
BRANCH  27  28
ATOM     28  C   UNL A   1      44.555  23.507  25.468  1.00  0.00     0.261 C 
BRANCH  28  29
ATOM     29  O   UNL A   1      44.359  24.919  25.267  1.00  0.00    -0.460 OA
BRANCH  29  30
ATOM     30  C   UNL A   1      43.141  25.421  25.602  1.00  0.00     0.338 C 
ATOM     31  O   UNL A   1      42.103  25.241  24.989  1.00  0.00    -0.246 OA
BRANCH  30  32
ATOM     32  C   UNL A   1      43.199  26.036  26.954  1.00  0.00     0.060 A 
ATOM     33  C   UNL A   1      42.238  25.677  27.914  1.00  0.00     0.016 A 
ATOM     34  C   UNL A   1      44.151  27.007  27.259  1.00  0.00     0.016 A 
ATOM     35  C   UNL A   1      42.191  26.323  29.154  1.00  0.00     0.010 A 
ATOM     36  C   UNL A   1      44.086  27.674  28.492  1.00  0.00     0.010 A 
ATOM     37  C   UNL A   1      43.075  27.374  29.427  1.00  0.00    -0.014 A 
BRANCH  37  38
ATOM     38  C   UNL A   1      42.805  28.296  30.569  1.00  0.00     0.031 A 
ATOM     39  C   UNL A   1      43.572  28.087  31.853  1.00  0.00     0.074 A 
ATOM     40  C   UNL A   1      41.935  29.318  30.475  1.00  0.00     0.049 A 
ATOM     41  N   UNL A   1      43.464  28.704  33.002  1.00  0.00    -0.248 NA
ATOM     42  C   UNL A   1      44.595  27.029  31.837  1.00  0.00     0.031 C 
ATOM     43  C   UNL A   1      41.179  29.675  29.277  1.00  0.00     0.029 A 
ATOM     44  N   UNL A   1      41.535  30.245  31.411  1.00  0.00    -0.354 N 
ATOM     45  C   UNL A   1      44.389  28.098  33.848  1.00  0.00     0.074 A 
ATOM     46  C   UNL A   1      45.015  27.037  33.091  1.00  0.00     0.031 C 
ATOM     47  C   UNL A   1      40.405  30.741  29.551  1.00  0.00     0.029 A 
ATOM     48  C   UNL A   1      40.568  31.112  30.956  1.00  0.00     0.049 A 
ATOM     49  H   UNL A   1      41.906  30.283  32.322  1.00  0.00     0.167 HD
ATOM     50  C   UNL A   1      44.694  28.405  35.133  1.00  0.00     0.034 A 
ATOM     51  C   UNL A   1      39.873  32.074  31.602  1.00  0.00     0.034 A 
ATOM     52  C   UNL A   1      44.056  29.461  35.879  1.00  0.00     0.049 A 
ATOM     53  C   UNL A   1      40.153  32.326  33.067  1.00  0.00     0.074 A 
ATOM     54  C   UNL A   1      44.299  29.860  37.183  1.00  0.00     0.029 A 
ATOM     55  N   UNL A   1      43.038  30.276  35.400  1.00  0.00    -0.354 N 
ATOM     56  N   UNL A   1      41.021  31.737  33.859  1.00  0.00    -0.248 NA
ATOM     57  C   UNL A   1      39.366  33.380  33.722  1.00  0.00     0.031 C 
ATOM     58  C   UNL A   1      43.360  30.837  37.525  1.00  0.00     0.029 A 
ATOM     59  C   UNL A   1      42.614  31.141  36.397  1.00  0.00     0.049 A 
ATOM     60  H   UNL A   1      42.671  30.242  34.488  1.00  0.00     0.167 HD
ATOM     61  C   UNL A   1      40.917  32.386  35.089  1.00  0.00     0.074 A 
ATOM     62  C   UNL A   1      39.907  33.412  34.930  1.00  0.00     0.031 C 
ATOM     63  C   UNL A   1      41.604  32.162  36.239  1.00  0.00     0.034 A 
BRANCH  50  64
ATOM     64  C   UNL A   1      45.722  27.545  35.833  1.00  0.00     0.023 A 
ATOM     65  C   UNL A   1      45.358  26.441  36.624  1.00  0.00     0.031 A 
ATOM     66  C   UNL A   1      47.091  27.849  35.723  1.00  0.00     0.131 A 
ATOM     67  C   UNL A   1      46.341  25.732  37.332  1.00  0.00     0.055 A 
ATOM     68  C   UNL A   1      48.072  27.080  36.351  1.00  0.00     0.041 A 
ATOM     69  F   UNL A   1      47.502  28.908  35.008  1.00  0.00    -0.206 F 
ATOM     70  C   UNL A   1      47.698  26.023  37.175  1.00  0.00     0.022 A 
BRANCH  67  71
ATOM     71  S   UNL A   1      45.810  24.542  38.593  1.00  0.00     0.124 S 
ATOM     72  O   UNL A   1      45.199  25.421  39.588  1.00  0.00    -0.237 OA
ATOM     73  O   UNL A   1      44.895  23.682  37.852  1.00  0.00    -0.237 OA
ATOM     74  O   UNL A   1      47.059  23.910  39.015  1.00  0.00    -0.744 OA
ENDBRANCH  67  71
ENDBRANCH  50  64
BRANCH  51  75
ATOM     75  C   UNL A   1      38.806  32.848  30.896  1.00  0.00     0.023 A 
ATOM     76  C   UNL A   1      37.445  32.538  31.057  1.00  0.00     0.031 A 
ATOM     77  C   UNL A   1      39.141  33.867  29.985  1.00  0.00     0.131 A 
ATOM     78  C   UNL A   1      36.478  33.197  30.281  1.00  0.00     0.055 A 
ATOM     79  C   UNL A   1      38.169  34.572  29.272  1.00  0.00     0.041 A 
ATOM     80  F   UNL A   1      40.425  34.193  29.771  1.00  0.00    -0.206 F 
ATOM     81  C   UNL A   1      36.828  34.228  29.407  1.00  0.00     0.022 A 
BRANCH  78  82
ATOM     82  S   UNL A   1      34.765  32.598  30.329  1.00  0.00     0.124 S 
ATOM     83  O   UNL A   1      34.038  33.743  29.795  1.00  0.00    -0.237 OA
ATOM     84  O   UNL A   1      34.830  31.420  29.469  1.00  0.00    -0.237 OA
ATOM     85  O   UNL A   1      34.540  32.322  31.746  1.00  0.00    -0.744 OA
ENDBRANCH  78  82
ENDBRANCH  51  75
BRANCH  63  86
ATOM     86  C   UNL A   1      41.349  33.099  37.401  1.00  0.00     0.023 A 
ATOM     87  C   UNL A   1      40.370  32.842  38.375  1.00  0.00     0.031 A 
ATOM     88  C   UNL A   1      42.096  34.287  37.518  1.00  0.00     0.131 A 
ATOM     89  C   UNL A   1      40.110  33.794  39.373  1.00  0.00     0.055 A 
ATOM     90  C   UNL A   1      41.894  35.187  38.566  1.00  0.00     0.041 A 
ATOM     91  F   UNL A   1      43.038  34.596  36.614  1.00  0.00    -0.206 F 
ATOM     92  C   UNL A   1      40.882  34.952  39.490  1.00  0.00     0.022 A 
BRANCH  89  93
ATOM     93  S   UNL A   1      38.647  33.575  40.423  1.00  0.00     0.124 S 
ATOM     94  O   UNL A   1      38.300  34.955  40.747  1.00  0.00    -0.237 OA
ATOM     95  O   UNL A   1      37.724  32.877  39.534  1.00  0.00    -0.237 OA
ATOM     96  O   UNL A   1      39.146  32.782  41.545  1.00  0.00    -0.744 OA
ENDBRANCH  89  93
ENDBRANCH  63  86
ENDBRANCH  37  38
ENDBRANCH  30  32
ENDBRANCH  29  30
ENDBRANCH  28  29
ENDBRANCH  27  28
ENDBRANCH  26  27
ENDBRANCH  25  26
ENDBRANCH   1  25
TORSDOF 25
ENDMDL
MODEL 2
REMARK VINA RESULT:      -8.4      2.734      8.198
REMARK SMILES CC(C)CCOc1ccccc1-c1cc(C(=O)OCCOCCOCCOC(=O)c2ccc(-c3c4nc(c(-c5cc(S(=O)(=O)[O-])ccc5F)c5ccc([nH]5)c(-c5cc(S(=O)(=O)[O-])ccc5F)c5nc(c(-c6cc(S(=O)(=O)[O-])ccc6F)c6ccc3[nH]6)C=C5)C=C4)cc2)no1
REMARK SMILES IDX 22 1 21 2 20 3 19 4 18 5 16 6 17 7 15 8 13 9 14 10 94 11
REMARK SMILES IDX 93 12 12 13 7 14 8 15 9 16 11 17 10 18 6 19 5 20 4 21 2 22
REMARK SMILES IDX 1 23 3 24 23 25 24 26 25 27 26 28 27 29 28 30 29 31 30 32
REMARK SMILES IDX 31 33 92 34 32 35 91 36 33 37 34 38 35 39 85 40 36 41 90 42
REMARK SMILES IDX 84 43 86 44 37 45 89 46 83 47 82 48 38 50 70 51 50 52 69 53
REMARK SMILES IDX 51 54 54 55 68 56 87 57 52 58 53 59 67 61 88 62 55 63 39 64
REMARK SMILES IDX 40 65 48 66 41 67 47 68 49 69 46 70 42 71 43 72 44 73 45 74
REMARK SMILES IDX 71 75 72 76 80 77 73 78 79 79 81 80 78 81 74 82 75 83 76 84
REMARK SMILES IDX 77 85 56 86 57 87 65 88 58 89 64 90 66 91 63 92 59 93 60 94
REMARK SMILES IDX 61 95 62 96
REMARK H PARENT 86 49 54 60
REMARK Flexibility Score: inf
ROOT
ATOM      1  C   UNL A   1      30.946  31.014  25.346  1.00  0.00     0.188 C 
ENDROOT
BRANCH   1   2
ATOM      2  O   UNL A   1      30.706  30.134  24.259  1.00  0.00    -0.376 OA
BRANCH   2   3
ATOM      3  C   UNL A   1      29.477  30.195  23.556  1.00  0.00     0.202 C 
BRANCH   3   4
ATOM      4  C   UNL A   1      29.106  29.126  22.503  1.00  0.00     0.261 C 
BRANCH   4   5
ATOM      5  O   UNL A   1      30.021  28.028  22.326  1.00  0.00    -0.458 OA
BRANCH   5   6
ATOM      6  C   UNL A   1      29.835  26.913  23.101  1.00  0.00     0.360 C 
ATOM      7  O   UNL A   1      28.838  26.704  23.776  1.00  0.00    -0.244 OA
BRANCH   6   8
ATOM      8  C   UNL A   1      30.967  25.976  22.973  1.00  0.00     0.192 A 
ATOM      9  C   UNL A   1      32.413  23.499  23.438  1.00  0.00     0.171 A 
ATOM     10  C   UNL A   1      31.068  24.369  23.889  1.00  0.00     0.090 A 
ATOM     11  O   UNL A   1      33.338  24.531  22.158  1.00  0.00    -0.355 OA
ATOM     12  N   UNL A   1      32.267  26.199  21.918  1.00  0.00    -0.072 NA
BRANCH   9  13
ATOM     13  C   UNL A   1      32.585  22.059  23.318  1.00  0.00     0.062 A 
ATOM     14  C   UNL A   1      33.095  21.361  24.441  1.00  0.00     0.130 A 
ATOM     15  C   UNL A   1      33.074  19.973  24.461  1.00  0.00     0.047 A 
ATOM     16  C   UNL A   1      32.546  19.281  23.370  1.00  0.00     0.004 A 
ATOM     17  C   UNL A   1      32.072  21.364  22.225  1.00  0.00     0.016 A 
ATOM     18  C   UNL A   1      32.063  19.971  22.252  1.00  0.00     0.001 A 
BRANCH  14  19
ATOM     19  O   UNL A   1      33.680  22.018  25.506  1.00  0.00    -0.493 OA
BRANCH  19  20
ATOM     20  C   UNL A   1      34.814  21.346  26.097  1.00  0.00     0.230 C 
BRANCH  20  21
ATOM     21  C   UNL A   1      36.154  21.795  25.463  1.00  0.00     0.044 C 
BRANCH  21  22
ATOM     22  C   UNL A   1      35.990  23.346  24.796  1.00  0.00    -0.014 C 
ATOM     23  C   UNL A   1      36.372  22.980  23.104  1.00  0.00     0.007 C 
ATOM     24  C   UNL A   1      34.743  25.140  25.354  1.00  0.00     0.007 C 
ENDBRANCH  21  22
ENDBRANCH  20  21
ENDBRANCH  19  20
ENDBRANCH  14  19
ENDBRANCH   9  13
ENDBRANCH   6   8
ENDBRANCH   5   6
ENDBRANCH   4   5
ENDBRANCH   3   4
ENDBRANCH   2   3
ENDBRANCH   1   2
BRANCH   1  25
ATOM     25  C   UNL A   1      31.604  30.479  26.635  1.00  0.00     0.188 C 
BRANCH  25  26
ATOM     26  O   UNL A   1      31.860  29.099  26.660  1.00  0.00    -0.376 OA
BRANCH  26  27
ATOM     27  C   UNL A   1      33.064  28.639  26.087  1.00  0.00     0.202 C 
BRANCH  27  28
ATOM     28  C   UNL A   1      34.447  28.867  26.739  1.00  0.00     0.261 C 
BRANCH  28  29
ATOM     29  O   UNL A   1      34.529  29.611  27.968  1.00  0.00    -0.460 OA
BRANCH  29  30
ATOM     30  C   UNL A   1      35.355  30.692  27.974  1.00  0.00     0.338 C 
ATOM     31  O   UNL A   1      35.038  31.833  27.687  1.00  0.00    -0.246 OA
BRANCH  30  32
ATOM     32  C   UNL A   1      36.655  30.334  28.601  1.00  0.00     0.060 A 
ATOM     33  C   UNL A   1      36.743  29.171  29.384  1.00  0.00     0.016 A 
ATOM     34  C   UNL A   1      37.765  31.168  28.475  1.00  0.00     0.016 A 
ATOM     35  C   UNL A   1      37.915  28.870  30.085  1.00  0.00     0.010 A 
ATOM     36  C   UNL A   1      38.931  30.879  29.200  1.00  0.00     0.010 A 
ATOM     37  C   UNL A   1      38.997  29.757  30.050  1.00  0.00    -0.014 A 
BRANCH  37  38
ATOM     38  C   UNL A   1      40.090  29.639  31.059  1.00  0.00     0.031 A 
ATOM     39  C   UNL A   1      41.223  28.681  30.777  1.00  0.00     0.074 A 
ATOM     40  C   UNL A   1      40.112  30.380  32.183  1.00  0.00     0.049 A 
ATOM     41  N   UNL A   1      42.243  28.349  31.526  1.00  0.00    -0.248 NA
ATOM     42  C   UNL A   1      41.192  28.000  29.473  1.00  0.00     0.031 C 
ATOM     43  C   UNL A   1      39.120  31.390  32.547  1.00  0.00     0.029 A 
ATOM     44  N   UNL A   1      41.003  30.394  33.231  1.00  0.00    -0.354 N 
ATOM     45  C   UNL A   1      42.963  27.409  30.794  1.00  0.00     0.074 A 
ATOM     46  C   UNL A   1      42.236  27.193  29.562  1.00  0.00     0.031 C 
ATOM     47  C   UNL A   1      39.456  31.921  33.736  1.00  0.00     0.029 A 
ATOM     48  C   UNL A   1      40.656  31.258  34.244  1.00  0.00     0.049 A 
ATOM     49  H   UNL A   1      41.815  29.837  33.254  1.00  0.00     0.167 HD
ATOM     50  C   UNL A   1      44.126  26.790  31.114  1.00  0.00     0.034 A 
ATOM     51  C   UNL A   1      41.219  31.469  35.454  1.00  0.00     0.034 A 
ATOM     52  C   UNL A   1      44.836  27.007  32.351  1.00  0.00     0.049 A 
ATOM     53  C   UNL A   1      42.457  30.687  35.836  1.00  0.00     0.074 A 
ATOM     54  C   UNL A   1      46.028  26.438  32.768  1.00  0.00     0.029 A 
ATOM     55  N   UNL A   1      44.417  27.844  33.377  1.00  0.00    -0.354 N 
ATOM     56  N   UNL A   1      43.120  29.792  35.139  1.00  0.00    -0.248 NA
ATOM     57  C   UNL A   1      43.027  30.952  37.164  1.00  0.00     0.031 C 
ATOM     58  C   UNL A   1      46.271  26.846  34.083  1.00  0.00     0.029 A 
ATOM     59  C   UNL A   1      45.303  27.770  34.441  1.00  0.00     0.049 A 
ATOM     60  H   UNL A   1      43.610  28.406  33.352  1.00  0.00     0.167 HD
ATOM     61  C   UNL A   1      44.212  29.427  35.927  1.00  0.00     0.074 A 
ATOM     62  C   UNL A   1      44.119  30.204  37.146  1.00  0.00     0.031 C 
ATOM     63  C   UNL A   1      45.207  28.542  35.659  1.00  0.00     0.034 A 
BRANCH  50  64
ATOM     64  C   UNL A   1      44.669  25.771  30.138  1.00  0.00     0.023 A 
ATOM     65  C   UNL A   1      45.415  26.145  29.006  1.00  0.00     0.031 A 
ATOM     66  C   UNL A   1      44.418  24.401  30.334  1.00  0.00     0.131 A 
ATOM     67  C   UNL A   1      45.814  25.171  28.078  1.00  0.00     0.055 A 
ATOM     68  C   UNL A   1      44.902  23.428  29.458  1.00  0.00     0.041 A 
ATOM     69  F   UNL A   1      43.686  23.982  31.379  1.00  0.00    -0.206 F 
ATOM     70  C   UNL A   1      45.591  23.812  28.313  1.00  0.00     0.022 A 
BRANCH  67  71
ATOM     71  S   UNL A   1      46.471  25.717  26.478  1.00  0.00     0.124 S 
ATOM     72  O   UNL A   1      46.803  27.113  26.757  1.00  0.00    -0.237 OA
ATOM     73  O   UNL A   1      47.602  24.819  26.276  1.00  0.00    -0.237 OA
ATOM     74  O   UNL A   1      45.348  25.524  25.562  1.00  0.00    -0.744 OA
ENDBRANCH  67  71
ENDBRANCH  50  64
BRANCH  51  75
ATOM     75  C   UNL A   1      40.605  32.426  36.424  1.00  0.00     0.023 A 
ATOM     76  C   UNL A   1      39.508  32.059  37.222  1.00  0.00     0.031 A 
ATOM     77  C   UNL A   1      41.063  33.753  36.514  1.00  0.00     0.131 A 
ATOM     78  C   UNL A   1      38.873  33.019  38.027  1.00  0.00     0.055 A 
ATOM     79  C   UNL A   1      40.476  34.684  37.373  1.00  0.00     0.041 A 
ATOM     80  F   UNL A   1      42.094  34.169  35.760  1.00  0.00    -0.206 F 
ATOM     81  C   UNL A   1      39.364  34.323  38.126  1.00  0.00     0.022 A 
BRANCH  78  82
ATOM     82  S   UNL A   1      37.312  32.579  38.843  1.00  0.00     0.124 S 
ATOM     83  O   UNL A   1      37.465  31.139  39.014  1.00  0.00    -0.237 OA
ATOM     84  O   UNL A   1      37.368  33.381  40.061  1.00  0.00    -0.237 OA
ATOM     85  O   UNL A   1      36.295  32.987  37.876  1.00  0.00    -0.744 OA
ENDBRANCH  78  82
ENDBRANCH  51  75
BRANCH  63  86
ATOM     86  C   UNL A   1      46.328  28.423  36.669  1.00  0.00     0.023 A 
ATOM     87  C   UNL A   1      46.291  27.505  37.732  1.00  0.00     0.031 A 
ATOM     88  C   UNL A   1      47.452  29.266  36.569  1.00  0.00     0.131 A 
ATOM     89  C   UNL A   1      47.312  27.508  38.694  1.00  0.00     0.055 A 
ATOM     90  C   UNL A   1      48.509  29.200  37.478  1.00  0.00     0.041 A 
ATOM     91  F   UNL A   1      47.544  30.171  35.583  1.00  0.00    -0.206 F 
ATOM     92  C   UNL A   1      48.433  28.331  38.560  1.00  0.00     0.022 A 
BRANCH  89  93
ATOM     93  S   UNL A   1      47.084  26.533  40.207  1.00  0.00     0.124 S 
ATOM     94  O   UNL A   1      48.120  25.515  40.068  1.00  0.00    -0.237 OA
ATOM     95  O   UNL A   1      47.301  27.525  41.255  1.00  0.00    -0.237 OA
ATOM     96  O   UNL A   1      45.712  26.041  40.094  1.00  0.00    -0.744 OA
ENDBRANCH  89  93
ENDBRANCH  63  86
ENDBRANCH  37  38
ENDBRANCH  30  32
ENDBRANCH  29  30
ENDBRANCH  28  29
ENDBRANCH  27  28
ENDBRANCH  26  27
ENDBRANCH  25  26
ENDBRANCH   1  25
TORSDOF 25
ENDMDL
MODEL 3
REMARK VINA RESULT:      -7.8      2.827      8.157
REMARK SMILES CC(C)CCOc1ccccc1-c1cc(C(=O)OCCOCCOCCOC(=O)c2ccc(-c3c4nc(c(-c5cc(S(=O)(=O)[O-])ccc5F)c5ccc([nH]5)c(-c5cc(S(=O)(=O)[O-])ccc5F)c5nc(c(-c6cc(S(=O)(=O)[O-])ccc6F)c6ccc3[nH]6)C=C5)C=C4)cc2)no1
REMARK SMILES IDX 22 1 21 2 20 3 19 4 18 5 16 6 17 7 15 8 13 9 14 10 94 11
REMARK SMILES IDX 93 12 12 13 7 14 8 15 9 16 11 17 10 18 6 19 5 20 4 21 2 22
REMARK SMILES IDX 1 23 3 24 23 25 24 26 25 27 26 28 27 29 28 30 29 31 30 32
REMARK SMILES IDX 31 33 92 34 32 35 91 36 33 37 34 38 35 39 85 40 36 41 90 42
REMARK SMILES IDX 84 43 86 44 37 45 89 46 83 47 82 48 38 50 70 51 50 52 69 53
REMARK SMILES IDX 51 54 54 55 68 56 87 57 52 58 53 59 67 61 88 62 55 63 39 64
REMARK SMILES IDX 40 65 48 66 41 67 47 68 49 69 46 70 42 71 43 72 44 73 45 74
REMARK SMILES IDX 71 75 72 76 80 77 73 78 79 79 81 80 78 81 74 82 75 83 76 84
REMARK SMILES IDX 77 85 56 86 57 87 65 88 58 89 64 90 66 91 63 92 59 93 60 94
REMARK SMILES IDX 61 95 62 96
REMARK H PARENT 86 49 54 60
REMARK Flexibility Score: inf
ROOT
ATOM      1  C   UNL A   1      30.888  30.971  25.374  1.00  0.00     0.188 C 
ENDROOT
BRANCH   1   2
ATOM      2  O   UNL A   1      30.716  30.282  24.146  1.00  0.00    -0.376 OA
BRANCH   2   3
ATOM      3  C   UNL A   1      29.445  30.260  23.518  1.00  0.00     0.202 C 
BRANCH   3   4
ATOM      4  C   UNL A   1      29.167  29.333  22.313  1.00  0.00     0.261 C 
BRANCH   4   5
ATOM      5  O   UNL A   1      30.114  28.280  22.057  1.00  0.00    -0.458 OA
BRANCH   5   6
ATOM      6  C   UNL A   1      30.104  27.197  22.897  1.00  0.00     0.360 C 
ATOM      7  O   UNL A   1      29.172  26.906  23.632  1.00  0.00    -0.244 OA
BRANCH   6   8
ATOM      8  C   UNL A   1      31.339  26.401  22.761  1.00  0.00     0.192 A 
ATOM      9  C   UNL A   1      33.345  24.472  23.595  1.00  0.00     0.171 A 
ATOM     10  C   UNL A   1      32.007  25.317  24.107  1.00  0.00     0.090 A 
ATOM     11  O   UNL A   1      33.677  24.985  21.810  1.00  0.00    -0.355 OA
ATOM     12  N   UNL A   1      32.252  26.303  21.343  1.00  0.00    -0.072 NA
BRANCH   9  13
ATOM     13  C   UNL A   1      33.782  23.129  23.949  1.00  0.00     0.062 A 
ATOM     14  C   UNL A   1      34.927  23.005  24.775  1.00  0.00     0.130 A 
ATOM     15  C   UNL A   1      35.257  21.771  25.319  1.00  0.00     0.047 A 
ATOM     16  C   UNL A   1      34.451  20.665  25.044  1.00  0.00     0.004 A 
ATOM     17  C   UNL A   1      32.989  22.021  23.665  1.00  0.00     0.016 A 
ATOM     18  C   UNL A   1      33.334  20.784  24.209  1.00  0.00     0.001 A 
BRANCH  14  19
ATOM     19  O   UNL A   1      35.776  24.069  25.013  1.00  0.00    -0.493 OA
BRANCH  19  20
ATOM     20  C   UNL A   1      37.165  23.719  25.197  1.00  0.00     0.230 C 
BRANCH  20  21
ATOM     21  C   UNL A   1      37.660  24.026  26.633  1.00  0.00     0.044 C 
BRANCH  21  22
ATOM     22  C   UNL A   1      39.354  24.113  26.655  1.00  0.00    -0.014 C 
ATOM     23  C   UNL A   1      39.739  22.389  26.509  1.00  0.00     0.007 C 
ATOM     24  C   UNL A   1      40.824  25.700  26.021  1.00  0.00     0.007 C 
ENDBRANCH  21  22
ENDBRANCH  20  21
ENDBRANCH  19  20
ENDBRANCH  14  19
ENDBRANCH   9  13
ENDBRANCH   6   8
ENDBRANCH   5   6
ENDBRANCH   4   5
ENDBRANCH   3   4
ENDBRANCH   2   3
ENDBRANCH   1   2
BRANCH   1  25
ATOM     25  C   UNL A   1      31.348  30.198  26.628  1.00  0.00     0.188 C 
BRANCH  25  26
ATOM     26  O   UNL A   1      31.620  28.834  26.437  1.00  0.00    -0.376 OA
BRANCH  26  27
ATOM     27  C   UNL A   1      32.798  28.486  25.743  1.00  0.00     0.202 C 
BRANCH  27  28
ATOM     28  C   UNL A   1      34.213  28.773  26.293  1.00  0.00     0.261 C 
BRANCH  28  29
ATOM     29  O   UNL A   1      34.352  29.448  27.557  1.00  0.00    -0.460 OA
BRANCH  29  30
ATOM     30  C   UNL A   1      34.932  30.678  27.532  1.00  0.00     0.338 C 
ATOM     31  O   UNL A   1      34.384  31.718  27.212  1.00  0.00    -0.246 OA
BRANCH  30  32
ATOM     32  C   UNL A   1      36.273  30.620  28.171  1.00  0.00     0.060 A 
ATOM     33  C   UNL A   1      36.834  29.368  28.480  1.00  0.00     0.016 A 
ATOM     34  C   UNL A   1      36.951  31.786  28.524  1.00  0.00     0.016 A 
ATOM     35  C   UNL A   1      38.037  29.280  29.188  1.00  0.00     0.010 A 
ATOM     36  C   UNL A   1      38.143  31.696  29.258  1.00  0.00     0.010 A 
ATOM     37  C   UNL A   1      38.668  30.445  29.640  1.00  0.00    -0.014 A 
BRANCH  37  38
ATOM     38  C   UNL A   1      39.728  30.359  30.686  1.00  0.00     0.031 A 
ATOM     39  C   UNL A   1      41.006  29.628  30.352  1.00  0.00     0.074 A 
ATOM     40  C   UNL A   1      39.593  30.940  31.893  1.00  0.00     0.049 A 
ATOM     41  N   UNL A   1      42.037  29.355  31.110  1.00  0.00    -0.248 NA
ATOM     42  C   UNL A   1      41.129  29.128  28.973  1.00  0.00     0.031 C 
ATOM     43  C   UNL A   1      38.444  31.734  32.323  1.00  0.00     0.029 A 
ATOM     44  N   UNL A   1      40.432  30.949  32.983  1.00  0.00    -0.354 N 
ATOM     45  C   UNL A   1      42.920  28.638  30.308  1.00  0.00     0.074 A 
ATOM     46  C   UNL A   1      42.282  28.481  29.020  1.00  0.00     0.031 C 
ATOM     47  C   UNL A   1      38.649  32.148  33.587  1.00  0.00     0.029 A 
ATOM     48  C   UNL A   1      39.918  31.610  34.075  1.00  0.00     0.049 A 
ATOM     49  H   UNL A   1      41.320  30.521  32.983  1.00  0.00     0.167 HD
ATOM     50  C   UNL A   1      44.153  28.164  30.614  1.00  0.00     0.034 A 
ATOM     51  C   UNL A   1      40.397  31.742  35.332  1.00  0.00     0.034 A 
ATOM     52  C   UNL A   1      44.775  28.319  31.906  1.00  0.00     0.049 A 
ATOM     53  C   UNL A   1      41.726  31.110  35.682  1.00  0.00     0.074 A 
ATOM     54  C   UNL A   1      46.024  27.885  32.315  1.00  0.00     0.029 A 
ATOM     55  N   UNL A   1      44.194  28.942  33.003  1.00  0.00    -0.354 N 
ATOM     56  N   UNL A   1      42.546  30.424  34.918  1.00  0.00    -0.248 NA
ATOM     57  C   UNL A   1      42.199  31.280  37.064  1.00  0.00     0.031 C 
ATOM     58  C   UNL A   1      46.153  28.148  33.682  1.00  0.00     0.029 A 
ATOM     59  C   UNL A   1      45.041  28.861  34.098  1.00  0.00     0.049 A 
ATOM     60  H   UNL A   1      43.310  29.375  33.003  1.00  0.00     0.167 HD
ATOM     61  C   UNL A   1      43.651  30.126  35.715  1.00  0.00     0.074 A 
ATOM     62  C   UNL A   1      43.394  30.712  37.014  1.00  0.00     0.031 C 
ATOM     63  C   UNL A   1      44.781  29.443  35.395  1.00  0.00     0.034 A 
BRANCH  50  64
ATOM     64  C   UNL A   1      44.884  27.375  29.550  1.00  0.00     0.023 A 
ATOM     65  C   UNL A   1      44.449  26.105  29.132  1.00  0.00     0.031 A 
ATOM     66  C   UNL A   1      46.049  27.896  28.959  1.00  0.00     0.131 A 
ATOM     67  C   UNL A   1      45.215  25.370  28.214  1.00  0.00     0.055 A 
ATOM     68  C   UNL A   1      46.752  27.202  27.974  1.00  0.00     0.041 A 
ATOM     69  F   UNL A   1      46.533  29.090  29.337  1.00  0.00    -0.206 F 
ATOM     70  C   UNL A   1      46.345  25.923  27.607  1.00  0.00     0.022 A 
BRANCH  67  71
ATOM     71  S   UNL A   1      44.814  23.621  27.956  1.00  0.00     0.124 S 
ATOM     72  O   UNL A   1      44.767  23.123  29.329  1.00  0.00    -0.237 OA
ATOM     73  O   UNL A   1      43.535  23.688  27.257  1.00  0.00    -0.237 OA
ATOM     74  O   UNL A   1      45.935  23.125  27.160  1.00  0.00    -0.744 OA
ENDBRANCH  67  71
ENDBRANCH  50  64
BRANCH  51  75
ATOM     75  C   UNL A   1      39.606  32.460  36.378  1.00  0.00     0.023 A 
ATOM     76  C   UNL A   1      39.956  33.752  36.805  1.00  0.00     0.031 A 
ATOM     77  C   UNL A   1      38.526  31.829  37.022  1.00  0.00     0.131 A 
ATOM     78  C   UNL A   1      39.273  34.346  37.879  1.00  0.00     0.055 A 
ATOM     79  C   UNL A   1      37.801  32.455  38.038  1.00  0.00     0.041 A 
ATOM     80  F   UNL A   1      38.158  30.586  36.673  1.00  0.00    -0.206 F 
ATOM     81  C   UNL A   1      38.183  33.716  38.483  1.00  0.00     0.022 A 
BRANCH  78  82
ATOM     82  S   UNL A   1      39.913  35.898  38.569  1.00  0.00     0.124 S 
ATOM     83  O   UNL A   1      41.286  35.531  38.897  1.00  0.00    -0.237 OA
ATOM     84  O   UNL A   1      39.744  36.821  37.451  1.00  0.00    -0.237 OA
ATOM     85  O   UNL A   1      39.043  36.145  39.716  1.00  0.00    -0.744 OA
ENDBRANCH  78  82
ENDBRANCH  51  75
BRANCH  63  86
ATOM     86  C   UNL A   1      45.869  29.360  36.444  1.00  0.00     0.023 A 
ATOM     87  C   UNL A   1      45.894  28.358  37.428  1.00  0.00     0.031 A 
ATOM     88  C   UNL A   1      46.896  30.324  36.464  1.00  0.00     0.131 A 
ATOM     89  C   UNL A   1      46.871  28.390  38.434  1.00  0.00     0.055 A 
ATOM     90  C   UNL A   1      47.918  30.297  37.414  1.00  0.00     0.041 A 
ATOM     91  F   UNL A   1      46.924  31.314  35.558  1.00  0.00    -0.206 F 
ATOM     92  C   UNL A   1      47.897  29.336  38.419  1.00  0.00     0.022 A 
BRANCH  89  93
ATOM     93  S   UNL A   1      46.695  27.272  39.853  1.00  0.00     0.124 S 
ATOM     94  O   UNL A   1      47.367  28.019  40.910  1.00  0.00    -0.237 OA
ATOM     95  O   UNL A   1      45.246  27.151  39.978  1.00  0.00    -0.237 OA
ATOM     96  O   UNL A   1      47.382  26.057  39.419  1.00  0.00    -0.744 OA
ENDBRANCH  89  93
ENDBRANCH  63  86
ENDBRANCH  37  38
ENDBRANCH  30  32
ENDBRANCH  29  30
ENDBRANCH  28  29
ENDBRANCH  27  28
ENDBRANCH  26  27
ENDBRANCH  25  26
ENDBRANCH   1  25
TORSDOF 25
ENDMDL
