MODEL 1
REMARK VINA RESULT:     -11.2      0.000      0.000
REMARK SMILES Cc1c(C[NH2+]Cc2cccc(F)c2)c(C(=O)OCCOCCOCCOC(=O)c2ccc(-c3c4nc(c(-c5cc(S(=O)(=O)[O-])ccc5F)c5ccc([nH]5)c(-c5cc(S(=O)(=O)[O-])ccc5F)c5nc(c(-c6cc(S(=O)(=O)[O-])ccc6F)c6ccc3[nH]6)C=C5)C=C4)cc2)c(C)n1Cc1c(F)cccc1Cl
REMARK SMILES IDX 21 1 20 2 19 3 18 4 17 5 15 6 16 7 14 8 1 9 2 10 3 11 94 12
REMARK SMILES IDX 92 13 93 14 4 15 5 16 6 19 7 20 8 21 13 22 9 23 11 24 10 25
REMARK SMILES IDX 12 26 95 27 96 28 97 29 102 30 98 31 99 32 101 33 103 34
REMARK SMILES IDX 100 35 22 36 23 37 24 38 25 39 26 40 27 41 28 42 29 43 30 44
REMARK SMILES IDX 91 45 31 46 90 47 32 48 33 49 34 50 84 51 35 52 89 53 83 54
REMARK SMILES IDX 85 55 36 56 88 57 82 58 81 59 37 61 69 62 49 63 68 64 50 65
REMARK SMILES IDX 53 66 67 67 86 68 51 69 52 70 66 72 87 73 54 74 38 75 39 76
REMARK SMILES IDX 47 77 40 78 46 79 48 80 45 81 41 82 42 83 43 84 44 85 70 86
REMARK SMILES IDX 71 87 79 88 72 89 78 90 80 91 77 92 73 93 74 94 75 95 76 96
REMARK SMILES IDX 55 97 56 98 64 99 57 100 63 101 65 102 62 103 58 104 59 105
REMARK SMILES IDX 60 106 61 107
REMARK H PARENT 5 17 5 18 85 60 53 71
REMARK Flexibility Score: inf
ROOT
ATOM      1  C   UNL A   1      40.301  20.997  26.650  1.00  0.00     0.188 C 
ENDROOT
BRANCH   1   2
ATOM      2  O   UNL A   1      39.688  21.944  25.787  1.00  0.00    -0.376 OA
BRANCH   2   3
ATOM      3  C   UNL A   1      38.356  22.380  26.017  1.00  0.00     0.202 C 
BRANCH   3   4
ATOM      4  C   UNL A   1      37.956  23.804  25.634  1.00  0.00     0.261 C 
BRANCH   4   5
ATOM      5  O   UNL A   1      36.561  23.924  25.368  1.00  0.00    -0.460 OA
BRANCH   5   6
ATOM      6  C   UNL A   1      36.158  23.466  24.138  1.00  0.00     0.340 C 
ATOM      7  O   UNL A   1      36.831  23.470  23.135  1.00  0.00    -0.246 OA
BRANCH   6   8
ATOM      8  C   UNL A   1      34.759  23.049  24.192  1.00  0.00     0.089 A 
ATOM      9  C   UNL A   1      31.061  23.340  24.009  1.00  0.00     0.065 C 
ATOM     10  C   UNL A   1      32.504  22.973  24.105  1.00  0.00     0.025 A 
ATOM     11  C   UNL A   1      33.601  23.764  23.763  1.00  0.00     0.042 A 
ATOM     12  N   UNL A   1      32.969  21.748  24.581  1.00  0.00    -0.343 N 
ATOM     13  C   UNL A   1      34.342  21.844  24.741  1.00  0.00     0.030 A 
ATOM     14  C   UNL A   1      35.227  20.828  25.382  1.00  0.00     0.065 C 
BRANCH  11  15
ATOM     15  C   UNL A   1      33.576  25.100  23.064  1.00  0.00     0.300 C 
BRANCH  15  16
ATOM     16  N   UNL A   1      33.909  26.147  24.015  1.00  0.00    -0.339 N 
ATOM     17  H   UNL A   1      34.236  26.962  23.494  1.00  0.00     0.346 HD
ATOM     18  H   UNL A   1      34.624  25.769  24.636  1.00  0.00     0.346 HD
BRANCH  16  19
ATOM     19  C   UNL A   1      32.788  26.558  24.855  1.00  0.00     0.297 C 
BRANCH  19  20
ATOM     20  C   UNL A   1      31.580  27.143  24.148  1.00  0.00     0.009 A 
ATOM     21  C   UNL A   1      30.270  26.661  24.309  1.00  0.00     0.010 A 
ATOM     22  C   UNL A   1      31.777  28.246  23.299  1.00  0.00     0.048 A 
ATOM     23  C   UNL A   1      29.201  27.222  23.601  1.00  0.00     0.004 A 
ATOM     24  C   UNL A   1      30.704  28.810  22.615  1.00  0.00     0.123 A 
ATOM     25  C   UNL A   1      29.421  28.299  22.747  1.00  0.00     0.039 A 
ATOM     26  F   UNL A   1      30.912  29.865  21.815  1.00  0.00    -0.207 F 
ENDBRANCH  19  20
ENDBRANCH  16  19
ENDBRANCH  15  16
ENDBRANCH  11  15
BRANCH  12  27
ATOM     27  C   UNL A   1      32.129  20.614  25.021  1.00  0.00     0.162 C 
BRANCH  27  28
ATOM     28  C   UNL A   1      32.517  19.266  24.448  1.00  0.00     0.026 A 
ATOM     29  C   UNL A   1      32.829  18.199  25.304  1.00  0.00     0.129 A 
ATOM     30  C   UNL A   1      32.505  18.964  23.076  1.00  0.00     0.048 A 
ATOM     31  F   UNL A   1      32.677  18.327  26.625  1.00  0.00    -0.207 F 
ATOM     32  C   UNL A   1      33.208  16.937  24.846  1.00  0.00     0.040 A 
ATOM     33  C   UNL A   1      32.880  17.693  22.602  1.00  0.00     0.021 A 
ATOM     34  Cl  UNL A   1      31.916  20.064  21.880  1.00  0.00    -0.084 Cl
ATOM     35  C   UNL A   1      33.250  16.683  23.486  1.00  0.00     0.005 A 
ENDBRANCH  27  28
ENDBRANCH  12  27
ENDBRANCH   6   8
ENDBRANCH   5   6
ENDBRANCH   4   5
ENDBRANCH   3   4
ENDBRANCH   2   3
ENDBRANCH   1   2
BRANCH   1  36
ATOM     36  C   UNL A   1      40.555  19.543  26.209  1.00  0.00     0.188 C 
BRANCH  36  37
ATOM     37  O   UNL A   1      41.601  19.282  25.292  1.00  0.00    -0.376 OA
BRANCH  37  38
ATOM     38  C   UNL A   1      42.929  19.146  25.808  1.00  0.00     0.202 C 
BRANCH  38  39
ATOM     39  C   UNL A   1      44.022  20.106  25.276  1.00  0.00     0.261 C 
BRANCH  39  40
ATOM     40  O   UNL A   1      43.614  21.507  25.046  1.00  0.00    -0.460 OA
BRANCH  40  41
ATOM     41  C   UNL A   1      44.073  22.401  25.992  1.00  0.00     0.338 C 
ATOM     42  O   UNL A   1      45.257  22.496  26.288  1.00  0.00    -0.246 OA
BRANCH  41  43
ATOM     43  C   UNL A   1      43.035  23.249  26.729  1.00  0.00     0.060 A 
ATOM     44  C   UNL A   1      42.248  24.169  26.047  1.00  0.00     0.016 A 
ATOM     45  C   UNL A   1      43.062  23.413  28.134  1.00  0.00     0.016 A 
ATOM     46  C   UNL A   1      41.515  25.190  26.756  1.00  0.00     0.010 A 
ATOM     47  C   UNL A   1      42.354  24.483  28.844  1.00  0.00     0.010 A 
ATOM     48  C   UNL A   1      41.564  25.437  28.180  1.00  0.00    -0.014 A 
BRANCH  48  49
ATOM     49  C   UNL A   1      41.184  26.929  28.686  1.00  0.00     0.031 A 
ATOM     50  C   UNL A   1      42.291  27.770  28.139  1.00  0.00     0.074 A 
ATOM     51  C   UNL A   1      40.285  27.672  29.465  1.00  0.00     0.049 A 
ATOM     52  N   UNL A   1      43.547  27.471  28.332  1.00  0.00    -0.248 NA
ATOM     53  C   UNL A   1      42.057  28.757  27.084  1.00  0.00     0.031 C 
ATOM     54  C   UNL A   1      39.152  27.188  30.272  1.00  0.00     0.029 A 
ATOM     55  N   UNL A   1      40.158  29.088  29.718  1.00  0.00    -0.354 N 
ATOM     56  C   UNL A   1      44.248  28.491  27.747  1.00  0.00     0.074 A 
ATOM     57  C   UNL A   1      43.321  29.062  26.782  1.00  0.00     0.031 C 
ATOM     58  C   UNL A   1      38.404  28.218  30.775  1.00  0.00     0.029 A 
ATOM     59  C   UNL A   1      38.977  29.521  30.432  1.00  0.00     0.049 A 
ATOM     60  H   UNL A   1      40.843  29.728  29.418  1.00  0.00     0.167 HD
ATOM     61  C   UNL A   1      45.157  29.149  28.524  1.00  0.00     0.034 A 
ATOM     62  C   UNL A   1      38.516  30.792  30.793  1.00  0.00     0.034 A 
ATOM     63  C   UNL A   1      44.774  30.502  28.822  1.00  0.00     0.049 A 
ATOM     64  C   UNL A   1      39.686  31.670  30.891  1.00  0.00     0.074 A 
ATOM     65  C   UNL A   1      44.222  31.536  28.095  1.00  0.00     0.029 A 
ATOM     66  N   UNL A   1      44.553  30.798  30.152  1.00  0.00    -0.354 N 
ATOM     67  N   UNL A   1      40.486  31.616  31.909  1.00  0.00    -0.248 NA
ATOM     68  C   UNL A   1      39.913  32.785  29.972  1.00  0.00     0.031 C 
ATOM     69  C   UNL A   1      43.282  32.135  28.967  1.00  0.00     0.029 A 
ATOM     70  C   UNL A   1      43.481  31.654  30.257  1.00  0.00     0.049 A 
ATOM     71  H   UNL A   1      45.081  30.451  30.907  1.00  0.00     0.167 HD
ATOM     72  C   UNL A   1      41.562  32.342  31.500  1.00  0.00     0.074 A 
ATOM     73  C   UNL A   1      41.047  33.252  30.496  1.00  0.00     0.031 C 
ATOM     74  C   UNL A   1      42.751  31.692  31.515  1.00  0.00     0.034 A 
BRANCH  61  75
ATOM     75  C   UNL A   1      45.938  28.304  29.490  1.00  0.00     0.023 A 
ATOM     76  C   UNL A   1      47.279  28.011  29.218  1.00  0.00     0.031 A 
ATOM     77  C   UNL A   1      45.373  27.783  30.675  1.00  0.00     0.131 A 
ATOM     78  C   UNL A   1      47.995  27.170  30.086  1.00  0.00     0.055 A 
ATOM     79  C   UNL A   1      46.069  26.908  31.503  1.00  0.00     0.041 A 
ATOM     80  F   UNL A   1      44.146  28.160  31.069  1.00  0.00    -0.206 F 
ATOM     81  C   UNL A   1      47.389  26.588  31.205  1.00  0.00     0.022 A 
BRANCH  78  82
ATOM     82  S   UNL A   1      49.759  26.898  29.766  1.00  0.00     0.124 S 
ATOM     83  O   UNL A   1      50.336  26.954  31.106  1.00  0.00    -0.237 OA
ATOM     84  O   UNL A   1      49.759  25.579  29.137  1.00  0.00    -0.237 OA
ATOM     85  O   UNL A   1      50.130  28.001  28.883  1.00  0.00    -0.744 OA
ENDBRANCH  78  82
ENDBRANCH  61  75
BRANCH  62  86
ATOM     86  C   UNL A   1      37.270  31.579  31.323  1.00  0.00     0.023 A 
ATOM     87  C   UNL A   1      37.214  32.065  32.695  1.00  0.00     0.031 A 
ATOM     88  C   UNL A   1      36.309  32.148  30.483  1.00  0.00     0.131 A 
ATOM     89  C   UNL A   1      36.332  33.090  33.130  1.00  0.00     0.055 A 
ATOM     90  C   UNL A   1      35.398  33.143  30.931  1.00  0.00     0.041 A 
ATOM     91  F   UNL A   1      36.274  31.831  29.182  1.00  0.00    -0.206 F 
ATOM     92  C   UNL A   1      35.422  33.635  32.239  1.00  0.00     0.022 A 
BRANCH  89  93
ATOM     93  S   UNL A   1      36.506  33.896  34.780  1.00  0.00     0.124 S 
ATOM     94  O   UNL A   1      35.215  34.549  34.958  1.00  0.00    -0.237 OA
ATOM     95  O   UNL A   1      36.797  32.778  35.673  1.00  0.00    -0.237 OA
ATOM     96  O   UNL A   1      37.633  34.811  34.583  1.00  0.00    -0.744 OA
ENDBRANCH  89  93
ENDBRANCH  62  86
BRANCH  74  97
ATOM     97  C   UNL A   1      43.069  30.848  32.751  1.00  0.00     0.023 A 
ATOM     98  C   UNL A   1      42.329  29.731  33.229  1.00  0.00     0.031 A 
ATOM     99  C   UNL A   1      44.162  31.248  33.535  1.00  0.00     0.131 A 
ATOM    100  C   UNL A   1      42.664  29.100  34.446  1.00  0.00     0.055 A 
ATOM    101  C   UNL A   1      44.524  30.595  34.715  1.00  0.00     0.041 A 
ATOM    102  F   UNL A   1      44.909  32.300  33.162  1.00  0.00    -0.206 F 
ATOM    103  C   UNL A   1      43.768  29.525  35.183  1.00  0.00     0.022 A 
BRANCH 100 104
ATOM    104  S   UNL A   1      41.626  27.750  35.105  1.00  0.00     0.124 S 
ATOM    105  O   UNL A   1      40.994  28.355  36.272  1.00  0.00    -0.237 OA
ATOM    106  O   UNL A   1      40.740  27.439  33.987  1.00  0.00    -0.237 OA
ATOM    107  O   UNL A   1      42.594  26.697  35.423  1.00  0.00    -0.744 OA
ENDBRANCH 100 104
ENDBRANCH  74  97
ENDBRANCH  48  49
ENDBRANCH  41  43
ENDBRANCH  40  41
ENDBRANCH  39  40
ENDBRANCH  38  39
ENDBRANCH  37  38
ENDBRANCH  36  37
ENDBRANCH   1  36
TORSDOF 26
ENDMDL
MODEL 2
REMARK VINA RESULT:     -10.6      1.915      4.664
REMARK SMILES Cc1c(C[NH2+]Cc2cccc(F)c2)c(C(=O)OCCOCCOCCOC(=O)c2ccc(-c3c4nc(c(-c5cc(S(=O)(=O)[O-])ccc5F)c5ccc([nH]5)c(-c5cc(S(=O)(=O)[O-])ccc5F)c5nc(c(-c6cc(S(=O)(=O)[O-])ccc6F)c6ccc3[nH]6)C=C5)C=C4)cc2)c(C)n1Cc1c(F)cccc1Cl
REMARK SMILES IDX 21 1 20 2 19 3 18 4 17 5 15 6 16 7 14 8 1 9 2 10 3 11 94 12
REMARK SMILES IDX 92 13 93 14 4 15 5 16 6 19 7 20 8 21 13 22 9 23 11 24 10 25
REMARK SMILES IDX 12 26 95 27 96 28 97 29 102 30 98 31 99 32 101 33 103 34
REMARK SMILES IDX 100 35 22 36 23 37 24 38 25 39 26 40 27 41 28 42 29 43 30 44
REMARK SMILES IDX 91 45 31 46 90 47 32 48 33 49 34 50 84 51 35 52 89 53 83 54
REMARK SMILES IDX 85 55 36 56 88 57 82 58 81 59 37 61 69 62 49 63 68 64 50 65
REMARK SMILES IDX 53 66 67 67 86 68 51 69 52 70 66 72 87 73 54 74 38 75 39 76
REMARK SMILES IDX 47 77 40 78 46 79 48 80 45 81 41 82 42 83 43 84 44 85 70 86
REMARK SMILES IDX 71 87 79 88 72 89 78 90 80 91 77 92 73 93 74 94 75 95 76 96
REMARK SMILES IDX 55 97 56 98 64 99 57 100 63 101 65 102 62 103 58 104 59 105
REMARK SMILES IDX 60 106 61 107
REMARK H PARENT 5 17 5 18 85 60 53 71
REMARK Flexibility Score: inf
ROOT
ATOM      1  C   UNL A   1      39.340  21.150  26.203  1.00  0.00     0.188 C 
ENDROOT
BRANCH   1   2
ATOM      2  O   UNL A   1      38.507  21.334  25.067  1.00  0.00    -0.376 OA
BRANCH   2   3
ATOM      3  C   UNL A   1      37.447  22.280  25.090  1.00  0.00     0.202 C 
BRANCH   3   4
ATOM      4  C   UNL A   1      36.332  22.133  26.124  1.00  0.00     0.261 C 
BRANCH   4   5
ATOM      5  O   UNL A   1      35.712  23.378  26.435  1.00  0.00    -0.460 OA
BRANCH   5   6
ATOM      6  C   UNL A   1      34.345  23.398  26.314  1.00  0.00     0.340 C 
ATOM      7  O   UNL A   1      33.561  23.083  27.179  1.00  0.00    -0.246 OA
BRANCH   6   8
ATOM      8  C   UNL A   1      33.967  23.774  24.954  1.00  0.00     0.089 A 
ATOM      9  C   UNL A   1      33.321  23.380  21.318  1.00  0.00     0.065 C 
ATOM     10  C   UNL A   1      33.478  23.770  22.749  1.00  0.00     0.025 A 
ATOM     11  C   UNL A   1      33.725  22.926  23.832  1.00  0.00     0.042 A 
ATOM     12  N   UNL A   1      33.411  25.083  23.214  1.00  0.00    -0.343 N 
ATOM     13  C   UNL A   1      33.824  25.090  24.537  1.00  0.00     0.030 A 
ATOM     14  C   UNL A   1      34.067  26.299  25.376  1.00  0.00     0.065 C 
BRANCH  11  15
ATOM     15  C   UNL A   1      33.723  21.417  23.828  1.00  0.00     0.300 C 
BRANCH  15  16
ATOM     16  N   UNL A   1      32.486  20.936  24.420  1.00  0.00    -0.339 N 
ATOM     17  H   UNL A   1      31.951  20.451  23.699  1.00  0.00     0.346 HD
ATOM     18  H   UNL A   1      31.995  21.751  24.788  1.00  0.00     0.346 HD
BRANCH  16  19
ATOM     19  C   UNL A   1      32.687  20.018  25.538  1.00  0.00     0.297 C 
BRANCH  19  20
ATOM     20  C   UNL A   1      32.931  18.562  25.193  1.00  0.00     0.009 A 
ATOM     21  C   UNL A   1      32.536  17.487  26.008  1.00  0.00     0.010 A 
ATOM     22  C   UNL A   1      33.569  18.265  23.976  1.00  0.00     0.048 A 
ATOM     23  C   UNL A   1      32.821  16.165  25.651  1.00  0.00     0.004 A 
ATOM     24  C   UNL A   1      33.830  16.945  23.619  1.00  0.00     0.123 A 
ATOM     25  C   UNL A   1      33.475  15.894  24.453  1.00  0.00     0.039 A 
ATOM     26  F   UNL A   1      34.434  16.683  22.452  1.00  0.00    -0.207 F 
ENDBRANCH  19  20
ENDBRANCH  16  19
ENDBRANCH  15  16
ENDBRANCH  11  15
BRANCH  12  27
ATOM     27  C   UNL A   1      33.136  26.279  22.392  1.00  0.00     0.162 C 
BRANCH  27  28
ATOM     28  C   UNL A   1      31.949  27.109  22.842  1.00  0.00     0.026 A 
ATOM     29  C   UNL A   1      30.688  26.513  22.994  1.00  0.00     0.129 A 
ATOM     30  C   UNL A   1      32.035  28.461  23.216  1.00  0.00     0.048 A 
ATOM     31  F   UNL A   1      30.546  25.191  22.856  1.00  0.00    -0.207 F 
ATOM     32  C   UNL A   1      29.552  27.219  23.390  1.00  0.00     0.040 A 
ATOM     33  C   UNL A   1      30.896  29.181  23.623  1.00  0.00     0.021 A 
ATOM     34  Cl  UNL A   1      33.537  29.308  23.333  1.00  0.00    -0.084 Cl
ATOM     35  C   UNL A   1      29.650  28.566  23.692  1.00  0.00     0.005 A 
ENDBRANCH  27  28
ENDBRANCH  12  27
ENDBRANCH   6   8
ENDBRANCH   5   6
ENDBRANCH   4   5
ENDBRANCH   3   4
ENDBRANCH   2   3
ENDBRANCH   1   2
BRANCH   1  36
ATOM     36  C   UNL A   1      40.874  21.239  26.106  1.00  0.00     0.188 C 
BRANCH  36  37
ATOM     37  O   UNL A   1      41.631  20.044  26.166  1.00  0.00    -0.376 OA
BRANCH  37  38
ATOM     38  C   UNL A   1      43.032  20.119  25.880  1.00  0.00     0.202 C 
BRANCH  38  39
ATOM     39  C   UNL A   1      43.636  21.505  25.545  1.00  0.00     0.261 C 
BRANCH  39  40
ATOM     40  O   UNL A   1      45.010  21.759  26.019  1.00  0.00    -0.460 OA
BRANCH  40  41
ATOM     41  C   UNL A   1      45.211  23.017  26.553  1.00  0.00     0.338 C 
ATOM     42  O   UNL A   1      46.327  23.496  26.704  1.00  0.00    -0.246 OA
BRANCH  41  43
ATOM     43  C   UNL A   1      43.979  23.793  27.021  1.00  0.00     0.060 A 
ATOM     44  C   UNL A   1      43.423  24.795  26.237  1.00  0.00     0.016 A 
ATOM     45  C   UNL A   1      43.567  23.798  28.375  1.00  0.00     0.016 A 
ATOM     46  C   UNL A   1      42.487  25.741  26.793  1.00  0.00     0.010 A 
ATOM     47  C   UNL A   1      42.653  24.792  28.946  1.00  0.00     0.010 A 
ATOM     48  C   UNL A   1      42.088  25.827  28.180  1.00  0.00    -0.014 A 
BRANCH  48  49
ATOM     49  C   UNL A   1      41.540  27.258  28.707  1.00  0.00     0.031 A 
ATOM     50  C   UNL A   1      42.590  28.217  28.249  1.00  0.00     0.074 A 
ATOM     51  C   UNL A   1      40.533  27.887  29.454  1.00  0.00     0.049 A 
ATOM     52  N   UNL A   1      43.857  28.031  28.505  1.00  0.00    -0.248 NA
ATOM     53  C   UNL A   1      42.320  29.214  27.211  1.00  0.00     0.031 C 
ATOM     54  C   UNL A   1      39.410  27.271  30.181  1.00  0.00     0.029 A 
ATOM     55  N   UNL A   1      40.258  29.275  29.740  1.00  0.00    -0.354 N 
ATOM     56  C   UNL A   1      44.488  29.132  27.991  1.00  0.00     0.074 A 
ATOM     57  C   UNL A   1      43.563  29.646  26.991  1.00  0.00     0.031 C 
ATOM     58  C   UNL A   1      38.541  28.208  30.670  1.00  0.00     0.029 A 
ATOM     59  C   UNL A   1      39.004  29.571  30.398  1.00  0.00     0.049 A 
ATOM     60  H   UNL A   1      40.894  29.986  29.499  1.00  0.00     0.167 HD
ATOM     61  C   UNL A   1      45.286  29.846  28.836  1.00  0.00     0.034 A 
ATOM     62  C   UNL A   1      38.405  30.780  30.768  1.00  0.00     0.034 A 
ATOM     63  C   UNL A   1      44.759  31.146  29.151  1.00  0.00     0.049 A 
ATOM     64  C   UNL A   1      39.478  31.760  30.958  1.00  0.00     0.074 A 
ATOM     65  C   UNL A   1      44.151  32.147  28.424  1.00  0.00     0.029 A 
ATOM     66  N   UNL A   1      44.440  31.374  30.475  1.00  0.00    -0.354 N 
ATOM     67  N   UNL A   1      40.223  31.746  32.019  1.00  0.00    -0.248 NA
ATOM     68  C   UNL A   1      39.647  32.922  30.086  1.00  0.00     0.031 C 
ATOM     69  C   UNL A   1      43.113  32.626  29.257  1.00  0.00     0.029 A 
ATOM     70  C   UNL A   1      43.286  32.122  30.543  1.00  0.00     0.049 A 
ATOM     71  H   UNL A   1      44.957  31.053  31.248  1.00  0.00     0.167 HD
ATOM     72  C   UNL A   1      41.246  32.583  31.693  1.00  0.00     0.074 A 
ATOM     73  C   UNL A   1      40.701  33.475  30.688  1.00  0.00     0.031 C 
ATOM     74  C   UNL A   1      42.489  32.048  31.757  1.00  0.00     0.034 A 
BRANCH  61  75
ATOM     75  C   UNL A   1      46.091  29.045  29.821  1.00  0.00     0.023 A 
ATOM     76  C   UNL A   1      45.431  28.198  30.719  1.00  0.00     0.031 A 
ATOM     77  C   UNL A   1      47.499  29.108  29.883  1.00  0.00     0.131 A 
ATOM     78  C   UNL A   1      46.173  27.495  31.682  1.00  0.00     0.055 A 
ATOM     79  C   UNL A   1      48.226  28.452  30.872  1.00  0.00     0.041 A 
ATOM     80  F   UNL A   1      48.195  29.774  28.948  1.00  0.00    -0.206 F 
ATOM     81  C   UNL A   1      47.561  27.645  31.787  1.00  0.00     0.022 A 
BRANCH  78  82
ATOM     82  S   UNL A   1      45.303  26.325  32.759  1.00  0.00     0.124 S 
ATOM     83  O   UNL A   1      43.906  26.529  32.386  1.00  0.00    -0.237 OA
ATOM     84  O   UNL A   1      45.880  25.044  32.355  1.00  0.00    -0.237 OA
ATOM     85  O   UNL A   1      45.656  26.760  34.108  1.00  0.00    -0.744 OA
ENDBRANCH  78  82
ENDBRANCH  61  75
BRANCH  62  86
ATOM     86  C   UNL A   1      37.062  31.427  31.248  1.00  0.00     0.023 A 
ATOM     87  C   UNL A   1      37.014  32.266  32.438  1.00  0.00     0.031 A 
ATOM     88  C   UNL A   1      35.930  31.533  30.438  1.00  0.00     0.131 A 
ATOM     89  C   UNL A   1      35.963  33.181  32.712  1.00  0.00     0.055 A 
ATOM     90  C   UNL A   1      34.858  32.417  30.737  1.00  0.00     0.041 A 
ATOM     91  F   UNL A   1      35.856  30.854  29.284  1.00  0.00    -0.206 F 
ATOM     92  C   UNL A   1      34.880  33.260  31.851  1.00  0.00     0.022 A 
BRANCH  89  93
ATOM     93  S   UNL A   1      36.089  34.445  34.049  1.00  0.00     0.124 S 
ATOM     94  O   UNL A   1      35.649  33.712  35.230  1.00  0.00    -0.237 OA
ATOM     95  O   UNL A   1      37.496  34.835  34.014  1.00  0.00    -0.237 OA
ATOM     96  O   UNL A   1      35.168  35.493  33.602  1.00  0.00    -0.744 OA
ENDBRANCH  89  93
ENDBRANCH  62  86
BRANCH  74  97
ATOM     97  C   UNL A   1      42.818  31.195  32.984  1.00  0.00     0.023 A 
ATOM     98  C   UNL A   1      42.197  29.972  33.360  1.00  0.00     0.031 A 
ATOM     99  C   UNL A   1      43.786  31.696  33.869  1.00  0.00     0.131 A 
ATOM    100  C   UNL A   1      42.517  29.335  34.577  1.00  0.00     0.055 A 
ATOM    101  C   UNL A   1      44.138  31.041  35.051  1.00  0.00     0.041 A 
ATOM    102  F   UNL A   1      44.415  32.851  33.596  1.00  0.00    -0.206 F 
ATOM    103  C   UNL A   1      43.496  29.863  35.417  1.00  0.00     0.022 A 
BRANCH 100 104
ATOM    104  S   UNL A   1      41.617  27.834  35.100  1.00  0.00     0.124 S 
ATOM    105  O   UNL A   1      42.681  26.849  35.267  1.00  0.00    -0.237 OA
ATOM    106  O   UNL A   1      40.946  28.262  36.324  1.00  0.00    -0.237 OA
ATOM    107  O   UNL A   1      40.717  27.564  33.976  1.00  0.00    -0.744 OA
ENDBRANCH 100 104
ENDBRANCH  74  97
ENDBRANCH  48  49
ENDBRANCH  41  43
ENDBRANCH  40  41
ENDBRANCH  39  40
ENDBRANCH  38  39
ENDBRANCH  37  38
ENDBRANCH  36  37
ENDBRANCH   1  36
TORSDOF 26
ENDMDL
MODEL 3
REMARK VINA RESULT:     -10.3      2.737      5.985
REMARK SMILES Cc1c(C[NH2+]Cc2cccc(F)c2)c(C(=O)OCCOCCOCCOC(=O)c2ccc(-c3c4nc(c(-c5cc(S(=O)(=O)[O-])ccc5F)c5ccc([nH]5)c(-c5cc(S(=O)(=O)[O-])ccc5F)c5nc(c(-c6cc(S(=O)(=O)[O-])ccc6F)c6ccc3[nH]6)C=C5)C=C4)cc2)c(C)n1Cc1c(F)cccc1Cl
REMARK SMILES IDX 21 1 20 2 19 3 18 4 17 5 15 6 16 7 14 8 1 9 2 10 3 11 94 12
REMARK SMILES IDX 92 13 93 14 4 15 5 16 6 19 7 20 8 21 13 22 9 23 11 24 10 25
REMARK SMILES IDX 12 26 95 27 96 28 97 29 102 30 98 31 99 32 101 33 103 34
REMARK SMILES IDX 100 35 22 36 23 37 24 38 25 39 26 40 27 41 28 42 29 43 30 44
REMARK SMILES IDX 91 45 31 46 90 47 32 48 33 49 34 50 84 51 35 52 89 53 83 54
REMARK SMILES IDX 85 55 36 56 88 57 82 58 81 59 37 61 69 62 49 63 68 64 50 65
REMARK SMILES IDX 53 66 67 67 86 68 51 69 52 70 66 72 87 73 54 74 38 75 39 76
REMARK SMILES IDX 47 77 40 78 46 79 48 80 45 81 41 82 42 83 43 84 44 85 70 86
REMARK SMILES IDX 71 87 79 88 72 89 78 90 80 91 77 92 73 93 74 94 75 95 76 96
REMARK SMILES IDX 55 97 56 98 64 99 57 100 63 101 65 102 62 103 58 104 59 105
REMARK SMILES IDX 60 106 61 107
REMARK H PARENT 5 17 5 18 85 60 53 71
REMARK Flexibility Score: inf
ROOT
ATOM      1  C   UNL A   1      37.424  22.253  26.171  1.00  0.00     0.188 C 
ENDROOT
BRANCH   1   2
ATOM      2  O   UNL A   1      36.824  22.315  24.885  1.00  0.00    -0.376 OA
BRANCH   2   3
ATOM      3  C   UNL A   1      36.433  23.561  24.325  1.00  0.00     0.202 C 
BRANCH   3   4
ATOM      4  C   UNL A   1      35.479  23.581  23.133  1.00  0.00     0.261 C 
BRANCH   4   5
ATOM      5  O   UNL A   1      34.487  22.560  23.213  1.00  0.00    -0.460 OA
BRANCH   5   6
ATOM      6  C   UNL A   1      33.293  22.853  22.603  1.00  0.00     0.340 C 
ATOM      7  O   UNL A   1      33.076  22.778  21.417  1.00  0.00    -0.246 OA
BRANCH   6   8
ATOM      8  C   UNL A   1      32.338  23.356  23.588  1.00  0.00     0.089 A 
ATOM      9  C   UNL A   1      30.198  23.376  26.623  1.00  0.00     0.065 C 
ATOM     10  C   UNL A   1      30.990  23.613  25.381  1.00  0.00     0.025 A 
ATOM     11  C   UNL A   1      32.015  22.818  24.869  1.00  0.00     0.042 A 
ATOM     12  N   UNL A   1      30.794  24.695  24.524  1.00  0.00    -0.343 N 
ATOM     13  C   UNL A   1      31.538  24.470  23.376  1.00  0.00     0.030 A 
ATOM     14  C   UNL A   1      31.497  25.286  22.128  1.00  0.00     0.065 C 
BRANCH  11  15
ATOM     15  C   UNL A   1      32.668  21.634  25.538  1.00  0.00     0.300 C 
BRANCH  15  16
ATOM     16  N   UNL A   1      31.953  20.421  25.178  1.00  0.00    -0.339 N 
ATOM     17  H   UNL A   1      31.024  20.682  24.846  1.00  0.00     0.346 HD
ATOM     18  H   UNL A   1      31.918  19.837  26.014  1.00  0.00     0.346 HD
BRANCH  16  19
ATOM     19  C   UNL A   1      32.611  19.637  24.137  1.00  0.00     0.297 C 
BRANCH  19  20
ATOM     20  C   UNL A   1      33.203  18.305  24.554  1.00  0.00     0.009 A 
ATOM     21  C   UNL A   1      34.539  17.935  24.323  1.00  0.00     0.010 A 
ATOM     22  C   UNL A   1      32.375  17.393  25.232  1.00  0.00     0.048 A 
ATOM     23  C   UNL A   1      35.017  16.676  24.702  1.00  0.00     0.004 A 
ATOM     24  C   UNL A   1      32.866  16.150  25.623  1.00  0.00     0.123 A 
ATOM     25  C   UNL A   1      34.175  15.779  25.351  1.00  0.00     0.039 A 
ATOM     26  F   UNL A   1      32.062  15.298  26.274  1.00  0.00    -0.207 F 
ENDBRANCH  19  20
ENDBRANCH  16  19
ENDBRANCH  15  16
ENDBRANCH  11  15
BRANCH  12  27
ATOM     27  C   UNL A   1      29.822  25.790  24.719  1.00  0.00     0.162 C 
BRANCH  27  28
ATOM     28  C   UNL A   1      30.415  27.184  24.724  1.00  0.00     0.026 A 
ATOM     29  C   UNL A   1      29.901  28.173  23.871  1.00  0.00     0.129 A 
ATOM     30  C   UNL A   1      31.421  27.605  25.610  1.00  0.00     0.048 A 
ATOM     31  F   UNL A   1      28.815  27.929  23.132  1.00  0.00    -0.207 F 
ATOM     32  C   UNL A   1      30.408  29.471  23.813  1.00  0.00     0.040 A 
ATOM     33  C   UNL A   1      31.936  28.914  25.564  1.00  0.00     0.021 A 
ATOM     34  Cl  UNL A   1      32.013  26.613  26.895  1.00  0.00    -0.084 Cl
ATOM     35  C   UNL A   1      31.443  29.843  24.653  1.00  0.00     0.005 A 
ENDBRANCH  27  28
ENDBRANCH  12  27
ENDBRANCH   6   8
ENDBRANCH   5   6
ENDBRANCH   4   5
ENDBRANCH   3   4
ENDBRANCH   2   3
ENDBRANCH   1   2
BRANCH   1  36
ATOM     36  C   UNL A   1      38.951  22.327  26.358  1.00  0.00     0.188 C 
BRANCH  36  37
ATOM     37  O   UNL A   1      39.757  21.311  25.791  1.00  0.00    -0.376 OA
BRANCH  37  38
ATOM     38  C   UNL A   1      41.071  21.117  26.324  1.00  0.00     0.202 C 
BRANCH  38  39
ATOM     39  C   UNL A   1      41.727  22.290  27.094  1.00  0.00     0.261 C 
BRANCH  39  40
ATOM     40  O   UNL A   1      43.054  22.730  26.621  1.00  0.00    -0.460 OA
BRANCH  40  41
ATOM     41  C   UNL A   1      43.305  24.078  26.787  1.00  0.00     0.338 C 
ATOM     42  O   UNL A   1      44.344  24.605  26.412  1.00  0.00    -0.246 OA
BRANCH  41  43
ATOM     43  C   UNL A   1      42.255  24.908  27.527  1.00  0.00     0.060 A 
ATOM     44  C   UNL A   1      41.234  25.550  26.838  1.00  0.00     0.016 A 
ATOM     45  C   UNL A   1      42.456  25.361  28.853  1.00  0.00     0.016 A 
ATOM     46  C   UNL A   1      40.449  26.585  27.467  1.00  0.00     0.010 A 
ATOM     47  C   UNL A   1      41.687  26.447  29.470  1.00  0.00     0.010 A 
ATOM     48  C   UNL A   1      40.660  27.125  28.791  1.00  0.00    -0.014 A 
BRANCH  48  49
ATOM     49  C   UNL A   1      40.109  28.622  29.077  1.00  0.00     0.031 A 
ATOM     50  C   UNL A   1      41.359  29.414  29.284  1.00  0.00     0.074 A 
ATOM     51  C   UNL A   1      38.953  29.394  29.260  1.00  0.00     0.049 A 
ATOM     52  N   UNL A   1      42.283  29.041  30.128  1.00  0.00    -0.248 NA
ATOM     53  C   UNL A   1      41.786  30.439  28.330  1.00  0.00     0.031 C 
ATOM     54  C   UNL A   1      37.547  28.953  29.274  1.00  0.00     0.029 A 
ATOM     55  N   UNL A   1      38.752  30.808  29.473  1.00  0.00    -0.354 N 
ATOM     56  C   UNL A   1      43.223  30.036  30.086  1.00  0.00     0.074 A 
ATOM     57  C   UNL A   1      43.012  30.681  28.799  1.00  0.00     0.031 C 
ATOM     58  C   UNL A   1      36.679  30.010  29.328  1.00  0.00     0.029 A 
ATOM     59  C   UNL A   1      37.388  31.288  29.431  1.00  0.00     0.049 A 
ATOM     60  H   UNL A   1      39.506  31.417  29.639  1.00  0.00     0.167 HD
ATOM     61  C   UNL A   1      43.564  30.623  31.270  1.00  0.00     0.034 A 
ATOM     62  C   UNL A   1      36.844  32.573  29.539  1.00  0.00     0.034 A 
ATOM     63  C   UNL A   1      43.122  31.987  31.373  1.00  0.00     0.049 A 
ATOM     64  C   UNL A   1      37.787  33.382  30.316  1.00  0.00     0.074 A 
ATOM     65  C   UNL A   1      43.104  33.067  30.517  1.00  0.00     0.029 A 
ATOM     66  N   UNL A   1      42.206  32.260  32.369  1.00  0.00    -0.354 N 
ATOM     67  N   UNL A   1      37.879  33.258  31.604  1.00  0.00    -0.248 NA
ATOM     68  C   UNL A   1      38.524  34.506  29.739  1.00  0.00     0.031 C 
ATOM     69  C   UNL A   1      41.858  33.696  30.748  1.00  0.00     0.029 A 
ATOM     70  C   UNL A   1      41.286  33.172  31.904  1.00  0.00     0.049 A 
ATOM     71  H   UNL A   1      42.211  31.866  33.271  1.00  0.00     0.167 HD
ATOM     72  C   UNL A   1      39.023  33.933  31.901  1.00  0.00     0.074 A 
ATOM     73  C   UNL A   1      39.186  34.895  30.829  1.00  0.00     0.031 C 
ATOM     74  C   UNL A   1      39.980  33.218  32.542  1.00  0.00     0.034 A 
BRANCH  61  75
ATOM     75  C   UNL A   1      43.644  29.711  32.462  1.00  0.00     0.023 A 
ATOM     76  C   UNL A   1      43.218  30.175  33.711  1.00  0.00     0.031 A 
ATOM     77  C   UNL A   1      44.137  28.391  32.378  1.00  0.00     0.131 A 
ATOM     78  C   UNL A   1      43.349  29.348  34.839  1.00  0.00     0.055 A 
ATOM     79  C   UNL A   1      44.315  27.595  33.505  1.00  0.00     0.041 A 
ATOM     80  F   UNL A   1      44.409  27.837  31.185  1.00  0.00    -0.206 F 
ATOM     81  C   UNL A   1      43.928  28.078  34.751  1.00  0.00     0.022 A 
BRANCH  78  82
ATOM     82  S   UNL A   1      42.689  29.936  36.422  1.00  0.00     0.124 S 
ATOM     83  O   UNL A   1      42.392  31.337  36.141  1.00  0.00    -0.237 OA
ATOM     84  O   UNL A   1      41.526  29.073  36.612  1.00  0.00    -0.237 OA
ATOM     85  O   UNL A   1      43.783  29.710  37.364  1.00  0.00    -0.744 OA
ENDBRANCH  78  82
ENDBRANCH  61  75
BRANCH  62  86
ATOM     86  C   UNL A   1      35.541  33.413  29.325  1.00  0.00     0.023 A 
ATOM     87  C   UNL A   1      34.769  33.908  30.457  1.00  0.00     0.031 A 
ATOM     88  C   UNL A   1      35.209  34.018  28.110  1.00  0.00     0.131 A 
ATOM     89  C   UNL A   1      33.832  34.971  30.366  1.00  0.00     0.055 A 
ATOM     90  C   UNL A   1      34.239  35.053  28.013  1.00  0.00     0.041 A 
ATOM     91  F   UNL A   1      35.872  33.697  26.991  1.00  0.00    -0.206 F 
ATOM     92  C   UNL A   1      33.571  35.550  29.134  1.00  0.00     0.022 A 
BRANCH  89  93
ATOM     93  S   UNL A   1      33.116  35.776  31.862  1.00  0.00     0.124 S 
ATOM     94  O   UNL A   1      32.636  34.642  32.642  1.00  0.00    -0.237 OA
ATOM     95  O   UNL A   1      34.243  36.517  32.419  1.00  0.00    -0.237 OA
ATOM     96  O   UNL A   1      32.059  36.626  31.307  1.00  0.00    -0.744 OA
ENDBRANCH  89  93
ENDBRANCH  62  86
BRANCH  74  97
ATOM     97  C   UNL A   1      39.526  32.327  33.700  1.00  0.00     0.023 A 
ATOM     98  C   UNL A   1      39.169  32.752  35.009  1.00  0.00     0.031 A 
ATOM     99  C   UNL A   1      39.519  30.941  33.476  1.00  0.00     0.131 A 
ATOM    100  C   UNL A   1      38.870  31.820  36.024  1.00  0.00     0.055 A 
ATOM    101  C   UNL A   1      39.176  30.019  34.466  1.00  0.00     0.041 A 
ATOM    102  F   UNL A   1      39.853  30.452  32.270  1.00  0.00    -0.206 F 
ATOM    103  C   UNL A   1      38.862  30.453  35.749  1.00  0.00     0.022 A 
BRANCH 100 104
ATOM    104  S   UNL A   1      38.538  32.382  37.730  1.00  0.00     0.124 S 
ATOM    105  O   UNL A   1      37.718  33.573  37.535  1.00  0.00    -0.237 OA
ATOM    106  O   UNL A   1      37.865  31.234  38.330  1.00  0.00    -0.237 OA
ATOM    107  O   UNL A   1      39.874  32.652  38.268  1.00  0.00    -0.744 OA
ENDBRANCH 100 104
ENDBRANCH  74  97
ENDBRANCH  48  49
ENDBRANCH  41  43
ENDBRANCH  40  41
ENDBRANCH  39  40
ENDBRANCH  38  39
ENDBRANCH  37  38
ENDBRANCH  36  37
ENDBRANCH   1  36
TORSDOF 26
ENDMDL
