MODEL 1
REMARK VINA RESULT:      -9.3      0.000      0.000
REMARK SMILES CCC(CC)(NC(=O)N[C@H](C)C1CC1)C(=O)OCCOCCOCCOC(=O)c1ccc(-c2c3nc(c(-c4cc(S(=O)(=O)[O-])ccc4F)c4ccc([nH]4)c(-c4cc(S(=O)(=O)[O-])ccc4F)c4nc(c(-c5cc(S(=O)(=O)[O-])ccc5F)c5ccc2[nH]5)C=C4)C=C3)cc1
REMARK SMILES IDX 21 1 20 2 19 3 18 4 17 5 15 6 16 7 3 8 2 9 1 10 4 11 5 12
REMARK SMILES IDX 6 13 7 14 8 16 9 17 10 19 11 20 12 21 13 22 14 23 22 24
REMARK SMILES IDX 23 25 24 26 25 27 26 28 27 29 28 30 29 31 30 32 91 33 31 34
REMARK SMILES IDX 90 35 32 36 33 37 34 38 84 39 35 40 89 41 83 42 85 43 36 44
REMARK SMILES IDX 88 45 82 46 81 47 37 49 69 50 49 51 68 52 50 53 53 54 67 55
REMARK SMILES IDX 86 56 51 57 52 58 66 60 87 61 54 62 38 63 39 64 47 65 40 66
REMARK SMILES IDX 46 67 48 68 45 69 41 70 42 71 43 72 44 73 70 74 71 75 79 76
REMARK SMILES IDX 72 77 78 78 80 79 77 80 73 81 74 82 75 83 76 84 55 85 56 86
REMARK SMILES IDX 64 87 57 88 63 89 65 90 62 91 58 92 59 93 60 94 61 95
REMARK H PARENT 6 15 9 18 85 48 53 59
REMARK Flexibility Score: inf
ROOT
ATOM      1  C   UNL A   1      31.804  28.769  23.108  1.00  0.00     0.188 C 
ENDROOT
BRANCH   1   2
ATOM      2  O   UNL A   1      33.074  28.195  22.807  1.00  0.00    -0.376 OA
BRANCH   2   3
ATOM      3  C   UNL A   1      33.002  26.846  22.335  1.00  0.00     0.202 C 
BRANCH   3   4
ATOM      4  C   UNL A   1      33.770  25.886  23.247  1.00  0.00     0.261 C 
BRANCH   4   5
ATOM      5  O   UNL A   1      32.934  24.732  23.452  1.00  0.00    -0.461 OA
BRANCH   5   6
ATOM      6  C   UNL A   1      33.498  23.507  23.479  1.00  0.00     0.331 C 
ATOM      7  O   UNL A   1      34.427  23.201  22.741  1.00  0.00    -0.249 OA
BRANCH   6   8
ATOM      8  C   UNL A   1      32.728  22.500  24.420  1.00  0.00     0.139 C 
BRANCH   8   9
ATOM      9  C   UNL A   1      32.809  21.084  23.731  1.00  0.00     0.037 C 
ATOM     10  C   UNL A   1      32.027  20.809  22.459  1.00  0.00     0.007 C 
ENDBRANCH   8   9
BRANCH   8  11
ATOM     11  C   UNL A   1      31.286  23.049  24.481  1.00  0.00     0.037 C 
ATOM     12  C   UNL A   1      30.803  23.515  25.845  1.00  0.00     0.007 C 
ENDBRANCH   8  11
BRANCH   8  13
ATOM     13  N   UNL A   1      33.253  22.166  25.816  1.00  0.00    -0.322 N 
ATOM     14  C   UNL A   1      34.254  21.857  26.617  1.00  0.00     0.315 C 
ATOM     15  H   UNL A   1      32.461  22.197  26.399  1.00  0.00     0.166 HD
ATOM     16  O   UNL A   1      33.979  21.868  27.823  1.00  0.00    -0.249 OA
ATOM     17  N   UNL A   1      35.491  21.525  26.300  1.00  0.00    -0.335 N 
ATOM     18  H   UNL A   1      36.014  21.212  27.073  1.00  0.00     0.165 HD
BRANCH  17  19
ATOM     19  C   UNL A   1      36.239  21.517  25.077  1.00  0.00     0.083 C 
ATOM     20  C   UNL A   1      37.021  20.212  24.946  1.00  0.00     0.031 C 
BRANCH  19  21
ATOM     21  C   UNL A   1      37.032  22.787  25.013  1.00  0.00     0.011 C 
ATOM     22  C   UNL A   1      37.111  23.836  26.088  1.00  0.00     0.006 C 
ATOM     23  C   UNL A   1      38.281  22.918  25.843  1.00  0.00     0.006 C 
ENDBRANCH  19  21
ENDBRANCH  17  19
ENDBRANCH   8  13
ENDBRANCH   6   8
ENDBRANCH   5   6
ENDBRANCH   4   5
ENDBRANCH   3   4
ENDBRANCH   2   3
ENDBRANCH   1   2
BRANCH   1  24
ATOM     24  C   UNL A   1      31.363  28.508  24.524  1.00  0.00     0.188 C 
BRANCH  24  25
ATOM     25  O   UNL A   1      31.521  29.634  25.388  1.00  0.00    -0.376 OA
BRANCH  25  26
ATOM     26  C   UNL A   1      32.857  29.765  25.876  1.00  0.00     0.202 C 
BRANCH  26  27
ATOM     27  C   UNL A   1      33.001  30.444  27.252  1.00  0.00     0.261 C 
BRANCH  27  28
ATOM     28  O   UNL A   1      34.005  31.480  27.247  1.00  0.00    -0.460 OA
BRANCH  28  29
ATOM     29  C   UNL A   1      34.594  31.728  28.449  1.00  0.00     0.338 C 
ATOM     30  O   UNL A   1      34.120  32.403  29.351  1.00  0.00    -0.246 OA
BRANCH  29  31
ATOM     31  C   UNL A   1      35.811  30.881  28.618  1.00  0.00     0.060 A 
ATOM     32  C   UNL A   1      35.865  30.039  29.741  1.00  0.00     0.016 A 
ATOM     33  C   UNL A   1      36.852  30.850  27.684  1.00  0.00     0.016 A 
ATOM     34  C   UNL A   1      36.981  29.228  29.969  1.00  0.00     0.010 A 
ATOM     35  C   UNL A   1      37.975  30.040  27.917  1.00  0.00     0.010 A 
ATOM     36  C   UNL A   1      38.067  29.261  29.086  1.00  0.00    -0.014 A 
BRANCH  36  37
ATOM     37  C   UNL A   1      39.371  28.687  29.523  1.00  0.00     0.031 A 
ATOM     38  C   UNL A   1      40.037  29.298  30.733  1.00  0.00     0.074 A 
ATOM     39  C   UNL A   1      39.927  27.619  28.922  1.00  0.00     0.049 A 
ATOM     40  N   UNL A   1      41.154  28.969  31.328  1.00  0.00    -0.248 NA
ATOM     41  C   UNL A   1      39.340  30.436  31.350  1.00  0.00     0.031 C 
ATOM     42  C   UNL A   1      39.376  26.913  27.767  1.00  0.00     0.029 A 
ATOM     43  N   UNL A   1      41.088  26.938  29.206  1.00  0.00    -0.354 N 
ATOM     44  C   UNL A   1      41.284  29.847  32.400  1.00  0.00     0.074 A 
ATOM     45  C   UNL A   1      40.165  30.761  32.332  1.00  0.00     0.031 C 
ATOM     46  C   UNL A   1      40.204  25.905  27.435  1.00  0.00     0.029 A 
ATOM     47  C   UNL A   1      41.355  25.904  28.337  1.00  0.00     0.049 A 
ATOM     48  H   UNL A   1      41.674  27.170  29.962  1.00  0.00     0.167 HD
ATOM     49  C   UNL A   1      42.233  29.880  33.368  1.00  0.00     0.034 A 
ATOM     50  C   UNL A   1      42.413  25.067  28.271  1.00  0.00     0.034 A 
ATOM     51  C   UNL A   1      43.364  28.987  33.416  1.00  0.00     0.049 A 
ATOM     52  C   UNL A   1      43.509  25.178  29.310  1.00  0.00     0.074 A 
ATOM     53  C   UNL A   1      44.394  28.947  34.341  1.00  0.00     0.029 A 
ATOM     54  N   UNL A   1      43.621  27.979  32.495  1.00  0.00    -0.354 N 
ATOM     55  N   UNL A   1      43.611  26.007  30.325  1.00  0.00    -0.248 NA
ATOM     56  C   UNL A   1      44.622  24.224  29.203  1.00  0.00     0.031 C 
ATOM     57  C   UNL A   1      45.306  27.964  33.941  1.00  0.00     0.029 A 
ATOM     58  C   UNL A   1      44.805  27.331  32.815  1.00  0.00     0.049 A 
ATOM     59  H   UNL A   1      43.047  27.757  31.727  1.00  0.00     0.167 HD
ATOM     60  C   UNL A   1      44.785  25.652  30.990  1.00  0.00     0.074 A 
ATOM     61  C   UNL A   1      45.337  24.519  30.279  1.00  0.00     0.031 C 
ATOM     62  C   UNL A   1      45.357  26.211  32.088  1.00  0.00     0.034 A 
BRANCH  49  63
ATOM     63  C   UNL A   1      42.099  30.949  34.425  1.00  0.00     0.023 A 
ATOM     64  C   UNL A   1      42.677  32.221  34.264  1.00  0.00     0.031 A 
ATOM     65  C   UNL A   1      41.418  30.683  35.626  1.00  0.00     0.131 A 
ATOM     66  C   UNL A   1      42.624  33.153  35.310  1.00  0.00     0.055 A 
ATOM     67  C   UNL A   1      41.298  31.645  36.632  1.00  0.00     0.041 A 
ATOM     68  F   UNL A   1      40.868  29.480  35.849  1.00  0.00    -0.206 F 
ATOM     69  C   UNL A   1      41.915  32.884  36.483  1.00  0.00     0.022 A 
BRANCH  66  70
ATOM     70  S   UNL A   1      43.609  34.671  35.174  1.00  0.00     0.124 S 
ATOM     71  O   UNL A   1      44.855  34.271  35.824  1.00  0.00    -0.237 OA
ATOM     72  O   UNL A   1      43.676  34.875  33.732  1.00  0.00    -0.237 OA
ATOM     73  O   UNL A   1      42.821  35.658  35.909  1.00  0.00    -0.744 OA
ENDBRANCH  66  70
ENDBRANCH  49  63
BRANCH  50  74
ATOM     74  C   UNL A   1      42.531  24.071  27.162  1.00  0.00     0.023 A 
ATOM     75  C   UNL A   1      41.986  22.780  27.268  1.00  0.00     0.031 A 
ATOM     76  C   UNL A   1      43.276  24.374  26.008  1.00  0.00     0.131 A 
ATOM     77  C   UNL A   1      42.242  21.825  26.270  1.00  0.00     0.055 A 
ATOM     78  C   UNL A   1      43.477  23.440  24.990  1.00  0.00     0.041 A 
ATOM     79  F   UNL A   1      43.826  25.589  25.855  1.00  0.00    -0.206 F 
ATOM     80  C   UNL A   1      42.972  22.152  25.125  1.00  0.00     0.022 A 
BRANCH  77  81
ATOM     81  S   UNL A   1      41.695  20.116  26.536  1.00  0.00     0.124 S 
ATOM     82  O   UNL A   1      42.356  19.784  27.792  1.00  0.00    -0.237 OA
ATOM     83  O   UNL A   1      40.245  20.267  26.595  1.00  0.00    -0.237 OA
ATOM     84  O   UNL A   1      42.198  19.410  25.359  1.00  0.00    -0.744 OA
ENDBRANCH  77  81
ENDBRANCH  50  74
BRANCH  62  85
ATOM     85  C   UNL A   1      46.627  25.572  32.604  1.00  0.00     0.023 A 
ATOM     86  C   UNL A   1      46.606  24.590  33.611  1.00  0.00     0.031 A 
ATOM     87  C   UNL A   1      47.880  25.974  32.105  1.00  0.00     0.131 A 
ATOM     88  C   UNL A   1      47.812  24.104  34.142  1.00  0.00     0.055 A 
ATOM     89  C   UNL A   1      49.074  25.435  32.588  1.00  0.00     0.041 A 
ATOM     90  F   UNL A   1      47.966  26.908  31.144  1.00  0.00    -0.206 F 
ATOM     91  C   UNL A   1      49.045  24.508  33.625  1.00  0.00     0.022 A 
BRANCH  88  92
ATOM     92  S   UNL A   1      47.749  23.035  35.606  1.00  0.00     0.124 S 
ATOM     93  O   UNL A   1      46.533  23.497  36.268  1.00  0.00    -0.237 OA
ATOM     94  O   UNL A   1      47.685  21.701  35.015  1.00  0.00    -0.237 OA
ATOM     95  O   UNL A   1      48.993  23.341  36.309  1.00  0.00    -0.744 OA
ENDBRANCH  88  92
ENDBRANCH  62  85
ENDBRANCH  36  37
ENDBRANCH  29  31
ENDBRANCH  28  29
ENDBRANCH  27  28
ENDBRANCH  26  27
ENDBRANCH  25  26
ENDBRANCH  24  25
ENDBRANCH   1  24
TORSDOF 25
ENDMDL
MODEL 2
REMARK VINA RESULT:      -8.9      1.760      2.437
REMARK SMILES CCC(CC)(NC(=O)N[C@H](C)C1CC1)C(=O)OCCOCCOCCOC(=O)c1ccc(-c2c3nc(c(-c4cc(S(=O)(=O)[O-])ccc4F)c4ccc([nH]4)c(-c4cc(S(=O)(=O)[O-])ccc4F)c4nc(c(-c5cc(S(=O)(=O)[O-])ccc5F)c5ccc2[nH]5)C=C4)C=C3)cc1
REMARK SMILES IDX 21 1 20 2 19 3 18 4 17 5 15 6 16 7 3 8 2 9 1 10 4 11 5 12
REMARK SMILES IDX 6 13 7 14 8 16 9 17 10 19 11 20 12 21 13 22 14 23 22 24
REMARK SMILES IDX 23 25 24 26 25 27 26 28 27 29 28 30 29 31 30 32 91 33 31 34
REMARK SMILES IDX 90 35 32 36 33 37 34 38 84 39 35 40 89 41 83 42 85 43 36 44
REMARK SMILES IDX 88 45 82 46 81 47 37 49 69 50 49 51 68 52 50 53 53 54 67 55
REMARK SMILES IDX 86 56 51 57 52 58 66 60 87 61 54 62 38 63 39 64 47 65 40 66
REMARK SMILES IDX 46 67 48 68 45 69 41 70 42 71 43 72 44 73 70 74 71 75 79 76
REMARK SMILES IDX 72 77 78 78 80 79 77 80 73 81 74 82 75 83 76 84 55 85 56 86
REMARK SMILES IDX 64 87 57 88 63 89 65 90 62 91 58 92 59 93 60 94 61 95
REMARK H PARENT 6 15 9 18 85 48 53 59
REMARK Flexibility Score: inf
ROOT
ATOM      1  C   UNL A   1      31.017  28.869  22.844  1.00  0.00     0.188 C 
ENDROOT
BRANCH   1   2
ATOM      2  O   UNL A   1      30.788  27.720  22.030  1.00  0.00    -0.376 OA
BRANCH   2   3
ATOM      3  C   UNL A   1      30.329  26.578  22.758  1.00  0.00     0.202 C 
BRANCH   3   4
ATOM      4  C   UNL A   1      29.776  26.967  24.132  1.00  0.00     0.261 C 
BRANCH   4   5
ATOM      5  O   UNL A   1      30.740  26.546  25.115  1.00  0.00    -0.461 OA
BRANCH   5   6
ATOM      6  C   UNL A   1      30.658  25.300  25.626  1.00  0.00     0.331 C 
ATOM      7  O   UNL A   1      29.751  24.962  26.377  1.00  0.00    -0.249 OA
BRANCH   6   8
ATOM      8  C   UNL A   1      31.921  24.417  25.289  1.00  0.00     0.139 C 
BRANCH   8   9
ATOM      9  C   UNL A   1      31.379  23.026  24.780  1.00  0.00     0.037 C 
ATOM     10  C   UNL A   1      31.468  22.666  23.308  1.00  0.00     0.007 C 
ENDBRANCH   8   9
BRANCH   8  11
ATOM     11  C   UNL A   1      32.686  24.303  26.626  1.00  0.00     0.037 C 
ATOM     12  C   UNL A   1      32.795  22.908  27.220  1.00  0.00     0.007 C 
ENDBRANCH   8  11
BRANCH   8  13
ATOM     13  N   UNL A   1      32.863  24.789  24.144  1.00  0.00    -0.322 N 
ATOM     14  C   UNL A   1      34.008  24.630  23.508  1.00  0.00     0.315 C 
ATOM     15  H   UNL A   1      32.383  25.481  23.634  1.00  0.00     0.166 HD
ATOM     16  O   UNL A   1      34.087  25.217  22.422  1.00  0.00    -0.249 OA
ATOM     17  N   UNL A   1      35.073  23.949  23.886  1.00  0.00    -0.335 N 
ATOM     18  H   UNL A   1      35.848  24.092  23.297  1.00  0.00     0.165 HD
BRANCH  17  19
ATOM     19  C   UNL A   1      35.350  23.049  24.967  1.00  0.00     0.083 C 
ATOM     20  C   UNL A   1      36.455  23.615  25.854  1.00  0.00     0.031 C 
BRANCH  19  21
ATOM     21  C   UNL A   1      35.582  21.687  24.386  1.00  0.00     0.011 C 
ATOM     22  C   UNL A   1      36.436  20.604  24.986  1.00  0.00     0.006 C 
ATOM     23  C   UNL A   1      34.934  20.492  25.032  1.00  0.00     0.006 C 
ENDBRANCH  19  21
ENDBRANCH  17  19
ENDBRANCH   8  13
ENDBRANCH   6   8
ENDBRANCH   5   6
ENDBRANCH   4   5
ENDBRANCH   3   4
ENDBRANCH   2   3
ENDBRANCH   1   2
BRANCH   1  24
ATOM     24  C   UNL A   1      32.471  29.063  23.187  1.00  0.00     0.188 C 
BRANCH  24  25
ATOM     25  O   UNL A   1      33.077  27.909  23.770  1.00  0.00    -0.376 OA
BRANCH  25  26
ATOM     26  C   UNL A   1      33.988  28.242  24.818  1.00  0.00     0.202 C 
BRANCH  26  27
ATOM     27  C   UNL A   1      33.801  29.638  25.447  1.00  0.00     0.261 C 
BRANCH  27  28
ATOM     28  O   UNL A   1      33.730  29.582  26.887  1.00  0.00    -0.460 OA
BRANCH  28  29
ATOM     29  C   UNL A   1      34.218  30.673  27.538  1.00  0.00     0.338 C 
ATOM     30  O   UNL A   1      33.630  31.733  27.696  1.00  0.00    -0.246 OA
BRANCH  29  31
ATOM     31  C   UNL A   1      35.493  30.336  28.237  1.00  0.00     0.060 A 
ATOM     32  C   UNL A   1      36.692  30.771  27.648  1.00  0.00     0.016 A 
ATOM     33  C   UNL A   1      35.533  29.669  29.466  1.00  0.00     0.016 A 
ATOM     34  C   UNL A   1      37.923  30.479  28.242  1.00  0.00     0.010 A 
ATOM     35  C   UNL A   1      36.771  29.371  30.058  1.00  0.00     0.010 A 
ATOM     36  C   UNL A   1      37.974  29.731  29.424  1.00  0.00    -0.014 A 
BRANCH  36  37
ATOM     37  C   UNL A   1      39.270  29.125  29.840  1.00  0.00     0.031 A 
ATOM     38  C   UNL A   1      39.970  29.715  31.040  1.00  0.00     0.074 A 
ATOM     39  C   UNL A   1      39.791  28.045  29.227  1.00  0.00     0.049 A 
ATOM     40  N   UNL A   1      41.087  29.358  31.618  1.00  0.00    -0.248 NA
ATOM     41  C   UNL A   1      39.309  30.869  31.671  1.00  0.00     0.031 C 
ATOM     42  C   UNL A   1      39.206  27.355  28.079  1.00  0.00     0.029 A 
ATOM     43  N   UNL A   1      40.940  27.335  29.492  1.00  0.00    -0.354 N 
ATOM     44  C   UNL A   1      41.255  30.230  32.690  1.00  0.00     0.074 A 
ATOM     45  C   UNL A   1      40.157  31.171  32.641  1.00  0.00     0.031 C 
ATOM     46  C   UNL A   1      40.003  26.328  27.732  1.00  0.00     0.029 A 
ATOM     47  C   UNL A   1      41.168  26.297  28.617  1.00  0.00     0.049 A 
ATOM     48  H   UNL A   1      41.542  27.550  30.240  1.00  0.00     0.167 HD
ATOM     49  C   UNL A   1      42.218  30.237  33.643  1.00  0.00     0.034 A 
ATOM     50  C   UNL A   1      42.204  25.435  28.533  1.00  0.00     0.034 A 
ATOM     51  C   UNL A   1      43.328  29.316  33.672  1.00  0.00     0.049 A 
ATOM     52  C   UNL A   1      43.318  25.517  29.556  1.00  0.00     0.074 A 
ATOM     53  C   UNL A   1      44.370  29.249  34.581  1.00  0.00     0.029 A 
ATOM     54  N   UNL A   1      43.546  28.305  32.745  1.00  0.00    -0.354 N 
ATOM     55  N   UNL A   1      43.455  26.340  30.571  1.00  0.00    -0.248 NA
ATOM     56  C   UNL A   1      44.406  24.536  29.430  1.00  0.00     0.031 C 
ATOM     57  C   UNL A   1      45.252  28.245  34.165  1.00  0.00     0.029 A 
ATOM     58  C   UNL A   1      44.719  27.628  33.045  1.00  0.00     0.049 A 
ATOM     59  H   UNL A   1      42.955  28.100  31.985  1.00  0.00     0.167 HD
ATOM     60  C   UNL A   1      44.631  25.955  31.217  1.00  0.00     0.074 A 
ATOM     61  C   UNL A   1      45.144  24.810  30.495  1.00  0.00     0.031 C 
ATOM     62  C   UNL A   1      45.233  26.497  32.307  1.00  0.00     0.034 A 
BRANCH  49  63
ATOM     63  C   UNL A   1      42.126  31.306  34.705  1.00  0.00     0.023 A 
ATOM     64  C   UNL A   1      42.836  32.516  34.596  1.00  0.00     0.031 A 
ATOM     65  C   UNL A   1      41.350  31.101  35.859  1.00  0.00     0.131 A 
ATOM     66  C   UNL A   1      42.811  33.441  35.650  1.00  0.00     0.055 A 
ATOM     67  C   UNL A   1      41.265  32.062  36.869  1.00  0.00     0.041 A 
ATOM     68  F   UNL A   1      40.671  29.956  36.032  1.00  0.00    -0.206 F 
ATOM     69  C   UNL A   1      42.010  33.234  36.774  1.00  0.00     0.022 A 
BRANCH  66  70
ATOM     70  S   UNL A   1      43.949  34.853  35.594  1.00  0.00     0.124 S 
ATOM     71  O   UNL A   1      44.036  35.216  37.006  1.00  0.00    -0.237 OA
ATOM     72  O   UNL A   1      45.149  34.269  35.008  1.00  0.00    -0.237 OA
ATOM     73  O   UNL A   1      43.250  35.822  34.751  1.00  0.00    -0.744 OA
ENDBRANCH  66  70
ENDBRANCH  49  63
BRANCH  50  74
ATOM     74  C   UNL A   1      42.281  24.439  27.419  1.00  0.00     0.023 A 
ATOM     75  C   UNL A   1      41.569  23.229  27.462  1.00  0.00     0.031 A 
ATOM     76  C   UNL A   1      43.147  24.651  26.332  1.00  0.00     0.131 A 
ATOM     77  C   UNL A   1      41.779  22.256  26.471  1.00  0.00     0.055 A 
ATOM     78  C   UNL A   1      43.307  23.706  25.318  1.00  0.00     0.041 A 
ATOM     79  F   UNL A   1      43.859  25.786  26.243  1.00  0.00    -0.206 F 
ATOM     80  C   UNL A   1      42.632  22.493  25.391  1.00  0.00     0.022 A 
BRANCH  77  81
ATOM     81  S   UNL A   1      40.998  20.629  26.665  1.00  0.00     0.124 S 
ATOM     82  O   UNL A   1      41.955  19.757  25.993  1.00  0.00    -0.237 OA
ATOM     83  O   UNL A   1      40.924  20.501  28.117  1.00  0.00    -0.237 OA
ATOM     84  O   UNL A   1      39.712  20.785  25.989  1.00  0.00    -0.744 OA
ENDBRANCH  77  81
ENDBRANCH  50  74
BRANCH  62  85
ATOM     85  C   UNL A   1      46.495  25.826  32.803  1.00  0.00     0.023 A 
ATOM     86  C   UNL A   1      47.754  26.114  32.246  1.00  0.00     0.031 A 
ATOM     87  C   UNL A   1      46.433  24.860  33.824  1.00  0.00     0.131 A 
ATOM     88  C   UNL A   1      48.884  25.388  32.655  1.00  0.00     0.055 A 
ATOM     89  C   UNL A   1      47.573  24.192  34.277  1.00  0.00     0.041 A 
ATOM     90  F   UNL A   1      45.260  24.542  34.395  1.00  0.00    -0.206 F 
ATOM     91  C   UNL A   1      48.804  24.441  33.678  1.00  0.00     0.022 A 
BRANCH  88  92
ATOM     92  S   UNL A   1      50.436  25.605  31.740  1.00  0.00     0.124 S 
ATOM     93  O   UNL A   1      50.104  26.700  30.834  1.00  0.00    -0.237 OA
ATOM     94  O   UNL A   1      51.382  25.924  32.806  1.00  0.00    -0.237 OA
ATOM     95  O   UNL A   1      50.641  24.309  31.098  1.00  0.00    -0.744 OA
ENDBRANCH  88  92
ENDBRANCH  62  85
ENDBRANCH  36  37
ENDBRANCH  29  31
ENDBRANCH  28  29
ENDBRANCH  27  28
ENDBRANCH  26  27
ENDBRANCH  25  26
ENDBRANCH  24  25
ENDBRANCH   1  24
TORSDOF 25
ENDMDL
MODEL 3
REMARK VINA RESULT:      -8.0      2.195      3.182
REMARK SMILES CCC(CC)(NC(=O)N[C@H](C)C1CC1)C(=O)OCCOCCOCCOC(=O)c1ccc(-c2c3nc(c(-c4cc(S(=O)(=O)[O-])ccc4F)c4ccc([nH]4)c(-c4cc(S(=O)(=O)[O-])ccc4F)c4nc(c(-c5cc(S(=O)(=O)[O-])ccc5F)c5ccc2[nH]5)C=C4)C=C3)cc1
REMARK SMILES IDX 21 1 20 2 19 3 18 4 17 5 15 6 16 7 3 8 2 9 1 10 4 11 5 12
REMARK SMILES IDX 6 13 7 14 8 16 9 17 10 19 11 20 12 21 13 22 14 23 22 24
REMARK SMILES IDX 23 25 24 26 25 27 26 28 27 29 28 30 29 31 30 32 91 33 31 34
REMARK SMILES IDX 90 35 32 36 33 37 34 38 84 39 35 40 89 41 83 42 85 43 36 44
REMARK SMILES IDX 88 45 82 46 81 47 37 49 69 50 49 51 68 52 50 53 53 54 67 55
REMARK SMILES IDX 86 56 51 57 52 58 66 60 87 61 54 62 38 63 39 64 47 65 40 66
REMARK SMILES IDX 46 67 48 68 45 69 41 70 42 71 43 72 44 73 70 74 71 75 79 76
REMARK SMILES IDX 72 77 78 78 80 79 77 80 73 81 74 82 75 83 76 84 55 85 56 86
REMARK SMILES IDX 64 87 57 88 63 89 65 90 62 91 58 92 59 93 60 94 61 95
REMARK H PARENT 6 15 9 18 85 48 53 59
REMARK Flexibility Score: inf
ROOT
ATOM      1  C   UNL A   1      29.964  28.412  23.884  1.00  0.00     0.188 C 
ENDROOT
BRANCH   1   2
ATOM      2  O   UNL A   1      30.034  27.410  22.872  1.00  0.00    -0.376 OA
BRANCH   2   3
ATOM      3  C   UNL A   1      30.477  26.136  23.349  1.00  0.00     0.202 C 
BRANCH   3   4
ATOM      4  C   UNL A   1      29.658  25.667  24.555  1.00  0.00     0.261 C 
BRANCH   4   5
ATOM      5  O   UNL A   1      30.581  25.446  25.638  1.00  0.00    -0.461 OA
BRANCH   5   6
ATOM      6  C   UNL A   1      31.287  24.297  25.676  1.00  0.00     0.331 C 
ATOM      7  O   UNL A   1      30.792  23.239  26.047  1.00  0.00    -0.249 OA
BRANCH   6   8
ATOM      8  C   UNL A   1      32.819  24.510  25.361  1.00  0.00     0.139 C 
BRANCH   8   9
ATOM      9  C   UNL A   1      33.618  23.556  26.329  1.00  0.00     0.037 C 
ATOM     10  C   UNL A   1      35.136  23.586  26.347  1.00  0.00     0.007 C 
ENDBRANCH   8   9
BRANCH   8  11
ATOM     11  C   UNL A   1      33.073  26.005  25.658  1.00  0.00     0.037 C 
ATOM     12  C   UNL A   1      33.986  26.736  24.686  1.00  0.00     0.007 C 
ENDBRANCH   8  11
BRANCH   8  13
ATOM     13  N   UNL A   1      33.412  24.106  24.012  1.00  0.00    -0.322 N 
ATOM     14  C   UNL A   1      33.747  23.169  23.145  1.00  0.00     0.315 C 
ATOM     15  H   UNL A   1      33.667  24.953  23.581  1.00  0.00     0.166 HD
ATOM     16  O   UNL A   1      34.096  23.588  22.035  1.00  0.00    -0.249 OA
ATOM     17  N   UNL A   1      33.774  21.861  23.315  1.00  0.00    -0.335 N 
ATOM     18  H   UNL A   1      34.185  21.385  22.558  1.00  0.00     0.165 HD
BRANCH  17  19
ATOM     19  C   UNL A   1      33.338  20.981  24.359  1.00  0.00     0.083 C 
ATOM     20  C   UNL A   1      34.541  20.326  25.033  1.00  0.00     0.031 C 
BRANCH  19  21
ATOM     21  C   UNL A   1      32.302  20.062  23.787  1.00  0.00     0.011 C 
ATOM     22  C   UNL A   1      32.524  19.050  22.697  1.00  0.00     0.006 C 
ATOM     23  C   UNL A   1      32.354  18.596  24.124  1.00  0.00     0.006 C 
ENDBRANCH  19  21
ENDBRANCH  17  19
ENDBRANCH   8  13
ENDBRANCH   6   8
ENDBRANCH   5   6
ENDBRANCH   4   5
ENDBRANCH   3   4
ENDBRANCH   2   3
ENDBRANCH   1   2
BRANCH   1  24
ATOM     24  C   UNL A   1      31.264  29.150  24.068  1.00  0.00     0.188 C 
BRANCH  24  25
ATOM     25  O   UNL A   1      31.133  30.355  24.824  1.00  0.00    -0.376 OA
BRANCH  25  26
ATOM     26  C   UNL A   1      31.787  30.278  26.091  1.00  0.00     0.202 C 
BRANCH  26  27
ATOM     27  C   UNL A   1      32.239  31.624  26.692  1.00  0.00     0.261 C 
BRANCH  27  28
ATOM     28  O   UNL A   1      33.215  31.453  27.740  1.00  0.00    -0.460 OA
BRANCH  28  29
ATOM     29  C   UNL A   1      33.959  32.555  28.030  1.00  0.00     0.338 C 
ATOM     30  O   UNL A   1      33.594  33.716  27.909  1.00  0.00    -0.246 OA
BRANCH  29  31
ATOM     31  C   UNL A   1      35.217  32.166  28.731  1.00  0.00     0.060 A 
ATOM     32  C   UNL A   1      36.429  32.648  28.209  1.00  0.00     0.016 A 
ATOM     33  C   UNL A   1      35.229  31.403  29.904  1.00  0.00     0.016 A 
ATOM     34  C   UNL A   1      37.646  32.312  28.808  1.00  0.00     0.010 A 
ATOM     35  C   UNL A   1      36.453  31.061  30.501  1.00  0.00     0.010 A 
ATOM     36  C   UNL A   1      37.671  31.472  29.928  1.00  0.00    -0.014 A 
BRANCH  36  37
ATOM     37  C   UNL A   1      38.958  30.836  30.326  1.00  0.00     0.031 A 
ATOM     38  C   UNL A   1      39.648  31.360  31.563  1.00  0.00     0.074 A 
ATOM     39  C   UNL A   1      39.479  29.786  29.665  1.00  0.00     0.049 A 
ATOM     40  N   UNL A   1      40.756  30.966  32.134  1.00  0.00    -0.248 NA
ATOM     41  C   UNL A   1      38.987  32.484  32.245  1.00  0.00     0.031 C 
ATOM     42  C   UNL A   1      38.902  29.160  28.477  1.00  0.00     0.029 A 
ATOM     43  N   UNL A   1      40.620  29.055  29.906  1.00  0.00    -0.354 N 
ATOM     44  C   UNL A   1      40.917  31.781  33.251  1.00  0.00     0.074 A 
ATOM     45  C   UNL A   1      39.826  32.731  33.238  1.00  0.00     0.031 C 
ATOM     46  C   UNL A   1      39.698  28.146  28.086  1.00  0.00     0.029 A 
ATOM     47  C   UNL A   1      40.852  28.062  28.981  1.00  0.00     0.049 A 
ATOM     48  H   UNL A   1      41.216  29.228  30.671  1.00  0.00     0.167 HD
ATOM     49  C   UNL A   1      41.870  31.733  34.213  1.00  0.00     0.034 A 
ATOM     50  C   UNL A   1      41.883  27.198  28.865  1.00  0.00     0.034 A 
ATOM     51  C   UNL A   1      42.974  30.804  34.208  1.00  0.00     0.049 A 
ATOM     52  C   UNL A   1      42.986  27.220  29.902  1.00  0.00     0.074 A 
ATOM     53  C   UNL A   1      44.005  30.683  35.123  1.00  0.00     0.029 A 
ATOM     54  N   UNL A   1      43.196  29.840  33.233  1.00  0.00    -0.354 N 
ATOM     55  N   UNL A   1      43.117  27.989  30.960  1.00  0.00    -0.248 NA
ATOM     56  C   UNL A   1      44.070  26.240  29.738  1.00  0.00     0.031 C 
ATOM     57  C   UNL A   1      44.885  29.696  34.666  1.00  0.00     0.029 A 
ATOM     58  C   UNL A   1      44.361  29.141  33.510  1.00  0.00     0.049 A 
ATOM     59  H   UNL A   1      42.612  29.678  32.456  1.00  0.00     0.167 HD
ATOM     60  C   UNL A   1      44.283  27.564  31.598  1.00  0.00     0.074 A 
ATOM     61  C   UNL A   1      44.797  26.454  30.824  1.00  0.00     0.031 C 
ATOM     62  C   UNL A   1      44.876  28.045  32.721  1.00  0.00     0.034 A 
BRANCH  49  63
ATOM     63  C   UNL A   1      41.773  32.746  35.328  1.00  0.00     0.023 A 
ATOM     64  C   UNL A   1      40.988  32.510  36.472  1.00  0.00     0.031 A 
ATOM     65  C   UNL A   1      42.441  33.979  35.232  1.00  0.00     0.131 A 
ATOM     66  C   UNL A   1      40.836  33.516  37.437  1.00  0.00     0.055 A 
ATOM     67  C   UNL A   1      42.350  34.946  36.236  1.00  0.00     0.041 A 
ATOM     68  F   UNL A   1      43.183  34.273  34.153  1.00  0.00    -0.206 F 
ATOM     69  C   UNL A   1      41.533  34.722  37.341  1.00  0.00     0.022 A 
BRANCH  66  70
ATOM     70  S   UNL A   1      39.607  33.281  38.751  1.00  0.00     0.124 S 
ATOM     71  O   UNL A   1      40.461  33.056  39.915  1.00  0.00    -0.237 OA
ATOM     72  O   UNL A   1      38.875  34.542  38.728  1.00  0.00    -0.237 OA
ATOM     73  O   UNL A   1      38.850  32.112  38.306  1.00  0.00    -0.744 OA
ENDBRANCH  66  70
ENDBRANCH  49  63
BRANCH  50  74
ATOM     74  C   UNL A   1      41.967  26.260  27.702  1.00  0.00     0.023 A 
ATOM     75  C   UNL A   1      41.424  24.966  27.759  1.00  0.00     0.031 A 
ATOM     76  C   UNL A   1      42.677  26.622  26.544  1.00  0.00     0.131 A 
ATOM     77  C   UNL A   1      41.648  24.064  26.706  1.00  0.00     0.055 A 
ATOM     78  C   UNL A   1      42.847  25.742  25.474  1.00  0.00     0.041 A 
ATOM     79  F   UNL A   1      43.225  27.844  26.437  1.00  0.00    -0.206 F 
ATOM     80  C   UNL A   1      42.344  24.448  25.558  1.00  0.00     0.022 A 
BRANCH  77  81
ATOM     81  S   UNL A   1      41.107  22.342  26.900  1.00  0.00     0.124 S 
ATOM     82  O   UNL A   1      39.824  22.353  26.207  1.00  0.00    -0.237 OA
ATOM     83  O   UNL A   1      42.185  21.610  26.244  1.00  0.00    -0.237 OA
ATOM     84  O   UNL A   1      41.033  22.170  28.350  1.00  0.00    -0.744 OA
ENDBRANCH  77  81
ENDBRANCH  50  74
BRANCH  62  85
ATOM     85  C   UNL A   1      46.128  27.341  33.195  1.00  0.00     0.023 A 
ATOM     86  C   UNL A   1      46.073  26.238  34.067  1.00  0.00     0.031 A 
ATOM     87  C   UNL A   1      47.397  27.800  32.797  1.00  0.00     0.131 A 
ATOM     88  C   UNL A   1      47.259  25.684  34.573  1.00  0.00     0.055 A 
ATOM     89  C   UNL A   1      48.574  27.199  33.247  1.00  0.00     0.041 A 
ATOM     90  F   UNL A   1      47.515  28.849  31.966  1.00  0.00    -0.206 F 
ATOM     91  C   UNL A   1      48.509  26.147  34.156  1.00  0.00     0.022 A 
BRANCH  88  92
ATOM     92  S   UNL A   1      47.146  24.436  35.885  1.00  0.00     0.124 S 
ATOM     93  O   UNL A   1      45.718  24.440  36.186  1.00  0.00    -0.237 OA
ATOM     94  O   UNL A   1      47.654  23.239  35.219  1.00  0.00    -0.237 OA
ATOM     95  O   UNL A   1      48.004  24.968  36.941  1.00  0.00    -0.744 OA
ENDBRANCH  88  92
ENDBRANCH  62  85
ENDBRANCH  36  37
ENDBRANCH  29  31
ENDBRANCH  28  29
ENDBRANCH  27  28
ENDBRANCH  26  27
ENDBRANCH  25  26
ENDBRANCH  24  25
ENDBRANCH   1  24
TORSDOF 25
ENDMDL
