MODEL 1
REMARK VINA RESULT:     -10.5      0.000      0.000
REMARK SMILES C[C@H]1[NH2+]CC[C@H]1C(=O)N1CC(C(=O)OCCOCCOCCOC(=O)c2ccc(-c3c4nc(c(-c5cc(S(=O)(=O)[O-])ccc5F)c5ccc([nH]5)c(-c5cc(S(=O)(=O)[O-])ccc5F)c5nc(c(-c6cc(S(=O)(=O)[O-])ccc6F)c6ccc3[nH]6)C=C5)C=C4)cc2)C1
REMARK SMILES IDX 19 1 18 2 17 3 16 4 15 5 14 6 12 7 13 8 11 9 7 10 8 11 9 12
REMARK SMILES IDX 10 13 89 14 6 15 1 16 2 17 3 18 4 19 5 22 20 23 21 24 22 25
REMARK SMILES IDX 23 26 24 27 25 28 26 29 27 30 88 31 28 32 87 33 29 34 30 35
REMARK SMILES IDX 31 36 81 37 32 38 86 39 80 40 82 41 33 42 85 43 79 44 78 45
REMARK SMILES IDX 34 47 66 48 46 49 65 50 47 51 50 52 64 53 83 54 48 55 49 56
REMARK SMILES IDX 63 58 84 59 51 60 35 61 36 62 44 63 37 64 43 65 45 66 42 67
REMARK SMILES IDX 38 68 39 69 40 70 41 71 67 72 68 73 76 74 69 75 75 76 77 77
REMARK SMILES IDX 74 78 70 79 71 80 72 81 73 82 52 83 53 84 61 85 54 86 60 87
REMARK SMILES IDX 62 88 59 89 55 90 56 91 57 92 58 93
REMARK H PARENT 3 20 3 21 82 46 50 57
REMARK Flexibility Score: inf
ROOT
ATOM      1  C   UNL A   1      33.445  20.118  24.941  1.00  0.00     0.188 C 
ENDROOT
BRANCH   1   2
ATOM      2  C   UNL A   1      33.029  21.487  24.369  1.00  0.00     0.188 C 
BRANCH   2   3
ATOM      3  O   UNL A   1      32.458  22.459  25.237  1.00  0.00    -0.376 OA
BRANCH   3   4
ATOM      4  C   UNL A   1      33.264  23.046  26.250  1.00  0.00     0.202 C 
BRANCH   4   5
ATOM      5  C   UNL A   1      34.362  24.054  25.863  1.00  0.00     0.261 C 
BRANCH   5   6
ATOM      6  O   UNL A   1      33.924  25.425  25.816  1.00  0.00    -0.463 OA
BRANCH   6   7
ATOM      7  C   UNL A   1      33.566  25.927  24.594  1.00  0.00     0.312 C 
ATOM      8  O   UNL A   1      33.750  25.315  23.542  1.00  0.00    -0.252 OA
BRANCH   7   9
ATOM      9  C   UNL A   1      32.871  27.301  24.675  1.00  0.00     0.138 C 
ATOM     10  C   UNL A   1      30.638  29.537  24.050  1.00  0.00     0.231 C 
ATOM     11  O   UNL A   1      30.855  30.222  25.046  1.00  0.00    -0.274 OA
ATOM     12  N   UNL A   1      31.182  28.277  23.883  1.00  0.00    -0.340 N 
ATOM     13  C   UNL A   1      31.375  27.304  24.970  1.00  0.00     0.136 C 
ATOM     14  C   UNL A   1      32.555  28.092  23.413  1.00  0.00     0.136 C 
BRANCH  10  15
ATOM     15  C   UNL A   1      29.724  30.012  22.926  1.00  0.00     0.142 C 
ATOM     16  C   UNL A   1      27.917  28.169  23.354  1.00  0.00     0.076 C 
ATOM     17  C   UNL A   1      28.674  29.050  22.367  1.00  0.00     0.192 C 
ATOM     18  N   UNL A   1      27.716  29.933  21.665  1.00  0.00    -0.343 N 
ATOM     19  C   UNL A   1      27.836  31.288  22.200  1.00  0.00     0.261 C 
ATOM     20  H   UNL A   1      26.766  29.591  21.811  1.00  0.00     0.346 HD
ATOM     21  H   UNL A   1      27.919  29.936  20.666  1.00  0.00     0.346 HD
ATOM     22  C   UNL A   1      28.928  31.265  23.250  1.00  0.00     0.081 C 
ENDBRANCH  10  15
ENDBRANCH   7   9
ENDBRANCH   6   7
ENDBRANCH   5   6
ENDBRANCH   4   5
ENDBRANCH   3   4
ENDBRANCH   2   3
ENDBRANCH   1   2
BRANCH   1  23
ATOM     23  O   UNL A   1      34.820  19.837  24.873  1.00  0.00    -0.376 OA
BRANCH  23  24
ATOM     24  C   UNL A   1      35.725  20.906  24.664  1.00  0.00     0.202 C 
BRANCH  24  25
ATOM     25  C   UNL A   1      36.823  21.300  25.674  1.00  0.00     0.261 C 
BRANCH  25  26
ATOM     26  O   UNL A   1      38.140  21.571  25.180  1.00  0.00    -0.460 OA
BRANCH  26  27
ATOM     27  C   UNL A   1      39.180  21.230  25.977  1.00  0.00     0.338 C 
ATOM     28  O   UNL A   1      39.694  20.124  26.070  1.00  0.00    -0.246 OA
BRANCH  27  29
ATOM     29  C   UNL A   1      39.730  22.473  26.558  1.00  0.00     0.060 A 
ATOM     30  C   UNL A   1      39.278  23.718  26.090  1.00  0.00     0.016 A 
ATOM     31  C   UNL A   1      40.684  22.405  27.572  1.00  0.00     0.016 A 
ATOM     32  C   UNL A   1      39.791  24.900  26.633  1.00  0.00     0.010 A 
ATOM     33  C   UNL A   1      41.217  23.588  28.092  1.00  0.00     0.010 A 
ATOM     34  C   UNL A   1      40.792  24.841  27.611  1.00  0.00    -0.014 A 
BRANCH  34  35
ATOM     35  C   UNL A   1      41.565  26.051  27.990  1.00  0.00     0.031 A 
ATOM     36  C   UNL A   1      40.840  27.136  28.740  1.00  0.00     0.074 A 
ATOM     37  C   UNL A   1      42.859  26.208  27.656  1.00  0.00     0.049 A 
ATOM     38  N   UNL A   1      41.216  28.358  29.009  1.00  0.00    -0.248 NA
ATOM     39  C   UNL A   1      39.501  26.789  29.242  1.00  0.00     0.031 C 
ATOM     40  C   UNL A   1      43.694  25.204  27.002  1.00  0.00     0.029 A 
ATOM     41  N   UNL A   1      43.691  27.291  27.807  1.00  0.00    -0.354 N 
ATOM     42  C   UNL A   1      40.159  28.930  29.707  1.00  0.00     0.074 A 
ATOM     43  C   UNL A   1      39.111  27.934  29.781  1.00  0.00     0.031 C 
ATOM     44  C   UNL A   1      44.915  25.726  26.786  1.00  0.00     0.029 A 
ATOM     45  C   UNL A   1      44.932  27.120  27.233  1.00  0.00     0.049 A 
ATOM     46  H   UNL A   1      43.427  28.113  28.281  1.00  0.00     0.167 HD
ATOM     47  C   UNL A   1      40.071  30.171  30.245  1.00  0.00     0.034 A 
ATOM     48  C   UNL A   1      45.939  27.999  27.054  1.00  0.00     0.034 A 
ATOM     49  C   UNL A   1      41.113  31.161  30.146  1.00  0.00     0.049 A 
ATOM     50  C   UNL A   1      45.766  29.426  27.538  1.00  0.00     0.074 A 
ATOM     51  C   UNL A   1      41.118  32.460  30.624  1.00  0.00     0.029 A 
ATOM     52  N   UNL A   1      42.337  30.964  29.520  1.00  0.00    -0.354 N 
ATOM     53  N   UNL A   1      44.746  29.971  28.165  1.00  0.00    -0.248 NA
ATOM     54  C   UNL A   1      46.878  30.356  27.292  1.00  0.00     0.031 C 
ATOM     55  C   UNL A   1      42.313  33.067  30.229  1.00  0.00     0.029 A 
ATOM     56  C   UNL A   1      43.094  32.122  29.585  1.00  0.00     0.049 A 
ATOM     57  H   UNL A   1      42.625  30.124  29.095  1.00  0.00     0.167 HD
ATOM     58  C   UNL A   1      45.125  31.286  28.435  1.00  0.00     0.074 A 
ATOM     59  C   UNL A   1      46.460  31.453  27.905  1.00  0.00     0.031 C 
ATOM     60  C   UNL A   1      44.436  32.266  29.072  1.00  0.00     0.034 A 
BRANCH  47  61
ATOM     61  C   UNL A   1      38.788  30.532  30.951  1.00  0.00     0.023 A 
ATOM     62  C   UNL A   1      37.705  31.100  30.260  1.00  0.00     0.031 A 
ATOM     63  C   UNL A   1      38.652  30.325  32.335  1.00  0.00     0.131 A 
ATOM     64  C   UNL A   1      36.561  31.502  30.964  1.00  0.00     0.055 A 
ATOM     65  C   UNL A   1      37.477  30.648  33.015  1.00  0.00     0.041 A 
ATOM     66  F   UNL A   1      39.664  29.810  33.053  1.00  0.00    -0.206 F 
ATOM     67  C   UNL A   1      36.426  31.252  32.331  1.00  0.00     0.022 A 
BRANCH  64  68
ATOM     68  S   UNL A   1      35.309  32.480  30.090  1.00  0.00     0.124 S 
ATOM     69  O   UNL A   1      34.944  31.581  28.997  1.00  0.00    -0.237 OA
ATOM     70  O   UNL A   1      34.292  32.685  31.116  1.00  0.00    -0.237 OA
ATOM     71  O   UNL A   1      36.035  33.680  29.682  1.00  0.00    -0.744 OA
ENDBRANCH  64  68
ENDBRANCH  47  61
BRANCH  48  72
ATOM     72  C   UNL A   1      47.193  27.605  26.341  1.00  0.00     0.023 A 
ATOM     73  C   UNL A   1      47.389  27.941  24.991  1.00  0.00     0.031 A 
ATOM     74  C   UNL A   1      48.160  26.791  26.959  1.00  0.00     0.131 A 
ATOM     75  C   UNL A   1      48.476  27.403  24.284  1.00  0.00     0.055 A 
ATOM     76  C   UNL A   1      49.281  26.321  26.271  1.00  0.00     0.041 A 
ATOM     77  F   UNL A   1      48.021  26.425  28.243  1.00  0.00    -0.206 F 
ATOM     78  C   UNL A   1      49.433  26.609  24.918  1.00  0.00     0.022 A 
BRANCH  75  79
ATOM     79  S   UNL A   1      48.534  27.632  22.485  1.00  0.00     0.124 S 
ATOM     80  O   UNL A   1      48.720  26.262  22.021  1.00  0.00    -0.237 OA
ATOM     81  O   UNL A   1      47.233  28.232  22.214  1.00  0.00    -0.237 OA
ATOM     82  O   UNL A   1      49.681  28.518  22.292  1.00  0.00    -0.744 OA
ENDBRANCH  75  79
ENDBRANCH  48  72
BRANCH  60  83
ATOM     83  C   UNL A   1      45.146  33.577  29.323  1.00  0.00     0.023 A 
ATOM     84  C   UNL A   1      45.182  34.608  28.369  1.00  0.00     0.031 A 
ATOM     85  C   UNL A   1      45.778  33.799  30.561  1.00  0.00     0.131 A 
ATOM     86  C   UNL A   1      45.872  35.797  28.653  1.00  0.00     0.055 A 
ATOM     87  C   UNL A   1      46.410  35.006  30.860  1.00  0.00     0.041 A 
ATOM     88  F   UNL A   1      45.778  32.848  31.509  1.00  0.00    -0.206 F 
ATOM     89  C   UNL A   1      46.469  36.010  29.900  1.00  0.00     0.022 A 
BRANCH  86  90
ATOM     90  S   UNL A   1      46.049  37.041  27.343  1.00  0.00     0.124 S 
ATOM     91  O   UNL A   1      46.121  36.212  26.145  1.00  0.00    -0.237 OA
ATOM     92  O   UNL A   1      44.833  37.833  27.499  1.00  0.00    -0.237 OA
ATOM     93  O   UNL A   1      47.287  37.735  27.693  1.00  0.00    -0.744 OA
ENDBRANCH  86  90
ENDBRANCH  60  83
ENDBRANCH  34  35
ENDBRANCH  27  29
ENDBRANCH  26  27
ENDBRANCH  25  26
ENDBRANCH  24  25
ENDBRANCH  23  24
ENDBRANCH   1  23
TORSDOF 21
ENDMDL
MODEL 2
REMARK VINA RESULT:      -9.8      6.157     10.173
REMARK SMILES C[C@H]1[NH2+]CC[C@H]1C(=O)N1CC(C(=O)OCCOCCOCCOC(=O)c2ccc(-c3c4nc(c(-c5cc(S(=O)(=O)[O-])ccc5F)c5ccc([nH]5)c(-c5cc(S(=O)(=O)[O-])ccc5F)c5nc(c(-c6cc(S(=O)(=O)[O-])ccc6F)c6ccc3[nH]6)C=C5)C=C4)cc2)C1
REMARK SMILES IDX 19 1 18 2 17 3 16 4 15 5 14 6 12 7 13 8 11 9 7 10 8 11 9 12
REMARK SMILES IDX 10 13 89 14 6 15 1 16 2 17 3 18 4 19 5 22 20 23 21 24 22 25
REMARK SMILES IDX 23 26 24 27 25 28 26 29 27 30 88 31 28 32 87 33 29 34 30 35
REMARK SMILES IDX 31 36 81 37 32 38 86 39 80 40 82 41 33 42 85 43 79 44 78 45
REMARK SMILES IDX 34 47 66 48 46 49 65 50 47 51 50 52 64 53 83 54 48 55 49 56
REMARK SMILES IDX 63 58 84 59 51 60 35 61 36 62 44 63 37 64 43 65 45 66 42 67
REMARK SMILES IDX 38 68 39 69 40 70 41 71 67 72 68 73 76 74 69 75 75 76 77 77
REMARK SMILES IDX 74 78 70 79 71 80 72 81 73 82 52 83 53 84 61 85 54 86 60 87
REMARK SMILES IDX 62 88 59 89 55 90 56 91 57 92 58 93
REMARK H PARENT 3 20 3 21 82 46 50 57
REMARK Flexibility Score: inf
ROOT
ATOM      1  C   UNL A   1      34.484  33.028  28.825  1.00  0.00     0.188 C 
ENDROOT
BRANCH   1   2
ATOM      2  C   UNL A   1      34.350  31.728  28.010  1.00  0.00     0.188 C 
BRANCH   2   3
ATOM      3  O   UNL A   1      33.053  31.233  27.698  1.00  0.00    -0.376 OA
BRANCH   3   4
ATOM      4  C   UNL A   1      32.913  30.219  26.710  1.00  0.00     0.202 C 
BRANCH   4   5
ATOM      5  C   UNL A   1      31.842  29.127  26.885  1.00  0.00     0.261 C 
BRANCH   5   6
ATOM      6  O   UNL A   1      32.204  27.844  26.339  1.00  0.00    -0.463 OA
BRANCH   6   7
ATOM      7  C   UNL A   1      31.891  27.612  25.027  1.00  0.00     0.312 C 
ATOM      8  O   UNL A   1      30.953  28.168  24.456  1.00  0.00    -0.252 OA
BRANCH   7   9
ATOM      9  C   UNL A   1      32.854  26.629  24.331  1.00  0.00     0.138 C 
ATOM     10  C   UNL A   1      34.552  23.920  23.933  1.00  0.00     0.231 C 
ATOM     11  O   UNL A   1      34.686  24.027  22.716  1.00  0.00    -0.274 OA
ATOM     12  N   UNL A   1      33.693  24.726  24.658  1.00  0.00    -0.340 N 
ATOM     13  C   UNL A   1      32.381  25.188  24.176  1.00  0.00     0.136 C 
ATOM     14  C   UNL A   1      34.071  26.079  25.063  1.00  0.00     0.136 C 
BRANCH  10  15
ATOM     15  C   UNL A   1      35.302  22.867  24.740  1.00  0.00     0.142 C 
ATOM     16  C   UNL A   1      33.495  21.011  24.364  1.00  0.00     0.076 C 
ATOM     17  C   UNL A   1      34.535  21.656  25.273  1.00  0.00     0.192 C 
ATOM     18  N   UNL A   1      35.593  20.668  25.584  1.00  0.00    -0.343 N 
ATOM     19  C   UNL A   1      36.792  20.997  24.814  1.00  0.00     0.261 C 
ATOM     20  H   UNL A   1      35.272  19.733  25.332  1.00  0.00     0.346 HD
ATOM     21  H   UNL A   1      35.805  20.692  26.581  1.00  0.00     0.346 HD
ATOM     22  C   UNL A   1      36.490  22.251  24.018  1.00  0.00     0.081 C 
ENDBRANCH  10  15
ENDBRANCH   7   9
ENDBRANCH   6   7
ENDBRANCH   5   6
ENDBRANCH   4   5
ENDBRANCH   3   4
ENDBRANCH   2   3
ENDBRANCH   1   2
BRANCH   1  23
ATOM     23  O   UNL A   1      33.378  33.893  28.751  1.00  0.00    -0.376 OA
BRANCH  23  24
ATOM     24  C   UNL A   1      33.600  35.290  28.815  1.00  0.00     0.202 C 
BRANCH  24  25
ATOM     25  C   UNL A   1      32.846  36.228  29.780  1.00  0.00     0.261 C 
BRANCH  25  26
ATOM     26  O   UNL A   1      32.271  35.669  30.967  1.00  0.00    -0.460 OA
BRANCH  26  27
ATOM     27  C   UNL A   1      32.858  35.986  32.145  1.00  0.00     0.338 C 
ATOM     28  O   UNL A   1      32.438  36.775  32.980  1.00  0.00    -0.246 OA
BRANCH  27  29
ATOM     29  C   UNL A   1      33.987  35.054  32.351  1.00  0.00     0.060 A 
ATOM     30  C   UNL A   1      33.732  33.726  32.729  1.00  0.00     0.016 A 
ATOM     31  C   UNL A   1      35.296  35.492  32.158  1.00  0.00     0.016 A 
ATOM     32  C   UNL A   1      34.792  32.835  32.926  1.00  0.00     0.010 A 
ATOM     33  C   UNL A   1      36.355  34.609  32.385  1.00  0.00     0.010 A 
ATOM     34  C   UNL A   1      36.112  33.283  32.791  1.00  0.00    -0.014 A 
BRANCH  34  35
ATOM     35  C   UNL A   1      37.252  32.465  33.277  1.00  0.00     0.031 A 
ATOM     36  C   UNL A   1      37.872  32.843  34.594  1.00  0.00     0.074 A 
ATOM     37  C   UNL A   1      37.750  31.437  32.565  1.00  0.00     0.049 A 
ATOM     38  N   UNL A   1      38.985  32.431  35.141  1.00  0.00    -0.248 NA
ATOM     39  C   UNL A   1      37.134  33.834  35.394  1.00  0.00     0.031 C 
ATOM     40  C   UNL A   1      37.193  30.922  31.317  1.00  0.00     0.029 A 
ATOM     41  N   UNL A   1      38.859  30.657  32.786  1.00  0.00    -0.354 N 
ATOM     42  C   UNL A   1      39.086  33.115  36.347  1.00  0.00     0.074 A 
ATOM     43  C   UNL A   1      37.943  34.000  36.429  1.00  0.00     0.031 C 
ATOM     44  C   UNL A   1      37.977  29.923  30.870  1.00  0.00     0.029 A 
ATOM     45  C   UNL A   1      39.123  29.768  31.767  1.00  0.00     0.049 A 
ATOM     46  H   UNL A   1      39.414  30.725  33.597  1.00  0.00     0.167 HD
ATOM     47  C   UNL A   1      40.041  33.011  37.304  1.00  0.00     0.034 A 
ATOM     48  C   UNL A   1      40.185  28.960  31.567  1.00  0.00     0.034 A 
ATOM     49  C   UNL A   1      41.186  32.142  37.199  1.00  0.00     0.049 A 
ATOM     50  C   UNL A   1      41.313  28.963  32.581  1.00  0.00     0.074 A 
ATOM     51  C   UNL A   1      42.231  31.981  38.092  1.00  0.00     0.029 A 
ATOM     52  N   UNL A   1      41.439  31.289  36.133  1.00  0.00    -0.354 N 
ATOM     53  N   UNL A   1      41.420  29.642  33.701  1.00  0.00    -0.248 NA
ATOM     54  C   UNL A   1      42.464  28.090  32.303  1.00  0.00     0.031 C 
ATOM     55  C   UNL A   1      43.148  31.085  37.535  1.00  0.00     0.029 A 
ATOM     56  C   UNL A   1      42.632  30.616  36.339  1.00  0.00     0.049 A 
ATOM     57  H   UNL A   1      40.856  31.178  35.348  1.00  0.00     0.167 HD
ATOM     58  C   UNL A   1      42.619  29.229  34.283  1.00  0.00     0.074 A 
ATOM     59  C   UNL A   1      43.199  28.249  33.393  1.00  0.00     0.031 C 
ATOM     60  C   UNL A   1      43.186  29.620  35.453  1.00  0.00     0.034 A 
BRANCH  47  61
ATOM     61  C   UNL A   1      39.901  33.889  38.521  1.00  0.00     0.023 A 
ATOM     62  C   UNL A   1      39.127  33.495  39.625  1.00  0.00     0.031 A 
ATOM     63  C   UNL A   1      40.533  35.144  38.573  1.00  0.00     0.131 A 
ATOM     64  C   UNL A   1      38.950  34.374  40.704  1.00  0.00     0.055 A 
ATOM     65  C   UNL A   1      40.423  35.978  39.687  1.00  0.00     0.041 A 
ATOM     66  F   UNL A   1      41.263  35.586  37.536  1.00  0.00    -0.206 F 
ATOM     67  C   UNL A   1      39.617  35.599  40.756  1.00  0.00     0.022 A 
BRANCH  64  68
ATOM     68  S   UNL A   1      37.726  33.948  41.972  1.00  0.00     0.124 S 
ATOM     69  O   UNL A   1      37.533  35.235  42.637  1.00  0.00    -0.237 OA
ATOM     70  O   UNL A   1      36.602  33.464  41.179  1.00  0.00    -0.237 OA
ATOM     71  O   UNL A   1      38.406  32.936  42.777  1.00  0.00    -0.744 OA
ENDBRANCH  64  68
ENDBRANCH  47  61
BRANCH  48  72
ATOM     72  C   UNL A   1      40.290  28.111  30.341  1.00  0.00     0.023 A 
ATOM     73  C   UNL A   1      41.185  28.442  29.310  1.00  0.00     0.031 A 
ATOM     74  C   UNL A   1      39.423  27.024  30.129  1.00  0.00     0.131 A 
ATOM     75  C   UNL A   1      41.137  27.751  28.089  1.00  0.00     0.055 A 
ATOM     76  C   UNL A   1      39.433  26.289  28.941  1.00  0.00     0.041 A 
ATOM     77  F   UNL A   1      38.537  26.665  31.072  1.00  0.00    -0.206 F 
ATOM     78  C   UNL A   1      40.279  26.666  27.903  1.00  0.00     0.022 A 
BRANCH  75  79
ATOM     79  S   UNL A   1      42.107  28.392  26.696  1.00  0.00     0.124 S 
ATOM     80  O   UNL A   1      42.760  27.181  26.211  1.00  0.00    -0.237 OA
ATOM     81  O   UNL A   1      41.069  28.950  25.836  1.00  0.00    -0.237 OA
ATOM     82  O   UNL A   1      42.993  29.372  27.321  1.00  0.00    -0.744 OA
ENDBRANCH  75  79
ENDBRANCH  48  72
BRANCH  60  83
ATOM     83  C   UNL A   1      44.450  28.916  35.891  1.00  0.00     0.023 A 
ATOM     84  C   UNL A   1      44.430  27.749  36.672  1.00  0.00     0.031 A 
ATOM     85  C   UNL A   1      45.701  29.421  35.489  1.00  0.00     0.131 A 
ATOM     86  C   UNL A   1      45.637  27.149  37.062  1.00  0.00     0.055 A 
ATOM     87  C   UNL A   1      46.896  28.787  35.829  1.00  0.00     0.041 A 
ATOM     88  F   UNL A   1      45.782  30.535  34.744  1.00  0.00    -0.206 F 
ATOM     89  C   UNL A   1      46.869  27.649  36.629  1.00  0.00     0.022 A 
BRANCH  86  90
ATOM     90  S   UNL A   1      45.587  25.745  38.211  1.00  0.00     0.124 S 
ATOM     91  O   UNL A   1      44.211  25.283  38.065  1.00  0.00    -0.237 OA
ATOM     92  O   UNL A   1      46.616  24.862  37.670  1.00  0.00    -0.237 OA
ATOM     93  O   UNL A   1      45.907  26.346  39.504  1.00  0.00    -0.744 OA
ENDBRANCH  86  90
ENDBRANCH  60  83
ENDBRANCH  34  35
ENDBRANCH  27  29
ENDBRANCH  26  27
ENDBRANCH  25  26
ENDBRANCH  24  25
ENDBRANCH  23  24
ENDBRANCH   1  23
TORSDOF 21
ENDMDL
MODEL 3
REMARK VINA RESULT:      -9.7      2.448      7.788
REMARK SMILES C[C@H]1[NH2+]CC[C@H]1C(=O)N1CC(C(=O)OCCOCCOCCOC(=O)c2ccc(-c3c4nc(c(-c5cc(S(=O)(=O)[O-])ccc5F)c5ccc([nH]5)c(-c5cc(S(=O)(=O)[O-])ccc5F)c5nc(c(-c6cc(S(=O)(=O)[O-])ccc6F)c6ccc3[nH]6)C=C5)C=C4)cc2)C1
REMARK SMILES IDX 19 1 18 2 17 3 16 4 15 5 14 6 12 7 13 8 11 9 7 10 8 11 9 12
REMARK SMILES IDX 10 13 89 14 6 15 1 16 2 17 3 18 4 19 5 22 20 23 21 24 22 25
REMARK SMILES IDX 23 26 24 27 25 28 26 29 27 30 88 31 28 32 87 33 29 34 30 35
REMARK SMILES IDX 31 36 81 37 32 38 86 39 80 40 82 41 33 42 85 43 79 44 78 45
REMARK SMILES IDX 34 47 66 48 46 49 65 50 47 51 50 52 64 53 83 54 48 55 49 56
REMARK SMILES IDX 63 58 84 59 51 60 35 61 36 62 44 63 37 64 43 65 45 66 42 67
REMARK SMILES IDX 38 68 39 69 40 70 41 71 67 72 68 73 76 74 69 75 75 76 77 77
REMARK SMILES IDX 74 78 70 79 71 80 72 81 73 82 52 83 53 84 61 85 54 86 60 87
REMARK SMILES IDX 62 88 59 89 55 90 56 91 57 92 58 93
REMARK H PARENT 3 20 3 21 82 46 50 57
REMARK Flexibility Score: inf
ROOT
ATOM      1  C   UNL A   1      34.110  20.217  24.922  1.00  0.00     0.188 C 
ENDROOT
BRANCH   1   2
ATOM      2  C   UNL A   1      33.514  21.466  24.245  1.00  0.00     0.188 C 
BRANCH   2   3
ATOM      3  O   UNL A   1      32.651  22.316  24.991  1.00  0.00    -0.376 OA
BRANCH   3   4
ATOM      4  C   UNL A   1      33.183  23.077  26.069  1.00  0.00     0.202 C 
BRANCH   4   5
ATOM      5  C   UNL A   1      34.111  24.270  25.775  1.00  0.00     0.261 C 
BRANCH   5   6
ATOM      6  O   UNL A   1      33.441  25.543  25.703  1.00  0.00    -0.463 OA
BRANCH   6   7
ATOM      7  C   UNL A   1      33.193  26.050  24.456  1.00  0.00     0.312 C 
ATOM      8  O   UNL A   1      33.453  25.435  23.422  1.00  0.00    -0.252 OA
BRANCH   7   9
ATOM      9  C   UNL A   1      32.515  27.434  24.481  1.00  0.00     0.138 C 
ATOM     10  C   UNL A   1      30.401  29.718  23.647  1.00  0.00     0.231 C 
ATOM     11  O   UNL A   1      30.517  30.385  24.672  1.00  0.00    -0.274 OA
ATOM     12  N   UNL A   1      30.941  28.451  23.521  1.00  0.00    -0.340 N 
ATOM     13  C   UNL A   1      30.996  27.459  24.608  1.00  0.00     0.136 C 
ATOM     14  C   UNL A   1      32.354  28.248  23.204  1.00  0.00     0.136 C 
BRANCH  10  15
ATOM     15  C   UNL A   1      29.626  30.224  22.436  1.00  0.00     0.142 C 
ATOM     16  C   UNL A   1      27.417  28.980  23.086  1.00  0.00     0.076 C 
ATOM     17  C   UNL A   1      28.363  29.480  22.000  1.00  0.00     0.192 C 
ATOM     18  N   UNL A   1      27.650  30.453  21.142  1.00  0.00    -0.343 N 
ATOM     19  C   UNL A   1      28.112  31.802  21.466  1.00  0.00     0.261 C 
ATOM     20  H   UNL A   1      26.646  30.386  21.310  1.00  0.00     0.346 HD
ATOM     21  H   UNL A   1      27.839  30.249  20.160  1.00  0.00     0.346 HD
ATOM     22  C   UNL A   1      29.173  31.671  22.540  1.00  0.00     0.081 C 
ENDBRANCH  10  15
ENDBRANCH   7   9
ENDBRANCH   6   7
ENDBRANCH   5   6
ENDBRANCH   4   5
ENDBRANCH   3   4
ENDBRANCH   2   3
ENDBRANCH   1   2
BRANCH   1  23
ATOM     23  O   UNL A   1      35.514  20.185  24.983  1.00  0.00    -0.376 OA
BRANCH  23  24
ATOM     24  C   UNL A   1      36.234  21.379  24.739  1.00  0.00     0.202 C 
BRANCH  24  25
ATOM     25  C   UNL A   1      37.028  22.131  25.829  1.00  0.00     0.261 C 
BRANCH  25  26
ATOM     26  O   UNL A   1      38.364  22.551  25.533  1.00  0.00    -0.460 OA
BRANCH  26  27
ATOM     27  C   UNL A   1      39.298  22.359  26.494  1.00  0.00     0.338 C 
ATOM     28  O   UNL A   1      39.739  21.285  26.878  1.00  0.00    -0.246 OA
BRANCH  27  29
ATOM     29  C   UNL A   1      39.854  23.681  26.854  1.00  0.00     0.060 A 
ATOM     30  C   UNL A   1      40.406  23.880  28.130  1.00  0.00     0.016 A 
ATOM     31  C   UNL A   1      39.838  24.719  25.923  1.00  0.00     0.016 A 
ATOM     32  C   UNL A   1      40.935  25.126  28.480  1.00  0.00     0.010 A 
ATOM     33  C   UNL A   1      40.340  25.972  26.286  1.00  0.00     0.010 A 
ATOM     34  C   UNL A   1      40.870  26.190  27.572  1.00  0.00    -0.014 A 
BRANCH  34  35
ATOM     35  C   UNL A   1      41.142  27.584  28.005  1.00  0.00     0.031 A 
ATOM     36  C   UNL A   1      42.573  28.047  28.012  1.00  0.00     0.074 A 
ATOM     37  C   UNL A   1      40.161  28.411  28.413  1.00  0.00     0.049 A 
ATOM     38  N   UNL A   1      43.098  29.127  28.527  1.00  0.00    -0.248 NA
ATOM     39  C   UNL A   1      43.542  27.156  27.355  1.00  0.00     0.031 C 
ATOM     40  C   UNL A   1      38.732  28.113  28.380  1.00  0.00     0.029 A 
ATOM     41  N   UNL A   1      40.230  29.671  28.958  1.00  0.00    -0.354 N 
ATOM     42  C   UNL A   1      44.461  29.044  28.263  1.00  0.00     0.074 A 
ATOM     43  C   UNL A   1      44.684  27.788  27.579  1.00  0.00     0.031 C 
ATOM     44  C   UNL A   1      38.058  29.153  28.905  1.00  0.00     0.029 A 
ATOM     45  C   UNL A   1      39.010  30.165  29.365  1.00  0.00     0.049 A 
ATOM     46  H   UNL A   1      41.071  30.174  29.050  1.00  0.00     0.167 HD
ATOM     47  C   UNL A   1      45.437  29.938  28.555  1.00  0.00     0.034 A 
ATOM     48  C   UNL A   1      38.709  31.279  30.063  1.00  0.00     0.034 A 
ATOM     49  C   UNL A   1      45.204  31.176  29.256  1.00  0.00     0.049 A 
ATOM     50  C   UNL A   1      39.833  32.197  30.506  1.00  0.00     0.074 A 
ATOM     51  C   UNL A   1      46.123  32.139  29.634  1.00  0.00     0.029 A 
ATOM     52  N   UNL A   1      43.961  31.620  29.688  1.00  0.00    -0.354 N 
ATOM     53  N   UNL A   1      41.125  32.093  30.284  1.00  0.00    -0.248 NA
ATOM     54  C   UNL A   1      39.459  33.382  31.292  1.00  0.00     0.031 C 
ATOM     55  C   UNL A   1      45.447  33.130  30.353  1.00  0.00     0.029 A 
ATOM     56  C   UNL A   1      44.095  32.833  30.345  1.00  0.00     0.049 A 
ATOM     57  H   UNL A   1      43.111  31.144  29.547  1.00  0.00     0.167 HD
ATOM     58  C   UNL A   1      41.701  33.229  30.853  1.00  0.00     0.074 A 
ATOM     59  C   UNL A   1      40.622  34.001  31.427  1.00  0.00     0.031 C 
ATOM     60  C   UNL A   1      43.004  33.605  30.891  1.00  0.00     0.034 A 
BRANCH  47  61
ATOM     61  C   UNL A   1      46.846  29.583  28.152  1.00  0.00     0.023 A 
ATOM     62  C   UNL A   1      47.707  28.894  29.022  1.00  0.00     0.031 A 
ATOM     63  C   UNL A   1      47.343  29.955  26.890  1.00  0.00     0.131 A 
ATOM     64  C   UNL A   1      49.037  28.656  28.647  1.00  0.00     0.055 A 
ATOM     65  C   UNL A   1      48.642  29.639  26.490  1.00  0.00     0.041 A 
ATOM     66  F   UNL A   1      46.575  30.639  26.028  1.00  0.00    -0.206 F 
ATOM     67  C   UNL A   1      49.502  28.997  27.375  1.00  0.00     0.022 A 
BRANCH  64  68
ATOM     68  S   UNL A   1      50.187  28.020  29.896  1.00  0.00     0.124 S 
ATOM     69  O   UNL A   1      49.266  27.461  30.884  1.00  0.00    -0.237 OA
ATOM     70  O   UNL A   1      50.975  27.053  29.140  1.00  0.00    -0.237 OA
ATOM     71  O   UNL A   1      50.910  29.211  30.334  1.00  0.00    -0.744 OA
ENDBRANCH  64  68
ENDBRANCH  47  61
BRANCH  48  72
ATOM     72  C   UNL A   1      37.299  31.592  30.451  1.00  0.00     0.023 A 
ATOM     73  C   UNL A   1      36.440  32.263  29.566  1.00  0.00     0.031 A 
ATOM     74  C   UNL A   1      36.824  31.329  31.749  1.00  0.00     0.131 A 
ATOM     75  C   UNL A   1      35.189  32.718  30.010  1.00  0.00     0.055 A 
ATOM     76  C   UNL A   1      35.547  31.716  32.162  1.00  0.00     0.041 A 
ATOM     77  F   UNL A   1      37.602  30.701  32.645  1.00  0.00    -0.206 F 
ATOM     78  C   UNL A   1      34.729  32.435  31.297  1.00  0.00     0.022 A 
BRANCH  75  79
ATOM     79  S   UNL A   1      34.236  33.819  28.927  1.00  0.00     0.124 S 
ATOM     80  O   UNL A   1      33.314  34.436  29.874  1.00  0.00    -0.237 OA
ATOM     81  O   UNL A   1      35.277  34.687  28.386  1.00  0.00    -0.237 OA
ATOM     82  O   UNL A   1      33.625  32.904  27.964  1.00  0.00    -0.744 OA
ENDBRANCH  75  79
ENDBRANCH  48  72
BRANCH  60  83
ATOM     83  C   UNL A   1      43.330  34.956  31.485  1.00  0.00     0.023 A 
ATOM     84  C   UNL A   1      43.521  36.101  30.694  1.00  0.00     0.031 A 
ATOM     85  C   UNL A   1      43.423  35.096  32.883  1.00  0.00     0.131 A 
ATOM     86  C   UNL A   1      43.838  37.325  31.302  1.00  0.00     0.055 A 
ATOM     87  C   UNL A   1      43.678  36.327  33.486  1.00  0.00     0.041 A 
ATOM     88  F   UNL A   1      43.253  34.035  33.689  1.00  0.00    -0.206 F 
ATOM     89  C   UNL A   1      43.897  37.450  32.694  1.00  0.00     0.022 A 
BRANCH  86  90
ATOM     90  S   UNL A   1      44.248  38.746  30.251  1.00  0.00     0.124 S 
ATOM     91  O   UNL A   1      43.546  39.834  30.923  1.00  0.00    -0.237 OA
ATOM     92  O   UNL A   1      45.705  38.783  30.330  1.00  0.00    -0.237 OA
ATOM     93  O   UNL A   1      43.710  38.374  28.944  1.00  0.00    -0.744 OA
ENDBRANCH  86  90
ENDBRANCH  60  83
ENDBRANCH  34  35
ENDBRANCH  27  29
ENDBRANCH  26  27
ENDBRANCH  25  26
ENDBRANCH  24  25
ENDBRANCH  23  24
ENDBRANCH   1  23
TORSDOF 21
ENDMDL
