MODEL 1
REMARK VINA RESULT:      -9.6      0.000      0.000
REMARK SMILES CCN(Cc1ccccn1)c1nc(C)cc(C)c1C(=O)OCCOCCOCCOC(=O)c1ccc(-c2c3nc(c(-c4cc(S(=O)(=O)[O-])ccc4F)c4ccc([nH]4)c(-c4cc(S(=O)(=O)[O-])ccc4F)c4nc(c(-c5cc(S(=O)(=O)[O-])ccc5F)c5ccc2[nH]5)C=C4)C=C3)cc1
REMARK SMILES IDX 25 1 24 2 23 3 22 4 21 5 19 6 20 7 18 8 11 9 12 10 13 11
REMARK SMILES IDX 16 12 14 13 15 14 17 15 3 16 2 17 1 18 4 19 5 20 6 21 10 22
REMARK SMILES IDX 7 23 9 24 8 25 26 26 27 27 28 28 29 29 30 30 31 31 32 32
REMARK SMILES IDX 33 33 34 34 95 35 35 36 94 37 36 38 37 39 38 40 88 41 39 42
REMARK SMILES IDX 93 43 87 44 89 45 40 46 92 47 86 48 85 49 41 51 73 52 53 53
REMARK SMILES IDX 72 54 54 55 57 56 71 57 90 58 55 59 56 60 70 62 91 63 58 64
REMARK SMILES IDX 42 65 43 66 51 67 44 68 50 69 52 70 49 71 45 72 46 73 47 74
REMARK SMILES IDX 48 75 74 76 75 77 83 78 76 79 82 80 84 81 81 82 77 83 78 84
REMARK SMILES IDX 79 85 80 86 59 87 60 88 68 89 61 90 67 91 69 92 66 93 62 94
REMARK SMILES IDX 63 95 64 96 65 97
REMARK H PARENT 89 50 57 61
REMARK Flexibility Score: inf
ROOT
ATOM      1  C   UNL A   1      32.465  27.844  26.600  1.00  0.00     0.188 C 
ENDROOT
BRANCH   1   2
ATOM      2  O   UNL A   1      31.454  26.956  27.044  1.00  0.00    -0.376 OA
BRANCH   2   3
ATOM      3  C   UNL A   1      31.449  25.659  26.472  1.00  0.00     0.202 C 
BRANCH   3   4
ATOM      4  C   UNL A   1      32.836  25.019  26.345  1.00  0.00     0.261 C 
BRANCH   4   5
ATOM      5  O   UNL A   1      32.801  23.595  26.532  1.00  0.00    -0.460 OA
BRANCH   5   6
ATOM      6  C   UNL A   1      33.854  22.850  26.112  1.00  0.00     0.342 C 
ATOM      7  O   UNL A   1      34.937  22.788  26.657  1.00  0.00    -0.246 OA
BRANCH   6   8
ATOM      8  C   UNL A   1      33.443  22.124  24.878  1.00  0.00     0.105 A 
ATOM      9  C   UNL A   1      33.465  22.767  23.628  1.00  0.00     0.144 A 
ATOM     10  N   UNL A   1      32.898  22.155  22.563  1.00  0.00    -0.235 NA
ATOM     11  C   UNL A   1      32.341  20.933  22.659  1.00  0.00     0.040 A 
ATOM     12  C   UNL A   1      32.917  20.805  24.975  1.00  0.00    -0.031 A 
ATOM     13  C   UNL A   1      31.673  20.411  21.426  1.00  0.00     0.067 C 
ATOM     14  C   UNL A   1      32.378  20.209  23.831  1.00  0.00     0.028 A 
ATOM     15  C   UNL A   1      32.927  19.989  26.241  1.00  0.00     0.045 C 
BRANCH   9  16
ATOM     16  N   UNL A   1      34.064  23.989  23.349  1.00  0.00    -0.350 N 
BRANCH  16  17
ATOM     17  C   UNL A   1      35.486  24.193  23.610  1.00  0.00     0.115 C 
ATOM     18  C   UNL A   1      36.317  22.985  23.205  1.00  0.00     0.027 C 
ENDBRANCH  16  17
BRANCH  16  19
ATOM     19  C   UNL A   1      33.493  24.774  22.230  1.00  0.00     0.174 C 
BRANCH  19  20
ATOM     20  C   UNL A   1      32.474  25.872  22.532  1.00  0.00     0.060 A 
ATOM     21  C   UNL A   1      32.786  27.234  22.548  1.00  0.00     0.026 A 
ATOM     22  N   UNL A   1      31.226  25.432  22.854  1.00  0.00    -0.259 NA
ATOM     23  C   UNL A   1      31.797  28.164  22.866  1.00  0.00     0.004 A 
ATOM     24  C   UNL A   1      30.292  26.355  23.175  1.00  0.00     0.111 A 
ATOM     25  C   UNL A   1      30.524  27.718  23.186  1.00  0.00     0.020 A 
ENDBRANCH  19  20
ENDBRANCH  16  19
ENDBRANCH   9  16
ENDBRANCH   6   8
ENDBRANCH   5   6
ENDBRANCH   4   5
ENDBRANCH   3   4
ENDBRANCH   2   3
ENDBRANCH   1   2
BRANCH   1  26
ATOM     26  C   UNL A   1      31.933  29.231  26.193  1.00  0.00     0.188 C 
BRANCH  26  27
ATOM     27  O   UNL A   1      32.290  30.381  26.947  1.00  0.00    -0.376 OA
BRANCH  27  28
ATOM     28  C   UNL A   1      33.642  30.552  27.341  1.00  0.00     0.202 C 
BRANCH  28  29
ATOM     29  C   UNL A   1      34.100  31.946  27.795  1.00  0.00     0.261 C 
BRANCH  29  30
ATOM     30  O   UNL A   1      33.088  32.970  27.878  1.00  0.00    -0.460 OA
BRANCH  30  31
ATOM     31  C   UNL A   1      33.422  34.073  28.598  1.00  0.00     0.338 C 
ATOM     32  O   UNL A   1      32.819  35.133  28.619  1.00  0.00    -0.246 OA
BRANCH  31  33
ATOM     33  C   UNL A   1      34.576  33.793  29.493  1.00  0.00     0.060 A 
ATOM     34  C   UNL A   1      35.843  34.278  29.137  1.00  0.00     0.016 A 
ATOM     35  C   UNL A   1      34.441  32.973  30.616  1.00  0.00     0.016 A 
ATOM     36  C   UNL A   1      36.978  33.916  29.876  1.00  0.00     0.010 A 
ATOM     37  C   UNL A   1      35.582  32.597  31.344  1.00  0.00     0.010 A 
ATOM     38  C   UNL A   1      36.864  33.041  30.966  1.00  0.00    -0.014 A 
BRANCH  38  39
ATOM     39  C   UNL A   1      38.082  32.446  31.591  1.00  0.00     0.031 A 
ATOM     40  C   UNL A   1      38.764  31.297  30.890  1.00  0.00     0.074 A 
ATOM     41  C   UNL A   1      38.584  32.897  32.758  1.00  0.00     0.049 A 
ATOM     42  N   UNL A   1      39.774  30.564  31.284  1.00  0.00    -0.248 NA
ATOM     43  C   UNL A   1      38.229  30.925  29.571  1.00  0.00     0.031 C 
ATOM     44  C   UNL A   1      38.056  34.026  33.517  1.00  0.00     0.029 A 
ATOM     45  N   UNL A   1      39.645  32.457  33.516  1.00  0.00    -0.354 N 
ATOM     46  C   UNL A   1      39.987  29.634  30.273  1.00  0.00     0.074 A 
ATOM     47  C   UNL A   1      38.993  29.891  29.252  1.00  0.00     0.031 C 
ATOM     48  C   UNL A   1      38.793  34.192  34.631  1.00  0.00     0.029 A 
ATOM     49  C   UNL A   1      39.806  33.138  34.703  1.00  0.00     0.049 A 
ATOM     50  H   UNL A   1      40.236  31.720  33.235  1.00  0.00     0.167 HD
ATOM     51  C   UNL A   1      40.919  28.652  30.204  1.00  0.00     0.034 A 
ATOM     52  C   UNL A   1      40.637  32.913  35.746  1.00  0.00     0.034 A 
ATOM     53  C   UNL A   1      41.898  28.389  31.230  1.00  0.00     0.049 A 
ATOM     54  C   UNL A   1      41.601  31.743  35.685  1.00  0.00     0.074 A 
ATOM     55  C   UNL A   1      42.894  27.427  31.236  1.00  0.00     0.029 A 
ATOM     56  N   UNL A   1      41.997  29.070  32.435  1.00  0.00    -0.354 N 
ATOM     57  N   UNL A   1      41.798  30.883  34.712  1.00  0.00    -0.248 NA
ATOM     58  C   UNL A   1      42.452  31.511  36.863  1.00  0.00     0.031 C 
ATOM     59  C   UNL A   1      43.533  27.466  32.479  1.00  0.00     0.029 A 
ATOM     60  C   UNL A   1      43.008  28.520  33.207  1.00  0.00     0.049 A 
ATOM     61  H   UNL A   1      41.433  29.831  32.701  1.00  0.00     0.167 HD
ATOM     62  C   UNL A   1      42.827  30.045  35.147  1.00  0.00     0.074 A 
ATOM     63  C   UNL A   1      43.215  30.506  36.460  1.00  0.00     0.031 C 
ATOM     64  C   UNL A   1      43.403  28.992  34.513  1.00  0.00     0.034 A 
BRANCH  51  65
ATOM     65  C   UNL A   1      40.887  27.736  29.006  1.00  0.00     0.023 A 
ATOM     66  C   UNL A   1      41.801  27.863  27.947  1.00  0.00     0.031 A 
ATOM     67  C   UNL A   1      39.938  26.699  28.941  1.00  0.00     0.131 A 
ATOM     68  C   UNL A   1      41.718  26.993  26.848  1.00  0.00     0.055 A 
ATOM     69  C   UNL A   1      39.908  25.795  27.881  1.00  0.00     0.041 A 
ATOM     70  F   UNL A   1      39.025  26.548  29.914  1.00  0.00    -0.206 F 
ATOM     71  C   UNL A   1      40.797  25.943  26.821  1.00  0.00     0.022 A 
BRANCH  68  72
ATOM     72  S   UNL A   1      42.763  27.320  25.402  1.00  0.00     0.124 S 
ATOM     73  O   UNL A   1      42.098  28.478  24.813  1.00  0.00    -0.237 OA
ATOM     74  O   UNL A   1      44.067  27.570  26.005  1.00  0.00    -0.237 OA
ATOM     75  O   UNL A   1      42.663  26.087  24.622  1.00  0.00    -0.744 OA
ENDBRANCH  68  72
ENDBRANCH  51  65
BRANCH  52  76
ATOM     76  C   UNL A   1      40.567  33.745  36.990  1.00  0.00     0.023 A 
ATOM     77  C   UNL A   1      39.789  33.349  38.092  1.00  0.00     0.031 A 
ATOM     78  C   UNL A   1      41.170  35.016  37.044  1.00  0.00     0.131 A 
ATOM     79  C   UNL A   1      39.568  34.241  39.155  1.00  0.00     0.055 A 
ATOM     80  C   UNL A   1      41.013  35.867  38.141  1.00  0.00     0.041 A 
ATOM     81  F   UNL A   1      41.912  35.463  36.018  1.00  0.00    -0.206 F 
ATOM     82  C   UNL A   1      40.188  35.490  39.196  1.00  0.00     0.022 A 
BRANCH  79  83
ATOM     83  S   UNL A   1      38.320  33.813  40.404  1.00  0.00     0.124 S 
ATOM     84  O   UNL A   1      39.080  32.937  41.289  1.00  0.00    -0.237 OA
ATOM     85  O   UNL A   1      37.969  35.121  40.945  1.00  0.00    -0.237 OA
ATOM     86  O   UNL A   1      37.271  33.158  39.626  1.00  0.00    -0.744 OA
ENDBRANCH  79  83
ENDBRANCH  52  76
BRANCH  64  87
ATOM     87  C   UNL A   1      44.573  28.313  35.190  1.00  0.00     0.023 A 
ATOM     88  C   UNL A   1      44.413  27.200  36.035  1.00  0.00     0.031 A 
ATOM     89  C   UNL A   1      45.879  28.787  34.965  1.00  0.00     0.131 A 
ATOM     90  C   UNL A   1      45.534  26.628  36.657  1.00  0.00     0.055 A 
ATOM     91  C   UNL A   1      46.996  28.173  35.536  1.00  0.00     0.041 A 
ATOM     92  F   UNL A   1      46.095  29.848  34.171  1.00  0.00    -0.206 F 
ATOM     93  C   UNL A   1      46.825  27.094  36.397  1.00  0.00     0.022 A 
BRANCH  90  94
ATOM     94  S   UNL A   1      45.281  25.313  37.883  1.00  0.00     0.124 S 
ATOM     95  O   UNL A   1      45.097  24.139  37.035  1.00  0.00    -0.237 OA
ATOM     96  O   UNL A   1      46.522  25.357  38.648  1.00  0.00    -0.237 OA
ATOM     97  O   UNL A   1      44.090  25.746  38.611  1.00  0.00    -0.744 OA
ENDBRANCH  90  94
ENDBRANCH  64  87
ENDBRANCH  38  39
ENDBRANCH  31  33
ENDBRANCH  30  31
ENDBRANCH  29  30
ENDBRANCH  28  29
ENDBRANCH  27  28
ENDBRANCH  26  27
ENDBRANCH   1  26
TORSDOF 24
ENDMDL
MODEL 2
REMARK VINA RESULT:      -9.4      5.776     12.233
REMARK SMILES CCN(Cc1ccccn1)c1nc(C)cc(C)c1C(=O)OCCOCCOCCOC(=O)c1ccc(-c2c3nc(c(-c4cc(S(=O)(=O)[O-])ccc4F)c4ccc([nH]4)c(-c4cc(S(=O)(=O)[O-])ccc4F)c4nc(c(-c5cc(S(=O)(=O)[O-])ccc5F)c5ccc2[nH]5)C=C4)C=C3)cc1
REMARK SMILES IDX 25 1 24 2 23 3 22 4 21 5 19 6 20 7 18 8 11 9 12 10 13 11
REMARK SMILES IDX 16 12 14 13 15 14 17 15 3 16 2 17 1 18 4 19 5 20 6 21 10 22
REMARK SMILES IDX 7 23 9 24 8 25 26 26 27 27 28 28 29 29 30 30 31 31 32 32
REMARK SMILES IDX 33 33 34 34 95 35 35 36 94 37 36 38 37 39 38 40 88 41 39 42
REMARK SMILES IDX 93 43 87 44 89 45 40 46 92 47 86 48 85 49 41 51 73 52 53 53
REMARK SMILES IDX 72 54 54 55 57 56 71 57 90 58 55 59 56 60 70 62 91 63 58 64
REMARK SMILES IDX 42 65 43 66 51 67 44 68 50 69 52 70 49 71 45 72 46 73 47 74
REMARK SMILES IDX 48 75 74 76 75 77 83 78 76 79 82 80 84 81 81 82 77 83 78 84
REMARK SMILES IDX 79 85 80 86 59 87 60 88 68 89 61 90 67 91 69 92 66 93 62 94
REMARK SMILES IDX 63 95 64 96 65 97
REMARK H PARENT 89 50 57 61
REMARK Flexibility Score: inf
ROOT
ATOM      1  C   UNL A   1      43.772  34.573  32.429  1.00  0.00     0.188 C 
ENDROOT
BRANCH   1   2
ATOM      2  O   UNL A   1      42.415  34.166  32.493  1.00  0.00    -0.376 OA
BRANCH   2   3
ATOM      3  C   UNL A   1      41.899  33.870  33.780  1.00  0.00     0.202 C 
BRANCH   3   4
ATOM      4  C   UNL A   1      41.237  35.059  34.484  1.00  0.00     0.261 C 
BRANCH   4   5
ATOM      5  O   UNL A   1      40.928  34.778  35.859  1.00  0.00    -0.460 OA
BRANCH   5   6
ATOM      6  C   UNL A   1      39.819  35.332  36.410  1.00  0.00     0.342 C 
ATOM      7  O   UNL A   1      39.253  36.328  36.009  1.00  0.00    -0.246 OA
BRANCH   6   8
ATOM      8  C   UNL A   1      39.421  34.499  37.579  1.00  0.00     0.105 A 
ATOM      9  C   UNL A   1      39.043  33.156  37.406  1.00  0.00     0.144 A 
ATOM     10  N   UNL A   1      38.495  32.487  38.447  1.00  0.00    -0.235 NA
ATOM     11  C   UNL A   1      38.331  33.062  39.654  1.00  0.00     0.040 A 
ATOM     12  C   UNL A   1      39.314  35.094  38.868  1.00  0.00    -0.031 A 
ATOM     13  C   UNL A   1      37.634  32.237  40.690  1.00  0.00     0.067 C 
ATOM     14  C   UNL A   1      38.774  34.341  39.915  1.00  0.00     0.028 A 
ATOM     15  C   UNL A   1      39.773  36.493  39.188  1.00  0.00     0.045 C 
BRANCH   9  16
ATOM     16  N   UNL A   1      39.215  32.402  36.253  1.00  0.00    -0.350 N 
BRANCH  16  17
ATOM     17  C   UNL A   1      40.339  31.478  36.133  1.00  0.00     0.115 C 
ATOM     18  C   UNL A   1      39.965  30.225  35.358  1.00  0.00     0.027 C 
ENDBRANCH  16  17
BRANCH  16  19
ATOM     19  C   UNL A   1      37.989  32.029  35.508  1.00  0.00     0.174 C 
BRANCH  19  20
ATOM     20  C   UNL A   1      37.387  33.022  34.515  1.00  0.00     0.060 A 
ATOM     21  C   UNL A   1      38.146  33.754  33.597  1.00  0.00     0.026 A 
ATOM     22  N   UNL A   1      36.042  33.206  34.622  1.00  0.00    -0.259 NA
ATOM     23  C   UNL A   1      37.514  34.663  32.750  1.00  0.00     0.004 A 
ATOM     24  C   UNL A   1      35.459  34.106  33.799  1.00  0.00     0.111 A 
ATOM     25  C   UNL A   1      36.143  34.844  32.851  1.00  0.00     0.020 A 
ENDBRANCH  19  20
ENDBRANCH  16  19
ENDBRANCH   9  16
ENDBRANCH   6   8
ENDBRANCH   5   6
ENDBRANCH   4   5
ENDBRANCH   3   4
ENDBRANCH   2   3
ENDBRANCH   1   2
BRANCH   1  26
ATOM     26  C   UNL A   1      44.034  35.945  33.077  1.00  0.00     0.188 C 
BRANCH  26  27
ATOM     27  O   UNL A   1      44.896  36.880  32.442  1.00  0.00    -0.376 OA
BRANCH  27  28
ATOM     28  C   UNL A   1      46.262  36.544  32.263  1.00  0.00     0.202 C 
BRANCH  28  29
ATOM     29  C   UNL A   1      47.107  37.401  31.308  1.00  0.00     0.261 C 
BRANCH  29  30
ATOM     30  O   UNL A   1      46.989  37.116  29.899  1.00  0.00    -0.460 OA
BRANCH  30  31
ATOM     31  C   UNL A   1      45.721  36.957  29.434  1.00  0.00     0.338 C 
ATOM     32  O   UNL A   1      44.913  37.845  29.222  1.00  0.00    -0.246 OA
BRANCH  31  33
ATOM     33  C   UNL A   1      45.462  35.539  29.073  1.00  0.00     0.060 A 
ATOM     34  C   UNL A   1      44.481  35.253  28.112  1.00  0.00     0.016 A 
ATOM     35  C   UNL A   1      46.096  34.491  29.746  1.00  0.00     0.016 A 
ATOM     36  C   UNL A   1      44.108  33.927  27.849  1.00  0.00     0.010 A 
ATOM     37  C   UNL A   1      45.707  33.164  29.493  1.00  0.00     0.010 A 
ATOM     38  C   UNL A   1      44.691  32.871  28.563  1.00  0.00    -0.014 A 
BRANCH  38  39
ATOM     39  C   UNL A   1      44.120  31.494  28.481  1.00  0.00     0.031 A 
ATOM     40  C   UNL A   1      44.874  30.446  27.700  1.00  0.00     0.074 A 
ATOM     41  C   UNL A   1      42.956  31.163  29.076  1.00  0.00     0.049 A 
ATOM     42  N   UNL A   1      44.531  29.216  27.414  1.00  0.00    -0.248 NA
ATOM     43  C   UNL A   1      46.186  30.844  27.169  1.00  0.00     0.031 C 
ATOM     44  C   UNL A   1      42.149  32.059  29.898  1.00  0.00     0.029 A 
ATOM     45  N   UNL A   1      42.243  29.986  29.073  1.00  0.00    -0.354 N 
ATOM     46  C   UNL A   1      45.574  28.697  26.656  1.00  0.00     0.074 A 
ATOM     47  C   UNL A   1      46.558  29.750  26.520  1.00  0.00     0.031 C 
ATOM     48  C   UNL A   1      41.054  31.402  30.321  1.00  0.00     0.029 A 
ATOM     49  C   UNL A   1      41.041  30.058  29.746  1.00  0.00     0.049 A 
ATOM     50  H   UNL A   1      42.562  29.166  28.630  1.00  0.00     0.167 HD
ATOM     51  C   UNL A   1      45.699  27.460  26.117  1.00  0.00     0.034 A 
ATOM     52  C   UNL A   1      40.031  29.165  29.847  1.00  0.00     0.034 A 
ATOM     53  C   UNL A   1      44.710  26.416  26.242  1.00  0.00     0.049 A 
ATOM     54  C   UNL A   1      40.154  27.824  29.147  1.00  0.00     0.074 A 
ATOM     55  C   UNL A   1      44.761  25.125  25.744  1.00  0.00     0.029 A 
ATOM     56  N   UNL A   1      43.490  26.544  26.889  1.00  0.00    -0.354 N 
ATOM     57  N   UNL A   1      41.157  27.345  28.446  1.00  0.00    -0.248 NA
ATOM     58  C   UNL A   1      39.009  26.905  29.248  1.00  0.00     0.031 C 
ATOM     59  C   UNL A   1      43.537  24.504  26.011  1.00  0.00     0.029 A 
ATOM     60  C   UNL A   1      42.764  25.369  26.765  1.00  0.00     0.049 A 
ATOM     61  H   UNL A   1      43.185  27.349  27.365  1.00  0.00     0.167 HD
ATOM     62  C   UNL A   1      40.777  26.056  28.070  1.00  0.00     0.074 A 
ATOM     63  C   UNL A   1      39.463  25.827  28.626  1.00  0.00     0.031 C 
ATOM     64  C   UNL A   1      41.457  25.140  27.335  1.00  0.00     0.034 A 
BRANCH  51  65
ATOM     65  C   UNL A   1      46.921  27.178  25.279  1.00  0.00     0.023 A 
ATOM     66  C   UNL A   1      47.052  27.663  23.967  1.00  0.00     0.031 A 
ATOM     67  C   UNL A   1      47.985  26.433  25.819  1.00  0.00     0.131 A 
ATOM     68  C   UNL A   1      48.205  27.359  23.224  1.00  0.00     0.055 A 
ATOM     69  C   UNL A   1      49.157  26.196  25.101  1.00  0.00     0.041 A 
ATOM     70  F   UNL A   1      47.902  25.925  27.059  1.00  0.00    -0.206 F 
ATOM     71  C   UNL A   1      49.269  26.654  23.792  1.00  0.00     0.022 A 
BRANCH  68  72
ATOM     72  S   UNL A   1      48.249  27.808  21.468  1.00  0.00     0.124 S 
ATOM     73  O   UNL A   1      46.901  28.331  21.263  1.00  0.00    -0.237 OA
ATOM     74  O   UNL A   1      49.328  28.787  21.419  1.00  0.00    -0.237 OA
ATOM     75  O   UNL A   1      48.527  26.539  20.797  1.00  0.00    -0.744 OA
ENDBRANCH  68  72
ENDBRANCH  51  65
BRANCH  52  76
ATOM     76  C   UNL A   1      38.762  29.505  30.567  1.00  0.00     0.023 A 
ATOM     77  C   UNL A   1      37.767  30.292  29.962  1.00  0.00     0.031 A 
ATOM     78  C   UNL A   1      38.585  29.161  31.921  1.00  0.00     0.131 A 
ATOM     79  C   UNL A   1      36.690  30.775  30.726  1.00  0.00     0.055 A 
ATOM     80  C   UNL A   1      37.470  29.576  32.653  1.00  0.00     0.041 A 
ATOM     81  F   UNL A   1      39.507  28.425  32.563  1.00  0.00    -0.206 F 
ATOM     82  C   UNL A   1      36.525  30.409  32.062  1.00  0.00     0.022 A 
BRANCH  79  83
ATOM     83  S   UNL A   1      35.598  32.029  29.994  1.00  0.00     0.124 S 
ATOM     84  O   UNL A   1      34.642  32.251  31.073  1.00  0.00    -0.237 OA
ATOM     85  O   UNL A   1      36.526  33.122  29.724  1.00  0.00    -0.237 OA
ATOM     86  O   UNL A   1      35.060  31.362  28.810  1.00  0.00    -0.744 OA
ENDBRANCH  79  83
ENDBRANCH  52  76
BRANCH  64  87
ATOM     87  C   UNL A   1      40.835  23.773  27.156  1.00  0.00     0.023 A 
ATOM     88  C   UNL A   1      39.730  23.552  26.316  1.00  0.00     0.031 A 
ATOM     89  C   UNL A   1      41.379  22.665  27.834  1.00  0.00     0.131 A 
ATOM     90  C   UNL A   1      39.178  22.265  26.210  1.00  0.00     0.055 A 
ATOM     91  C   UNL A   1      40.866  21.377  27.675  1.00  0.00     0.041 A 
ATOM     92  F   UNL A   1      42.433  22.814  28.653  1.00  0.00    -0.206 F 
ATOM     93  C   UNL A   1      39.751  21.174  26.868  1.00  0.00     0.022 A 
BRANCH  90  94
ATOM     94  S   UNL A   1      37.644  22.043  25.266  1.00  0.00     0.124 S 
ATOM     95  O   UNL A   1      36.628  22.132  26.310  1.00  0.00    -0.237 OA
ATOM     96  O   UNL A   1      37.692  23.160  24.328  1.00  0.00    -0.237 OA
ATOM     97  O   UNL A   1      37.800  20.721  24.662  1.00  0.00    -0.744 OA
ENDBRANCH  90  94
ENDBRANCH  64  87
ENDBRANCH  38  39
ENDBRANCH  31  33
ENDBRANCH  30  31
ENDBRANCH  29  30
ENDBRANCH  28  29
ENDBRANCH  27  28
ENDBRANCH  26  27
ENDBRANCH   1  26
TORSDOF 24
ENDMDL
MODEL 3
REMARK VINA RESULT:      -9.0      1.528      2.182
REMARK SMILES CCN(Cc1ccccn1)c1nc(C)cc(C)c1C(=O)OCCOCCOCCOC(=O)c1ccc(-c2c3nc(c(-c4cc(S(=O)(=O)[O-])ccc4F)c4ccc([nH]4)c(-c4cc(S(=O)(=O)[O-])ccc4F)c4nc(c(-c5cc(S(=O)(=O)[O-])ccc5F)c5ccc2[nH]5)C=C4)C=C3)cc1
REMARK SMILES IDX 25 1 24 2 23 3 22 4 21 5 19 6 20 7 18 8 11 9 12 10 13 11
REMARK SMILES IDX 16 12 14 13 15 14 17 15 3 16 2 17 1 18 4 19 5 20 6 21 10 22
REMARK SMILES IDX 7 23 9 24 8 25 26 26 27 27 28 28 29 29 30 30 31 31 32 32
REMARK SMILES IDX 33 33 34 34 95 35 35 36 94 37 36 38 37 39 38 40 88 41 39 42
REMARK SMILES IDX 93 43 87 44 89 45 40 46 92 47 86 48 85 49 41 51 73 52 53 53
REMARK SMILES IDX 72 54 54 55 57 56 71 57 90 58 55 59 56 60 70 62 91 63 58 64
REMARK SMILES IDX 42 65 43 66 51 67 44 68 50 69 52 70 49 71 45 72 46 73 47 74
REMARK SMILES IDX 48 75 74 76 75 77 83 78 76 79 82 80 84 81 81 82 77 83 78 84
REMARK SMILES IDX 79 85 80 86 59 87 60 88 68 89 61 90 67 91 69 92 66 93 62 94
REMARK SMILES IDX 63 95 64 96 65 97
REMARK H PARENT 89 50 57 61
REMARK Flexibility Score: inf
ROOT
ATOM      1  C   UNL A   1      31.987  27.782  26.532  1.00  0.00     0.188 C 
ENDROOT
BRANCH   1   2
ATOM      2  O   UNL A   1      30.824  27.144  27.033  1.00  0.00    -0.376 OA
BRANCH   2   3
ATOM      3  C   UNL A   1      30.350  26.023  26.306  1.00  0.00     0.202 C 
BRANCH   3   4
ATOM      4  C   UNL A   1      31.377  24.897  26.139  1.00  0.00     0.261 C 
BRANCH   4   5
ATOM      5  O   UNL A   1      30.863  23.798  25.370  1.00  0.00    -0.460 OA
BRANCH   5   6
ATOM      6  C   UNL A   1      31.231  22.535  25.701  1.00  0.00     0.342 C 
ATOM      7  O   UNL A   1      30.487  21.670  26.117  1.00  0.00    -0.246 OA
BRANCH   6   8
ATOM      8  C   UNL A   1      32.694  22.401  25.457  1.00  0.00     0.105 A 
ATOM      9  C   UNL A   1      33.185  22.171  24.159  1.00  0.00     0.144 A 
ATOM     10  N   UNL A   1      34.489  21.853  23.995  1.00  0.00    -0.235 NA
ATOM     11  C   UNL A   1      35.339  21.781  25.038  1.00  0.00     0.040 A 
ATOM     12  C   UNL A   1      33.598  22.393  26.556  1.00  0.00    -0.031 A 
ATOM     13  C   UNL A   1      36.733  21.334  24.725  1.00  0.00     0.067 C 
ATOM     14  C   UNL A   1      34.943  22.093  26.320  1.00  0.00     0.028 A 
ATOM     15  C   UNL A   1      33.199  22.715  27.973  1.00  0.00     0.045 C 
BRANCH   9  16
ATOM     16  N   UNL A   1      32.458  22.281  22.980  1.00  0.00    -0.350 N 
BRANCH  16  17
ATOM     17  C   UNL A   1      32.012  21.085  22.272  1.00  0.00     0.115 C 
ATOM     18  C   UNL A   1      32.249  19.821  23.085  1.00  0.00     0.027 C 
ENDBRANCH  16  17
BRANCH  16  19
ATOM     19  C   UNL A   1      31.597  23.478  22.833  1.00  0.00     0.174 C 
BRANCH  19  20
ATOM     20  C   UNL A   1      32.249  24.850  22.663  1.00  0.00     0.060 A 
ATOM     21  C   UNL A   1      33.609  25.091  22.875  1.00  0.00     0.026 A 
ATOM     22  N   UNL A   1      31.396  25.862  22.345  1.00  0.00    -0.259 NA
ATOM     23  C   UNL A   1      34.111  26.383  22.726  1.00  0.00     0.004 A 
ATOM     24  C   UNL A   1      31.907  27.107  22.224  1.00  0.00     0.111 A 
ATOM     25  C   UNL A   1      33.245  27.414  22.394  1.00  0.00     0.020 A 
ENDBRANCH  19  20
ENDBRANCH  16  19
ENDBRANCH   9  16
ENDBRANCH   6   8
ENDBRANCH   5   6
ENDBRANCH   4   5
ENDBRANCH   3   4
ENDBRANCH   2   3
ENDBRANCH   1   2
BRANCH   1  26
ATOM     26  C   UNL A   1      31.691  29.059  25.725  1.00  0.00     0.188 C 
BRANCH  26  27
ATOM     27  O   UNL A   1      32.204  30.312  26.158  1.00  0.00    -0.376 OA
BRANCH  27  28
ATOM     28  C   UNL A   1      33.473  30.353  26.789  1.00  0.00     0.202 C 
BRANCH  28  29
ATOM     29  C   UNL A   1      33.860  31.618  27.570  1.00  0.00     0.261 C 
BRANCH  29  30
ATOM     30  O   UNL A   1      32.888  32.683  27.609  1.00  0.00    -0.460 OA
BRANCH  30  31
ATOM     31  C   UNL A   1      33.297  33.833  28.208  1.00  0.00     0.338 C 
ATOM     32  O   UNL A   1      32.789  34.934  28.080  1.00  0.00    -0.246 OA
BRANCH  31  33
ATOM     33  C   UNL A   1      34.393  33.566  29.176  1.00  0.00     0.060 A 
ATOM     34  C   UNL A   1      35.622  34.221  29.005  1.00  0.00     0.016 A 
ATOM     35  C   UNL A   1      34.258  32.604  30.179  1.00  0.00     0.016 A 
ATOM     36  C   UNL A   1      36.722  33.891  29.808  1.00  0.00     0.010 A 
ATOM     37  C   UNL A   1      35.368  32.262  30.970  1.00  0.00     0.010 A 
ATOM     38  C   UNL A   1      36.617  32.881  30.775  1.00  0.00    -0.014 A 
BRANCH  38  39
ATOM     39  C   UNL A   1      37.837  32.344  31.447  1.00  0.00     0.031 A 
ATOM     40  C   UNL A   1      38.586  31.214  30.784  1.00  0.00     0.074 A 
ATOM     41  C   UNL A   1      38.283  32.831  32.621  1.00  0.00     0.049 A 
ATOM     42  N   UNL A   1      39.611  30.528  31.221  1.00  0.00    -0.248 NA
ATOM     43  C   UNL A   1      38.109  30.802  29.455  1.00  0.00     0.031 C 
ATOM     44  C   UNL A   1      37.687  33.949  33.347  1.00  0.00     0.029 A 
ATOM     45  N   UNL A   1      39.336  32.445  33.419  1.00  0.00    -0.354 N 
ATOM     46  C   UNL A   1      39.893  29.593  30.231  1.00  0.00     0.074 A 
ATOM     47  C   UNL A   1      38.923  29.795  29.176  1.00  0.00     0.031 C 
ATOM     48  C   UNL A   1      38.382  34.159  34.480  1.00  0.00     0.029 A 
ATOM     49  C   UNL A   1      39.432  33.148  34.600  1.00  0.00     0.049 A 
ATOM     50  H   UNL A   1      39.965  31.728  33.168  1.00  0.00     0.167 HD
ATOM     51  C   UNL A   1      40.865  28.648  30.206  1.00  0.00     0.034 A 
ATOM     52  C   UNL A   1      40.238  32.971  35.671  1.00  0.00     0.034 A 
ATOM     53  C   UNL A   1      41.820  28.439  31.266  1.00  0.00     0.049 A 
ATOM     54  C   UNL A   1      41.249  31.840  35.659  1.00  0.00     0.074 A 
ATOM     55  C   UNL A   1      42.853  27.518  31.319  1.00  0.00     0.029 A 
ATOM     56  N   UNL A   1      41.854  29.140  32.463  1.00  0.00    -0.354 N 
ATOM     57  N   UNL A   1      41.511  30.975  34.705  1.00  0.00    -0.248 NA
ATOM     58  C   UNL A   1      42.071  31.659  36.866  1.00  0.00     0.031 C 
ATOM     59  C   UNL A   1      43.451  27.599  32.580  1.00  0.00     0.029 A 
ATOM     60  C   UNL A   1      42.861  28.641  33.275  1.00  0.00     0.049 A 
ATOM     61  H   UNL A   1      41.252  29.881  32.700  1.00  0.00     0.167 HD
ATOM     62  C   UNL A   1      42.558  30.185  35.185  1.00  0.00     0.074 A 
ATOM     63  C   UNL A   1      42.885  30.679  36.502  1.00  0.00     0.031 C 
ATOM     64  C   UNL A   1      43.195  29.147  34.585  1.00  0.00     0.034 A 
BRANCH  51  65
ATOM     65  C   UNL A   1      40.907  27.715  29.022  1.00  0.00     0.023 A 
ATOM     66  C   UNL A   1      41.858  27.855  27.998  1.00  0.00     0.031 A 
ATOM     67  C   UNL A   1      39.994  26.649  28.937  1.00  0.00     0.131 A 
ATOM     68  C   UNL A   1      41.844  26.968  26.909  1.00  0.00     0.055 A 
ATOM     69  C   UNL A   1      40.032  25.729  27.889  1.00  0.00     0.041 A 
ATOM     70  F   UNL A   1      39.048  26.483  29.876  1.00  0.00    -0.206 F 
ATOM     71  C   UNL A   1      40.957  25.890  26.863  1.00  0.00     0.022 A 
BRANCH  68  72
ATOM     72  S   UNL A   1      42.934  27.307  25.500  1.00  0.00     0.124 S 
ATOM     73  O   UNL A   1      43.111  25.971  24.936  1.00  0.00    -0.237 OA
ATOM     74  O   UNL A   1      42.143  28.237  24.704  1.00  0.00    -0.237 OA
ATOM     75  O   UNL A   1      44.129  27.877  26.121  1.00  0.00    -0.744 OA
ENDBRANCH  68  72
ENDBRANCH  51  65
BRANCH  52  76
ATOM     76  C   UNL A   1      40.095  33.817  36.901  1.00  0.00     0.023 A 
ATOM     77  C   UNL A   1      40.969  34.888  37.156  1.00  0.00     0.031 A 
ATOM     78  C   UNL A   1      39.166  33.482  37.904  1.00  0.00     0.131 A 
ATOM     79  C   UNL A   1      40.953  35.527  38.407  1.00  0.00     0.055 A 
ATOM     80  C   UNL A   1      39.100  34.175  39.115  1.00  0.00     0.041 A 
ATOM     81  F   UNL A   1      38.315  32.459  37.730  1.00  0.00    -0.206 F 
ATOM     82  C   UNL A   1      40.013  35.190  39.382  1.00  0.00     0.022 A 
BRANCH  79  83
ATOM     83  S   UNL A   1      42.290  36.690  38.808  1.00  0.00     0.124 S 
ATOM     84  O   UNL A   1      43.241  35.820  39.490  1.00  0.00    -0.237 OA
ATOM     85  O   UNL A   1      42.687  37.164  37.487  1.00  0.00    -0.237 OA
ATOM     86  O   UNL A   1      41.633  37.683  39.655  1.00  0.00    -0.744 OA
ENDBRANCH  79  83
ENDBRANCH  52  76
BRANCH  64  87
ATOM     87  C   UNL A   1      44.369  28.525  35.309  1.00  0.00     0.023 A 
ATOM     88  C   UNL A   1      44.206  27.572  36.329  1.00  0.00     0.031 A 
ATOM     89  C   UNL A   1      45.681  28.888  34.950  1.00  0.00     0.131 A 
ATOM     90  C   UNL A   1      45.332  27.049  36.984  1.00  0.00     0.055 A 
ATOM     91  C   UNL A   1      46.798  28.317  35.561  1.00  0.00     0.041 A 
ATOM     92  F   UNL A   1      45.900  29.796  33.985  1.00  0.00    -0.206 F 
ATOM     93  C   UNL A   1      46.627  27.400  36.592  1.00  0.00     0.022 A 
BRANCH  90  94
ATOM     94  S   UNL A   1      45.088  25.961  38.417  1.00  0.00     0.124 S 
ATOM     95  O   UNL A   1      44.275  26.795  39.296  1.00  0.00    -0.237 OA
ATOM     96  O   UNL A   1      44.412  24.812  37.824  1.00  0.00    -0.237 OA
ATOM     97  O   UNL A   1      46.447  25.704  38.888  1.00  0.00    -0.744 OA
ENDBRANCH  90  94
ENDBRANCH  64  87
ENDBRANCH  38  39
ENDBRANCH  31  33
ENDBRANCH  30  31
ENDBRANCH  29  30
ENDBRANCH  28  29
ENDBRANCH  27  28
ENDBRANCH  26  27
ENDBRANCH   1  26
TORSDOF 24
ENDMDL
