MODEL 1
REMARK VINA RESULT:     -11.6      0.000      0.000
REMARK SMILES O=C1C[C@@H](C(=O)OCCOCCOCCOC(=O)c2ccc(-c3c4nc(c(-c5cc(S(=O)(=O)[O-])ccc5F)c5ccc([nH]5)c(-c5cc(S(=O)(=O)[O-])ccc5F)c5nc(c(-c6cc(S(=O)(=O)[O-])ccc6F)c6ccc3[nH]6)C=C5)C=C4)cc2)C2(CC[NH+](Cc3c[nH]nc3-c3ccc(Cl)cc3)CC2)N1
REMARK SMILES IDX 11 1 10 2 9 3 8 4 7 5 5 6 6 7 4 8 1 9 2 10 3 11 101 12 82 13
REMARK SMILES IDX 83 15 100 16 84 17 99 18 85 19 86 21 87 22 88 23 91 24 89 25
REMARK SMILES IDX 90 26 92 28 93 29 98 30 94 31 97 32 95 33 96 34 12 35 13 36
REMARK SMILES IDX 14 37 15 38 16 39 17 40 18 41 19 42 20 43 81 44 21 45 80 46
REMARK SMILES IDX 22 47 23 48 24 49 74 50 25 51 79 52 73 53 75 54 26 55 78 56
REMARK SMILES IDX 72 57 71 58 27 60 59 61 39 62 58 63 40 64 43 65 57 66 76 67
REMARK SMILES IDX 41 68 42 69 56 71 77 72 44 73 28 74 29 75 37 76 30 77 36 78
REMARK SMILES IDX 38 79 35 80 31 81 32 82 33 83 34 84 60 85 61 86 69 87 62 88
REMARK SMILES IDX 68 89 70 90 67 91 63 92 64 93 65 94 66 95 45 96 46 97 54 98
REMARK SMILES IDX 47 99 53 100 55 101 52 102 48 103 49 104 50 105 51 106
REMARK H PARENT 101 14 85 20 89 27 75 59 43 70
REMARK Flexibility Score: inf
ROOT
ATOM      1  C   UNL A   1      36.036  22.949  25.811  1.00  0.00     0.188 C 
ENDROOT
BRANCH   1   2
ATOM      2  O   UNL A   1      36.110  21.973  24.778  1.00  0.00    -0.376 OA
BRANCH   2   3
ATOM      3  C   UNL A   1      35.805  20.618  25.065  1.00  0.00     0.202 C 
BRANCH   3   4
ATOM      4  C   UNL A   1      34.393  20.118  24.693  1.00  0.00     0.261 C 
BRANCH   4   5
ATOM      5  O   UNL A   1      33.403  21.070  24.212  1.00  0.00    -0.463 OA
BRANCH   5   6
ATOM      6  C   UNL A   1      32.433  21.397  25.101  1.00  0.00     0.311 C 
ATOM      7  O   UNL A   1      31.490  20.651  25.360  1.00  0.00    -0.252 OA
BRANCH   6   8
ATOM      8  C   UNL A   1      32.460  22.807  25.705  1.00  0.00     0.134 C 
ATOM      9  O   UNL A   1      29.385  23.227  27.468  1.00  0.00    -0.275 OA
ATOM     10  C   UNL A   1      30.404  23.330  26.798  1.00  0.00     0.221 C 
ATOM     11  C   UNL A   1      31.726  22.666  27.059  1.00  0.00     0.117 C 
ATOM     12  N   UNL A   1      30.533  24.128  25.695  1.00  0.00    -0.349 N 
ATOM     13  C   UNL A   1      31.871  24.131  25.137  1.00  0.00     0.064 C 
ATOM     14  H   UNL A   1      29.789  24.650  25.317  1.00  0.00     0.164 HD
ATOM     15  C   UNL A   1      31.750  24.315  23.631  1.00  0.00     0.091 C 
ATOM     16  C   UNL A   1      32.651  25.362  25.727  1.00  0.00     0.091 C 
ATOM     17  C   UNL A   1      33.101  24.613  23.018  1.00  0.00     0.264 C 
ATOM     18  C   UNL A   1      33.886  25.838  24.933  1.00  0.00     0.264 C 
ATOM     19  N   UNL A   1      33.743  25.818  23.488  1.00  0.00    -0.331 N 
ATOM     20  H   UNL A   1      34.713  25.770  23.176  1.00  0.00     0.348 HD
BRANCH  19  21
ATOM     21  C   UNL A   1      33.446  27.063  22.762  1.00  0.00     0.303 C 
BRANCH  21  22
ATOM     22  C   UNL A   1      32.077  27.590  23.038  1.00  0.00     0.052 A 
ATOM     23  C   UNL A   1      30.916  27.150  22.430  1.00  0.00     0.115 A 
ATOM     24  C   UNL A   1      31.619  28.573  23.985  1.00  0.00     0.101 A 
ATOM     25  N   UNL A   1      29.925  27.969  22.854  1.00  0.00    -0.285 N 
ATOM     26  N   UNL A   1      30.307  28.818  23.810  1.00  0.00    -0.175 NA
ATOM     27  H   UNL A   1      29.010  27.941  22.491  1.00  0.00     0.189 HD
BRANCH  24  28
ATOM     28  C   UNL A   1      32.321  29.297  25.049  1.00  0.00     0.003 A 
ATOM     29  C   UNL A   1      33.614  28.891  25.412  1.00  0.00     0.012 A 
ATOM     30  C   UNL A   1      31.724  30.322  25.781  1.00  0.00     0.012 A 
ATOM     31  C   UNL A   1      34.294  29.504  26.472  1.00  0.00     0.021 A 
ATOM     32  C   UNL A   1      32.406  30.951  26.833  1.00  0.00     0.021 A 
ATOM     33  C   UNL A   1      33.686  30.537  27.178  1.00  0.00     0.041 A 
ATOM     34  Cl  UNL A   1      34.500  31.283  28.497  1.00  0.00    -0.084 Cl
ENDBRANCH  24  28
ENDBRANCH  21  22
ENDBRANCH  19  21
ENDBRANCH   6   8
ENDBRANCH   5   6
ENDBRANCH   4   5
ENDBRANCH   3   4
ENDBRANCH   2   3
ENDBRANCH   1   2
BRANCH   1  35
ATOM     35  C   UNL A   1      37.297  23.707  26.195  1.00  0.00     0.188 C 
BRANCH  35  36
ATOM     36  O   UNL A   1      38.475  23.154  25.646  1.00  0.00    -0.376 OA
BRANCH  36  37
ATOM     37  C   UNL A   1      39.199  22.293  26.503  1.00  0.00     0.202 C 
BRANCH  37  38
ATOM     38  C   UNL A   1      39.467  20.932  25.854  1.00  0.00     0.261 C 
BRANCH  38  39
ATOM     39  O   UNL A   1      40.357  20.063  26.592  1.00  0.00    -0.460 OA
BRANCH  39  40
ATOM     40  C   UNL A   1      41.614  19.940  26.103  1.00  0.00     0.338 C 
ATOM     41  O   UNL A   1      42.018  19.050  25.377  1.00  0.00    -0.246 OA
BRANCH  40  42
ATOM     42  C   UNL A   1      42.391  21.153  26.434  1.00  0.00     0.060 A 
ATOM     43  C   UNL A   1      42.656  21.440  27.774  1.00  0.00     0.016 A 
ATOM     44  C   UNL A   1      42.776  22.060  25.456  1.00  0.00     0.016 A 
ATOM     45  C   UNL A   1      43.260  22.627  28.166  1.00  0.00     0.010 A 
ATOM     46  C   UNL A   1      43.418  23.248  25.841  1.00  0.00     0.010 A 
ATOM     47  C   UNL A   1      43.647  23.551  27.200  1.00  0.00    -0.014 A 
BRANCH  47  48
ATOM     48  C   UNL A   1      44.187  24.873  27.611  1.00  0.00     0.031 A 
ATOM     49  C   UNL A   1      43.237  25.913  28.133  1.00  0.00     0.074 A 
ATOM     50  C   UNL A   1      45.505  25.143  27.537  1.00  0.00     0.049 A 
ATOM     51  N   UNL A   1      43.420  27.193  28.312  1.00  0.00    -0.248 NA
ATOM     52  C   UNL A   1      41.890  25.438  28.479  1.00  0.00     0.031 C 
ATOM     53  C   UNL A   1      46.546  24.188  27.154  1.00  0.00     0.029 A 
ATOM     54  N   UNL A   1      46.192  26.310  27.764  1.00  0.00    -0.354 N 
ATOM     55  C   UNL A   1      42.190  27.693  28.726  1.00  0.00     0.074 A 
ATOM     56  C   UNL A   1      41.273  26.574  28.760  1.00  0.00     0.031 C 
ATOM     57  C   UNL A   1      47.734  24.811  27.156  1.00  0.00     0.029 A 
ATOM     58  C   UNL A   1      47.528  26.227  27.446  1.00  0.00     0.049 A 
ATOM     59  H   UNL A   1      45.770  27.127  28.119  1.00  0.00     0.167 HD
ATOM     60  C   UNL A   1      41.864  28.975  29.034  1.00  0.00     0.034 A 
ATOM     61  C   UNL A   1      48.464  27.189  27.325  1.00  0.00     0.034 A 
ATOM     62  C   UNL A   1      42.814  30.061  29.009  1.00  0.00     0.049 A 
ATOM     63  C   UNL A   1      48.068  28.619  27.584  1.00  0.00     0.074 A 
ATOM     64  C   UNL A   1      42.608  31.394  29.319  1.00  0.00     0.029 A 
ATOM     65  N   UNL A   1      44.151  29.942  28.644  1.00  0.00    -0.354 N 
ATOM     66  N   UNL A   1      46.893  29.102  27.920  1.00  0.00    -0.248 NA
ATOM     67  C   UNL A   1      49.119  29.633  27.441  1.00  0.00     0.031 C 
ATOM     68  C   UNL A   1      43.792  32.093  29.055  1.00  0.00     0.029 A 
ATOM     69  C   UNL A   1      44.769  31.184  28.677  1.00  0.00     0.049 A 
ATOM     70  H   UNL A   1      44.595  29.099  28.396  1.00  0.00     0.167 HD
ATOM     71  C   UNL A   1      47.071  30.478  28.051  1.00  0.00     0.074 A 
ATOM     72  C   UNL A   1      48.469  30.740  27.772  1.00  0.00     0.031 C 
ATOM     73  C   UNL A   1      46.162  31.434  28.379  1.00  0.00     0.034 A 
BRANCH  60  74
ATOM     74  C   UNL A   1      40.409  29.267  29.324  1.00  0.00     0.023 A 
ATOM     75  C   UNL A   1      39.900  29.335  30.634  1.00  0.00     0.031 A 
ATOM     76  C   UNL A   1      39.496  29.402  28.261  1.00  0.00     0.131 A 
ATOM     77  C   UNL A   1      38.515  29.423  30.843  1.00  0.00     0.055 A 
ATOM     78  C   UNL A   1      38.130  29.592  28.479  1.00  0.00     0.041 A 
ATOM     79  F   UNL A   1      39.912  29.321  26.988  1.00  0.00    -0.206 F 
ATOM     80  C   UNL A   1      37.629  29.581  29.776  1.00  0.00     0.022 A 
BRANCH  77  81
ATOM     81  S   UNL A   1      37.875  29.125  32.515  1.00  0.00     0.124 S 
ATOM     82  O   UNL A   1      38.088  27.686  32.659  1.00  0.00    -0.237 OA
ATOM     83  O   UNL A   1      38.724  29.980  33.335  1.00  0.00    -0.237 OA
ATOM     84  O   UNL A   1      36.474  29.533  32.425  1.00  0.00    -0.744 OA
ENDBRANCH  77  81
ENDBRANCH  60  74
BRANCH  61  85
ATOM     85  C   UNL A   1      49.836  26.837  26.853  1.00  0.00     0.023 A 
ATOM     86  C   UNL A   1      50.925  26.790  27.736  1.00  0.00     0.031 A 
ATOM     87  C   UNL A   1      50.075  26.546  25.496  1.00  0.00     0.131 A 
ATOM     88  C   UNL A   1      52.205  26.476  27.250  1.00  0.00     0.055 A 
ATOM     89  C   UNL A   1      51.337  26.181  25.028  1.00  0.00     0.041 A 
ATOM     90  F   UNL A   1      49.070  26.584  24.606  1.00  0.00    -0.206 F 
ATOM     91  C   UNL A   1      52.415  26.153  25.907  1.00  0.00     0.022 A 
BRANCH  88  92
ATOM     92  S   UNL A   1      53.612  26.553  28.391  1.00  0.00     0.124 S 
ATOM     93  O   UNL A   1      52.977  26.239  29.666  1.00  0.00    -0.237 OA
ATOM     94  O   UNL A   1      54.500  25.530  27.849  1.00  0.00    -0.237 OA
ATOM     95  O   UNL A   1      54.090  27.927  28.253  1.00  0.00    -0.744 OA
ENDBRANCH  88  92
ENDBRANCH  61  85
BRANCH  73  96
ATOM     96  C   UNL A   1      46.671  32.850  28.501  1.00  0.00     0.023 A 
ATOM     97  C   UNL A   1      46.820  33.689  27.384  1.00  0.00     0.031 A 
ATOM     98  C   UNL A   1      47.020  33.366  29.764  1.00  0.00     0.131 A 
ATOM     99  C   UNL A   1      47.358  34.975  27.542  1.00  0.00     0.055 A 
ATOM    100  C   UNL A   1      47.486  34.671  29.924  1.00  0.00     0.041 A 
ATOM    101  F   UNL A   1      46.907  32.608  30.867  1.00  0.00    -0.206 F 
ATOM    102  C   UNL A   1      47.671  35.480  28.806  1.00  0.00     0.022 A 
BRANCH  99 103
ATOM    103  S   UNL A   1      47.749  35.945  26.059  1.00  0.00     0.124 S 
ATOM    104  O   UNL A   1      49.003  36.587  26.441  1.00  0.00    -0.237 OA
ATOM    105  O   UNL A   1      47.846  34.916  25.028  1.00  0.00    -0.237 OA
ATOM    106  O   UNL A   1      46.607  36.848  25.929  1.00  0.00    -0.744 OA
ENDBRANCH  99 103
ENDBRANCH  73  96
ENDBRANCH  47  48
ENDBRANCH  40  42
ENDBRANCH  39  40
ENDBRANCH  38  39
ENDBRANCH  37  38
ENDBRANCH  36  37
ENDBRANCH  35  36
ENDBRANCH   1  35
TORSDOF 23
ENDMDL
MODEL 2
REMARK VINA RESULT:     -10.9      2.041      7.550
REMARK SMILES O=C1C[C@@H](C(=O)OCCOCCOCCOC(=O)c2ccc(-c3c4nc(c(-c5cc(S(=O)(=O)[O-])ccc5F)c5ccc([nH]5)c(-c5cc(S(=O)(=O)[O-])ccc5F)c5nc(c(-c6cc(S(=O)(=O)[O-])ccc6F)c6ccc3[nH]6)C=C5)C=C4)cc2)C2(CC[NH+](Cc3c[nH]nc3-c3ccc(Cl)cc3)CC2)N1
REMARK SMILES IDX 11 1 10 2 9 3 8 4 7 5 5 6 6 7 4 8 1 9 2 10 3 11 101 12 82 13
REMARK SMILES IDX 83 15 100 16 84 17 99 18 85 19 86 21 87 22 88 23 91 24 89 25
REMARK SMILES IDX 90 26 92 28 93 29 98 30 94 31 97 32 95 33 96 34 12 35 13 36
REMARK SMILES IDX 14 37 15 38 16 39 17 40 18 41 19 42 20 43 81 44 21 45 80 46
REMARK SMILES IDX 22 47 23 48 24 49 74 50 25 51 79 52 73 53 75 54 26 55 78 56
REMARK SMILES IDX 72 57 71 58 27 60 59 61 39 62 58 63 40 64 43 65 57 66 76 67
REMARK SMILES IDX 41 68 42 69 56 71 77 72 44 73 28 74 29 75 37 76 30 77 36 78
REMARK SMILES IDX 38 79 35 80 31 81 32 82 33 83 34 84 60 85 61 86 69 87 62 88
REMARK SMILES IDX 68 89 70 90 67 91 63 92 64 93 65 94 66 95 45 96 46 97 54 98
REMARK SMILES IDX 47 99 53 100 55 101 52 102 48 103 49 104 50 105 51 106
REMARK H PARENT 101 14 85 20 89 27 75 59 43 70
REMARK Flexibility Score: inf
ROOT
ATOM      1  C   UNL A   1      39.246  21.890  26.143  1.00  0.00     0.188 C 
ENDROOT
BRANCH   1   2
ATOM      2  O   UNL A   1      38.599  23.081  26.579  1.00  0.00    -0.376 OA
BRANCH   2   3
ATOM      3  C   UNL A   1      37.835  23.845  25.661  1.00  0.00     0.202 C 
BRANCH   3   4
ATOM      4  C   UNL A   1      36.964  23.070  24.651  1.00  0.00     0.261 C 
BRANCH   4   5
ATOM      5  O   UNL A   1      35.529  22.967  24.876  1.00  0.00    -0.463 OA
BRANCH   5   6
ATOM      6  C   UNL A   1      35.079  21.726  25.183  1.00  0.00     0.311 C 
ATOM      7  O   UNL A   1      35.795  20.727  25.131  1.00  0.00    -0.252 OA
BRANCH   6   8
ATOM      8  C   UNL A   1      33.584  21.560  25.483  1.00  0.00     0.134 C 
ATOM      9  O   UNL A   1      32.297  19.280  23.057  1.00  0.00    -0.275 OA
ATOM     10  C   UNL A   1      32.512  20.182  23.856  1.00  0.00     0.221 C 
ATOM     11  C   UNL A   1      33.279  20.082  25.143  1.00  0.00     0.117 C 
ATOM     12  N   UNL A   1      32.037  21.459  23.735  1.00  0.00    -0.349 N 
ATOM     13  C   UNL A   1      32.368  22.308  24.863  1.00  0.00     0.064 C 
ATOM     14  H   UNL A   1      31.520  21.771  22.957  1.00  0.00     0.164 HD
ATOM     15  C   UNL A   1      32.543  23.728  24.344  1.00  0.00     0.091 C 
ATOM     16  C   UNL A   1      31.157  22.292  25.866  1.00  0.00     0.091 C 
ATOM     17  C   UNL A   1      32.606  24.713  25.491  1.00  0.00     0.264 C 
ATOM     18  C   UNL A   1      31.078  23.465  26.865  1.00  0.00     0.264 C 
ATOM     19  N   UNL A   1      31.431  24.767  26.327  1.00  0.00    -0.331 N 
ATOM     20  H   UNL A   1      31.696  25.282  27.167  1.00  0.00     0.348 HD
BRANCH  19  21
ATOM     21  C   UNL A   1      30.372  25.711  25.937  1.00  0.00     0.303 C 
BRANCH  21  22
ATOM     22  C   UNL A   1      30.710  26.499  24.715  1.00  0.00     0.052 A 
ATOM     23  C   UNL A   1      30.151  26.310  23.465  1.00  0.00     0.115 A 
ATOM     24  C   UNL A   1      31.588  27.626  24.533  1.00  0.00     0.101 A 
ATOM     25  N   UNL A   1      30.820  27.126  22.616  1.00  0.00    -0.285 N 
ATOM     26  N   UNL A   1      31.671  27.950  23.229  1.00  0.00    -0.175 NA
ATOM     27  H   UNL A   1      30.691  27.111  21.640  1.00  0.00     0.189 HD
BRANCH  24  28
ATOM     28  C   UNL A   1      32.352  28.427  25.494  1.00  0.00     0.003 A 
ATOM     29  C   UNL A   1      31.784  29.604  26.005  1.00  0.00     0.012 A 
ATOM     30  C   UNL A   1      33.661  28.116  25.859  1.00  0.00     0.012 A 
ATOM     31  C   UNL A   1      32.504  30.440  26.868  1.00  0.00     0.021 A 
ATOM     32  C   UNL A   1      34.381  28.940  26.735  1.00  0.00     0.021 A 
ATOM     33  C   UNL A   1      33.803  30.101  27.232  1.00  0.00     0.041 A 
ATOM     34  Cl  UNL A   1      34.707  31.130  28.273  1.00  0.00    -0.084 Cl
ENDBRANCH  24  28
ENDBRANCH  21  22
ENDBRANCH  19  21
ENDBRANCH   6   8
ENDBRANCH   5   6
ENDBRANCH   4   5
ENDBRANCH   3   4
ENDBRANCH   2   3
ENDBRANCH   1   2
BRANCH   1  35
ATOM     35  C   UNL A   1      40.642  21.583  26.659  1.00  0.00     0.188 C 
BRANCH  35  36
ATOM     36  O   UNL A   1      40.664  20.610  27.682  1.00  0.00    -0.376 OA
BRANCH  36  37
ATOM     37  C   UNL A   1      41.625  19.585  27.526  1.00  0.00     0.202 C 
BRANCH  37  38
ATOM     38  C   UNL A   1      42.163  19.517  26.094  1.00  0.00     0.261 C 
BRANCH  38  39
ATOM     39  O   UNL A   1      43.589  19.305  25.981  1.00  0.00    -0.460 OA
BRANCH  39  40
ATOM     40  C   UNL A   1      44.173  19.751  24.843  1.00  0.00     0.338 C 
ATOM     41  O   UNL A   1      44.263  19.138  23.795  1.00  0.00    -0.246 OA
BRANCH  40  42
ATOM     42  C   UNL A   1      44.530  21.177  25.000  1.00  0.00     0.060 A 
ATOM     43  C   UNL A   1      45.069  21.607  26.214  1.00  0.00     0.016 A 
ATOM     44  C   UNL A   1      44.251  22.110  24.011  1.00  0.00     0.016 A 
ATOM     45  C   UNL A   1      45.301  22.950  26.479  1.00  0.00     0.010 A 
ATOM     46  C   UNL A   1      44.514  23.466  24.258  1.00  0.00     0.010 A 
ATOM     47  C   UNL A   1      45.023  23.901  25.502  1.00  0.00    -0.014 A 
BRANCH  47  48
ATOM     48  C   UNL A   1      45.156  25.348  25.813  1.00  0.00     0.031 A 
ATOM     49  C   UNL A   1      46.508  25.990  25.705  1.00  0.00     0.074 A 
ATOM     50  C   UNL A   1      44.088  26.086  26.173  1.00  0.00     0.049 A 
ATOM     51  N   UNL A   1      46.921  27.145  26.155  1.00  0.00    -0.248 NA
ATOM     52  C   UNL A   1      47.539  25.207  25.009  1.00  0.00     0.031 C 
ATOM     53  C   UNL A   1      42.703  25.612  26.211  1.00  0.00     0.029 A 
ATOM     54  N   UNL A   1      44.003  27.390  26.595  1.00  0.00    -0.354 N 
ATOM     55  C   UNL A   1      48.279  27.199  25.859  1.00  0.00     0.074 A 
ATOM     56  C   UNL A   1      48.614  25.955  25.199  1.00  0.00     0.031 C 
ATOM     57  C   UNL A   1      41.912  26.604  26.647  1.00  0.00     0.029 A 
ATOM     58  C   UNL A   1      42.742  27.748  27.011  1.00  0.00     0.049 A 
ATOM     59  H   UNL A   1      44.771  28.008  26.600  1.00  0.00     0.167 HD
ATOM     60  C   UNL A   1      49.159  28.197  26.129  1.00  0.00     0.034 A 
ATOM     61  C   UNL A   1      42.313  28.839  27.678  1.00  0.00     0.034 A 
ATOM     62  C   UNL A   1      48.781  29.434  26.771  1.00  0.00     0.049 A 
ATOM     63  C   UNL A   1      43.316  29.898  28.051  1.00  0.00     0.074 A 
ATOM     64  C   UNL A   1      49.577  30.523  27.080  1.00  0.00     0.029 A 
ATOM     65  N   UNL A   1      47.499  29.743  27.212  1.00  0.00    -0.354 N 
ATOM     66  N   UNL A   1      44.610  29.927  27.822  1.00  0.00    -0.248 NA
ATOM     67  C   UNL A   1      42.805  31.067  28.776  1.00  0.00     0.031 C 
ATOM     68  C   UNL A   1      48.798  31.448  27.784  1.00  0.00     0.029 A 
ATOM     69  C   UNL A   1      47.491  30.986  27.829  1.00  0.00     0.049 A 
ATOM     70  H   UNL A   1      46.710  29.164  27.103  1.00  0.00     0.167 HD
ATOM     71  C   UNL A   1      45.064  31.131  28.358  1.00  0.00     0.074 A 
ATOM     72  C   UNL A   1      43.901  31.802  28.905  1.00  0.00     0.031 C 
ATOM     73  C   UNL A   1      46.325  31.636  28.387  1.00  0.00     0.034 A 
BRANCH  60  74
ATOM     74  C   UNL A   1      50.615  27.936  25.818  1.00  0.00     0.023 A 
ATOM     75  C   UNL A   1      51.169  28.175  24.548  1.00  0.00     0.031 A 
ATOM     76  C   UNL A   1      51.449  27.361  26.796  1.00  0.00     0.131 A 
ATOM     77  C   UNL A   1      52.474  27.744  24.260  1.00  0.00     0.055 A 
ATOM     78  C   UNL A   1      52.779  27.028  26.532  1.00  0.00     0.041 A 
ATOM     79  F   UNL A   1      50.976  27.083  28.021  1.00  0.00    -0.206 F 
ATOM     80  C   UNL A   1      53.293  27.198  25.251  1.00  0.00     0.022 A 
BRANCH  77  81
ATOM     81  S   UNL A   1      53.012  27.721  22.527  1.00  0.00     0.124 S 
ATOM     82  O   UNL A   1      52.758  26.329  22.159  1.00  0.00    -0.237 OA
ATOM     83  O   UNL A   1      52.137  28.713  21.912  1.00  0.00    -0.237 OA
ATOM     84  O   UNL A   1      54.424  28.090  22.600  1.00  0.00    -0.744 OA
ENDBRANCH  77  81
ENDBRANCH  60  74
BRANCH  61  85
ATOM     85  C   UNL A   1      40.888  28.933  28.112  1.00  0.00     0.023 A 
ATOM     86  C   UNL A   1      40.520  28.779  29.456  1.00  0.00     0.031 A 
ATOM     87  C   UNL A   1      39.867  29.176  27.173  1.00  0.00     0.131 A 
ATOM     88  C   UNL A   1      39.165  28.853  29.823  1.00  0.00     0.055 A 
ATOM     89  C   UNL A   1      38.530  29.303  27.549  1.00  0.00     0.041 A 
ATOM     90  F   UNL A   1      40.162  29.324  25.871  1.00  0.00    -0.206 F 
ATOM     91  C   UNL A   1      38.171  29.134  28.882  1.00  0.00     0.022 A 
BRANCH  88  92
ATOM     92  S   UNL A   1      38.711  28.520  31.546  1.00  0.00     0.124 S 
ATOM     93  O   UNL A   1      37.332  28.991  31.586  1.00  0.00    -0.237 OA
ATOM     94  O   UNL A   1      38.898  27.075  31.636  1.00  0.00    -0.237 OA
ATOM     95  O   UNL A   1      39.666  29.318  32.312  1.00  0.00    -0.744 OA
ENDBRANCH  88  92
ENDBRANCH  61  85
BRANCH  73  96
ATOM     96  C   UNL A   1      46.500  33.009  28.992  1.00  0.00     0.023 A 
ATOM     97  C   UNL A   1      46.309  34.183  28.244  1.00  0.00     0.031 A 
ATOM     98  C   UNL A   1      46.872  33.141  30.343  1.00  0.00     0.131 A 
ATOM     99  C   UNL A   1      46.547  35.434  28.834  1.00  0.00     0.055 A 
ATOM    100  C   UNL A   1      47.036  34.390  30.944  1.00  0.00     0.041 A 
ATOM    101  F   UNL A   1      47.076  32.054  31.105  1.00  0.00    -0.206 F 
ATOM    102  C   UNL A   1      46.887  35.546  30.184  1.00  0.00     0.022 A 
BRANCH  99 103
ATOM    103  S   UNL A   1      46.514  36.913  27.783  1.00  0.00     0.124 S 
ATOM    104  O   UNL A   1      45.175  37.435  28.041  1.00  0.00    -0.237 OA
ATOM    105  O   UNL A   1      47.620  37.701  28.317  1.00  0.00    -0.237 OA
ATOM    106  O   UNL A   1      46.722  36.382  26.437  1.00  0.00    -0.744 OA
ENDBRANCH  99 103
ENDBRANCH  73  96
ENDBRANCH  47  48
ENDBRANCH  40  42
ENDBRANCH  39  40
ENDBRANCH  38  39
ENDBRANCH  37  38
ENDBRANCH  36  37
ENDBRANCH  35  36
ENDBRANCH   1  35
TORSDOF 23
ENDMDL
MODEL 3
REMARK VINA RESULT:     -10.5      2.343      3.103
REMARK SMILES O=C1C[C@@H](C(=O)OCCOCCOCCOC(=O)c2ccc(-c3c4nc(c(-c5cc(S(=O)(=O)[O-])ccc5F)c5ccc([nH]5)c(-c5cc(S(=O)(=O)[O-])ccc5F)c5nc(c(-c6cc(S(=O)(=O)[O-])ccc6F)c6ccc3[nH]6)C=C5)C=C4)cc2)C2(CC[NH+](Cc3c[nH]nc3-c3ccc(Cl)cc3)CC2)N1
REMARK SMILES IDX 11 1 10 2 9 3 8 4 7 5 5 6 6 7 4 8 1 9 2 10 3 11 101 12 82 13
REMARK SMILES IDX 83 15 100 16 84 17 99 18 85 19 86 21 87 22 88 23 91 24 89 25
REMARK SMILES IDX 90 26 92 28 93 29 98 30 94 31 97 32 95 33 96 34 12 35 13 36
REMARK SMILES IDX 14 37 15 38 16 39 17 40 18 41 19 42 20 43 81 44 21 45 80 46
REMARK SMILES IDX 22 47 23 48 24 49 74 50 25 51 79 52 73 53 75 54 26 55 78 56
REMARK SMILES IDX 72 57 71 58 27 60 59 61 39 62 58 63 40 64 43 65 57 66 76 67
REMARK SMILES IDX 41 68 42 69 56 71 77 72 44 73 28 74 29 75 37 76 30 77 36 78
REMARK SMILES IDX 38 79 35 80 31 81 32 82 33 83 34 84 60 85 61 86 69 87 62 88
REMARK SMILES IDX 68 89 70 90 67 91 63 92 64 93 65 94 66 95 45 96 46 97 54 98
REMARK SMILES IDX 47 99 53 100 55 101 52 102 48 103 49 104 50 105 51 106
REMARK H PARENT 101 14 85 20 89 27 75 59 43 70
REMARK Flexibility Score: inf
ROOT
ATOM      1  C   UNL A   1      35.496  21.214  25.944  1.00  0.00     0.188 C 
ENDROOT
BRANCH   1   2
ATOM      2  O   UNL A   1      35.125  20.366  24.862  1.00  0.00    -0.376 OA
BRANCH   2   3
ATOM      3  C   UNL A   1      34.007  19.504  24.994  1.00  0.00     0.202 C 
BRANCH   3   4
ATOM      4  C   UNL A   1      33.171  19.233  23.726  1.00  0.00     0.261 C 
BRANCH   4   5
ATOM      5  O   UNL A   1      32.153  20.193  23.324  1.00  0.00    -0.463 OA
BRANCH   5   6
ATOM      6  C   UNL A   1      31.975  21.237  24.169  1.00  0.00     0.311 C 
ATOM      7  O   UNL A   1      31.637  21.091  25.343  1.00  0.00    -0.252 OA
BRANCH   6   8
ATOM      8  C   UNL A   1      32.079  22.654  23.591  1.00  0.00     0.134 C 
ATOM      9  O   UNL A   1      35.431  23.044  22.426  1.00  0.00    -0.275 OA
ATOM     10  C   UNL A   1      34.308  23.156  22.900  1.00  0.00     0.221 C 
ATOM     11  C   UNL A   1      33.047  22.517  22.392  1.00  0.00     0.117 C 
ATOM     12  N   UNL A   1      33.990  23.943  23.972  1.00  0.00    -0.349 N 
ATOM     13  C   UNL A   1      32.572  23.961  24.276  1.00  0.00     0.064 C 
ATOM     14  H   UNL A   1      34.660  24.449  24.487  1.00  0.00     0.164 HD
ATOM     15  C   UNL A   1      32.418  24.126  25.781  1.00  0.00     0.091 C 
ATOM     16  C   UNL A   1      31.931  25.213  23.571  1.00  0.00     0.091 C 
ATOM     17  C   UNL A   1      30.983  24.440  26.141  1.00  0.00     0.264 C 
ATOM     18  C   UNL A   1      30.579  25.699  24.133  1.00  0.00     0.264 C 
ATOM     19  N   UNL A   1      30.454  25.660  25.579  1.00  0.00    -0.331 N 
ATOM     20  H   UNL A   1      29.443  25.625  25.707  1.00  0.00     0.348 HD
BRANCH  19  21
ATOM     21  C   UNL A   1      30.630  26.892  26.364  1.00  0.00     0.303 C 
BRANCH  21  22
ATOM     22  C   UNL A   1      31.825  27.686  25.950  1.00  0.00     0.052 A 
ATOM     23  C   UNL A   1      33.127  27.423  26.330  1.00  0.00     0.115 A 
ATOM     24  C   UNL A   1      31.946  28.809  25.058  1.00  0.00     0.101 A 
ATOM     25  N   UNL A   1      33.880  28.444  25.856  1.00  0.00    -0.285 N 
ATOM     26  N   UNL A   1      33.207  29.280  25.064  1.00  0.00    -0.175 NA
ATOM     27  H   UNL A   1      34.834  28.558  26.076  1.00  0.00     0.189 HD
BRANCH  24  28
ATOM     28  C   UNL A   1      30.966  29.473  24.192  1.00  0.00     0.003 A 
ATOM     29  C   UNL A   1      30.346  30.649  24.641  1.00  0.00     0.012 A 
ATOM     30  C   UNL A   1      30.555  28.937  22.973  1.00  0.00     0.012 A 
ATOM     31  C   UNL A   1      29.350  31.277  23.882  1.00  0.00     0.021 A 
ATOM     32  C   UNL A   1      29.570  29.569  22.201  1.00  0.00     0.021 A 
ATOM     33  C   UNL A   1      28.968  30.734  22.661  1.00  0.00     0.041 A 
ATOM     34  Cl  UNL A   1      27.730  31.481  21.729  1.00  0.00    -0.084 Cl
ENDBRANCH  24  28
ENDBRANCH  21  22
ENDBRANCH  19  21
ENDBRANCH   6   8
ENDBRANCH   5   6
ENDBRANCH   4   5
ENDBRANCH   3   4
ENDBRANCH   2   3
ENDBRANCH   1   2
BRANCH   1  35
ATOM     35  C   UNL A   1      36.509  22.319  25.694  1.00  0.00     0.188 C 
BRANCH  35  36
ATOM     36  O   UNL A   1      37.640  21.892  24.963  1.00  0.00    -0.376 OA
BRANCH  36  37
ATOM     37  C   UNL A   1      38.816  21.694  25.723  1.00  0.00     0.202 C 
BRANCH  37  38
ATOM     38  C   UNL A   1      39.305  20.245  25.655  1.00  0.00     0.261 C 
BRANCH  38  39
ATOM     39  O   UNL A   1      40.381  19.915  26.563  1.00  0.00    -0.460 OA
BRANCH  39  40
ATOM     40  C   UNL A   1      41.631  19.926  26.041  1.00  0.00     0.338 C 
ATOM     41  O   UNL A   1      42.097  19.098  25.279  1.00  0.00    -0.246 OA
BRANCH  40  42
ATOM     42  C   UNL A   1      42.297  21.199  26.387  1.00  0.00     0.060 A 
ATOM     43  C   UNL A   1      42.633  21.444  27.719  1.00  0.00     0.016 A 
ATOM     44  C   UNL A   1      42.506  22.192  25.440  1.00  0.00     0.016 A 
ATOM     45  C   UNL A   1      43.136  22.669  28.137  1.00  0.00     0.010 A 
ATOM     46  C   UNL A   1      43.046  23.422  25.848  1.00  0.00     0.010 A 
ATOM     47  C   UNL A   1      43.346  23.678  27.203  1.00  0.00    -0.014 A 
BRANCH  47  48
ATOM     48  C   UNL A   1      43.773  25.029  27.653  1.00  0.00     0.031 A 
ATOM     49  C   UNL A   1      42.765  25.923  28.317  1.00  0.00     0.074 A 
ATOM     50  C   UNL A   1      45.041  25.452  27.487  1.00  0.00     0.049 A 
ATOM     51  N   UNL A   1      42.821  27.204  28.563  1.00  0.00    -0.248 NA
ATOM     52  C   UNL A   1      41.514  25.278  28.742  1.00  0.00     0.031 C 
ATOM     53  C   UNL A   1      46.142  24.645  26.958  1.00  0.00     0.029 A 
ATOM     54  N   UNL A   1      45.614  26.676  27.732  1.00  0.00    -0.354 N 
ATOM     55  C   UNL A   1      41.586  27.536  29.108  1.00  0.00     0.074 A 
ATOM     56  C   UNL A   1      40.804  26.319  29.146  1.00  0.00     0.031 C 
ATOM     57  C   UNL A   1      47.250  25.399  26.902  1.00  0.00     0.029 A 
ATOM     58  C   UNL A   1      46.917  26.764  27.299  1.00  0.00     0.049 A 
ATOM     59  H   UNL A   1      45.138  27.418  28.172  1.00  0.00     0.167 HD
ATOM     60  C   UNL A   1      41.151  28.753  29.525  1.00  0.00     0.034 A 
ATOM     61  C   UNL A   1      47.728  27.833  27.164  1.00  0.00     0.034 A 
ATOM     62  C   UNL A   1      41.970  29.941  29.491  1.00  0.00     0.049 A 
ATOM     63  C   UNL A   1      47.202  29.191  27.546  1.00  0.00     0.074 A 
ATOM     64  C   UNL A   1      41.648  31.222  29.902  1.00  0.00     0.029 A 
ATOM     65  N   UNL A   1      43.274  29.996  29.009  1.00  0.00    -0.354 N 
ATOM     66  N   UNL A   1      46.016  29.517  28.009  1.00  0.00    -0.248 NA
ATOM     67  C   UNL A   1      48.118  30.325  27.383  1.00  0.00     0.031 C 
ATOM     68  C   UNL A   1      42.720  32.065  29.587  1.00  0.00     0.029 A 
ATOM     69  C   UNL A   1      43.753  31.297  29.072  1.00  0.00     0.049 A 
ATOM     70  H   UNL A   1      43.783  29.225  28.672  1.00  0.00     0.167 HD
ATOM     71  C   UNL A   1      46.053  30.895  28.213  1.00  0.00     0.074 A 
ATOM     72  C   UNL A   1      47.384  31.331  27.837  1.00  0.00     0.031 C 
ATOM     73  C   UNL A   1      45.078  31.721  28.676  1.00  0.00     0.034 A 
BRANCH  60  74
ATOM     74  C   UNL A   1      39.705  28.860  29.952  1.00  0.00     0.023 A 
ATOM     75  C   UNL A   1      38.684  29.254  29.068  1.00  0.00     0.031 A 
ATOM     76  C   UNL A   1      39.353  28.637  31.297  1.00  0.00     0.131 A 
ATOM     77  C   UNL A   1      37.395  29.516  29.558  1.00  0.00     0.055 A 
ATOM     78  C   UNL A   1      38.045  28.801  31.757  1.00  0.00     0.041 A 
ATOM     79  F   UNL A   1      40.283  28.284  32.198  1.00  0.00    -0.206 F 
ATOM     80  C   UNL A   1      37.061  29.265  30.890  1.00  0.00     0.022 A 
BRANCH  77  81
ATOM     81  S   UNL A   1      36.221  30.381  28.478  1.00  0.00     0.124 S 
ATOM     82  O   UNL A   1      35.159  29.386  28.342  1.00  0.00    -0.237 OA
ATOM     83  O   UNL A   1      35.888  31.566  29.259  1.00  0.00    -0.237 OA
ATOM     84  O   UNL A   1      36.991  30.628  27.260  1.00  0.00    -0.744 OA
ENDBRANCH  77  81
ENDBRANCH  60  74
BRANCH  61  85
ATOM     85  C   UNL A   1      49.082  27.667  26.558  1.00  0.00     0.023 A 
ATOM     86  C   UNL A   1      50.228  27.530  27.354  1.00  0.00     0.031 A 
ATOM     87  C   UNL A   1      49.245  27.648  25.159  1.00  0.00     0.131 A 
ATOM     88  C   UNL A   1      51.489  27.398  26.747  1.00  0.00     0.055 A 
ATOM     89  C   UNL A   1      50.491  27.462  24.561  1.00  0.00     0.041 A 
ATOM     90  F   UNL A   1      48.182  27.783  24.350  1.00  0.00    -0.206 F 
ATOM     91  C   UNL A   1      51.625  27.344  25.357  1.00  0.00     0.022 A 
BRANCH  88  92
ATOM     92  S   UNL A   1      52.963  27.356  27.802  1.00  0.00     0.124 S 
ATOM     93  O   UNL A   1      52.946  28.692  28.388  1.00  0.00    -0.237 OA
ATOM     94  O   UNL A   1      52.657  26.255  28.709  1.00  0.00    -0.237 OA
ATOM     95  O   UNL A   1      54.050  27.101  26.860  1.00  0.00    -0.744 OA
ENDBRANCH  88  92
ENDBRANCH  61  85
BRANCH  73  96
ATOM     96  C   UNL A   1      45.438  33.178  28.847  1.00  0.00     0.023 A 
ATOM     97  C   UNL A   1      45.991  33.675  30.040  1.00  0.00     0.031 A 
ATOM     98  C   UNL A   1      45.215  34.086  27.795  1.00  0.00     0.131 A 
ATOM     99  C   UNL A   1      46.248  35.047  30.173  1.00  0.00     0.055 A 
ATOM    100  C   UNL A   1      45.540  35.438  27.908  1.00  0.00     0.041 A 
ATOM    101  F   UNL A   1      44.681  33.671  26.635  1.00  0.00    -0.206 F 
ATOM    102  C   UNL A   1      46.047  35.929  29.107  1.00  0.00     0.022 A 
BRANCH  99 103
ATOM    103  S   UNL A   1      46.745  35.688  31.796  1.00  0.00     0.124 S 
ATOM    104  O   UNL A   1      45.460  35.812  32.477  1.00  0.00    -0.237 OA
ATOM    105  O   UNL A   1      47.631  34.639  32.289  1.00  0.00    -0.237 OA
ATOM    106  O   UNL A   1      47.401  36.956  31.477  1.00  0.00    -0.744 OA
ENDBRANCH  99 103
ENDBRANCH  73  96
ENDBRANCH  47  48
ENDBRANCH  40  42
ENDBRANCH  39  40
ENDBRANCH  38  39
ENDBRANCH  37  38
ENDBRANCH  36  37
ENDBRANCH  35  36
ENDBRANCH   1  35
TORSDOF 23
ENDMDL
