MODEL 1
REMARK VINA RESULT:      -9.8      0.000      0.000
REMARK SMILES CC(C)[C@H](NC(=O)Cn1ccc2c(Br)cccc21)C(=O)OCCOCCOCCOC(=O)c1ccc(-c2c3nc(c(-c4cc(S(=O)(=O)[O-])ccc4F)c4ccc([nH]4)c(-c4cc(S(=O)(=O)[O-])ccc4F)c4nc(c(-c5cc(S(=O)(=O)[O-])ccc5F)c5ccc2[nH]5)C=C4)C=C3)cc1
REMARK SMILES IDX 25 1 24 2 23 3 22 4 21 5 19 6 20 7 4 8 2 9 1 10 3 11 5 12
REMARK SMILES IDX 6 13 7 15 8 16 9 17 10 18 18 19 11 20 12 21 17 22 13 23
REMARK SMILES IDX 16 24 14 25 15 26 26 27 27 28 28 29 29 30 30 31 31 32 32 33
REMARK SMILES IDX 33 34 34 35 95 36 35 37 94 38 36 39 37 40 38 41 88 42 39 43
REMARK SMILES IDX 93 44 87 45 89 46 40 47 92 48 86 49 85 50 41 52 73 53 53 54
REMARK SMILES IDX 72 55 54 56 57 57 71 58 90 59 55 60 56 61 70 63 91 64 58 65
REMARK SMILES IDX 42 66 43 67 51 68 44 69 50 70 52 71 49 72 45 73 46 74 47 75
REMARK SMILES IDX 48 76 74 77 75 78 83 79 76 80 82 81 84 82 81 83 77 84 78 85
REMARK SMILES IDX 79 86 80 87 59 88 60 89 68 90 61 91 67 92 69 93 66 94 62 95
REMARK SMILES IDX 63 96 64 97 65 98
REMARK H PARENT 5 14 89 51 57 62
REMARK Flexibility Score: inf
ROOT
ATOM      1  C   UNL A   1      32.826  30.392  26.849  1.00  0.00     0.188 C 
ENDROOT
BRANCH   1   2
ATOM      2  O   UNL A   1      32.866  30.043  25.475  1.00  0.00    -0.376 OA
BRANCH   2   3
ATOM      3  C   UNL A   1      32.802  28.693  25.050  1.00  0.00     0.202 C 
BRANCH   3   4
ATOM      4  C   UNL A   1      33.170  27.533  25.990  1.00  0.00     0.261 C 
BRANCH   4   5
ATOM      5  O   UNL A   1      32.206  26.484  26.117  1.00  0.00    -0.462 OA
BRANCH   5   6
ATOM      6  C   UNL A   1      31.791  25.908  24.959  1.00  0.00     0.328 C 
ATOM      7  O   UNL A   1      30.644  25.949  24.534  1.00  0.00    -0.250 OA
BRANCH   6   8
ATOM      8  C   UNL A   1      32.910  25.048  24.331  1.00  0.00     0.194 C 
BRANCH   8   9
ATOM      9  C   UNL A   1      32.793  25.246  22.813  1.00  0.00     0.017 C 
ATOM     10  C   UNL A   1      33.629  26.417  22.279  1.00  0.00     0.010 C 
ATOM     11  C   UNL A   1      33.074  23.958  22.049  1.00  0.00     0.010 C 
ENDBRANCH   8   9
BRANCH   8  12
ATOM     12  N   UNL A   1      32.843  23.614  24.688  1.00  0.00    -0.341 N 
ATOM     13  C   UNL A   1      33.587  22.863  25.562  1.00  0.00     0.240 C 
ATOM     14  H   UNL A   1      32.143  23.111  24.215  1.00  0.00     0.164 HD
ATOM     15  O   UNL A   1      33.172  21.735  25.847  1.00  0.00    -0.273 OA
BRANCH  13  16
ATOM     16  C   UNL A   1      34.887  23.365  26.160  1.00  0.00     0.222 C 
BRANCH  16  17
ATOM     17  N   UNL A   1      36.110  22.829  25.554  1.00  0.00    -0.338 N 
ATOM     18  C   UNL A   1      36.087  21.723  24.733  1.00  0.00     0.087 A 
ATOM     19  C   UNL A   1      37.418  23.097  25.921  1.00  0.00     0.050 A 
ATOM     20  C   UNL A   1      37.312  21.106  24.841  1.00  0.00     0.029 A 
ATOM     21  C   UNL A   1      38.134  21.917  25.675  1.00  0.00     0.014 A 
ATOM     22  C   UNL A   1      37.994  24.183  26.606  1.00  0.00     0.027 A 
ATOM     23  C   UNL A   1      39.394  21.761  26.293  1.00  0.00     0.027 A 
ATOM     24  C   UNL A   1      39.234  23.994  27.218  1.00  0.00     0.003 A 
ATOM     25  Br  UNL A   1      40.322  20.113  26.197  1.00  0.00    -0.050 Br
ATOM     26  C   UNL A   1      39.913  22.786  27.095  1.00  0.00     0.016 A 
ENDBRANCH  16  17
ENDBRANCH  13  16
ENDBRANCH   8  12
ENDBRANCH   6   8
ENDBRANCH   5   6
ENDBRANCH   4   5
ENDBRANCH   3   4
ENDBRANCH   2   3
ENDBRANCH   1   2
BRANCH   1  27
ATOM     27  C   UNL A   1      34.109  30.699  27.649  1.00  0.00     0.188 C 
BRANCH  27  28
ATOM     28  O   UNL A   1      34.775  31.899  27.308  1.00  0.00    -0.376 OA
BRANCH  28  29
ATOM     29  C   UNL A   1      35.402  32.683  28.317  1.00  0.00     0.202 C 
BRANCH  29  30
ATOM     30  C   UNL A   1      36.737  32.255  28.943  1.00  0.00     0.261 C 
BRANCH  30  31
ATOM     31  O   UNL A   1      37.360  31.165  28.300  1.00  0.00    -0.460 OA
BRANCH  31  32
ATOM     32  C   UNL A   1      37.467  30.076  29.087  1.00  0.00     0.338 C 
ATOM     33  O   UNL A   1      36.989  29.914  30.189  1.00  0.00    -0.246 OA
BRANCH  32  34
ATOM     34  C   UNL A   1      38.187  29.049  28.328  1.00  0.00     0.060 A 
ATOM     35  C   UNL A   1      38.464  27.872  29.023  1.00  0.00     0.016 A 
ATOM     36  C   UNL A   1      38.893  29.464  27.196  1.00  0.00     0.016 A 
ATOM     37  C   UNL A   1      39.713  27.347  28.848  1.00  0.00     0.010 A 
ATOM     38  C   UNL A   1      40.149  28.959  27.043  1.00  0.00     0.010 A 
ATOM     39  C   UNL A   1      40.572  28.019  27.975  1.00  0.00    -0.014 A 
BRANCH  39  40
ATOM     40  C   UNL A   1      41.978  27.750  28.108  1.00  0.00     0.031 A 
ATOM     41  C   UNL A   1      42.340  26.453  27.525  1.00  0.00     0.074 A 
ATOM     42  C   UNL A   1      42.807  28.643  28.676  1.00  0.00     0.049 A 
ATOM     43  N   UNL A   1      42.567  25.353  28.159  1.00  0.00    -0.248 NA
ATOM     44  C   UNL A   1      42.158  26.301  26.074  1.00  0.00     0.031 C 
ATOM     45  C   UNL A   1      42.562  30.047  29.020  1.00  0.00     0.029 A 
ATOM     46  N   UNL A   1      44.116  28.484  28.980  1.00  0.00    -0.354 N 
ATOM     47  C   UNL A   1      42.806  24.419  27.163  1.00  0.00     0.074 A 
ATOM     48  C   UNL A   1      42.281  24.982  25.945  1.00  0.00     0.031 C 
ATOM     49  C   UNL A   1      43.751  30.662  29.239  1.00  0.00     0.029 A 
ATOM     50  C   UNL A   1      44.808  29.667  29.192  1.00  0.00     0.049 A 
ATOM     51  H   UNL A   1      44.543  27.599  29.046  1.00  0.00     0.167 HD
ATOM     52  C   UNL A   1      43.684  23.398  27.350  1.00  0.00     0.034 A 
ATOM     53  C   UNL A   1      46.161  29.780  29.181  1.00  0.00     0.034 A 
ATOM     54  C   UNL A   1      44.002  23.227  28.742  1.00  0.00     0.049 A 
ATOM     55  C   UNL A   1      46.719  28.410  29.367  1.00  0.00     0.074 A 
ATOM     56  C   UNL A   1      43.264  22.916  29.868  1.00  0.00     0.029 A 
ATOM     57  N   UNL A   1      45.173  23.791  29.195  1.00  0.00    -0.354 N 
ATOM     58  N   UNL A   1      46.618  27.734  30.479  1.00  0.00    -0.248 NA
ATOM     59  C   UNL A   1      46.947  27.611  28.169  1.00  0.00     0.031 C 
ATOM     60  C   UNL A   1      43.818  23.713  30.908  1.00  0.00     0.029 A 
ATOM     61  C   UNL A   1      44.904  24.419  30.385  1.00  0.00     0.049 A 
ATOM     62  H   UNL A   1      46.047  23.752  28.745  1.00  0.00     0.167 HD
ATOM     63  C   UNL A   1      46.333  26.436  30.076  1.00  0.00     0.074 A 
ATOM     64  C   UNL A   1      46.621  26.405  28.643  1.00  0.00     0.031 C 
ATOM     65  C   UNL A   1      45.602  25.594  30.862  1.00  0.00     0.034 A 
BRANCH  52  66
ATOM     66  C   UNL A   1      44.531  22.846  26.237  1.00  0.00     0.023 A 
ATOM     67  C   UNL A   1      44.344  21.553  25.709  1.00  0.00     0.031 A 
ATOM     68  C   UNL A   1      45.402  23.683  25.522  1.00  0.00     0.131 A 
ATOM     69  C   UNL A   1      45.020  21.113  24.570  1.00  0.00     0.055 A 
ATOM     70  C   UNL A   1      46.023  23.272  24.337  1.00  0.00     0.041 A 
ATOM     71  F   UNL A   1      45.628  24.943  25.923  1.00  0.00    -0.206 F 
ATOM     72  C   UNL A   1      45.839  21.978  23.857  1.00  0.00     0.022 A 
BRANCH  69  73
ATOM     73  S   UNL A   1      44.812  19.406  23.993  1.00  0.00     0.124 S 
ATOM     74  O   UNL A   1      43.649  18.970  24.757  1.00  0.00    -0.237 OA
ATOM     75  O   UNL A   1      44.596  19.604  22.562  1.00  0.00    -0.237 OA
ATOM     76  O   UNL A   1      46.079  18.769  24.343  1.00  0.00    -0.744 OA
ENDBRANCH  69  73
ENDBRANCH  52  66
BRANCH  53  77
ATOM     77  C   UNL A   1      46.939  30.840  28.491  1.00  0.00     0.023 A 
ATOM     78  C   UNL A   1      47.696  31.764  29.234  1.00  0.00     0.031 A 
ATOM     79  C   UNL A   1      46.682  31.155  27.144  1.00  0.00     0.131 A 
ATOM     80  C   UNL A   1      48.103  32.978  28.663  1.00  0.00     0.055 A 
ATOM     81  C   UNL A   1      47.102  32.361  26.570  1.00  0.00     0.041 A 
ATOM     82  F   UNL A   1      45.948  30.330  26.381  1.00  0.00    -0.206 F 
ATOM     83  C   UNL A   1      47.801  33.289  27.337  1.00  0.00     0.022 A 
BRANCH  80  84
ATOM     84  S   UNL A   1      48.977  34.203  29.677  1.00  0.00     0.124 S 
ATOM     85  O   UNL A   1      49.479  35.142  28.676  1.00  0.00    -0.237 OA
ATOM     86  O   UNL A   1      47.904  34.705  30.527  1.00  0.00    -0.237 OA
ATOM     87  O   UNL A   1      50.005  33.412  30.348  1.00  0.00    -0.744 OA
ENDBRANCH  80  84
ENDBRANCH  53  77
BRANCH  65  88
ATOM     88  C   UNL A   1      45.285  26.015  32.277  1.00  0.00     0.023 A 
ATOM     89  C   UNL A   1      44.167  26.844  32.454  1.00  0.00     0.031 A 
ATOM     90  C   UNL A   1      46.156  25.847  33.371  1.00  0.00     0.131 A 
ATOM     91  C   UNL A   1      43.971  27.516  33.665  1.00  0.00     0.055 A 
ATOM     92  C   UNL A   1      45.922  26.470  34.603  1.00  0.00     0.041 A 
ATOM     93  F   UNL A   1      47.298  25.158  33.254  1.00  0.00    -0.206 F 
ATOM     94  C   UNL A   1      44.834  27.324  34.748  1.00  0.00     0.022 A 
BRANCH  91  95
ATOM     95  S   UNL A   1      42.670  28.764  33.806  1.00  0.00     0.124 S 
ATOM     96  O   UNL A   1      41.465  27.946  33.904  1.00  0.00    -0.237 OA
ATOM     97  O   UNL A   1      43.051  29.468  35.029  1.00  0.00    -0.237 OA
ATOM     98  O   UNL A   1      42.793  29.545  32.579  1.00  0.00    -0.744 OA
ENDBRANCH  91  95
ENDBRANCH  65  88
ENDBRANCH  39  40
ENDBRANCH  32  34
ENDBRANCH  31  32
ENDBRANCH  30  31
ENDBRANCH  29  30
ENDBRANCH  28  29
ENDBRANCH  27  28
ENDBRANCH   1  27
TORSDOF 24
ENDMDL
MODEL 2
REMARK VINA RESULT:      -9.7      2.691      7.281
REMARK SMILES CC(C)[C@H](NC(=O)Cn1ccc2c(Br)cccc21)C(=O)OCCOCCOCCOC(=O)c1ccc(-c2c3nc(c(-c4cc(S(=O)(=O)[O-])ccc4F)c4ccc([nH]4)c(-c4cc(S(=O)(=O)[O-])ccc4F)c4nc(c(-c5cc(S(=O)(=O)[O-])ccc5F)c5ccc2[nH]5)C=C4)C=C3)cc1
REMARK SMILES IDX 25 1 24 2 23 3 22 4 21 5 19 6 20 7 4 8 2 9 1 10 3 11 5 12
REMARK SMILES IDX 6 13 7 15 8 16 9 17 10 18 18 19 11 20 12 21 17 22 13 23
REMARK SMILES IDX 16 24 14 25 15 26 26 27 27 28 28 29 29 30 30 31 31 32 32 33
REMARK SMILES IDX 33 34 34 35 95 36 35 37 94 38 36 39 37 40 38 41 88 42 39 43
REMARK SMILES IDX 93 44 87 45 89 46 40 47 92 48 86 49 85 50 41 52 73 53 53 54
REMARK SMILES IDX 72 55 54 56 57 57 71 58 90 59 55 60 56 61 70 63 91 64 58 65
REMARK SMILES IDX 42 66 43 67 51 68 44 69 50 70 52 71 49 72 45 73 46 74 47 75
REMARK SMILES IDX 48 76 74 77 75 78 83 79 76 80 82 81 84 82 81 83 77 84 78 85
REMARK SMILES IDX 79 86 80 87 59 88 60 89 68 90 61 91 67 92 69 93 66 94 62 95
REMARK SMILES IDX 63 96 64 97 65 98
REMARK H PARENT 5 14 89 51 57 62
REMARK Flexibility Score: inf
ROOT
ATOM      1  C   UNL A   1      31.898  30.887  26.419  1.00  0.00     0.188 C 
ENDROOT
BRANCH   1   2
ATOM      2  O   UNL A   1      31.107  30.371  25.361  1.00  0.00    -0.376 OA
BRANCH   2   3
ATOM      3  C   UNL A   1      31.379  29.108  24.778  1.00  0.00     0.202 C 
BRANCH   3   4
ATOM      4  C   UNL A   1      30.913  28.760  23.355  1.00  0.00     0.261 C 
BRANCH   4   5
ATOM      5  O   UNL A   1      30.513  27.405  23.128  1.00  0.00    -0.462 OA
BRANCH   5   6
ATOM      6  C   UNL A   1      30.463  26.604  24.224  1.00  0.00     0.328 C 
ATOM      7  O   UNL A   1      29.606  26.671  25.096  1.00  0.00    -0.250 OA
BRANCH   6   8
ATOM      8  C   UNL A   1      31.721  25.713  24.323  1.00  0.00     0.194 C 
BRANCH   8   9
ATOM      9  C   UNL A   1      32.166  25.771  25.791  1.00  0.00     0.017 C 
ATOM     10  C   UNL A   1      31.702  24.568  26.623  1.00  0.00     0.010 C 
ATOM     11  C   UNL A   1      33.667  26.001  25.921  1.00  0.00     0.010 C 
ENDBRANCH   8   9
BRANCH   8  12
ATOM     12  N   UNL A   1      32.819  26.114  23.416  1.00  0.00    -0.341 N 
ATOM     13  C   UNL A   1      33.267  25.568  22.241  1.00  0.00     0.240 C 
ATOM     14  H   UNL A   1      33.315  26.912  23.709  1.00  0.00     0.164 HD
ATOM     15  O   UNL A   1      34.053  26.237  21.561  1.00  0.00    -0.273 OA
BRANCH  13  16
ATOM     16  C   UNL A   1      32.847  24.189  21.774  1.00  0.00     0.222 C 
BRANCH  16  17
ATOM     17  N   UNL A   1      33.144  23.090  22.698  1.00  0.00    -0.338 N 
ATOM     18  C   UNL A   1      32.171  22.206  23.109  1.00  0.00     0.087 A 
ATOM     19  C   UNL A   1      34.259  22.950  23.507  1.00  0.00     0.050 A 
ATOM     20  C   UNL A   1      32.534  21.746  24.354  1.00  0.00     0.029 A 
ATOM     21  C   UNL A   1      33.812  22.291  24.662  1.00  0.00     0.014 A 
ATOM     22  C   UNL A   1      35.555  23.491  23.418  1.00  0.00     0.027 A 
ATOM     23  C   UNL A   1      34.626  22.343  25.815  1.00  0.00     0.027 A 
ATOM     24  C   UNL A   1      36.329  23.541  24.578  1.00  0.00     0.003 A 
ATOM     25  Br  UNL A   1      33.998  21.677  27.473  1.00  0.00    -0.050 Br
ATOM     26  C   UNL A   1      35.860  23.005  25.773  1.00  0.00     0.016 A 
ENDBRANCH  16  17
ENDBRANCH  13  16
ENDBRANCH   8  12
ENDBRANCH   6   8
ENDBRANCH   5   6
ENDBRANCH   4   5
ENDBRANCH   3   4
ENDBRANCH   2   3
ENDBRANCH   1   2
BRANCH   1  27
ATOM     27  C   UNL A   1      33.197  30.190  26.878  1.00  0.00     0.188 C 
BRANCH  27  28
ATOM     28  O   UNL A   1      34.185  31.037  27.432  1.00  0.00    -0.376 OA
BRANCH  28  29
ATOM     29  C   UNL A   1      33.809  32.229  28.113  1.00  0.00     0.202 C 
BRANCH  29  30
ATOM     30  C   UNL A   1      34.649  32.785  29.271  1.00  0.00     0.261 C 
BRANCH  30  31
ATOM     31  O   UNL A   1      34.775  31.912  30.372  1.00  0.00    -0.460 OA
BRANCH  31  32
ATOM     32  C   UNL A   1      36.050  31.747  30.774  1.00  0.00     0.338 C 
ATOM     33  O   UNL A   1      36.502  31.930  31.884  1.00  0.00    -0.246 OA
BRANCH  32  34
ATOM     34  C   UNL A   1      36.805  31.194  29.646  1.00  0.00     0.060 A 
ATOM     35  C   UNL A   1      36.593  29.840  29.385  1.00  0.00     0.016 A 
ATOM     36  C   UNL A   1      37.941  31.893  29.229  1.00  0.00     0.016 A 
ATOM     37  C   UNL A   1      37.703  29.098  29.099  1.00  0.00     0.010 A 
ATOM     38  C   UNL A   1      39.054  31.149  28.973  1.00  0.00     0.010 A 
ATOM     39  C   UNL A   1      38.929  29.768  29.067  1.00  0.00    -0.014 A 
BRANCH  39  40
ATOM     40  C   UNL A   1      40.114  28.966  29.200  1.00  0.00     0.031 A 
ATOM     41  C   UNL A   1      40.448  28.721  30.608  1.00  0.00     0.074 A 
ATOM     42  C   UNL A   1      40.764  28.500  28.120  1.00  0.00     0.049 A 
ATOM     43  N   UNL A   1      41.360  29.313  31.303  1.00  0.00    -0.248 NA
ATOM     44  C   UNL A   1      39.485  27.938  31.395  1.00  0.00     0.031 C 
ATOM     45  C   UNL A   1      40.334  28.473  26.719  1.00  0.00     0.029 A 
ATOM     46  N   UNL A   1      41.947  27.843  28.083  1.00  0.00    -0.354 N 
ATOM     47  C   UNL A   1      41.234  28.773  32.574  1.00  0.00     0.074 A 
ATOM     48  C   UNL A   1      39.930  28.164  32.629  1.00  0.00     0.031 C 
ATOM     49  C   UNL A   1      41.124  27.613  26.030  1.00  0.00     0.029 A 
ATOM     50  C   UNL A   1      42.186  27.150  26.906  1.00  0.00     0.049 A 
ATOM     51  H   UNL A   1      42.587  27.858  28.831  1.00  0.00     0.167 HD
ATOM     52  C   UNL A   1      42.320  28.597  33.375  1.00  0.00     0.034 A 
ATOM     53  C   UNL A   1      43.121  26.175  26.764  1.00  0.00     0.034 A 
ATOM     54  C   UNL A   1      43.451  29.345  32.898  1.00  0.00     0.049 A 
ATOM     55  C   UNL A   1      44.088  26.324  27.888  1.00  0.00     0.074 A 
ATOM     56  C   UNL A   1      43.704  30.689  32.702  1.00  0.00     0.029 A 
ATOM     57  N   UNL A   1      44.387  28.666  32.152  1.00  0.00    -0.354 N 
ATOM     58  N   UNL A   1      44.914  27.329  28.002  1.00  0.00    -0.248 NA
ATOM     59  C   UNL A   1      43.787  25.618  29.128  1.00  0.00     0.031 C 
ATOM     60  C   UNL A   1      44.474  30.751  31.507  1.00  0.00     0.029 A 
ATOM     61  C   UNL A   1      44.709  29.445  31.070  1.00  0.00     0.049 A 
ATOM     62  H   UNL A   1      44.758  27.777  32.357  1.00  0.00     0.167 HD
ATOM     63  C   UNL A   1      44.890  27.650  29.353  1.00  0.00     0.074 A 
ATOM     64  C   UNL A   1      44.237  26.517  30.007  1.00  0.00     0.031 C 
ATOM     65  C   UNL A   1      45.117  28.925  29.782  1.00  0.00     0.034 A 
BRANCH  52  66
ATOM     66  C   UNL A   1      42.437  27.445  34.335  1.00  0.00     0.023 A 
ATOM     67  C   UNL A   1      43.202  26.296  34.054  1.00  0.00     0.031 A 
ATOM     68  C   UNL A   1      41.967  27.565  35.652  1.00  0.00     0.131 A 
ATOM     69  C   UNL A   1      43.440  25.312  35.014  1.00  0.00     0.055 A 
ATOM     70  C   UNL A   1      42.266  26.617  36.638  1.00  0.00     0.041 A 
ATOM     71  F   UNL A   1      41.252  28.635  36.032  1.00  0.00    -0.206 F 
ATOM     72  C   UNL A   1      43.002  25.480  36.321  1.00  0.00     0.022 A 
BRANCH  69  73
ATOM     73  S   UNL A   1      44.351  23.808  34.566  1.00  0.00     0.124 S 
ATOM     74  O   UNL A   1      43.669  22.796  35.365  1.00  0.00    -0.237 OA
ATOM     75  O   UNL A   1      44.121  23.743  33.126  1.00  0.00    -0.237 OA
ATOM     76  O   UNL A   1      45.724  24.110  34.960  1.00  0.00    -0.744 OA
ENDBRANCH  69  73
ENDBRANCH  52  66
BRANCH  53  77
ATOM     77  C   UNL A   1      42.915  24.865  26.094  1.00  0.00     0.023 A 
ATOM     78  C   UNL A   1      41.857  24.025  26.485  1.00  0.00     0.031 A 
ATOM     79  C   UNL A   1      43.935  24.294  25.313  1.00  0.00     0.131 A 
ATOM     80  C   UNL A   1      41.873  22.660  26.167  1.00  0.00     0.055 A 
ATOM     81  C   UNL A   1      43.943  22.933  24.983  1.00  0.00     0.041 A 
ATOM     82  F   UNL A   1      44.986  25.031  24.922  1.00  0.00    -0.206 F 
ATOM     83  C   UNL A   1      42.917  22.104  25.426  1.00  0.00     0.022 A 
BRANCH  80  84
ATOM     84  S   UNL A   1      40.556  21.575  26.783  1.00  0.00     0.124 S 
ATOM     85  O   UNL A   1      39.345  22.271  26.354  1.00  0.00    -0.237 OA
ATOM     86  O   UNL A   1      40.846  20.328  26.086  1.00  0.00    -0.237 OA
ATOM     87  O   UNL A   1      40.778  21.563  28.227  1.00  0.00    -0.744 OA
ENDBRANCH  80  84
ENDBRANCH  53  77
BRANCH  65  88
ATOM     88  C   UNL A   1      45.608  29.949  28.788  1.00  0.00     0.023 A 
ATOM     89  C   UNL A   1      46.958  30.321  28.878  1.00  0.00     0.031 A 
ATOM     90  C   UNL A   1      44.769  30.724  27.964  1.00  0.00     0.131 A 
ATOM     91  C   UNL A   1      47.423  31.457  28.210  1.00  0.00     0.055 A 
ATOM     92  C   UNL A   1      45.252  31.823  27.244  1.00  0.00     0.041 A 
ATOM     93  F   UNL A   1      43.450  30.500  27.905  1.00  0.00    -0.206 F 
ATOM     94  C   UNL A   1      46.583  32.206  27.380  1.00  0.00     0.022 A 
BRANCH  91  95
ATOM     95  S   UNL A   1      49.097  32.067  28.521  1.00  0.00     0.124 S 
ATOM     96  O   UNL A   1      49.878  30.833  28.539  1.00  0.00    -0.237 OA
ATOM     97  O   UNL A   1      49.326  32.937  27.369  1.00  0.00    -0.237 OA
ATOM     98  O   UNL A   1      48.991  32.755  29.804  1.00  0.00    -0.744 OA
ENDBRANCH  91  95
ENDBRANCH  65  88
ENDBRANCH  39  40
ENDBRANCH  32  34
ENDBRANCH  31  32
ENDBRANCH  30  31
ENDBRANCH  29  30
ENDBRANCH  28  29
ENDBRANCH  27  28
ENDBRANCH   1  27
TORSDOF 24
ENDMDL
MODEL 3
REMARK VINA RESULT:      -9.7      2.874      7.054
REMARK SMILES CC(C)[C@H](NC(=O)Cn1ccc2c(Br)cccc21)C(=O)OCCOCCOCCOC(=O)c1ccc(-c2c3nc(c(-c4cc(S(=O)(=O)[O-])ccc4F)c4ccc([nH]4)c(-c4cc(S(=O)(=O)[O-])ccc4F)c4nc(c(-c5cc(S(=O)(=O)[O-])ccc5F)c5ccc2[nH]5)C=C4)C=C3)cc1
REMARK SMILES IDX 25 1 24 2 23 3 22 4 21 5 19 6 20 7 4 8 2 9 1 10 3 11 5 12
REMARK SMILES IDX 6 13 7 15 8 16 9 17 10 18 18 19 11 20 12 21 17 22 13 23
REMARK SMILES IDX 16 24 14 25 15 26 26 27 27 28 28 29 29 30 30 31 31 32 32 33
REMARK SMILES IDX 33 34 34 35 95 36 35 37 94 38 36 39 37 40 38 41 88 42 39 43
REMARK SMILES IDX 93 44 87 45 89 46 40 47 92 48 86 49 85 50 41 52 73 53 53 54
REMARK SMILES IDX 72 55 54 56 57 57 71 58 90 59 55 60 56 61 70 63 91 64 58 65
REMARK SMILES IDX 42 66 43 67 51 68 44 69 50 70 52 71 49 72 45 73 46 74 47 75
REMARK SMILES IDX 48 76 74 77 75 78 83 79 76 80 82 81 84 82 81 83 77 84 78 85
REMARK SMILES IDX 79 86 80 87 59 88 60 89 68 90 61 91 67 92 69 93 66 94 62 95
REMARK SMILES IDX 63 96 64 97 65 98
REMARK H PARENT 5 14 89 51 57 62
REMARK Flexibility Score: inf
ROOT
ATOM      1  C   UNL A   1      31.679  31.753  26.515  1.00  0.00     0.188 C 
ENDROOT
BRANCH   1   2
ATOM      2  O   UNL A   1      31.125  30.950  25.486  1.00  0.00    -0.376 OA
BRANCH   2   3
ATOM      3  C   UNL A   1      31.478  29.586  25.337  1.00  0.00     0.202 C 
BRANCH   3   4
ATOM      4  C   UNL A   1      32.209  28.816  26.449  1.00  0.00     0.261 C 
BRANCH   4   5
ATOM      5  O   UNL A   1      31.763  27.480  26.700  1.00  0.00    -0.462 OA
BRANCH   5   6
ATOM      6  C   UNL A   1      32.503  26.488  26.140  1.00  0.00     0.328 C 
ATOM      7  O   UNL A   1      33.725  26.486  26.069  1.00  0.00    -0.250 OA
BRANCH   6   8
ATOM      8  C   UNL A   1      31.601  25.442  25.448  1.00  0.00     0.194 C 
BRANCH   8   9
ATOM      9  C   UNL A   1      30.923  26.175  24.281  1.00  0.00     0.017 C 
ATOM     10  C   UNL A   1      31.394  25.700  22.900  1.00  0.00     0.010 C 
ATOM     11  C   UNL A   1      29.403  26.148  24.399  1.00  0.00     0.010 C 
ENDBRANCH   8   9
BRANCH   8  12
ATOM     12  N   UNL A   1      30.598  24.821  26.342  1.00  0.00    -0.341 N 
ATOM     13  C   UNL A   1      30.355  23.508  26.656  1.00  0.00     0.240 C 
ATOM     14  H   UNL A   1      30.001  25.463  26.788  1.00  0.00     0.164 HD
ATOM     15  O   UNL A   1      29.609  23.276  27.612  1.00  0.00    -0.273 OA
BRANCH  13  16
ATOM     16  C   UNL A   1      30.951  22.361  25.864  1.00  0.00     0.222 C 
BRANCH  16  17
ATOM     17  N   UNL A   1      32.387  22.138  26.057  1.00  0.00    -0.338 N 
ATOM     18  C   UNL A   1      32.948  22.078  27.313  1.00  0.00     0.087 A 
ATOM     19  C   UNL A   1      33.392  22.267  25.113  1.00  0.00     0.050 A 
ATOM     20  C   UNL A   1      34.256  22.490  27.198  1.00  0.00     0.029 A 
ATOM     21  C   UNL A   1      34.521  22.711  25.817  1.00  0.00     0.014 A 
ATOM     22  C   UNL A   1      33.370  22.215  23.708  1.00  0.00     0.027 A 
ATOM     23  C   UNL A   1      35.580  23.287  25.081  1.00  0.00     0.027 A 
ATOM     24  C   UNL A   1      34.424  22.805  23.009  1.00  0.00     0.003 A 
ATOM     25  Br  UNL A   1      37.036  24.113  25.967  1.00  0.00    -0.050 Br
ATOM     26  C   UNL A   1      35.502  23.367  23.685  1.00  0.00     0.016 A 
ENDBRANCH  16  17
ENDBRANCH  13  16
ENDBRANCH   8  12
ENDBRANCH   6   8
ENDBRANCH   5   6
ENDBRANCH   4   5
ENDBRANCH   3   4
ENDBRANCH   2   3
ENDBRANCH   1   2
BRANCH   1  27
ATOM     27  C   UNL A   1      32.895  31.288  27.344  1.00  0.00     0.188 C 
BRANCH  27  28
ATOM     28  O   UNL A   1      34.008  32.162  27.346  1.00  0.00    -0.376 OA
BRANCH  28  29
ATOM     29  C   UNL A   1      34.190  33.087  28.413  1.00  0.00     0.202 C 
BRANCH  29  30
ATOM     30  C   UNL A   1      34.352  32.610  29.863  1.00  0.00     0.261 C 
BRANCH  30  31
ATOM     31  O   UNL A   1      35.632  32.837  30.411  1.00  0.00    -0.460 OA
BRANCH  31  32
ATOM     32  C   UNL A   1      36.283  31.700  30.728  1.00  0.00     0.338 C 
ATOM     33  O   UNL A   1      36.050  30.952  31.653  1.00  0.00    -0.246 OA
BRANCH  32  34
ATOM     34  C   UNL A   1      37.279  31.452  29.682  1.00  0.00     0.060 A 
ATOM     35  C   UNL A   1      37.119  30.266  28.966  1.00  0.00     0.016 A 
ATOM     36  C   UNL A   1      38.491  32.144  29.774  1.00  0.00     0.016 A 
ATOM     37  C   UNL A   1      38.256  29.552  28.717  1.00  0.00     0.010 A 
ATOM     38  C   UNL A   1      39.623  31.418  29.553  1.00  0.00     0.010 A 
ATOM     39  C   UNL A   1      39.462  30.090  29.174  1.00  0.00    -0.014 A 
BRANCH  39  40
ATOM     40  C   UNL A   1      40.570  29.185  29.309  1.00  0.00     0.031 A 
ATOM     41  C   UNL A   1      40.813  28.831  30.712  1.00  0.00     0.074 A 
ATOM     42  C   UNL A   1      41.233  28.731  28.232  1.00  0.00     0.049 A 
ATOM     43  N   UNL A   1      41.734  29.302  31.483  1.00  0.00    -0.248 NA
ATOM     44  C   UNL A   1      39.752  28.085  31.405  1.00  0.00     0.031 C 
ATOM     45  C   UNL A   1      40.872  28.823  26.814  1.00  0.00     0.029 A 
ATOM     46  N   UNL A   1      42.359  27.981  28.206  1.00  0.00    -0.354 N 
ATOM     47  C   UNL A   1      41.502  28.700  32.711  1.00  0.00     0.074 A 
ATOM     48  C   UNL A   1      40.152  28.200  32.669  1.00  0.00     0.031 C 
ATOM     49  C   UNL A   1      41.623  27.942  26.108  1.00  0.00     0.029 A 
ATOM     50  C   UNL A   1      42.600  27.341  27.000  1.00  0.00     0.049 A 
ATOM     51  H   UNL A   1      42.961  27.898  28.981  1.00  0.00     0.167 HD
ATOM     52  C   UNL A   1      42.529  28.386  33.546  1.00  0.00     0.034 A 
ATOM     53  C   UNL A   1      43.458  26.301  26.838  1.00  0.00     0.034 A 
ATOM     54  C   UNL A   1      43.740  29.064  33.169  1.00  0.00     0.049 A 
ATOM     55  C   UNL A   1      44.378  26.302  28.011  1.00  0.00     0.074 A 
ATOM     56  C   UNL A   1      44.109  30.391  33.069  1.00  0.00     0.029 A 
ATOM     57  N   UNL A   1      44.653  28.354  32.423  1.00  0.00    -0.354 N 
ATOM     58  N   UNL A   1      45.275  27.225  28.225  1.00  0.00    -0.248 NA
ATOM     59  C   UNL A   1      43.960  25.551  29.189  1.00  0.00     0.031 C 
ATOM     60  C   UNL A   1      44.941  30.459  31.916  1.00  0.00     0.029 A 
ATOM     61  C   UNL A   1      45.090  29.166  31.408  1.00  0.00     0.049 A 
ATOM     62  H   UNL A   1      44.940  27.426  32.589  1.00  0.00     0.167 HD
ATOM     63  C   UNL A   1      45.210  27.466  29.591  1.00  0.00     0.074 A 
ATOM     64  C   UNL A   1      44.437  26.355  30.143  1.00  0.00     0.031 C 
ATOM     65  C   UNL A   1      45.518  28.690  30.110  1.00  0.00     0.034 A 
BRANCH  52  66
ATOM     66  C   UNL A   1      42.505  27.174  34.436  1.00  0.00     0.023 A 
ATOM     67  C   UNL A   1      43.249  26.011  34.157  1.00  0.00     0.031 A 
ATOM     68  C   UNL A   1      41.910  27.234  35.706  1.00  0.00     0.131 A 
ATOM     69  C   UNL A   1      43.352  24.960  35.069  1.00  0.00     0.055 A 
ATOM     70  C   UNL A   1      42.072  26.216  36.653  1.00  0.00     0.041 A 
ATOM     71  F   UNL A   1      41.201  28.310  36.083  1.00  0.00    -0.206 F 
ATOM     72  C   UNL A   1      42.792  25.068  36.335  1.00  0.00     0.022 A 
BRANCH  69  73
ATOM     73  S   UNL A   1      44.245  23.448  34.617  1.00  0.00     0.124 S 
ATOM     74  O   UNL A   1      44.462  22.826  35.918  1.00  0.00    -0.237 OA
ATOM     75  O   UNL A   1      43.276  22.784  33.748  1.00  0.00    -0.237 OA
ATOM     76  O   UNL A   1      45.441  23.945  33.941  1.00  0.00    -0.744 OA
ENDBRANCH  69  73
ENDBRANCH  52  66
BRANCH  53  77
ATOM     77  C   UNL A   1      43.180  25.055  26.079  1.00  0.00     0.023 A 
ATOM     78  C   UNL A   1      42.200  24.152  26.528  1.00  0.00     0.031 A 
ATOM     79  C   UNL A   1      44.090  24.589  25.112  1.00  0.00     0.131 A 
ATOM     80  C   UNL A   1      42.192  22.824  26.079  1.00  0.00     0.055 A 
ATOM     81  C   UNL A   1      44.072  23.266  24.653  1.00  0.00     0.041 A 
ATOM     82  F   UNL A   1      45.064  25.389  24.653  1.00  0.00    -0.206 F 
ATOM     83  C   UNL A   1      43.130  22.370  25.150  1.00  0.00     0.022 A 
BRANCH  80  84
ATOM     84  S   UNL A   1      40.992  21.648  26.763  1.00  0.00     0.124 S 
ATOM     85  O   UNL A   1      39.732  22.110  26.184  1.00  0.00    -0.237 OA
ATOM     86  O   UNL A   1      41.492  20.378  26.249  1.00  0.00    -0.237 OA
ATOM     87  O   UNL A   1      41.113  21.844  28.205  1.00  0.00    -0.744 OA
ENDBRANCH  80  84
ENDBRANCH  53  77
BRANCH  65  88
ATOM     88  C   UNL A   1      46.140  29.727  29.204  1.00  0.00     0.023 A 
ATOM     89  C   UNL A   1      45.260  30.592  28.537  1.00  0.00     0.031 A 
ATOM     90  C   UNL A   1      47.488  29.720  28.797  1.00  0.00     0.131 A 
ATOM     91  C   UNL A   1      45.713  31.374  27.470  1.00  0.00     0.055 A 
ATOM     92  C   UNL A   1      47.952  30.552  27.771  1.00  0.00     0.041 A 
ATOM     93  F   UNL A   1      48.367  28.850  29.309  1.00  0.00    -0.206 F 
ATOM     94  C   UNL A   1      47.058  31.371  27.089  1.00  0.00     0.022 A 
BRANCH  91  95
ATOM     95  S   UNL A   1      44.531  32.302  26.464  1.00  0.00     0.124 S 
ATOM     96  O   UNL A   1      43.596  31.262  26.046  1.00  0.00    -0.237 OA
ATOM     97  O   UNL A   1      44.004  33.270  27.424  1.00  0.00    -0.237 OA
ATOM     98  O   UNL A   1      45.346  32.873  25.396  1.00  0.00    -0.744 OA
ENDBRANCH  91  95
ENDBRANCH  65  88
ENDBRANCH  39  40
ENDBRANCH  32  34
ENDBRANCH  31  32
ENDBRANCH  30  31
ENDBRANCH  29  30
ENDBRANCH  28  29
ENDBRANCH  27  28
ENDBRANCH   1  27
TORSDOF 24
ENDMDL
