MODEL 1
REMARK VINA RESULT:     -10.4      0.000      0.000
REMARK SMILES Cc1cscc1C(=O)N1CC[C@H](C(=O)OCCOCCOCCOC(=O)c2ccc(-c3c4nc(c(-c5cc(S(=O)(=O)[O-])ccc5F)c5ccc([nH]5)c(-c5cc(S(=O)(=O)[O-])ccc5F)c5nc(c(-c6cc(S(=O)(=O)[O-])ccc6F)c6ccc3[nH]6)C=C5)C=C4)cc2)[C@H]1C
REMARK SMILES IDX 20 1 19 2 18 3 17 4 16 5 15 6 13 7 14 8 12 9 9 10 10 11
REMARK SMILES IDX 90 12 11 13 91 14 7 15 8 16 6 17 1 18 2 19 3 20 4 21 5 22
REMARK SMILES IDX 21 23 22 24 23 25 24 26 25 27 26 28 27 29 28 30 89 31 29 32
REMARK SMILES IDX 88 33 30 34 31 35 32 36 82 37 33 38 87 39 81 40 83 41 34 42
REMARK SMILES IDX 86 43 80 44 79 45 35 47 67 48 47 49 66 50 48 51 51 52 65 53
REMARK SMILES IDX 84 54 49 55 50 56 64 58 85 59 52 60 36 61 37 62 45 63 38 64
REMARK SMILES IDX 44 65 46 66 43 67 39 68 40 69 41 70 42 71 68 72 69 73 77 74
REMARK SMILES IDX 70 75 76 76 78 77 75 78 71 79 72 80 73 81 74 82 53 83 54 84
REMARK SMILES IDX 62 85 55 86 61 87 63 88 60 89 56 90 57 91 58 92 59 93
REMARK H PARENT 83 46 51 57
REMARK Flexibility Score: inf
ROOT
ATOM      1  C   UNL A   1      35.608  20.693  25.038  1.00  0.00     0.188 C 
ENDROOT
BRANCH   1   2
ATOM      2  C   UNL A   1      34.091  20.411  24.998  1.00  0.00     0.188 C 
BRANCH   2   3
ATOM      3  O   UNL A   1      33.454  20.534  26.249  1.00  0.00    -0.376 OA
BRANCH   3   4
ATOM      4  C   UNL A   1      33.848  21.561  27.144  1.00  0.00     0.202 C 
BRANCH   4   5
ATOM      5  C   UNL A   1      33.654  23.072  26.898  1.00  0.00     0.261 C 
BRANCH   5   6
ATOM      6  O   UNL A   1      32.306  23.540  26.789  1.00  0.00    -0.463 OA
BRANCH   6   7
ATOM      7  C   UNL A   1      31.544  23.006  25.794  1.00  0.00     0.311 C 
ATOM      8  O   UNL A   1      30.573  22.288  25.975  1.00  0.00    -0.252 OA
BRANCH   7   9
ATOM      9  C   UNL A   1      32.063  23.448  24.435  1.00  0.00     0.123 C 
ATOM     10  N   UNL A   1      31.309  25.644  23.842  1.00  0.00    -0.335 N 
ATOM     11  C   UNL A   1      30.277  24.687  23.479  1.00  0.00     0.121 C 
ATOM     12  C   UNL A   1      32.445  24.940  24.452  1.00  0.00     0.096 C 
ATOM     13  C   UNL A   1      30.987  23.353  23.364  1.00  0.00     0.039 C 
ATOM     14  C   UNL A   1      33.729  25.213  23.669  1.00  0.00     0.032 C 
BRANCH  10  15
ATOM     15  C   UNL A   1      30.859  26.793  24.491  1.00  0.00     0.255 C 
ATOM     16  O   UNL A   1      30.950  26.899  25.714  1.00  0.00    -0.269 OA
BRANCH  15  17
ATOM     17  C   UNL A   1      30.292  27.857  23.654  1.00  0.00     0.053 A 
ATOM     18  C   UNL A   1      32.396  29.164  22.747  1.00  0.00     0.046 C 
ATOM     19  C   UNL A   1      30.933  28.918  22.893  1.00  0.00    -0.028 A 
ATOM     20  C   UNL A   1      29.993  29.728  22.278  1.00  0.00     0.069 A 
ATOM     21  S   UNL A   1      28.390  29.220  22.532  1.00  0.00    -0.151 S 
ATOM     22  C   UNL A   1      28.913  27.920  23.495  1.00  0.00     0.079 A 
ENDBRANCH  15  17
ENDBRANCH  10  15
ENDBRANCH   7   9
ENDBRANCH   6   7
ENDBRANCH   5   6
ENDBRANCH   4   5
ENDBRANCH   3   4
ENDBRANCH   2   3
ENDBRANCH   1   2
BRANCH   1  23
ATOM     23  O   UNL A   1      36.538  19.627  24.980  1.00  0.00    -0.376 OA
BRANCH  23  24
ATOM     24  C   UNL A   1      37.886  19.908  24.637  1.00  0.00     0.202 C 
BRANCH  24  25
ATOM     25  C   UNL A   1      39.079  19.271  25.380  1.00  0.00     0.261 C 
BRANCH  25  26
ATOM     26  O   UNL A   1      39.462  19.859  26.633  1.00  0.00    -0.460 OA
BRANCH  26  27
ATOM     27  C   UNL A   1      40.782  20.159  26.754  1.00  0.00     0.338 C 
ATOM     28  O   UNL A   1      41.723  19.452  26.451  1.00  0.00    -0.246 OA
BRANCH  27  29
ATOM     29  C   UNL A   1      40.927  21.580  27.136  1.00  0.00     0.060 A 
ATOM     30  C   UNL A   1      40.125  22.539  26.498  1.00  0.00     0.016 A 
ATOM     31  C   UNL A   1      41.881  21.971  28.074  1.00  0.00     0.016 A 
ATOM     32  C   UNL A   1      40.286  23.895  26.784  1.00  0.00     0.010 A 
ATOM     33  C   UNL A   1      42.063  23.334  28.337  1.00  0.00     0.010 A 
ATOM     34  C   UNL A   1      41.286  24.303  27.675  1.00  0.00    -0.014 A 
BRANCH  34  35
ATOM     35  C   UNL A   1      41.662  25.737  27.775  1.00  0.00     0.031 A 
ATOM     36  C   UNL A   1      42.977  26.168  27.185  1.00  0.00     0.074 A 
ATOM     37  C   UNL A   1      40.867  26.634  28.384  1.00  0.00     0.049 A 
ATOM     38  N   UNL A   1      43.592  27.318  27.270  1.00  0.00    -0.248 NA
ATOM     39  C   UNL A   1      43.697  25.156  26.395  1.00  0.00     0.031 C 
ATOM     40  C   UNL A   1      39.540  26.356  28.930  1.00  0.00     0.029 A 
ATOM     41  N   UNL A   1      41.074  27.964  28.662  1.00  0.00    -0.354 N 
ATOM     42  C   UNL A   1      44.778  27.167  26.561  1.00  0.00     0.074 A 
ATOM     43  C   UNL A   1      44.806  25.803  26.075  1.00  0.00     0.031 C 
ATOM     44  C   UNL A   1      39.061  27.476  29.500  1.00  0.00     0.029 A 
ATOM     45  C   UNL A   1      40.068  28.534  29.408  1.00  0.00     0.049 A 
ATOM     46  H   UNL A   1      41.866  28.461  28.357  1.00  0.00     0.167 HD
ATOM     47  C   UNL A   1      45.754  28.081  26.337  1.00  0.00     0.034 A 
ATOM     48  C   UNL A   1      39.990  29.751  29.986  1.00  0.00     0.034 A 
ATOM     49  C   UNL A   1      45.717  29.432  26.843  1.00  0.00     0.049 A 
ATOM     50  C   UNL A   1      41.141  30.721  29.818  1.00  0.00     0.074 A 
ATOM     51  C   UNL A   1      46.650  30.440  26.673  1.00  0.00     0.029 A 
ATOM     52  N   UNL A   1      44.701  29.960  27.629  1.00  0.00    -0.354 N 
ATOM     53  N   UNL A   1      42.267  30.564  29.159  1.00  0.00    -0.248 NA
ATOM     54  C   UNL A   1      41.008  32.032  30.469  1.00  0.00     0.031 C 
ATOM     55  C   UNL A   1      46.239  31.548  27.422  1.00  0.00     0.029 A 
ATOM     56  C   UNL A   1      45.002  31.267  27.980  1.00  0.00     0.049 A 
ATOM     57  H   UNL A   1      43.887  29.477  27.899  1.00  0.00     0.167 HD
ATOM     58  C   UNL A   1      42.950  31.774  29.278  1.00  0.00     0.074 A 
ATOM     59  C   UNL A   1      42.113  32.647  30.071  1.00  0.00     0.031 C 
ATOM     60  C   UNL A   1      44.156  32.133  28.767  1.00  0.00     0.034 A 
BRANCH  47  61
ATOM     61  C   UNL A   1      46.970  27.628  25.566  1.00  0.00     0.023 A 
ATOM     62  C   UNL A   1      47.166  27.971  24.217  1.00  0.00     0.031 A 
ATOM     63  C   UNL A   1      47.937  26.817  26.185  1.00  0.00     0.131 A 
ATOM     64  C   UNL A   1      48.265  27.453  23.516  1.00  0.00     0.055 A 
ATOM     65  C   UNL A   1      49.073  26.373  25.505  1.00  0.00     0.041 A 
ATOM     66  F   UNL A   1      47.791  26.433  27.464  1.00  0.00    -0.206 F 
ATOM     67  C   UNL A   1      49.235  26.679  24.157  1.00  0.00     0.022 A 
BRANCH  64  68
ATOM     68  S   UNL A   1      48.335  27.686  21.718  1.00  0.00     0.124 S 
ATOM     69  O   UNL A   1      49.419  28.656  21.588  1.00  0.00    -0.237 OA
ATOM     70  O   UNL A   1      48.620  26.340  21.235  1.00  0.00    -0.237 OA
ATOM     71  O   UNL A   1      47.007  28.200  21.388  1.00  0.00    -0.744 OA
ENDBRANCH  64  68
ENDBRANCH  47  61
BRANCH  48  72
ATOM     72  C   UNL A   1      38.814  30.118  30.830  1.00  0.00     0.023 A 
ATOM     73  C   UNL A   1      37.730  30.834  30.298  1.00  0.00     0.031 A 
ATOM     74  C   UNL A   1      38.794  29.823  32.206  1.00  0.00     0.131 A 
ATOM     75  C   UNL A   1      36.700  31.277  31.144  1.00  0.00     0.055 A 
ATOM     76  C   UNL A   1      37.736  30.210  33.031  1.00  0.00     0.041 A 
ATOM     77  F   UNL A   1      39.809  29.153  32.774  1.00  0.00    -0.206 F 
ATOM     78  C   UNL A   1      36.687  30.955  32.503  1.00  0.00     0.022 A 
BRANCH  75  79
ATOM     79  S   UNL A   1      35.435  32.388  30.464  1.00  0.00     0.124 S 
ATOM     80  O   UNL A   1      35.092  31.714  29.216  1.00  0.00    -0.237 OA
ATOM     81  O   UNL A   1      34.415  32.365  31.507  1.00  0.00    -0.237 OA
ATOM     82  O   UNL A   1      36.144  33.657  30.313  1.00  0.00    -0.744 OA
ENDBRANCH  75  79
ENDBRANCH  48  72
BRANCH  60  83
ATOM     83  C   UNL A   1      44.609  33.560  28.979  1.00  0.00     0.023 A 
ATOM     84  C   UNL A   1      45.383  33.947  30.087  1.00  0.00     0.031 A 
ATOM     85  C   UNL A   1      44.268  34.546  28.035  1.00  0.00     0.131 A 
ATOM     86  C   UNL A   1      45.751  35.294  30.244  1.00  0.00     0.055 A 
ATOM     87  C   UNL A   1      44.689  35.870  28.165  1.00  0.00     0.041 A 
ATOM     88  F   UNL A   1      43.528  34.235  26.959  1.00  0.00    -0.206 F 
ATOM     89  C   UNL A   1      45.426  36.253  29.281  1.00  0.00     0.022 A 
BRANCH  86  90
ATOM     90  S   UNL A   1      46.597  35.798  31.770  1.00  0.00     0.124 S 
ATOM     91  O   UNL A   1      47.234  37.046  31.366  1.00  0.00    -0.237 OA
ATOM     92  O   UNL A   1      45.490  35.923  32.713  1.00  0.00    -0.237 OA
ATOM     93  O   UNL A   1      47.513  34.691  32.036  1.00  0.00    -0.744 OA
ENDBRANCH  86  90
ENDBRANCH  60  83
ENDBRANCH  34  35
ENDBRANCH  27  29
ENDBRANCH  26  27
ENDBRANCH  25  26
ENDBRANCH  24  25
ENDBRANCH  23  24
ENDBRANCH   1  23
TORSDOF 22
ENDMDL
MODEL 2
REMARK VINA RESULT:     -10.2      4.812      7.258
REMARK SMILES Cc1cscc1C(=O)N1CC[C@H](C(=O)OCCOCCOCCOC(=O)c2ccc(-c3c4nc(c(-c5cc(S(=O)(=O)[O-])ccc5F)c5ccc([nH]5)c(-c5cc(S(=O)(=O)[O-])ccc5F)c5nc(c(-c6cc(S(=O)(=O)[O-])ccc6F)c6ccc3[nH]6)C=C5)C=C4)cc2)[C@H]1C
REMARK SMILES IDX 20 1 19 2 18 3 17 4 16 5 15 6 13 7 14 8 12 9 9 10 10 11
REMARK SMILES IDX 90 12 11 13 91 14 7 15 8 16 6 17 1 18 2 19 3 20 4 21 5 22
REMARK SMILES IDX 21 23 22 24 23 25 24 26 25 27 26 28 27 29 28 30 89 31 29 32
REMARK SMILES IDX 88 33 30 34 31 35 32 36 82 37 33 38 87 39 81 40 83 41 34 42
REMARK SMILES IDX 86 43 80 44 79 45 35 47 67 48 47 49 66 50 48 51 51 52 65 53
REMARK SMILES IDX 84 54 49 55 50 56 64 58 85 59 52 60 36 61 37 62 45 63 38 64
REMARK SMILES IDX 44 65 46 66 43 67 39 68 40 69 41 70 42 71 68 72 69 73 77 74
REMARK SMILES IDX 70 75 76 76 78 77 75 78 71 79 72 80 73 81 74 82 53 83 54 84
REMARK SMILES IDX 62 85 55 86 61 87 63 88 60 89 56 90 57 91 58 92 59 93
REMARK H PARENT 83 46 51 57
REMARK Flexibility Score: inf
ROOT
ATOM      1  C   UNL A   1      40.425  21.752  26.152  1.00  0.00     0.188 C 
ENDROOT
BRANCH   1   2
ATOM      2  C   UNL A   1      38.883  21.816  26.156  1.00  0.00     0.188 C 
BRANCH   2   3
ATOM      3  O   UNL A   1      38.285  21.228  25.023  1.00  0.00    -0.376 OA
BRANCH   3   4
ATOM      4  C   UNL A   1      36.960  21.581  24.663  1.00  0.00     0.202 C 
BRANCH   4   5
ATOM      5  C   UNL A   1      35.683  20.974  25.282  1.00  0.00     0.261 C 
BRANCH   5   6
ATOM      6  O   UNL A   1      34.530  20.898  24.439  1.00  0.00    -0.463 OA
BRANCH   6   7
ATOM      7  C   UNL A   1      33.316  21.084  25.030  1.00  0.00     0.311 C 
ATOM      8  O   UNL A   1      33.028  20.703  26.154  1.00  0.00    -0.252 OA
BRANCH   7   9
ATOM      9  C   UNL A   1      32.387  21.847  24.100  1.00  0.00     0.123 C 
ATOM     10  N   UNL A   1      32.862  24.195  24.062  1.00  0.00    -0.335 N 
ATOM     11  C   UNL A   1      31.999  23.917  25.198  1.00  0.00     0.121 C 
ATOM     12  C   UNL A   1      33.151  22.948  23.342  1.00  0.00     0.096 C 
ATOM     13  C   UNL A   1      31.316  22.603  24.872  1.00  0.00     0.039 C 
ATOM     14  C   UNL A   1      32.706  23.055  21.883  1.00  0.00     0.032 C 
BRANCH  10  15
ATOM     15  C   UNL A   1      33.943  25.036  24.323  1.00  0.00     0.255 C 
ATOM     16  O   UNL A   1      35.016  24.574  24.712  1.00  0.00    -0.269 OA
BRANCH  15  17
ATOM     17  C   UNL A   1      33.743  26.473  24.103  1.00  0.00     0.053 A 
ATOM     18  C   UNL A   1      33.495  27.475  26.531  1.00  0.00     0.046 C 
ATOM     19  C   UNL A   1      33.527  27.562  25.043  1.00  0.00    -0.028 A 
ATOM     20  C   UNL A   1      33.345  28.764  24.379  1.00  0.00     0.069 A 
ATOM     21  S   UNL A   1      33.488  28.634  22.689  1.00  0.00    -0.151 S 
ATOM     22  C   UNL A   1      33.768  26.961  22.803  1.00  0.00     0.079 A 
ENDBRANCH  15  17
ENDBRANCH  10  15
ENDBRANCH   7   9
ENDBRANCH   6   7
ENDBRANCH   5   6
ENDBRANCH   4   5
ENDBRANCH   3   4
ENDBRANCH   2   3
ENDBRANCH   1   2
BRANCH   1  23
ATOM     23  O   UNL A   1      41.106  20.774  26.918  1.00  0.00    -0.376 OA
BRANCH  23  24
ATOM     24  C   UNL A   1      42.458  20.476  26.608  1.00  0.00     0.202 C 
BRANCH  24  25
ATOM     25  C   UNL A   1      43.315  21.374  25.691  1.00  0.00     0.261 C 
BRANCH  25  26
ATOM     26  O   UNL A   1      43.929  22.526  26.289  1.00  0.00    -0.460 OA
BRANCH  26  27
ATOM     27  C   UNL A   1      43.814  23.679  25.579  1.00  0.00     0.338 C 
ATOM     28  O   UNL A   1      44.083  23.844  24.404  1.00  0.00    -0.246 OA
BRANCH  27  29
ATOM     29  C   UNL A   1      43.116  24.692  26.400  1.00  0.00     0.060 A 
ATOM     30  C   UNL A   1      43.540  26.028  26.333  1.00  0.00     0.016 A 
ATOM     31  C   UNL A   1      42.091  24.320  27.268  1.00  0.00     0.016 A 
ATOM     32  C   UNL A   1      42.949  26.996  27.147  1.00  0.00     0.010 A 
ATOM     33  C   UNL A   1      41.522  25.286  28.106  1.00  0.00     0.010 A 
ATOM     34  C   UNL A   1      41.965  26.621  28.069  1.00  0.00    -0.014 A 
BRANCH  34  35
ATOM     35  C   UNL A   1      41.533  27.567  29.130  1.00  0.00     0.031 A 
ATOM     36  C   UNL A   1      42.306  27.586  30.421  1.00  0.00     0.074 A 
ATOM     37  C   UNL A   1      40.475  28.380  28.963  1.00  0.00     0.049 A 
ATOM     38  N   UNL A   1      42.044  28.206  31.541  1.00  0.00    -0.248 NA
ATOM     39  C   UNL A   1      43.542  26.787  30.449  1.00  0.00     0.031 C 
ATOM     40  C   UNL A   1      39.691  28.507  27.736  1.00  0.00     0.029 A 
ATOM     41  N   UNL A   1      39.866  29.242  29.843  1.00  0.00    -0.354 N 
ATOM     42  C   UNL A   1      43.070  27.863  32.414  1.00  0.00     0.074 A 
ATOM     43  C   UNL A   1      43.945  26.958  31.698  1.00  0.00     0.031 C 
ATOM     44  C   UNL A   1      38.688  29.378  27.950  1.00  0.00     0.029 A 
ATOM     45  C   UNL A   1      38.727  29.828  29.342  1.00  0.00     0.049 A 
ATOM     46  H   UNL A   1      40.212  29.423  30.746  1.00  0.00     0.167 HD
ATOM     47  C   UNL A   1      43.264  28.265  33.693  1.00  0.00     0.034 A 
ATOM     48  C   UNL A   1      37.801  30.599  29.948  1.00  0.00     0.034 A 
ATOM     49  C   UNL A   1      42.373  29.156  34.397  1.00  0.00     0.049 A 
ATOM     50  C   UNL A   1      37.976  30.947  31.411  1.00  0.00     0.074 A 
ATOM     51  C   UNL A   1      42.476  29.630  35.693  1.00  0.00     0.029 A 
ATOM     52  N   UNL A   1      41.207  29.696  33.869  1.00  0.00    -0.354 N 
ATOM     53  N   UNL A   1      38.942  30.605  32.235  1.00  0.00    -0.248 NA
ATOM     54  C   UNL A   1      36.938  31.788  32.026  1.00  0.00     0.031 C 
ATOM     55  C   UNL A   1      41.335  30.388  35.974  1.00  0.00     0.029 A 
ATOM     56  C   UNL A   1      40.567  30.469  34.824  1.00  0.00     0.049 A 
ATOM     57  H   UNL A   1      40.883  29.550  32.951  1.00  0.00     0.167 HD
ATOM     58  C   UNL A   1      38.649  31.230  33.447  1.00  0.00     0.074 A 
ATOM     59  C   UNL A   1      37.420  31.966  33.248  1.00  0.00     0.031 C 
ATOM     60  C   UNL A   1      39.342  31.206  34.614  1.00  0.00     0.034 A 
BRANCH  47  61
ATOM     61  C   UNL A   1      44.449  27.692  34.432  1.00  0.00     0.023 A 
ATOM     62  C   UNL A   1      44.374  26.474  35.129  1.00  0.00     0.031 A 
ATOM     63  C   UNL A   1      45.670  28.390  34.459  1.00  0.00     0.131 A 
ATOM     64  C   UNL A   1      45.474  26.025  35.875  1.00  0.00     0.055 A 
ATOM     65  C   UNL A   1      46.787  27.897  35.134  1.00  0.00     0.041 A 
ATOM     66  F   UNL A   1      45.795  29.573  33.835  1.00  0.00    -0.206 F 
ATOM     67  C   UNL A   1      46.689  26.713  35.860  1.00  0.00     0.022 A 
BRANCH  64  68
ATOM     68  S   UNL A   1      45.251  24.603  36.979  1.00  0.00     0.124 S 
ATOM     69  O   UNL A   1      46.600  24.427  37.510  1.00  0.00    -0.237 OA
ATOM     70  O   UNL A   1      44.251  25.090  37.922  1.00  0.00    -0.237 OA
ATOM     71  O   UNL A   1      44.799  23.541  36.082  1.00  0.00    -0.744 OA
ENDBRANCH  64  68
ENDBRANCH  47  61
BRANCH  48  72
ATOM     72  C   UNL A   1      36.587  31.055  29.207  1.00  0.00     0.023 A 
ATOM     73  C   UNL A   1      36.157  32.391  29.264  1.00  0.00     0.031 A 
ATOM     74  C   UNL A   1      35.794  30.141  28.490  1.00  0.00     0.131 A 
ATOM     75  C   UNL A   1      34.943  32.762  28.664  1.00  0.00     0.055 A 
ATOM     76  C   UNL A   1      34.620  30.529  27.840  1.00  0.00     0.041 A 
ATOM     77  F   UNL A   1      36.147  28.848  28.411  1.00  0.00    -0.206 F 
ATOM     78  C   UNL A   1      34.181  31.845  27.937  1.00  0.00     0.022 A 
BRANCH  75  79
ATOM     79  S   UNL A   1      34.311  34.440  28.949  1.00  0.00     0.124 S 
ATOM     80  O   UNL A   1      34.991  34.805  30.187  1.00  0.00    -0.237 OA
ATOM     81  O   UNL A   1      34.747  35.140  27.746  1.00  0.00    -0.237 OA
ATOM     82  O   UNL A   1      32.867  34.244  29.066  1.00  0.00    -0.744 OA
ENDBRANCH  75  79
ENDBRANCH  48  72
BRANCH  60  83
ATOM     83  C   UNL A   1      38.832  32.066  35.748  1.00  0.00     0.023 A 
ATOM     84  C   UNL A   1      38.171  31.526  36.865  1.00  0.00     0.031 A 
ATOM     85  C   UNL A   1      39.033  33.459  35.710  1.00  0.00     0.131 A 
ATOM     86  C   UNL A   1      37.696  32.378  37.875  1.00  0.00     0.055 A 
ATOM     87  C   UNL A   1      38.614  34.293  36.746  1.00  0.00     0.041 A 
ATOM     88  F   UNL A   1      39.656  34.031  34.667  1.00  0.00    -0.206 F 
ATOM     89  C   UNL A   1      37.930  33.755  37.832  1.00  0.00     0.022 A 
BRANCH  86  90
ATOM     90  S   UNL A   1      36.693  31.675  39.214  1.00  0.00     0.124 S 
ATOM     91  O   UNL A   1      35.456  32.440  39.102  1.00  0.00    -0.237 OA
ATOM     92  O   UNL A   1      36.609  30.268  38.836  1.00  0.00    -0.237 OA
ATOM     93  O   UNL A   1      37.483  31.946  40.413  1.00  0.00    -0.744 OA
ENDBRANCH  86  90
ENDBRANCH  60  83
ENDBRANCH  34  35
ENDBRANCH  27  29
ENDBRANCH  26  27
ENDBRANCH  25  26
ENDBRANCH  24  25
ENDBRANCH  23  24
ENDBRANCH   1  23
TORSDOF 22
ENDMDL
MODEL 3
REMARK VINA RESULT:     -10.1      5.193      7.905
REMARK SMILES Cc1cscc1C(=O)N1CC[C@H](C(=O)OCCOCCOCCOC(=O)c2ccc(-c3c4nc(c(-c5cc(S(=O)(=O)[O-])ccc5F)c5ccc([nH]5)c(-c5cc(S(=O)(=O)[O-])ccc5F)c5nc(c(-c6cc(S(=O)(=O)[O-])ccc6F)c6ccc3[nH]6)C=C5)C=C4)cc2)[C@H]1C
REMARK SMILES IDX 20 1 19 2 18 3 17 4 16 5 15 6 13 7 14 8 12 9 9 10 10 11
REMARK SMILES IDX 90 12 11 13 91 14 7 15 8 16 6 17 1 18 2 19 3 20 4 21 5 22
REMARK SMILES IDX 21 23 22 24 23 25 24 26 25 27 26 28 27 29 28 30 89 31 29 32
REMARK SMILES IDX 88 33 30 34 31 35 32 36 82 37 33 38 87 39 81 40 83 41 34 42
REMARK SMILES IDX 86 43 80 44 79 45 35 47 67 48 47 49 66 50 48 51 51 52 65 53
REMARK SMILES IDX 84 54 49 55 50 56 64 58 85 59 52 60 36 61 37 62 45 63 38 64
REMARK SMILES IDX 44 65 46 66 43 67 39 68 40 69 41 70 42 71 68 72 69 73 77 74
REMARK SMILES IDX 70 75 76 76 78 77 75 78 71 79 72 80 73 81 74 82 53 83 54 84
REMARK SMILES IDX 62 85 55 86 61 87 63 88 60 89 56 90 57 91 58 92 59 93
REMARK H PARENT 83 46 51 57
REMARK Flexibility Score: inf
ROOT
ATOM      1  C   UNL A   1      40.090  21.595  26.196  1.00  0.00     0.188 C 
ENDROOT
BRANCH   1   2
ATOM      2  C   UNL A   1      38.627  21.468  25.721  1.00  0.00     0.188 C 
BRANCH   2   3
ATOM      3  O   UNL A   1      37.994  22.705  25.482  1.00  0.00    -0.376 OA
BRANCH   3   4
ATOM      4  C   UNL A   1      36.588  22.755  25.310  1.00  0.00     0.202 C 
BRANCH   4   5
ATOM      5  C   UNL A   1      35.869  23.026  23.971  1.00  0.00     0.261 C 
BRANCH   5   6
ATOM      6  O   UNL A   1      34.502  23.441  24.045  1.00  0.00    -0.463 OA
BRANCH   6   7
ATOM      7  C   UNL A   1      33.703  23.133  22.985  1.00  0.00     0.311 C 
ATOM      8  O   UNL A   1      34.010  23.298  21.814  1.00  0.00    -0.252 OA
BRANCH   7   9
ATOM      9  C   UNL A   1      32.390  22.538  23.468  1.00  0.00     0.123 C 
ATOM     10  N   UNL A   1      32.625  20.260  24.173  1.00  0.00    -0.335 N 
ATOM     11  C   UNL A   1      32.440  20.281  22.731  1.00  0.00     0.121 C 
ATOM     12  C   UNL A   1      32.614  21.633  24.694  1.00  0.00     0.096 C 
ATOM     13  C   UNL A   1      31.776  21.611  22.430  1.00  0.00     0.039 C 
ATOM     14  C   UNL A   1      31.514  21.801  25.741  1.00  0.00     0.032 C 
BRANCH  10  15
ATOM     15  C   UNL A   1      33.637  19.420  24.634  1.00  0.00     0.255 C 
ATOM     16  O   UNL A   1      34.755  19.867  24.889  1.00  0.00    -0.269 OA
BRANCH  15  17
ATOM     17  C   UNL A   1      33.304  18.001  24.808  1.00  0.00     0.053 A 
ATOM     18  C   UNL A   1      34.357  16.821  22.697  1.00  0.00     0.046 C 
ATOM     19  C   UNL A   1      33.587  16.844  23.973  1.00  0.00    -0.028 A 
ATOM     20  C   UNL A   1      33.039  15.693  24.515  1.00  0.00     0.069 A 
ATOM     21  S   UNL A   1      32.261  15.949  26.005  1.00  0.00    -0.151 S 
ATOM     22  C   UNL A   1      32.613  17.611  25.948  1.00  0.00     0.079 A 
ENDBRANCH  15  17
ENDBRANCH  10  15
ENDBRANCH   7   9
ENDBRANCH   6   7
ENDBRANCH   5   6
ENDBRANCH   4   5
ENDBRANCH   3   4
ENDBRANCH   2   3
ENDBRANCH   1   2
BRANCH   1  23
ATOM     23  O   UNL A   1      40.713  20.533  26.896  1.00  0.00    -0.376 OA
BRANCH  23  24
ATOM     24  C   UNL A   1      42.072  20.231  26.620  1.00  0.00     0.202 C 
BRANCH  24  25
ATOM     25  C   UNL A   1      42.948  21.115  25.708  1.00  0.00     0.261 C 
BRANCH  25  26
ATOM     26  O   UNL A   1      43.621  22.226  26.321  1.00  0.00    -0.460 OA
BRANCH  26  27
ATOM     27  C   UNL A   1      43.599  23.383  25.607  1.00  0.00     0.338 C 
ATOM     28  O   UNL A   1      43.912  23.529  24.441  1.00  0.00    -0.246 OA
BRANCH  27  29
ATOM     29  C   UNL A   1      42.939  24.437  26.407  1.00  0.00     0.060 A 
ATOM     30  C   UNL A   1      43.448  25.744  26.356  1.00  0.00     0.016 A 
ATOM     31  C   UNL A   1      41.865  24.131  27.240  1.00  0.00     0.016 A 
ATOM     32  C   UNL A   1      42.894  26.748  27.151  1.00  0.00     0.010 A 
ATOM     33  C   UNL A   1      41.331  25.131  28.061  1.00  0.00     0.010 A 
ATOM     34  C   UNL A   1      41.858  26.436  28.040  1.00  0.00    -0.014 A 
BRANCH  34  35
ATOM     35  C   UNL A   1      41.452  27.407  29.089  1.00  0.00     0.031 A 
ATOM     36  C   UNL A   1      42.251  27.451  30.363  1.00  0.00     0.074 A 
ATOM     37  C   UNL A   1      40.395  28.222  28.925  1.00  0.00     0.049 A 
ATOM     38  N   UNL A   1      42.014  28.098  31.474  1.00  0.00    -0.248 NA
ATOM     39  C   UNL A   1      43.484  26.647  30.384  1.00  0.00     0.031 C 
ATOM     40  C   UNL A   1      39.587  28.326  27.711  1.00  0.00     0.029 A 
ATOM     41  N   UNL A   1      39.808  29.107  29.797  1.00  0.00    -0.354 N 
ATOM     42  C   UNL A   1      43.057  27.768  32.333  1.00  0.00     0.074 A 
ATOM     43  C   UNL A   1      43.912  26.843  31.620  1.00  0.00     0.031 C 
ATOM     44  C   UNL A   1      38.593  29.207  27.925  1.00  0.00     0.029 A 
ATOM     45  C   UNL A   1      38.662  29.687  29.306  1.00  0.00     0.049 A 
ATOM     46  H   UNL A   1      40.173  29.306  30.689  1.00  0.00     0.167 HD
ATOM     47  C   UNL A   1      43.278  28.198  33.599  1.00  0.00     0.034 A 
ATOM     48  C   UNL A   1      37.752  30.477  29.913  1.00  0.00     0.034 A 
ATOM     49  C   UNL A   1      42.406  29.109  34.300  1.00  0.00     0.049 A 
ATOM     50  C   UNL A   1      37.958  30.856  31.364  1.00  0.00     0.074 A 
ATOM     51  C   UNL A   1      42.537  29.612  35.583  1.00  0.00     0.029 A 
ATOM     52  N   UNL A   1      41.232  29.643  33.784  1.00  0.00    -0.354 N 
ATOM     53  N   UNL A   1      38.939  30.528  32.175  1.00  0.00    -0.248 NA
ATOM     54  C   UNL A   1      36.937  31.716  31.981  1.00  0.00     0.031 C 
ATOM     55  C   UNL A   1      41.405  30.381  35.870  1.00  0.00     0.029 A 
ATOM     56  C   UNL A   1      40.615  30.441  34.735  1.00  0.00     0.049 A 
ATOM     57  H   UNL A   1      40.888  29.479  32.876  1.00  0.00     0.167 HD
ATOM     58  C   UNL A   1      38.673  31.181  33.379  1.00  0.00     0.074 A 
ATOM     59  C   UNL A   1      37.444  31.919  33.188  1.00  0.00     0.031 C 
ATOM     60  C   UNL A   1      39.389  31.180  34.532  1.00  0.00     0.034 A 
BRANCH  47  61
ATOM     61  C   UNL A   1      44.476  27.636  34.327  1.00  0.00     0.023 A 
ATOM     62  C   UNL A   1      44.414  26.422  35.033  1.00  0.00     0.031 A 
ATOM     63  C   UNL A   1      45.693  28.339  34.333  1.00  0.00     0.131 A 
ATOM     64  C   UNL A   1      45.526  25.983  35.768  1.00  0.00     0.055 A 
ATOM     65  C   UNL A   1      46.821  27.856  34.998  1.00  0.00     0.041 A 
ATOM     66  F   UNL A   1      45.805  29.518  33.699  1.00  0.00    -0.206 F 
ATOM     67  C   UNL A   1      46.738  26.677  35.733  1.00  0.00     0.022 A 
BRANCH  64  68
ATOM     68  S   UNL A   1      45.323  24.569  36.885  1.00  0.00     0.124 S 
ATOM     69  O   UNL A   1      44.369  23.745  36.148  1.00  0.00    -0.237 OA
ATOM     70  O   UNL A   1      46.680  24.044  36.981  1.00  0.00    -0.237 OA
ATOM     71  O   UNL A   1      44.799  25.172  38.109  1.00  0.00    -0.744 OA
ENDBRANCH  64  68
ENDBRANCH  47  61
BRANCH  48  72
ATOM     72  C   UNL A   1      36.525  30.923  29.186  1.00  0.00     0.023 A 
ATOM     73  C   UNL A   1      36.078  32.252  29.258  1.00  0.00     0.031 A 
ATOM     74  C   UNL A   1      35.738  30.003  28.469  1.00  0.00     0.131 A 
ATOM     75  C   UNL A   1      34.854  32.612  28.672  1.00  0.00     0.055 A 
ATOM     76  C   UNL A   1      34.554  30.381  27.832  1.00  0.00     0.041 A 
ATOM     77  F   UNL A   1      36.108  28.716  28.377  1.00  0.00    -0.206 F 
ATOM     78  C   UNL A   1      34.098  31.690  27.944  1.00  0.00     0.022 A 
BRANCH  75  79
ATOM     79  S   UNL A   1      34.202  34.279  28.976  1.00  0.00     0.124 S 
ATOM     80  O   UNL A   1      33.750  34.170  30.359  1.00  0.00    -0.237 OA
ATOM     81  O   UNL A   1      35.376  35.113  28.748  1.00  0.00    -0.237 OA
ATOM     82  O   UNL A   1      33.139  34.414  27.982  1.00  0.00    -0.744 OA
ENDBRANCH  75  79
ENDBRANCH  48  72
BRANCH  60  83
ATOM     83  C   UNL A   1      38.907  32.067  35.657  1.00  0.00     0.023 A 
ATOM     84  C   UNL A   1      38.222  31.561  36.775  1.00  0.00     0.031 A 
ATOM     85  C   UNL A   1      39.159  33.451  35.608  1.00  0.00     0.131 A 
ATOM     86  C   UNL A   1      37.774  32.439  37.776  1.00  0.00     0.055 A 
ATOM     87  C   UNL A   1      38.765  34.310  36.635  1.00  0.00     0.041 A 
ATOM     88  F   UNL A   1      39.806  33.992  34.563  1.00  0.00    -0.206 F 
ATOM     89  C   UNL A   1      38.058  33.807  37.722  1.00  0.00     0.022 A 
BRANCH  86  90
ATOM     90  S   UNL A   1      36.741  31.784  39.117  1.00  0.00     0.124 S 
ATOM     91  O   UNL A   1      35.485  32.497  38.909  1.00  0.00    -0.237 OA
ATOM     92  O   UNL A   1      36.719  30.355  38.825  1.00  0.00    -0.237 OA
ATOM     93  O   UNL A   1      37.473  32.157  40.327  1.00  0.00    -0.744 OA
ENDBRANCH  86  90
ENDBRANCH  60  83
ENDBRANCH  34  35
ENDBRANCH  27  29
ENDBRANCH  26  27
ENDBRANCH  25  26
ENDBRANCH  24  25
ENDBRANCH  23  24
ENDBRANCH   1  23
TORSDOF 22
ENDMDL
