MODEL 1
REMARK VINA RESULT:      -9.1      0.000      0.000
REMARK SMILES CC[N@@H+](C)Cc1cc2c(cc1Cl)C=C(C(=O)OCCOCCOCCOC(=O)c1ccc(-c3c4nc(c(-c5cc(S(=O)(=O)[O-])ccc5F)c5ccc([nH]5)c(-c5cc(S(=O)(=O)[O-])ccc5F)c5nc(c(-c6cc(S(=O)(=O)[O-])ccc6F)c6ccc3[nH]6)C=C5)C=C4)cc1)[C@@H](C(F)(F)F)O2
REMARK SMILES IDX 21 1 20 2 19 3 18 4 17 5 15 6 16 7 14 8 6 9 7 10 11 11 8 12
REMARK SMILES IDX 10 13 12 14 9 15 97 16 13 17 92 18 5 19 3 20 4 21 2 23 1 24
REMARK SMILES IDX 93 25 94 26 95 27 96 28 22 29 23 30 24 31 25 32 26 33 27 34
REMARK SMILES IDX 28 35 29 36 30 37 91 38 31 39 90 40 32 41 33 42 34 43 84 44
REMARK SMILES IDX 35 45 89 46 83 47 85 48 36 49 88 50 82 51 81 52 37 54 69 55
REMARK SMILES IDX 49 56 68 57 50 58 53 59 67 60 86 61 51 62 52 63 66 65 87 66
REMARK SMILES IDX 54 67 38 68 39 69 47 70 40 71 46 72 48 73 45 74 41 75 42 76
REMARK SMILES IDX 43 77 44 78 70 79 71 80 79 81 72 82 78 83 80 84 77 85 73 86
REMARK SMILES IDX 74 87 75 88 76 89 55 90 56 91 64 92 57 93 63 94 65 95 62 96
REMARK SMILES IDX 58 97 59 98 60 99 61 100
REMARK H PARENT 3 22 85 53 53 64
REMARK Flexibility Score: inf
ROOT
ATOM      1  C   UNL A   1      34.774  30.605  27.501  1.00  0.00     0.188 C 
ENDROOT
BRANCH   1   2
ATOM      2  O   UNL A   1      33.733  29.828  26.933  1.00  0.00    -0.376 OA
BRANCH   2   3
ATOM      3  C   UNL A   1      32.463  30.434  26.786  1.00  0.00     0.202 C 
BRANCH   3   4
ATOM      4  C   UNL A   1      31.592  29.986  25.603  1.00  0.00     0.261 C 
BRANCH   4   5
ATOM      5  O   UNL A   1      31.977  28.753  24.984  1.00  0.00    -0.460 OA
BRANCH   5   6
ATOM      6  C   UNL A   1      31.054  28.121  24.228  1.00  0.00     0.338 C 
ATOM      7  O   UNL A   1      30.171  28.646  23.575  1.00  0.00    -0.246 OA
BRANCH   6   8
ATOM      8  C   UNL A   1      31.366  26.673  24.231  1.00  0.00     0.087 C 
ATOM      9  C   UNL A   1      32.842  21.992  25.282  1.00  0.00     0.029 A 
ATOM     10  C   UNL A   1      32.300  22.629  24.155  1.00  0.00     0.058 A 
ATOM     11  C   UNL A   1      32.765  22.678  26.508  1.00  0.00     0.050 A 
ATOM     12  C   UNL A   1      31.885  23.959  24.202  1.00  0.00     0.128 A 
ATOM     13  C   UNL A   1      32.299  23.999  26.567  1.00  0.00     0.033 A 
ATOM     14  Cl  UNL A   1      33.237  21.955  28.005  1.00  0.00    -0.084 Cl
ATOM     15  C   UNL A   1      31.913  24.664  25.401  1.00  0.00     0.019 A 
ATOM     16  O   UNL A   1      31.468  24.492  23.016  1.00  0.00    -0.475 OA
ATOM     17  C   UNL A   1      31.572  26.078  25.414  1.00  0.00     0.027 C 
ATOM     18  C   UNL A   1      31.393  25.937  22.913  1.00  0.00     0.316 C 
BRANCH   9  19
ATOM     19  C   UNL A   1      33.483  20.620  25.148  1.00  0.00     0.300 C 
BRANCH  19  20
ATOM     20  N   UNL A   1      32.600  19.491  24.783  1.00  0.00    -0.334 N 
ATOM     21  C   UNL A   1      32.772  18.333  25.663  1.00  0.00     0.333 C 
ATOM     22  H   UNL A   1      31.681  19.906  24.936  1.00  0.00     0.348 HD
BRANCH  20  23
ATOM     23  C   UNL A   1      32.536  19.087  23.378  1.00  0.00     0.258 C 
ATOM     24  C   UNL A   1      32.867  17.623  23.112  1.00  0.00     0.071 C 
ENDBRANCH  20  23
ENDBRANCH  19  20
ENDBRANCH   9  19
BRANCH  18  25
ATOM     25  C   UNL A   1      32.510  26.442  21.990  1.00  0.00     0.430 C 
ATOM     26  F   UNL A   1      32.313  26.038  20.710  1.00  0.00    -0.167 F 
ATOM     27  F   UNL A   1      32.559  27.795  21.962  1.00  0.00    -0.167 F 
ATOM     28  F   UNL A   1      33.731  26.000  22.368  1.00  0.00    -0.167 F 
ENDBRANCH  18  25
ENDBRANCH   6   8
ENDBRANCH   5   6
ENDBRANCH   4   5
ENDBRANCH   3   4
ENDBRANCH   2   3
ENDBRANCH   1   2
BRANCH   1  29
ATOM     29  C   UNL A   1      35.784  29.746  28.290  1.00  0.00     0.188 C 
BRANCH  29  30
ATOM     30  O   UNL A   1      36.422  30.301  29.437  1.00  0.00    -0.376 OA
BRANCH  30  31
ATOM     31  C   UNL A   1      35.737  31.306  30.180  1.00  0.00     0.202 C 
BRANCH  31  32
ATOM     32  C   UNL A   1      36.465  31.976  31.352  1.00  0.00     0.261 C 
BRANCH  32  33
ATOM     33  O   UNL A   1      36.297  31.304  32.611  1.00  0.00    -0.460 OA
BRANCH  33  34
ATOM     34  C   UNL A   1      37.230  31.593  33.557  1.00  0.00     0.338 C 
ATOM     35  O   UNL A   1      37.038  32.134  34.632  1.00  0.00    -0.246 OA
BRANCH  34  36
ATOM     36  C   UNL A   1      38.511  30.951  33.190  1.00  0.00     0.060 A 
ATOM     37  C   UNL A   1      39.592  31.698  32.719  1.00  0.00     0.016 A 
ATOM     38  C   UNL A   1      38.621  29.562  33.338  1.00  0.00     0.016 A 
ATOM     39  C   UNL A   1      40.799  31.051  32.428  1.00  0.00     0.010 A 
ATOM     40  C   UNL A   1      39.817  28.915  33.024  1.00  0.00     0.010 A 
ATOM     41  C   UNL A   1      40.924  29.659  32.591  1.00  0.00    -0.014 A 
BRANCH  41  42
ATOM     42  C   UNL A   1      42.257  29.011  32.515  1.00  0.00     0.031 A 
ATOM     43  C   UNL A   1      42.704  28.238  31.313  1.00  0.00     0.074 A 
ATOM     44  C   UNL A   1      43.059  29.110  33.592  1.00  0.00     0.049 A 
ATOM     45  N   UNL A   1      43.865  27.681  31.087  1.00  0.00    -0.248 NA
ATOM     46  C   UNL A   1      41.729  28.062  30.227  1.00  0.00     0.031 C 
ATOM     47  C   UNL A   1      42.703  29.809  34.828  1.00  0.00     0.029 A 
ATOM     48  N   UNL A   1      44.320  28.627  33.833  1.00  0.00    -0.354 N 
ATOM     49  C   UNL A   1      43.780  27.110  29.824  1.00  0.00     0.074 A 
ATOM     50  C   UNL A   1      42.431  27.347  29.353  1.00  0.00     0.031 C 
ATOM     51  C   UNL A   1      43.723  29.717  35.692  1.00  0.00     0.029 A 
ATOM     52  C   UNL A   1      44.797  28.934  35.085  1.00  0.00     0.049 A 
ATOM     53  H   UNL A   1      44.834  28.109  33.171  1.00  0.00     0.167 HD
ATOM     54  C   UNL A   1      44.750  26.473  29.125  1.00  0.00     0.034 A 
ATOM     55  C   UNL A   1      45.966  28.624  35.683  1.00  0.00     0.034 A 
ATOM     56  C   UNL A   1      46.084  26.239  29.625  1.00  0.00     0.049 A 
ATOM     57  C   UNL A   1      47.008  27.870  34.900  1.00  0.00     0.074 A 
ATOM     58  C   UNL A   1      47.155  25.667  28.959  1.00  0.00     0.029 A 
ATOM     59  N   UNL A   1      46.528  26.537  30.905  1.00  0.00    -0.354 N 
ATOM     60  N   UNL A   1      46.960  27.458  33.655  1.00  0.00    -0.248 NA
ATOM     61  C   UNL A   1      48.264  27.547  35.589  1.00  0.00     0.031 C 
ATOM     62  C   UNL A   1      48.219  25.553  29.854  1.00  0.00     0.029 A 
ATOM     63  C   UNL A   1      47.842  26.119  31.061  1.00  0.00     0.049 A 
ATOM     64  H   UNL A   1      45.990  26.979  31.601  1.00  0.00     0.167 HD
ATOM     65  C   UNL A   1      48.186  26.848  33.404  1.00  0.00     0.074 A 
ATOM     66  C   UNL A   1      48.964  26.968  34.620  1.00  0.00     0.031 C 
ATOM     67  C   UNL A   1      48.621  26.243  32.271  1.00  0.00     0.034 A 
BRANCH  54  68
ATOM     68  C   UNL A   1      44.456  26.008  27.719  1.00  0.00     0.023 A 
ATOM     69  C   UNL A   1      44.122  24.663  27.470  1.00  0.00     0.031 A 
ATOM     70  C   UNL A   1      44.693  26.850  26.617  1.00  0.00     0.131 A 
ATOM     71  C   UNL A   1      44.080  24.189  26.152  1.00  0.00     0.055 A 
ATOM     72  C   UNL A   1      44.613  26.380  25.306  1.00  0.00     0.041 A 
ATOM     73  F   UNL A   1      45.024  28.138  26.803  1.00  0.00    -0.206 F 
ATOM     74  C   UNL A   1      44.319  25.041  25.069  1.00  0.00     0.022 A 
BRANCH  71  75
ATOM     75  S   UNL A   1      43.790  22.434  25.792  1.00  0.00     0.124 S 
ATOM     76  O   UNL A   1      43.060  22.001  26.983  1.00  0.00    -0.237 OA
ATOM     77  O   UNL A   1      42.998  22.502  24.567  1.00  0.00    -0.237 OA
ATOM     78  O   UNL A   1      45.130  21.878  25.650  1.00  0.00    -0.744 OA
ENDBRANCH  71  75
ENDBRANCH  54  68
BRANCH  55  79
ATOM     79  C   UNL A   1      46.214  29.103  37.073  1.00  0.00     0.023 A 
ATOM     80  C   UNL A   1      45.863  28.315  38.184  1.00  0.00     0.031 A 
ATOM     81  C   UNL A   1      46.694  30.402  37.309  1.00  0.00     0.131 A 
ATOM     82  C   UNL A   1      45.929  28.858  39.473  1.00  0.00     0.055 A 
ATOM     83  C   UNL A   1      46.825  30.915  38.601  1.00  0.00     0.041 A 
ATOM     84  F   UNL A   1      47.026  31.198  36.281  1.00  0.00    -0.206 F 
ATOM     85  C   UNL A   1      46.423  30.147  39.690  1.00  0.00     0.022 A 
BRANCH  82  86
ATOM     86  S   UNL A   1      45.241  27.964  40.895  1.00  0.00     0.124 S 
ATOM     87  O   UNL A   1      44.465  29.005  41.562  1.00  0.00    -0.237 OA
ATOM     88  O   UNL A   1      44.460  26.917  40.241  1.00  0.00    -0.237 OA
ATOM     89  O   UNL A   1      46.423  27.498  41.613  1.00  0.00    -0.744 OA
ENDBRANCH  82  86
ENDBRANCH  55  79
BRANCH  67  90
ATOM     90  C   UNL A   1      50.004  25.633  32.259  1.00  0.00     0.023 A 
ATOM     91  C   UNL A   1      50.198  24.308  32.694  1.00  0.00     0.031 A 
ATOM     92  C   UNL A   1      51.139  26.412  31.975  1.00  0.00     0.131 A 
ATOM     93  C   UNL A   1      51.497  23.820  32.882  1.00  0.00     0.055 A 
ATOM     94  C   UNL A   1      52.431  25.904  32.115  1.00  0.00     0.041 A 
ATOM     95  F   UNL A   1      51.007  27.684  31.563  1.00  0.00    -0.206 F 
ATOM     96  C   UNL A   1      52.615  24.608  32.587  1.00  0.00     0.022 A 
BRANCH  93  97
ATOM     97  S   UNL A   1      51.788  22.178  33.600  1.00  0.00     0.124 S 
ATOM     98  O   UNL A   1      53.244  22.154  33.722  1.00  0.00    -0.237 OA
ATOM     99  O   UNL A   1      51.058  22.261  34.861  1.00  0.00    -0.237 OA
ATOM    100  O   UNL A   1      51.234  21.259  32.610  1.00  0.00    -0.744 OA
ENDBRANCH  93  97
ENDBRANCH  67  90
ENDBRANCH  41  42
ENDBRANCH  34  36
ENDBRANCH  33  34
ENDBRANCH  32  33
ENDBRANCH  31  32
ENDBRANCH  30  31
ENDBRANCH  29  30
ENDBRANCH   1  29
TORSDOF 24
ENDMDL
MODEL 2
REMARK VINA RESULT:      -9.1      5.094      8.452
REMARK SMILES CC[N@@H+](C)Cc1cc2c(cc1Cl)C=C(C(=O)OCCOCCOCCOC(=O)c1ccc(-c3c4nc(c(-c5cc(S(=O)(=O)[O-])ccc5F)c5ccc([nH]5)c(-c5cc(S(=O)(=O)[O-])ccc5F)c5nc(c(-c6cc(S(=O)(=O)[O-])ccc6F)c6ccc3[nH]6)C=C5)C=C4)cc1)[C@@H](C(F)(F)F)O2
REMARK SMILES IDX 21 1 20 2 19 3 18 4 17 5 15 6 16 7 14 8 6 9 7 10 11 11 8 12
REMARK SMILES IDX 10 13 12 14 9 15 97 16 13 17 92 18 5 19 3 20 4 21 2 23 1 24
REMARK SMILES IDX 93 25 94 26 95 27 96 28 22 29 23 30 24 31 25 32 26 33 27 34
REMARK SMILES IDX 28 35 29 36 30 37 91 38 31 39 90 40 32 41 33 42 34 43 84 44
REMARK SMILES IDX 35 45 89 46 83 47 85 48 36 49 88 50 82 51 81 52 37 54 69 55
REMARK SMILES IDX 49 56 68 57 50 58 53 59 67 60 86 61 51 62 52 63 66 65 87 66
REMARK SMILES IDX 54 67 38 68 39 69 47 70 40 71 46 72 48 73 45 74 41 75 42 76
REMARK SMILES IDX 43 77 44 78 70 79 71 80 79 81 72 82 78 83 80 84 77 85 73 86
REMARK SMILES IDX 74 87 75 88 76 89 55 90 56 91 64 92 57 93 63 94 65 95 62 96
REMARK SMILES IDX 58 97 59 98 60 99 61 100
REMARK H PARENT 3 22 85 53 53 64
REMARK Flexibility Score: inf
ROOT
ATOM      1  C   UNL A   1      33.662  22.760  24.948  1.00  0.00     0.188 C 
ENDROOT
BRANCH   1   2
ATOM      2  O   UNL A   1      33.847  23.482  23.742  1.00  0.00    -0.376 OA
BRANCH   2   3
ATOM      3  C   UNL A   1      34.361  24.797  23.833  1.00  0.00     0.202 C 
BRANCH   3   4
ATOM      4  C   UNL A   1      33.369  25.961  23.701  1.00  0.00     0.261 C 
BRANCH   4   5
ATOM      5  O   UNL A   1      33.695  27.139  24.449  1.00  0.00    -0.460 OA
BRANCH   5   6
ATOM      6  C   UNL A   1      33.526  27.092  25.788  1.00  0.00     0.338 C 
ATOM      7  O   UNL A   1      33.257  26.105  26.450  1.00  0.00    -0.246 OA
BRANCH   6   8
ATOM      8  C   UNL A   1      33.836  28.430  26.341  1.00  0.00     0.087 C 
ATOM      9  C   UNL A   1      35.337  32.360  29.080  1.00  0.00     0.029 A 
ATOM     10  C   UNL A   1      34.604  32.203  27.893  1.00  0.00     0.058 A 
ATOM     11  C   UNL A   1      36.056  31.243  29.545  1.00  0.00     0.050 A 
ATOM     12  C   UNL A   1      34.430  30.950  27.307  1.00  0.00     0.128 A 
ATOM     13  C   UNL A   1      35.924  29.992  28.925  1.00  0.00     0.033 A 
ATOM     14  Cl  UNL A   1      37.133  31.330  30.894  1.00  0.00    -0.084 Cl
ATOM     15  C   UNL A   1      35.062  29.830  27.839  1.00  0.00     0.019 A 
ATOM     16  O   UNL A   1      33.616  30.915  26.212  1.00  0.00    -0.475 OA
ATOM     17  C   UNL A   1      34.792  28.516  27.277  1.00  0.00     0.027 C 
ATOM     18  C   UNL A   1      33.095  29.627  25.796  1.00  0.00     0.316 C 
BRANCH   9  19
ATOM     19  C   UNL A   1      35.329  33.693  29.811  1.00  0.00     0.300 C 
BRANCH  19  20
ATOM     20  N   UNL A   1      34.130  34.022  30.612  1.00  0.00    -0.334 N 
ATOM     21  C   UNL A   1      33.300  35.053  29.987  1.00  0.00     0.333 C 
ATOM     22  H   UNL A   1      33.638  33.128  30.599  1.00  0.00     0.348 HD
BRANCH  20  23
ATOM     23  C   UNL A   1      34.301  34.269  32.044  1.00  0.00     0.258 C 
ATOM     24  C   UNL A   1      34.494  33.019  32.895  1.00  0.00     0.071 C 
ENDBRANCH  20  23
ENDBRANCH  19  20
ENDBRANCH   9  19
BRANCH  18  25
ATOM     25  C   UNL A   1      31.591  29.564  26.096  1.00  0.00     0.430 C 
ATOM     26  F   UNL A   1      31.353  29.015  27.313  1.00  0.00    -0.167 F 
ATOM     27  F   UNL A   1      31.036  30.800  26.116  1.00  0.00    -0.167 F 
ATOM     28  F   UNL A   1      30.914  28.832  25.184  1.00  0.00    -0.167 F 
ENDBRANCH  18  25
ENDBRANCH   6   8
ENDBRANCH   5   6
ENDBRANCH   4   5
ENDBRANCH   3   4
ENDBRANCH   2   3
ENDBRANCH   1   2
BRANCH   1  29
ATOM     29  C   UNL A   1      34.405  21.408  24.944  1.00  0.00     0.188 C 
BRANCH  29  30
ATOM     30  O   UNL A   1      35.756  21.359  24.495  1.00  0.00    -0.376 OA
BRANCH  30  31
ATOM     31  C   UNL A   1      36.751  20.855  25.382  1.00  0.00     0.202 C 
BRANCH  31  32
ATOM     32  C   UNL A   1      38.182  21.397  25.263  1.00  0.00     0.261 C 
BRANCH  32  33
ATOM     33  O   UNL A   1      38.514  22.401  26.235  1.00  0.00    -0.460 OA
BRANCH  33  34
ATOM     34  C   UNL A   1      38.113  23.665  25.932  1.00  0.00     0.338 C 
ATOM     35  O   UNL A   1      37.128  23.984  25.290  1.00  0.00    -0.246 OA
BRANCH  34  36
ATOM     36  C   UNL A   1      38.937  24.632  26.689  1.00  0.00     0.060 A 
ATOM     37  C   UNL A   1      38.953  24.640  28.085  1.00  0.00     0.016 A 
ATOM     38  C   UNL A   1      39.720  25.543  25.966  1.00  0.00     0.016 A 
ATOM     39  C   UNL A   1      39.784  25.545  28.756  1.00  0.00     0.010 A 
ATOM     40  C   UNL A   1      40.529  26.460  26.637  1.00  0.00     0.010 A 
ATOM     41  C   UNL A   1      40.587  26.451  28.038  1.00  0.00    -0.014 A 
BRANCH  41  42
ATOM     42  C   UNL A   1      41.637  27.237  28.733  1.00  0.00     0.031 A 
ATOM     43  C   UNL A   1      43.087  27.127  28.376  1.00  0.00     0.074 A 
ATOM     44  C   UNL A   1      41.247  28.043  29.739  1.00  0.00     0.049 A 
ATOM     45  N   UNL A   1      44.098  27.805  28.855  1.00  0.00    -0.248 NA
ATOM     46  C   UNL A   1      43.455  26.134  27.357  1.00  0.00     0.031 C 
ATOM     47  C   UNL A   1      39.862  28.193  30.190  1.00  0.00     0.029 A 
ATOM     48  N   UNL A   1      41.960  28.876  30.563  1.00  0.00    -0.354 N 
ATOM     49  C   UNL A   1      45.222  27.346  28.181  1.00  0.00     0.074 A 
ATOM     50  C   UNL A   1      44.774  26.294  27.293  1.00  0.00     0.031 C 
ATOM     51  C   UNL A   1      39.825  29.069  31.204  1.00  0.00     0.029 A 
ATOM     52  C   UNL A   1      41.182  29.527  31.491  1.00  0.00     0.049 A 
ATOM     53  H   UNL A   1      42.935  28.994  30.497  1.00  0.00     0.167 HD
ATOM     54  C   UNL A   1      46.500  27.786  28.285  1.00  0.00     0.034 A 
ATOM     55  C   UNL A   1      41.518  30.397  32.467  1.00  0.00     0.034 A 
ATOM     56  C   UNL A   1      46.922  28.829  29.190  1.00  0.00     0.049 A 
ATOM     57  C   UNL A   1      42.954  30.831  32.593  1.00  0.00     0.074 A 
ATOM     58  C   UNL A   1      48.182  29.392  29.312  1.00  0.00     0.029 A 
ATOM     59  N   UNL A   1      46.119  29.451  30.136  1.00  0.00    -0.354 N 
ATOM     60  N   UNL A   1      43.983  30.489  31.855  1.00  0.00    -0.248 NA
ATOM     61  C   UNL A   1      43.279  31.775  33.671  1.00  0.00     0.031 C 
ATOM     62  C   UNL A   1      48.159  30.296  30.374  1.00  0.00     0.029 A 
ATOM     63  C   UNL A   1      46.867  30.357  30.873  1.00  0.00     0.049 A 
ATOM     64  H   UNL A   1      45.159  29.274  30.264  1.00  0.00     0.167 HD
ATOM     65  C   UNL A   1      45.072  31.192  32.364  1.00  0.00     0.074 A 
ATOM     66  C   UNL A   1      44.570  31.998  33.457  1.00  0.00     0.031 C 
ATOM     67  C   UNL A   1      46.367  31.165  31.961  1.00  0.00     0.034 A 
BRANCH  54  68
ATOM     68  C   UNL A   1      47.555  27.196  27.382  1.00  0.00     0.023 A 
ATOM     69  C   UNL A   1      47.645  27.599  26.036  1.00  0.00     0.031 A 
ATOM     70  C   UNL A   1      48.337  26.106  27.804  1.00  0.00     0.131 A 
ATOM     71  C   UNL A   1      48.464  26.887  25.149  1.00  0.00     0.055 A 
ATOM     72  C   UNL A   1      49.179  25.424  26.925  1.00  0.00     0.041 A 
ATOM     73  F   UNL A   1      48.279  25.677  29.075  1.00  0.00    -0.206 F 
ATOM     74  C   UNL A   1      49.235  25.805  25.587  1.00  0.00     0.022 A 
BRANCH  71  75
ATOM     75  S   UNL A   1      48.505  27.286  23.379  1.00  0.00     0.124 S 
ATOM     76  O   UNL A   1      47.281  28.069  23.221  1.00  0.00    -0.237 OA
ATOM     77  O   UNL A   1      49.748  28.044  23.267  1.00  0.00    -0.237 OA
ATOM     78  O   UNL A   1      48.497  25.982  22.725  1.00  0.00    -0.744 OA
ENDBRANCH  71  75
ENDBRANCH  54  68
BRANCH  55  79
ATOM     79  C   UNL A   1      40.443  30.954  33.336  1.00  0.00     0.023 A 
ATOM     80  C   UNL A   1      39.826  32.181  33.029  1.00  0.00     0.031 A 
ATOM     81  C   UNL A   1      40.102  30.328  34.547  1.00  0.00     0.131 A 
ATOM     82  C   UNL A   1      38.958  32.776  33.953  1.00  0.00     0.055 A 
ATOM     83  C   UNL A   1      39.182  30.891  35.434  1.00  0.00     0.041 A 
ATOM     84  F   UNL A   1      40.677  29.166  34.892  1.00  0.00    -0.206 F 
ATOM     85  C   UNL A   1      38.620  32.131  35.146  1.00  0.00     0.022 A 
BRANCH  82  86
ATOM     86  S   UNL A   1      38.353  34.468  33.704  1.00  0.00     0.124 S 
ATOM     87  O   UNL A   1      38.092  34.490  32.268  1.00  0.00    -0.237 OA
ATOM     88  O   UNL A   1      37.170  34.493  34.560  1.00  0.00    -0.237 OA
ATOM     89  O   UNL A   1      39.463  35.301  34.157  1.00  0.00    -0.744 OA
ENDBRANCH  82  86
ENDBRANCH  55  79
BRANCH  67  90
ATOM     90  C   UNL A   1      47.374  32.017  32.698  1.00  0.00     0.023 A 
ATOM     91  C   UNL A   1      47.690  33.306  32.228  1.00  0.00     0.031 A 
ATOM     92  C   UNL A   1      48.131  31.493  33.759  1.00  0.00     0.131 A 
ATOM     93  C   UNL A   1      48.770  34.005  32.782  1.00  0.00     0.055 A 
ATOM     94  C   UNL A   1      49.173  32.215  34.343  1.00  0.00     0.041 A 
ATOM     95  F   UNL A   1      47.873  30.266  34.240  1.00  0.00    -0.206 F 
ATOM     96  C   UNL A   1      49.508  33.470  33.844  1.00  0.00     0.022 A 
BRANCH  93  97
ATOM     97  S   UNL A   1      49.313  35.594  32.093  1.00  0.00     0.124 S 
ATOM     98  O   UNL A   1      48.560  36.549  32.903  1.00  0.00    -0.237 OA
ATOM     99  O   UNL A   1      50.751  35.562  32.345  1.00  0.00    -0.237 OA
ATOM    100  O   UNL A   1      48.918  35.523  30.690  1.00  0.00    -0.744 OA
ENDBRANCH  93  97
ENDBRANCH  67  90
ENDBRANCH  41  42
ENDBRANCH  34  36
ENDBRANCH  33  34
ENDBRANCH  32  33
ENDBRANCH  31  32
ENDBRANCH  30  31
ENDBRANCH  29  30
ENDBRANCH   1  29
TORSDOF 24
ENDMDL
MODEL 3
REMARK VINA RESULT:      -8.7      5.406      8.774
REMARK SMILES CC[N@@H+](C)Cc1cc2c(cc1Cl)C=C(C(=O)OCCOCCOCCOC(=O)c1ccc(-c3c4nc(c(-c5cc(S(=O)(=O)[O-])ccc5F)c5ccc([nH]5)c(-c5cc(S(=O)(=O)[O-])ccc5F)c5nc(c(-c6cc(S(=O)(=O)[O-])ccc6F)c6ccc3[nH]6)C=C5)C=C4)cc1)[C@@H](C(F)(F)F)O2
REMARK SMILES IDX 21 1 20 2 19 3 18 4 17 5 15 6 16 7 14 8 6 9 7 10 11 11 8 12
REMARK SMILES IDX 10 13 12 14 9 15 97 16 13 17 92 18 5 19 3 20 4 21 2 23 1 24
REMARK SMILES IDX 93 25 94 26 95 27 96 28 22 29 23 30 24 31 25 32 26 33 27 34
REMARK SMILES IDX 28 35 29 36 30 37 91 38 31 39 90 40 32 41 33 42 34 43 84 44
REMARK SMILES IDX 35 45 89 46 83 47 85 48 36 49 88 50 82 51 81 52 37 54 69 55
REMARK SMILES IDX 49 56 68 57 50 58 53 59 67 60 86 61 51 62 52 63 66 65 87 66
REMARK SMILES IDX 54 67 38 68 39 69 47 70 40 71 46 72 48 73 45 74 41 75 42 76
REMARK SMILES IDX 43 77 44 78 70 79 71 80 79 81 72 82 78 83 80 84 77 85 73 86
REMARK SMILES IDX 74 87 75 88 76 89 55 90 56 91 64 92 57 93 63 94 65 95 62 96
REMARK SMILES IDX 58 97 59 98 60 99 61 100
REMARK H PARENT 3 22 85 53 53 64
REMARK Flexibility Score: inf
ROOT
ATOM      1  C   UNL A   1      33.993  22.542  25.524  1.00  0.00     0.188 C 
ENDROOT
BRANCH   1   2
ATOM      2  O   UNL A   1      34.153  23.224  24.292  1.00  0.00    -0.376 OA
BRANCH   2   3
ATOM      3  C   UNL A   1      34.725  24.518  24.324  1.00  0.00     0.202 C 
BRANCH   3   4
ATOM      4  C   UNL A   1      33.769  25.718  24.402  1.00  0.00     0.261 C 
BRANCH   4   5
ATOM      5  O   UNL A   1      34.059  26.673  25.430  1.00  0.00    -0.460 OA
BRANCH   5   6
ATOM      6  C   UNL A   1      33.074  27.526  25.783  1.00  0.00     0.338 C 
ATOM      7  O   UNL A   1      31.876  27.322  25.701  1.00  0.00    -0.246 OA
BRANCH   6   8
ATOM      8  C   UNL A   1      33.695  28.719  26.402  1.00  0.00     0.087 C 
ATOM      9  C   UNL A   1      36.158  32.012  29.281  1.00  0.00     0.029 A 
ATOM     10  C   UNL A   1      35.338  32.110  28.146  1.00  0.00     0.058 A 
ATOM     11  C   UNL A   1      36.650  30.736  29.612  1.00  0.00     0.050 A 
ATOM     12  C   UNL A   1      34.867  30.973  27.490  1.00  0.00     0.128 A 
ATOM     13  C   UNL A   1      36.218  29.596  28.919  1.00  0.00     0.033 A 
ATOM     14  Cl  UNL A   1      37.800  30.486  30.877  1.00  0.00    -0.084 Cl
ATOM     15  C   UNL A   1      35.277  29.707  27.894  1.00  0.00     0.019 A 
ATOM     16  O   UNL A   1      34.000  31.199  26.461  1.00  0.00    -0.475 OA
ATOM     17  C   UNL A   1      34.701  28.528  27.265  1.00  0.00     0.027 C 
ATOM     18  C   UNL A   1      33.192  30.085  25.999  1.00  0.00     0.316 C 
BRANCH   9  19
ATOM     19  C   UNL A   1      36.477  33.253  30.100  1.00  0.00     0.300 C 
BRANCH  19  20
ATOM     20  N   UNL A   1      35.489  33.666  31.120  1.00  0.00    -0.334 N 
ATOM     21  C   UNL A   1      35.952  34.795  31.929  1.00  0.00     0.333 C 
ATOM     22  H   UNL A   1      34.712  33.961  30.529  1.00  0.00     0.348 HD
BRANCH  20  23
ATOM     23  C   UNL A   1      34.879  32.629  31.953  1.00  0.00     0.258 C 
ATOM     24  C   UNL A   1      35.617  32.329  33.253  1.00  0.00     0.071 C 
ENDBRANCH  20  23
ENDBRANCH  19  20
ENDBRANCH   9  19
BRANCH  18  25
ATOM     25  C   UNL A   1      31.731  30.310  26.407  1.00  0.00     0.430 C 
ATOM     26  F   UNL A   1      30.883  30.012  25.392  1.00  0.00    -0.167 F 
ATOM     27  F   UNL A   1      31.378  29.519  27.449  1.00  0.00    -0.167 F 
ATOM     28  F   UNL A   1      31.488  31.590  26.772  1.00  0.00    -0.167 F 
ENDBRANCH  18  25
ENDBRANCH   6   8
ENDBRANCH   5   6
ENDBRANCH   4   5
ENDBRANCH   3   4
ENDBRANCH   2   3
ENDBRANCH   1   2
BRANCH   1  29
ATOM     29  C   UNL A   1      34.961  21.349  25.665  1.00  0.00     0.188 C 
BRANCH  29  30
ATOM     30  O   UNL A   1      36.178  21.349  24.923  1.00  0.00    -0.376 OA
BRANCH  30  31
ATOM     31  C   UNL A   1      37.353  20.833  25.540  1.00  0.00     0.202 C 
BRANCH  31  32
ATOM     32  C   UNL A   1      38.668  21.607  25.377  1.00  0.00     0.261 C 
BRANCH  32  33
ATOM     33  O   UNL A   1      39.044  22.379  26.529  1.00  0.00    -0.460 OA
BRANCH  33  34
ATOM     34  C   UNL A   1      38.633  23.675  26.524  1.00  0.00     0.338 C 
ATOM     35  O   UNL A   1      37.483  24.077  26.492  1.00  0.00    -0.246 OA
BRANCH  34  36
ATOM     36  C   UNL A   1      39.792  24.555  26.789  1.00  0.00     0.060 A 
ATOM     37  C   UNL A   1      40.194  25.527  25.872  1.00  0.00     0.016 A 
ATOM     38  C   UNL A   1      40.479  24.397  28.001  1.00  0.00     0.016 A 
ATOM     39  C   UNL A   1      41.269  26.366  26.187  1.00  0.00     0.010 A 
ATOM     40  C   UNL A   1      41.566  25.219  28.303  1.00  0.00     0.010 A 
ATOM     41  C   UNL A   1      41.953  26.227  27.410  1.00  0.00    -0.014 A 
BRANCH  41  42
ATOM     42  C   UNL A   1      42.926  27.259  27.847  1.00  0.00     0.031 A 
ATOM     43  C   UNL A   1      44.353  27.256  27.394  1.00  0.00     0.074 A 
ATOM     44  C   UNL A   1      42.490  28.200  28.706  1.00  0.00     0.049 A 
ATOM     45  N   UNL A   1      45.289  28.134  27.644  1.00  0.00    -0.248 NA
ATOM     46  C   UNL A   1      44.791  26.128  26.560  1.00  0.00     0.031 C 
ATOM     47  C   UNL A   1      41.128  28.270  29.237  1.00  0.00     0.029 A 
ATOM     48  N   UNL A   1      43.132  29.263  29.289  1.00  0.00    -0.354 N 
ATOM     49  C   UNL A   1      46.424  27.687  26.978  1.00  0.00     0.074 A 
ATOM     50  C   UNL A   1      46.069  26.430  26.353  1.00  0.00     0.031 C 
ATOM     51  C   UNL A   1      41.033  29.323  30.061  1.00  0.00     0.029 A 
ATOM     52  C   UNL A   1      42.331  29.991  30.137  1.00  0.00     0.049 A 
ATOM     53  H   UNL A   1      44.077  29.483  29.117  1.00  0.00     0.167 HD
ATOM     54  C   UNL A   1      47.633  28.291  26.885  1.00  0.00     0.034 A 
ATOM     55  C   UNL A   1      42.603  31.075  30.892  1.00  0.00     0.034 A 
ATOM     56  C   UNL A   1      47.964  29.539  27.530  1.00  0.00     0.049 A 
ATOM     57  C   UNL A   1      43.972  31.696  30.808  1.00  0.00     0.074 A 
ATOM     58  C   UNL A   1      49.140  30.264  27.432  1.00  0.00     0.029 A 
ATOM     59  N   UNL A   1      47.142  30.238  28.403  1.00  0.00    -0.354 N 
ATOM     60  N   UNL A   1      44.992  31.339  30.065  1.00  0.00    -0.248 NA
ATOM     61  C   UNL A   1      44.229  32.872  31.651  1.00  0.00     0.031 C 
ATOM     62  C   UNL A   1      49.058  31.355  28.296  1.00  0.00     0.029 A 
ATOM     63  C   UNL A   1      47.803  31.359  28.883  1.00  0.00     0.049 A 
ATOM     64  H   UNL A   1      46.224  29.977  28.645  1.00  0.00     0.167 HD
ATOM     65  C   UNL A   1      46.004  32.257  30.332  1.00  0.00     0.074 A 
ATOM     66  C   UNL A   1      45.463  33.202  31.287  1.00  0.00     0.031 C 
ATOM     67  C   UNL A   1      47.263  32.305  29.832  1.00  0.00     0.034 A 
BRANCH  54  68
ATOM     68  C   UNL A   1      48.703  27.661  26.026  1.00  0.00     0.023 A 
ATOM     69  C   UNL A   1      48.684  27.830  24.628  1.00  0.00     0.031 A 
ATOM     70  C   UNL A   1      49.620  26.746  26.573  1.00  0.00     0.131 A 
ATOM     71  C   UNL A   1      49.533  27.060  23.822  1.00  0.00     0.055 A 
ATOM     72  C   UNL A   1      50.489  26.009  25.767  1.00  0.00     0.041 A 
ATOM     73  F   UNL A   1      49.670  26.541  27.899  1.00  0.00    -0.206 F 
ATOM     74  C   UNL A   1      50.438  26.154  24.384  1.00  0.00     0.022 A 
BRANCH  71  75
ATOM     75  S   UNL A   1      49.445  27.146  22.011  1.00  0.00     0.124 S 
ATOM     76  O   UNL A   1      48.785  28.434  21.805  1.00  0.00    -0.237 OA
ATOM     77  O   UNL A   1      50.855  27.102  21.636  1.00  0.00    -0.237 OA
ATOM     78  O   UNL A   1      48.654  25.978  21.642  1.00  0.00    -0.744 OA
ENDBRANCH  71  75
ENDBRANCH  54  68
BRANCH  55  79
ATOM     79  C   UNL A   1      41.516  31.664  31.726  1.00  0.00     0.023 A 
ATOM     80  C   UNL A   1      41.168  31.097  32.967  1.00  0.00     0.031 A 
ATOM     81  C   UNL A   1      40.733  32.724  31.241  1.00  0.00     0.131 A 
ATOM     82  C   UNL A   1      40.027  31.546  33.643  1.00  0.00     0.055 A 
ATOM     83  C   UNL A   1      39.638  33.216  31.953  1.00  0.00     0.041 A 
ATOM     84  F   UNL A   1      41.016  33.286  30.056  1.00  0.00    -0.206 F 
ATOM     85  C   UNL A   1      39.269  32.613  33.152  1.00  0.00     0.022 A 
BRANCH  82  86
ATOM     86  S   UNL A   1      39.407  30.668  35.104  1.00  0.00     0.124 S 
ATOM     87  O   UNL A   1      40.483  29.718  35.368  1.00  0.00    -0.237 OA
ATOM     88  O   UNL A   1      39.274  31.755  36.073  1.00  0.00    -0.237 OA
ATOM     89  O   UNL A   1      38.148  30.087  34.649  1.00  0.00    -0.744 OA
ENDBRANCH  82  86
ENDBRANCH  55  79
BRANCH  67  90
ATOM     90  C   UNL A   1      48.188  33.405  30.300  1.00  0.00     0.023 A 
ATOM     91  C   UNL A   1      48.376  34.556  29.512  1.00  0.00     0.031 A 
ATOM     92  C   UNL A   1      48.998  33.239  31.437  1.00  0.00     0.131 A 
ATOM     93  C   UNL A   1      49.387  35.469  29.840  1.00  0.00     0.055 A 
ATOM     94  C   UNL A   1      49.969  34.178  31.789  1.00  0.00     0.041 A 
ATOM     95  F   UNL A   1      48.861  32.155  32.219  1.00  0.00    -0.206 F 
ATOM     96  C   UNL A   1      50.178  35.291  30.980  1.00  0.00     0.022 A 
BRANCH  93  97
ATOM     97  S   UNL A   1      49.771  36.874  28.757  1.00  0.00     0.124 S 
ATOM     98  O   UNL A   1      48.549  36.989  27.965  1.00  0.00    -0.237 OA
ATOM     99  O   UNL A   1      49.994  37.950  29.719  1.00  0.00    -0.237 OA
ATOM    100  O   UNL A   1      50.950  36.436  28.017  1.00  0.00    -0.744 OA
ENDBRANCH  93  97
ENDBRANCH  67  90
ENDBRANCH  41  42
ENDBRANCH  34  36
ENDBRANCH  33  34
ENDBRANCH  32  33
ENDBRANCH  31  32
ENDBRANCH  30  31
ENDBRANCH  29  30
ENDBRANCH   1  29
TORSDOF 24
ENDMDL
