MODEL 1
REMARK VINA RESULT:      -9.6      0.000      0.000
REMARK SMILES CCn1ncc(NC(=O)[C@@H]2CCCC[C@@H]2C(=O)OCCOCCOCCOC(=O)c2ccc(-c3c4nc(c(-c5cc(S(=O)(=O)[O-])ccc5F)c5ccc([nH]5)c(-c5cc(S(=O)(=O)[O-])ccc5F)c5nc(c(-c6cc(S(=O)(=O)[O-])ccc6F)c6ccc3[nH]6)C=C5)C=C4)cc2)c1C(=O)Nc1cnn(C)c1C
REMARK SMILES IDX 22 1 21 2 20 3 19 4 18 5 16 6 17 7 15 8 10 9 11 10 12 11
REMARK SMILES IDX 14 12 13 13 8 14 7 15 9 17 6 18 3 19 4 20 93 21 5 22 2 23
REMARK SMILES IDX 1 24 94 25 95 26 96 27 97 29 98 30 102 31 99 32 100 33
REMARK SMILES IDX 103 34 101 35 23 36 24 37 25 38 26 39 27 40 28 41 29 42
REMARK SMILES IDX 30 43 31 44 92 45 32 46 91 47 33 48 34 49 35 50 85 51 36 52
REMARK SMILES IDX 90 53 84 54 86 55 37 56 89 57 83 58 82 59 38 61 70 62 50 63
REMARK SMILES IDX 69 64 51 65 54 66 68 67 87 68 52 69 53 70 67 72 88 73 55 74
REMARK SMILES IDX 39 75 40 76 48 77 41 78 47 79 49 80 46 81 42 82 43 83 44 84
REMARK SMILES IDX 45 85 71 86 72 87 80 88 73 89 79 90 81 91 78 92 74 93 75 94
REMARK SMILES IDX 76 95 77 96 56 97 57 98 65 99 58 100 64 101 66 102 63 103
REMARK SMILES IDX 59 104 60 105 61 106 62 107
REMARK H PARENT 7 16 96 28 86 60 54 71
REMARK Flexibility Score: inf
ROOT
ATOM      1  C   UNL A   1      40.136  26.509  28.598  1.00  0.00     0.188 C 
ENDROOT
BRANCH   1   2
ATOM      2  O   UNL A   1      40.256  27.440  27.525  1.00  0.00    -0.376 OA
BRANCH   2   3
ATOM      3  C   UNL A   1      39.586  28.685  27.692  1.00  0.00     0.202 C 
BRANCH   3   4
ATOM      4  C   UNL A   1      38.934  28.956  29.060  1.00  0.00     0.261 C 
BRANCH   4   5
ATOM      5  O   UNL A   1      38.510  30.315  29.297  1.00  0.00    -0.463 OA
BRANCH   5   6
ATOM      6  C   UNL A   1      37.173  30.528  29.340  1.00  0.00     0.309 C 
ATOM      7  O   UNL A   1      36.492  30.507  30.361  1.00  0.00    -0.252 OA
BRANCH   6   8
ATOM      8  C   UNL A   1      36.545  30.770  27.967  1.00  0.00     0.111 C 
ATOM      9  C   UNL A   1      35.805  32.104  27.926  1.00  0.00     0.093 C 
ATOM     10  C   UNL A   1      34.421  32.012  28.558  1.00  0.00     0.014 C 
ATOM     11  C   UNL A   1      33.580  31.091  27.679  1.00  0.00     0.001 C 
ATOM     12  C   UNL A   1      35.713  29.639  27.358  1.00  0.00     0.016 C 
ATOM     13  C   UNL A   1      34.200  29.704  27.566  1.00  0.00     0.001 C 
BRANCH   9  14
ATOM     14  C   UNL A   1      36.673  33.218  28.429  1.00  0.00     0.228 C 
ATOM     15  N   UNL A   1      36.104  34.314  29.007  1.00  0.00    -0.322 N 
ATOM     16  H   UNL A   1      36.727  35.075  29.041  1.00  0.00     0.170 HD
ATOM     17  O   UNL A   1      37.891  33.217  28.235  1.00  0.00    -0.274 OA
BRANCH  15  18
ATOM     18  C   UNL A   1      34.864  34.635  29.561  1.00  0.00     0.092 A 
ATOM     19  N   UNL A   1      33.102  35.303  30.703  1.00  0.00    -0.258 N 
ATOM     20  N   UNL A   1      32.824  35.681  29.441  1.00  0.00    -0.178 NA
ATOM     21  C   UNL A   1      34.236  34.516  30.808  1.00  0.00     0.150 A 
ATOM     22  C   UNL A   1      33.906  35.319  28.766  1.00  0.00     0.162 A 
BRANCH  19  23
ATOM     23  C   UNL A   1      32.255  35.868  31.744  1.00  0.00     0.142 C 
ATOM     24  C   UNL A   1      32.887  36.924  32.638  1.00  0.00     0.029 C 
ENDBRANCH  19  23
BRANCH  21  25
ATOM     25  C   UNL A   1      34.671  33.976  32.072  1.00  0.00     0.276 C 
ATOM     26  O   UNL A   1      34.076  33.063  32.645  1.00  0.00    -0.267 OA
ATOM     27  N   UNL A   1      35.732  34.608  32.714  1.00  0.00    -0.318 N 
ATOM     28  H   UNL A   1      35.579  35.390  33.291  1.00  0.00     0.170 HD
BRANCH  27  29
ATOM     29  C   UNL A   1      37.014  34.105  32.517  1.00  0.00     0.082 A 
ATOM     30  C   UNL A   1      38.027  34.521  31.638  1.00  0.00     0.161 A 
ATOM     31  C   UNL A   1      37.541  33.023  33.194  1.00  0.00     0.059 A 
ATOM     32  N   UNL A   1      39.037  33.647  31.601  1.00  0.00    -0.179 NA
ATOM     33  N   UNL A   1      38.690  32.711  32.507  1.00  0.00    -0.271 N 
ATOM     34  C   UNL A   1      36.996  32.197  34.302  1.00  0.00     0.068 C 
ATOM     35  C   UNL A   1      39.364  31.432  32.476  1.00  0.00     0.174 C 
ENDBRANCH  27  29
ENDBRANCH  21  25
ENDBRANCH  15  18
ENDBRANCH   9  14
ENDBRANCH   6   8
ENDBRANCH   5   6
ENDBRANCH   4   5
ENDBRANCH   3   4
ENDBRANCH   2   3
ENDBRANCH   1   2
BRANCH   1  36
ATOM     36  C   UNL A   1      39.256  25.275  28.342  1.00  0.00     0.188 C 
BRANCH  36  37
ATOM     37  O   UNL A   1      39.043  24.985  26.964  1.00  0.00    -0.376 OA
BRANCH  37  38
ATOM     38  C   UNL A   1      38.739  23.653  26.549  1.00  0.00     0.202 C 
BRANCH  38  39
ATOM     39  C   UNL A   1      39.811  22.575  26.652  1.00  0.00     0.261 C 
BRANCH  39  40
ATOM     40  O   UNL A   1      41.107  22.981  26.245  1.00  0.00    -0.460 OA
BRANCH  40  41
ATOM     41  C   UNL A   1      42.065  22.069  25.970  1.00  0.00     0.338 C 
ATOM     42  O   UNL A   1      41.949  20.870  25.839  1.00  0.00    -0.246 OA
BRANCH  41  43
ATOM     43  C   UNL A   1      43.296  22.859  25.797  1.00  0.00     0.060 A 
ATOM     44  C   UNL A   1      44.312  22.692  26.730  1.00  0.00     0.016 A 
ATOM     45  C   UNL A   1      43.333  23.886  24.830  1.00  0.00     0.016 A 
ATOM     46  C   UNL A   1      45.202  23.731  26.883  1.00  0.00     0.010 A 
ATOM     47  C   UNL A   1      44.208  24.923  24.991  1.00  0.00     0.010 A 
ATOM     48  C   UNL A   1      45.047  24.876  26.090  1.00  0.00    -0.014 A 
BRANCH  48  49
ATOM     49  C   UNL A   1      45.771  26.063  26.459  1.00  0.00     0.031 A 
ATOM     50  C   UNL A   1      47.158  26.073  25.992  1.00  0.00     0.074 A 
ATOM     51  C   UNL A   1      45.203  27.071  27.146  1.00  0.00     0.049 A 
ATOM     52  N   UNL A   1      48.200  25.776  26.688  1.00  0.00    -0.248 NA
ATOM     53  C   UNL A   1      47.407  26.226  24.554  1.00  0.00     0.031 C 
ATOM     54  C   UNL A   1      43.784  27.301  27.428  1.00  0.00     0.029 A 
ATOM     55  N   UNL A   1      45.809  28.162  27.679  1.00  0.00    -0.354 N 
ATOM     56  C   UNL A   1      49.273  25.966  25.834  1.00  0.00     0.074 A 
ATOM     57  C   UNL A   1      48.720  26.000  24.506  1.00  0.00     0.031 C 
ATOM     58  C   UNL A   1      43.627  28.559  27.903  1.00  0.00     0.029 A 
ATOM     59  C   UNL A   1      44.939  29.163  28.085  1.00  0.00     0.049 A 
ATOM     60  H   UNL A   1      46.786  28.236  27.771  1.00  0.00     0.167 HD
ATOM     61  C   UNL A   1      50.482  26.350  26.322  1.00  0.00     0.034 A 
ATOM     62  C   UNL A   1      45.286  30.418  28.475  1.00  0.00     0.034 A 
ATOM     63  C   UNL A   1      50.551  26.155  27.755  1.00  0.00     0.049 A 
ATOM     64  C   UNL A   1      46.695  30.347  28.947  1.00  0.00     0.074 A 
ATOM     65  C   UNL A   1      50.400  25.061  28.590  1.00  0.00     0.029 A 
ATOM     66  N   UNL A   1      50.419  27.259  28.569  1.00  0.00    -0.354 N 
ATOM     67  N   UNL A   1      47.063  29.680  30.008  1.00  0.00    -0.248 NA
ATOM     68  C   UNL A   1      47.760  30.605  27.987  1.00  0.00     0.031 C 
ATOM     69  C   UNL A   1      49.713  25.559  29.735  1.00  0.00     0.029 A 
ATOM     70  C   UNL A   1      49.544  26.936  29.579  1.00  0.00     0.049 A 
ATOM     71  H   UNL A   1      50.871  28.126  28.448  1.00  0.00     0.167 HD
ATOM     72  C   UNL A   1      48.256  29.065  29.656  1.00  0.00     0.074 A 
ATOM     73  C   UNL A   1      48.687  29.755  28.441  1.00  0.00     0.031 C 
ATOM     74  C   UNL A   1      48.637  27.878  30.214  1.00  0.00     0.034 A 
BRANCH  61  75
ATOM     75  C   UNL A   1      51.449  27.235  25.580  1.00  0.00     0.023 A 
ATOM     76  C   UNL A   1      50.959  27.900  24.443  1.00  0.00     0.031 A 
ATOM     77  C   UNL A   1      52.855  27.250  25.745  1.00  0.00     0.131 A 
ATOM     78  C   UNL A   1      51.836  28.446  23.494  1.00  0.00     0.055 A 
ATOM     79  C   UNL A   1      53.720  27.864  24.837  1.00  0.00     0.041 A 
ATOM     80  F   UNL A   1      53.482  26.593  26.727  1.00  0.00    -0.206 F 
ATOM     81  C   UNL A   1      53.216  28.439  23.686  1.00  0.00     0.022 A 
BRANCH  78  82
ATOM     82  S   UNL A   1      51.146  29.000  21.918  1.00  0.00     0.124 S 
ATOM     83  O   UNL A   1      49.772  28.520  22.017  1.00  0.00    -0.237 OA
ATOM     84  O   UNL A   1      51.333  30.445  21.999  1.00  0.00    -0.237 OA
ATOM     85  O   UNL A   1      51.976  28.318  20.927  1.00  0.00    -0.744 OA
ENDBRANCH  78  82
ENDBRANCH  61  75
BRANCH  62  86
ATOM     86  C   UNL A   1      44.588  31.683  28.121  1.00  0.00     0.023 A 
ATOM     87  C   UNL A   1      43.880  32.451  29.068  1.00  0.00     0.031 A 
ATOM     88  C   UNL A   1      44.820  32.286  26.863  1.00  0.00     0.131 A 
ATOM     89  C   UNL A   1      43.443  33.758  28.741  1.00  0.00     0.055 A 
ATOM     90  C   UNL A   1      44.379  33.572  26.544  1.00  0.00     0.041 A 
ATOM     91  F   UNL A   1      45.563  31.680  25.923  1.00  0.00    -0.206 F 
ATOM     92  C   UNL A   1      43.694  34.319  27.488  1.00  0.00     0.022 A 
BRANCH  89  93
ATOM     93  S   UNL A   1      42.617  34.793  29.993  1.00  0.00     0.124 S 
ATOM     94  O   UNL A   1      41.303  35.011  29.398  1.00  0.00    -0.237 OA
ATOM     95  O   UNL A   1      42.660  33.944  31.179  1.00  0.00    -0.237 OA
ATOM     96  O   UNL A   1      43.465  35.984  30.063  1.00  0.00    -0.744 OA
ENDBRANCH  89  93
ENDBRANCH  62  86
BRANCH  74  97
ATOM     97  C   UNL A   1      47.924  27.404  31.467  1.00  0.00     0.023 A 
ATOM     98  C   UNL A   1      46.713  26.676  31.487  1.00  0.00     0.031 A 
ATOM     99  C   UNL A   1      48.579  27.609  32.696  1.00  0.00     0.131 A 
ATOM    100  C   UNL A   1      46.200  26.194  32.710  1.00  0.00     0.055 A 
ATOM    101  C   UNL A   1      48.080  27.111  33.899  1.00  0.00     0.041 A 
ATOM    102  F   UNL A   1      49.747  28.272  32.742  1.00  0.00    -0.206 F 
ATOM    103  C   UNL A   1      46.883  26.406  33.911  1.00  0.00     0.022 A 
BRANCH 100 104
ATOM    104  S   UNL A   1      44.619  25.286  32.764  1.00  0.00     0.124 S 
ATOM    105  O   UNL A   1      44.802  24.349  33.866  1.00  0.00    -0.237 OA
ATOM    106  O   UNL A   1      43.649  26.356  32.988  1.00  0.00    -0.237 OA
ATOM    107  O   UNL A   1      44.539  24.663  31.443  1.00  0.00    -0.744 OA
ENDBRANCH 100 104
ENDBRANCH  74  97
ENDBRANCH  48  49
ENDBRANCH  41  43
ENDBRANCH  40  41
ENDBRANCH  39  40
ENDBRANCH  38  39
ENDBRANCH  37  38
ENDBRANCH  36  37
ENDBRANCH   1  36
TORSDOF 25
ENDMDL
MODEL 2
REMARK VINA RESULT:      -9.2      2.757      7.944
REMARK SMILES CCn1ncc(NC(=O)[C@@H]2CCCC[C@@H]2C(=O)OCCOCCOCCOC(=O)c2ccc(-c3c4nc(c(-c5cc(S(=O)(=O)[O-])ccc5F)c5ccc([nH]5)c(-c5cc(S(=O)(=O)[O-])ccc5F)c5nc(c(-c6cc(S(=O)(=O)[O-])ccc6F)c6ccc3[nH]6)C=C5)C=C4)cc2)c1C(=O)Nc1cnn(C)c1C
REMARK SMILES IDX 22 1 21 2 20 3 19 4 18 5 16 6 17 7 15 8 10 9 11 10 12 11
REMARK SMILES IDX 14 12 13 13 8 14 7 15 9 17 6 18 3 19 4 20 93 21 5 22 2 23
REMARK SMILES IDX 1 24 94 25 95 26 96 27 97 29 98 30 102 31 99 32 100 33
REMARK SMILES IDX 103 34 101 35 23 36 24 37 25 38 26 39 27 40 28 41 29 42
REMARK SMILES IDX 30 43 31 44 92 45 32 46 91 47 33 48 34 49 35 50 85 51 36 52
REMARK SMILES IDX 90 53 84 54 86 55 37 56 89 57 83 58 82 59 38 61 70 62 50 63
REMARK SMILES IDX 69 64 51 65 54 66 68 67 87 68 52 69 53 70 67 72 88 73 55 74
REMARK SMILES IDX 39 75 40 76 48 77 41 78 47 79 49 80 46 81 42 82 43 83 44 84
REMARK SMILES IDX 45 85 71 86 72 87 80 88 73 89 79 90 81 91 78 92 74 93 75 94
REMARK SMILES IDX 76 95 77 96 56 97 57 98 65 99 58 100 64 101 66 102 63 103
REMARK SMILES IDX 59 104 60 105 61 106 62 107
REMARK H PARENT 7 16 96 28 86 60 54 71
REMARK Flexibility Score: inf
ROOT
ATOM      1  C   UNL A   1      43.418  29.911  30.649  1.00  0.00     0.188 C 
ENDROOT
BRANCH   1   2
ATOM      2  O   UNL A   1      42.330  29.014  30.858  1.00  0.00    -0.376 OA
BRANCH   2   3
ATOM      3  C   UNL A   1      41.102  29.354  30.223  1.00  0.00     0.202 C 
BRANCH   3   4
ATOM      4  C   UNL A   1      40.024  30.030  31.090  1.00  0.00     0.261 C 
BRANCH   4   5
ATOM      5  O   UNL A   1      40.072  31.471  31.143  1.00  0.00    -0.463 OA
BRANCH   5   6
ATOM      6  C   UNL A   1      39.632  32.045  32.288  1.00  0.00     0.309 C 
ATOM      7  O   UNL A   1      40.353  32.426  33.205  1.00  0.00    -0.252 OA
BRANCH   6   8
ATOM      8  C   UNL A   1      38.109  32.155  32.373  1.00  0.00     0.111 C 
ATOM      9  C   UNL A   1      37.632  33.546  31.966  1.00  0.00     0.093 C 
ATOM     10  C   UNL A   1      37.781  34.557  33.097  1.00  0.00     0.014 C 
ATOM     11  C   UNL A   1      36.820  34.143  34.208  1.00  0.00     0.001 C 
ATOM     12  C   UNL A   1      37.434  31.676  33.661  1.00  0.00     0.016 C 
ATOM     13  C   UNL A   1      37.122  32.738  34.715  1.00  0.00     0.001 C 
BRANCH   9  14
ATOM     14  C   UNL A   1      38.223  33.955  30.650  1.00  0.00     0.228 C 
ATOM     15  N   UNL A   1      37.905  33.263  29.519  1.00  0.00    -0.322 N 
ATOM     16  H   UNL A   1      38.547  33.437  28.792  1.00  0.00     0.170 HD
ATOM     17  O   UNL A   1      39.080  34.839  30.582  1.00  0.00    -0.274 OA
BRANCH  15  18
ATOM     18  C   UNL A   1      36.906  32.371  29.127  1.00  0.00     0.092 A 
ATOM     19  N   UNL A   1      35.273  31.196  28.228  1.00  0.00    -0.258 N 
ATOM     20  N   UNL A   1      36.234  30.282  28.458  1.00  0.00    -0.178 NA
ATOM     21  C   UNL A   1      35.553  32.440  28.767  1.00  0.00     0.150 A 
ATOM     22  C   UNL A   1      37.231  31.000  28.956  1.00  0.00     0.162 A 
BRANCH  19  23
ATOM     23  C   UNL A   1      34.178  30.775  27.367  1.00  0.00     0.142 C 
ATOM     24  C   UNL A   1      34.089  29.288  27.054  1.00  0.00     0.029 C 
ENDBRANCH  19  23
BRANCH  21  25
ATOM     25  C   UNL A   1      34.625  33.538  28.665  1.00  0.00     0.276 C 
ATOM     26  O   UNL A   1      33.713  33.564  27.840  1.00  0.00    -0.267 OA
ATOM     27  N   UNL A   1      34.862  34.659  29.455  1.00  0.00    -0.318 N 
ATOM     28  H   UNL A   1      35.475  35.369  29.154  1.00  0.00     0.170 HD
BRANCH  27  29
ATOM     29  C   UNL A   1      34.211  34.751  30.681  1.00  0.00     0.082 A 
ATOM     30  C   UNL A   1      34.160  33.843  31.752  1.00  0.00     0.161 A 
ATOM     31  C   UNL A   1      33.437  35.824  31.077  1.00  0.00     0.059 A 
ATOM     32  N   UNL A   1      33.255  34.209  32.664  1.00  0.00    -0.179 NA
ATOM     33  N   UNL A   1      32.781  35.383  32.201  1.00  0.00    -0.271 N 
ATOM     34  C   UNL A   1      33.161  37.130  30.423  1.00  0.00     0.068 C 
ATOM     35  C   UNL A   1      31.538  35.889  32.737  1.00  0.00     0.174 C 
ENDBRANCH  27  29
ENDBRANCH  21  25
ENDBRANCH  15  18
ENDBRANCH   9  14
ENDBRANCH   6   8
ENDBRANCH   5   6
ENDBRANCH   4   5
ENDBRANCH   3   4
ENDBRANCH   2   3
ENDBRANCH   1   2
BRANCH   1  36
ATOM     36  C   UNL A   1      43.180  31.060  29.656  1.00  0.00     0.188 C 
BRANCH  36  37
ATOM     37  O   UNL A   1      43.278  32.360  30.232  1.00  0.00    -0.376 OA
BRANCH  37  38
ATOM     38  C   UNL A   1      42.390  33.398  29.816  1.00  0.00     0.202 C 
BRANCH  38  39
ATOM     39  C   UNL A   1      42.940  34.582  29.031  1.00  0.00     0.261 C 
BRANCH  39  40
ATOM     40  O   UNL A   1      44.159  34.333  28.350  1.00  0.00    -0.460 OA
BRANCH  40  41
ATOM     41  C   UNL A   1      45.328  34.818  28.823  1.00  0.00     0.338 C 
ATOM     42  O   UNL A   1      45.534  35.867  29.393  1.00  0.00    -0.246 OA
BRANCH  41  43
ATOM     43  C   UNL A   1      46.311  33.754  28.553  1.00  0.00     0.060 A 
ATOM     44  C   UNL A   1      46.700  33.548  27.236  1.00  0.00     0.016 A 
ATOM     45  C   UNL A   1      46.671  32.861  29.585  1.00  0.00     0.016 A 
ATOM     46  C   UNL A   1      47.185  32.301  26.911  1.00  0.00     0.010 A 
ATOM     47  C   UNL A   1      47.139  31.620  29.261  1.00  0.00     0.010 A 
ATOM     48  C   UNL A   1      47.274  31.328  27.915  1.00  0.00    -0.014 A 
BRANCH  48  49
ATOM     49  C   UNL A   1      47.481  29.960  27.521  1.00  0.00     0.031 A 
ATOM     50  C   UNL A   1      46.267  29.143  27.582  1.00  0.00     0.074 A 
ATOM     51  C   UNL A   1      48.676  29.499  27.112  1.00  0.00     0.049 A 
ATOM     52  N   UNL A   1      45.936  28.337  28.531  1.00  0.00    -0.248 NA
ATOM     53  C   UNL A   1      45.210  29.391  26.595  1.00  0.00     0.031 C 
ATOM     54  C   UNL A   1      49.875  30.259  26.752  1.00  0.00     0.029 A 
ATOM     55  N   UNL A   1      49.033  28.214  26.861  1.00  0.00    -0.354 N 
ATOM     56  C   UNL A   1      44.740  27.772  28.126  1.00  0.00     0.074 A 
ATOM     57  C   UNL A   1      44.236  28.620  27.077  1.00  0.00     0.031 C 
ATOM     58  C   UNL A   1      50.755  29.431  26.139  1.00  0.00     0.029 A 
ATOM     59  C   UNL A   1      50.238  28.071  26.190  1.00  0.00     0.049 A 
ATOM     60  H   UNL A   1      48.481  27.446  27.134  1.00  0.00     0.167 HD
ATOM     61  C   UNL A   1      44.412  26.509  28.505  1.00  0.00     0.034 A 
ATOM     62  C   UNL A   1      50.730  26.920  25.660  1.00  0.00     0.034 A 
ATOM     63  C   UNL A   1      45.242  26.063  29.605  1.00  0.00     0.049 A 
ATOM     64  C   UNL A   1      50.094  25.799  26.402  1.00  0.00     0.074 A 
ATOM     65  C   UNL A   1      45.490  26.537  30.881  1.00  0.00     0.029 A 
ATOM     66  N   UNL A   1      46.272  25.190  29.330  1.00  0.00    -0.354 N 
ATOM     67  N   UNL A   1      50.308  25.564  27.669  1.00  0.00    -0.248 NA
ATOM     68  C   UNL A   1      48.857  25.235  25.877  1.00  0.00     0.031 C 
ATOM     69  C   UNL A   1      46.880  26.306  31.100  1.00  0.00     0.029 A 
ATOM     70  C   UNL A   1      47.393  25.641  29.984  1.00  0.00     0.049 A 
ATOM     71  H   UNL A   1      46.215  24.386  28.763  1.00  0.00     0.167 HD
ATOM     72  C   UNL A   1      49.069  25.224  28.191  1.00  0.00     0.074 A 
ATOM     73  C   UNL A   1      48.238  24.936  27.024  1.00  0.00     0.031 C 
ATOM     74  C   UNL A   1      48.753  25.478  29.496  1.00  0.00     0.034 A 
BRANCH  61  75
ATOM     75  C   UNL A   1      43.613  25.553  27.657  1.00  0.00     0.023 A 
ATOM     76  C   UNL A   1      44.315  24.487  27.068  1.00  0.00     0.031 A 
ATOM     77  C   UNL A   1      42.301  25.770  27.173  1.00  0.00     0.131 A 
ATOM     78  C   UNL A   1      43.764  23.767  25.998  1.00  0.00     0.055 A 
ATOM     79  C   UNL A   1      41.728  24.998  26.160  1.00  0.00     0.041 A 
ATOM     80  F   UNL A   1      41.536  26.793  27.570  1.00  0.00    -0.206 F 
ATOM     81  C   UNL A   1      42.471  24.010  25.543  1.00  0.00     0.022 A 
BRANCH  78  82
ATOM     82  S   UNL A   1      44.842  22.632  25.094  1.00  0.00     0.124 S 
ATOM     83  O   UNL A   1      43.950  21.500  24.867  1.00  0.00    -0.237 OA
ATOM     84  O   UNL A   1      45.192  23.423  23.918  1.00  0.00    -0.237 OA
ATOM     85  O   UNL A   1      45.936  22.387  26.030  1.00  0.00    -0.744 OA
ENDBRANCH  78  82
ENDBRANCH  61  75
BRANCH  62  86
ATOM     86  C   UNL A   1      51.417  26.769  24.349  1.00  0.00     0.023 A 
ATOM     87  C   UNL A   1      50.824  27.159  23.131  1.00  0.00     0.031 A 
ATOM     88  C   UNL A   1      52.796  26.455  24.310  1.00  0.00     0.131 A 
ATOM     89  C   UNL A   1      51.601  27.223  21.949  1.00  0.00     0.055 A 
ATOM     90  C   UNL A   1      53.555  26.512  23.139  1.00  0.00     0.041 A 
ATOM     91  F   UNL A   1      53.479  26.164  25.428  1.00  0.00    -0.206 F 
ATOM     92  C   UNL A   1      52.961  26.906  21.952  1.00  0.00     0.022 A 
BRANCH  89  93
ATOM     93  S   UNL A   1      50.865  27.822  20.393  1.00  0.00     0.124 S 
ATOM     94  O   UNL A   1      50.981  29.269  20.532  1.00  0.00    -0.237 OA
ATOM     95  O   UNL A   1      51.712  27.195  19.385  1.00  0.00    -0.237 OA
ATOM     96  O   UNL A   1      49.495  27.308  20.445  1.00  0.00    -0.744 OA
ENDBRANCH  89  93
ENDBRANCH  62  86
BRANCH  74  97
ATOM     97  C   UNL A   1      49.873  25.820  30.460  1.00  0.00     0.023 A 
ATOM     98  C   UNL A   1      50.666  24.877  31.154  1.00  0.00     0.031 A 
ATOM     99  C   UNL A   1      50.221  27.178  30.585  1.00  0.00     0.131 A 
ATOM    100  C   UNL A   1      51.752  25.312  31.942  1.00  0.00     0.055 A 
ATOM    101  C   UNL A   1      51.309  27.602  31.347  1.00  0.00     0.041 A 
ATOM    102  F   UNL A   1      49.523  28.122  29.931  1.00  0.00    -0.206 F 
ATOM    103  C   UNL A   1      52.076  26.669  32.034  1.00  0.00     0.022 A 
BRANCH 100 104
ATOM    104  S   UNL A   1      52.763  24.117  32.877  1.00  0.00     0.124 S 
ATOM    105  O   UNL A   1      52.106  22.841  32.624  1.00  0.00    -0.237 OA
ATOM    106  O   UNL A   1      54.085  24.287  32.276  1.00  0.00    -0.237 OA
ATOM    107  O   UNL A   1      52.661  24.592  34.257  1.00  0.00    -0.744 OA
ENDBRANCH 100 104
ENDBRANCH  74  97
ENDBRANCH  48  49
ENDBRANCH  41  43
ENDBRANCH  40  41
ENDBRANCH  39  40
ENDBRANCH  38  39
ENDBRANCH  37  38
ENDBRANCH  36  37
ENDBRANCH   1  36
TORSDOF 25
ENDMDL
MODEL 3
REMARK VINA RESULT:      -9.2      5.028     10.772
REMARK SMILES CCn1ncc(NC(=O)[C@@H]2CCCC[C@@H]2C(=O)OCCOCCOCCOC(=O)c2ccc(-c3c4nc(c(-c5cc(S(=O)(=O)[O-])ccc5F)c5ccc([nH]5)c(-c5cc(S(=O)(=O)[O-])ccc5F)c5nc(c(-c6cc(S(=O)(=O)[O-])ccc6F)c6ccc3[nH]6)C=C5)C=C4)cc2)c1C(=O)Nc1cnn(C)c1C
REMARK SMILES IDX 22 1 21 2 20 3 19 4 18 5 16 6 17 7 15 8 10 9 11 10 12 11
REMARK SMILES IDX 14 12 13 13 8 14 7 15 9 17 6 18 3 19 4 20 93 21 5 22 2 23
REMARK SMILES IDX 1 24 94 25 95 26 96 27 97 29 98 30 102 31 99 32 100 33
REMARK SMILES IDX 103 34 101 35 23 36 24 37 25 38 26 39 27 40 28 41 29 42
REMARK SMILES IDX 30 43 31 44 92 45 32 46 91 47 33 48 34 49 35 50 85 51 36 52
REMARK SMILES IDX 90 53 84 54 86 55 37 56 89 57 83 58 82 59 38 61 70 62 50 63
REMARK SMILES IDX 69 64 51 65 54 66 68 67 87 68 52 69 53 70 67 72 88 73 55 74
REMARK SMILES IDX 39 75 40 76 48 77 41 78 47 79 49 80 46 81 42 82 43 83 44 84
REMARK SMILES IDX 45 85 71 86 72 87 80 88 73 89 79 90 81 91 78 92 74 93 75 94
REMARK SMILES IDX 76 95 77 96 56 97 57 98 65 99 58 100 64 101 66 102 63 103
REMARK SMILES IDX 59 104 60 105 61 106 62 107
REMARK H PARENT 7 16 96 28 86 60 54 71
REMARK Flexibility Score: inf
ROOT
ATOM      1  C   UNL A   1      34.008  31.570  28.228  1.00  0.00     0.188 C 
ENDROOT
BRANCH   1   2
ATOM      2  O   UNL A   1      32.973  31.411  27.262  1.00  0.00    -0.376 OA
BRANCH   2   3
ATOM      3  C   UNL A   1      32.762  30.089  26.776  1.00  0.00     0.202 C 
BRANCH   3   4
ATOM      4  C   UNL A   1      33.385  29.732  25.414  1.00  0.00     0.261 C 
BRANCH   4   5
ATOM      5  O   UNL A   1      33.444  28.325  25.099  1.00  0.00    -0.463 OA
BRANCH   5   6
ATOM      6  C   UNL A   1      32.482  27.854  24.271  1.00  0.00     0.309 C 
ATOM      7  O   UNL A   1      32.683  27.398  23.149  1.00  0.00    -0.252 OA
BRANCH   6   8
ATOM      8  C   UNL A   1      31.069  27.969  24.843  1.00  0.00     0.111 C 
ATOM      9  C   UNL A   1      30.642  26.673  25.525  1.00  0.00     0.093 C 
ATOM     10  C   UNL A   1      30.165  25.627  24.523  1.00  0.00     0.014 C 
ATOM     11  C   UNL A   1      28.882  26.156  23.890  1.00  0.00     0.001 C 
ATOM     12  C   UNL A   1      29.973  28.516  23.924  1.00  0.00     0.016 C 
ATOM     13  C   UNL A   1      29.111  27.490  23.190  1.00  0.00     0.001 C 
BRANCH   9  14
ATOM     14  C   UNL A   1      31.683  26.207  26.499  1.00  0.00     0.228 C 
ATOM     15  N   UNL A   1      32.004  24.884  26.568  1.00  0.00    -0.322 N 
ATOM     16  H   UNL A   1      32.475  24.665  27.405  1.00  0.00     0.170 HD
ATOM     17  O   UNL A   1      32.180  26.981  27.321  1.00  0.00    -0.274 OA
BRANCH  15  18
ATOM     18  C   UNL A   1      31.838  23.760  25.758  1.00  0.00     0.092 A 
ATOM     19  N   UNL A   1      31.935  21.931  24.533  1.00  0.00    -0.258 N 
ATOM     20  N   UNL A   1      30.868  21.725  25.328  1.00  0.00    -0.178 NA
ATOM     21  C   UNL A   1      32.454  23.211  24.626  1.00  0.00     0.150 A 
ATOM     22  C   UNL A   1      30.842  22.806  26.095  1.00  0.00     0.162 A 
BRANCH  19  23
ATOM     23  C   UNL A   1      32.432  20.769  23.811  1.00  0.00     0.142 C 
ATOM     24  C   UNL A   1      32.036  20.656  22.346  1.00  0.00     0.029 C 
ENDBRANCH  19  23
BRANCH  21  25
ATOM     25  C   UNL A   1      33.569  23.638  23.818  1.00  0.00     0.276 C 
ATOM     26  O   UNL A   1      33.597  24.727  23.245  1.00  0.00    -0.267 OA
ATOM     27  N   UNL A   1      34.588  22.719  23.587  1.00  0.00    -0.318 N 
ATOM     28  H   UNL A   1      34.523  22.066  22.853  1.00  0.00     0.170 HD
BRANCH  27  29
ATOM     29  C   UNL A   1      35.702  22.747  24.420  1.00  0.00     0.082 A 
ATOM     30  C   UNL A   1      36.480  23.831  24.858  1.00  0.00     0.161 A 
ATOM     31  C   UNL A   1      36.280  21.630  24.990  1.00  0.00     0.059 A 
ATOM     32  N   UNL A   1      37.590  23.421  25.479  1.00  0.00    -0.179 NA
ATOM     33  N   UNL A   1      37.479  22.077  25.490  1.00  0.00    -0.271 N 
ATOM     34  C   UNL A   1      35.879  20.199  24.972  1.00  0.00     0.068 C 
ATOM     35  C   UNL A   1      38.660  21.286  25.756  1.00  0.00     0.174 C 
ENDBRANCH  27  29
ENDBRANCH  21  25
ENDBRANCH  15  18
ENDBRANCH   9  14
ENDBRANCH   6   8
ENDBRANCH   5   6
ENDBRANCH   4   5
ENDBRANCH   3   4
ENDBRANCH   2   3
ENDBRANCH   1   2
BRANCH   1  36
ATOM     36  C   UNL A   1      35.369  32.055  27.703  1.00  0.00     0.188 C 
BRANCH  36  37
ATOM     37  O   UNL A   1      35.496  33.473  27.628  1.00  0.00    -0.376 OA
BRANCH  37  38
ATOM     38  C   UNL A   1      35.398  34.265  28.812  1.00  0.00     0.202 C 
BRANCH  38  39
ATOM     39  C   UNL A   1      35.954  33.723  30.123  1.00  0.00     0.261 C 
BRANCH  39  40
ATOM     40  O   UNL A   1      37.303  34.068  30.387  1.00  0.00    -0.460 OA
BRANCH  40  41
ATOM     41  C   UNL A   1      38.301  33.621  29.594  1.00  0.00     0.338 C 
ATOM     42  O   UNL A   1      38.782  34.150  28.616  1.00  0.00    -0.246 OA
BRANCH  41  43
ATOM     43  C   UNL A   1      38.736  32.357  30.216  1.00  0.00     0.060 A 
ATOM     44  C   UNL A   1      39.663  32.426  31.247  1.00  0.00     0.016 A 
ATOM     45  C   UNL A   1      38.362  31.129  29.629  1.00  0.00     0.016 A 
ATOM     46  C   UNL A   1      40.431  31.307  31.479  1.00  0.00     0.010 A 
ATOM     47  C   UNL A   1      39.133  30.023  29.848  1.00  0.00     0.010 A 
ATOM     48  C   UNL A   1      40.227  30.172  30.683  1.00  0.00    -0.014 A 
BRANCH  48  49
ATOM     49  C   UNL A   1      41.220  29.131  30.714  1.00  0.00     0.031 A 
ATOM     50  C   UNL A   1      41.655  28.777  32.066  1.00  0.00     0.074 A 
ATOM     51  C   UNL A   1      41.674  28.532  29.598  1.00  0.00     0.049 A 
ATOM     52  N   UNL A   1      42.726  29.183  32.654  1.00  0.00    -0.248 NA
ATOM     53  C   UNL A   1      40.712  28.066  32.937  1.00  0.00     0.031 C 
ATOM     54  C   UNL A   1      41.134  28.600  28.239  1.00  0.00     0.029 A 
ATOM     55  N   UNL A   1      42.704  27.656  29.483  1.00  0.00    -0.354 N 
ATOM     56  C   UNL A   1      42.722  28.558  33.889  1.00  0.00     0.074 A 
ATOM     57  C   UNL A   1      41.374  28.095  34.094  1.00  0.00     0.031 C 
ATOM     58  C   UNL A   1      41.719  27.641  27.483  1.00  0.00     0.029 A 
ATOM     59  C   UNL A   1      42.763  26.994  28.265  1.00  0.00     0.049 A 
ATOM     60  H   UNL A   1      43.355  27.502  30.204  1.00  0.00     0.167 HD
ATOM     61  C   UNL A   1      43.891  28.240  34.504  1.00  0.00     0.034 A 
ATOM     62  C   UNL A   1      43.572  25.946  27.960  1.00  0.00     0.034 A 
ATOM     63  C   UNL A   1      45.004  28.949  33.906  1.00  0.00     0.049 A 
ATOM     64  C   UNL A   1      44.733  26.015  28.886  1.00  0.00     0.074 A 
ATOM     65  C   UNL A   1      45.303  30.286  33.707  1.00  0.00     0.029 A 
ATOM     66  N   UNL A   1      45.831  28.256  33.048  1.00  0.00    -0.354 N 
ATOM     67  N   UNL A   1      45.612  26.982  28.863  1.00  0.00    -0.248 NA
ATOM     68  C   UNL A   1      44.659  25.288  30.147  1.00  0.00     0.031 C 
ATOM     69  C   UNL A   1      45.924  30.342  32.425  1.00  0.00     0.029 A 
ATOM     70  C   UNL A   1      46.039  29.038  31.938  1.00  0.00     0.049 A 
ATOM     71  H   UNL A   1      46.207  27.358  33.204  1.00  0.00     0.167 HD
ATOM     72  C   UNL A   1      45.874  27.268  30.194  1.00  0.00     0.074 A 
ATOM     73  C   UNL A   1      45.341  26.126  30.934  1.00  0.00     0.031 C 
ATOM     74  C   UNL A   1      46.242  28.522  30.594  1.00  0.00     0.034 A 
BRANCH  61  75
ATOM     75  C   UNL A   1      44.083  27.030  35.381  1.00  0.00     0.023 A 
ATOM     76  C   UNL A   1      44.524  27.261  36.695  1.00  0.00     0.031 A 
ATOM     77  C   UNL A   1      44.130  25.686  34.942  1.00  0.00     0.131 A 
ATOM     78  C   UNL A   1      45.069  26.223  37.464  1.00  0.00     0.055 A 
ATOM     79  C   UNL A   1      44.601  24.642  35.741  1.00  0.00     0.041 A 
ATOM     80  F   UNL A   1      43.825  25.314  33.694  1.00  0.00    -0.206 F 
ATOM     81  C   UNL A   1      45.105  24.911  36.999  1.00  0.00     0.022 A 
BRANCH  78  82
ATOM     82  S   UNL A   1      45.899  26.656  39.011  1.00  0.00     0.124 S 
ATOM     83  O   UNL A   1      47.267  26.230  38.737  1.00  0.00    -0.237 OA
ATOM     84  O   UNL A   1      45.672  28.096  39.080  1.00  0.00    -0.237 OA
ATOM     85  O   UNL A   1      45.186  25.864  40.011  1.00  0.00    -0.744 OA
ENDBRANCH  78  82
ENDBRANCH  61  75
BRANCH  62  86
ATOM     86  C   UNL A   1      43.200  24.736  27.178  1.00  0.00     0.023 A 
ATOM     87  C   UNL A   1      44.082  24.118  26.269  1.00  0.00     0.031 A 
ATOM     88  C   UNL A   1      42.027  24.017  27.509  1.00  0.00     0.131 A 
ATOM     89  C   UNL A   1      43.777  22.843  25.735  1.00  0.00     0.055 A 
ATOM     90  C   UNL A   1      41.728  22.763  26.973  1.00  0.00     0.041 A 
ATOM     91  F   UNL A   1      41.167  24.471  28.435  1.00  0.00    -0.206 F 
ATOM     92  C   UNL A   1      42.609  22.165  26.089  1.00  0.00     0.022 A 
BRANCH  89  93
ATOM     93  S   UNL A   1      44.960  21.996  24.637  1.00  0.00     0.124 S 
ATOM     94  O   UNL A   1      44.273  20.742  24.349  1.00  0.00    -0.237 OA
ATOM     95  O   UNL A   1      45.087  22.937  23.530  1.00  0.00    -0.237 OA
ATOM     96  O   UNL A   1      46.159  21.863  25.466  1.00  0.00    -0.744 OA
ENDBRANCH  89  93
ENDBRANCH  62  86
BRANCH  74  97
ATOM     97  C   UNL A   1      46.695  29.515  29.540  1.00  0.00     0.023 A 
ATOM     98  C   UNL A   1      45.836  30.322  28.759  1.00  0.00     0.031 A 
ATOM     99  C   UNL A   1      48.080  29.728  29.411  1.00  0.00     0.131 A 
ATOM    100  C   UNL A   1      46.377  31.289  27.886  1.00  0.00     0.055 A 
ATOM    101  C   UNL A   1      48.610  30.700  28.563  1.00  0.00     0.041 A 
ATOM    102  F   UNL A   1      48.950  29.011  30.143  1.00  0.00    -0.206 F 
ATOM    103  C   UNL A   1      47.759  31.481  27.792  1.00  0.00     0.022 A 
BRANCH 100 104
ATOM    104  S   UNL A   1      45.290  32.313  26.841  1.00  0.00     0.124 S 
ATOM    105  O   UNL A   1      44.647  31.344  25.962  1.00  0.00    -0.237 OA
ATOM    106  O   UNL A   1      44.423  32.958  27.825  1.00  0.00    -0.237 OA
ATOM    107  O   UNL A   1      46.220  33.221  26.169  1.00  0.00    -0.744 OA
ENDBRANCH 100 104
ENDBRANCH  74  97
ENDBRANCH  48  49
ENDBRANCH  41  43
ENDBRANCH  40  41
ENDBRANCH  39  40
ENDBRANCH  38  39
ENDBRANCH  37  38
ENDBRANCH  36  37
ENDBRANCH   1  36
TORSDOF 25
ENDMDL
