MODEL 1
REMARK VINA RESULT:     -10.7      0.000      0.000
REMARK SMILES C[C@H](NC1=[NH+]S(=O)(=O)c2ccccc21)C(=O)OCCOCCOCCOC(=O)c1ccc(-c2c3nc(c(-c4cc(S(=O)(=O)[O-])ccc4F)c4ccc([nH]4)c(-c4cc(S(=O)(=O)[O-])ccc4F)c4nc(c(-c5cc(S(=O)(=O)[O-])ccc5F)c5ccc2[nH]5)C=C4)C=C3)cc1
REMARK SMILES IDX 22 1 21 2 20 3 19 4 18 5 17 6 15 7 16 8 2 9 1 10 3 11 4 12
REMARK SMILES IDX 5 14 14 15 6 16 9 18 13 19 7 20 8 21 10 22 12 23 11 24 23 25
REMARK SMILES IDX 24 26 25 27 26 28 27 29 28 30 29 31 30 32 91 33 31 34 90 35
REMARK SMILES IDX 32 36 33 37 34 38 84 39 35 40 89 41 83 42 85 43 36 44 88 45
REMARK SMILES IDX 82 46 81 47 37 49 69 50 49 51 68 52 50 53 53 54 67 55 86 56
REMARK SMILES IDX 51 57 52 58 66 60 87 61 54 62 38 63 39 64 47 65 40 66 46 67
REMARK SMILES IDX 48 68 45 69 41 70 42 71 43 72 44 73 70 74 71 75 79 76 72 77
REMARK SMILES IDX 78 78 80 79 77 80 73 81 74 82 75 83 76 84 55 85 56 86 64 87
REMARK SMILES IDX 57 88 63 89 65 90 62 91 58 92 59 93 60 94 61 95
REMARK H PARENT 3 13 5 17 85 48 53 59
REMARK Flexibility Score: inf
ROOT
ATOM      1  C   UNL A   1      34.329  17.948  24.688  1.00  0.00     0.188 C 
ENDROOT
BRANCH   1   2
ATOM      2  C   UNL A   1      33.409  18.361  23.525  1.00  0.00     0.188 C 
BRANCH   2   3
ATOM      3  O   UNL A   1      32.376  19.310  23.771  1.00  0.00    -0.376 OA
BRANCH   3   4
ATOM      4  C   UNL A   1      32.324  19.964  25.034  1.00  0.00     0.202 C 
BRANCH   4   5
ATOM      5  C   UNL A   1      32.153  21.489  25.050  1.00  0.00     0.261 C 
BRANCH   5   6
ATOM      6  O   UNL A   1      33.373  22.216  25.310  1.00  0.00    -0.460 OA
BRANCH   6   7
ATOM      7  C   UNL A   1      33.839  22.948  24.256  1.00  0.00     0.350 C 
ATOM      8  O   UNL A   1      33.808  22.559  23.092  1.00  0.00    -0.247 OA
BRANCH   7   9
ATOM      9  C   UNL A   1      34.379  24.333  24.648  1.00  0.00     0.279 C 
ATOM     10  C   UNL A   1      35.609  24.121  25.533  1.00  0.00     0.071 C 
BRANCH   9  11
ATOM     11  N   UNL A   1      33.430  25.201  25.371  1.00  0.00    -0.260 N 
ATOM     12  C   UNL A   1      32.902  26.326  24.780  1.00  0.00     0.292 C 
ATOM     13  H   UNL A   1      33.171  24.972  26.292  1.00  0.00     0.306 HD
ATOM     14  N   UNL A   1      32.892  26.503  23.488  1.00  0.00    -0.162 N 
ATOM     15  C   UNL A   1      32.405  27.473  25.575  1.00  0.00     0.087 A 
ATOM     16  S   UNL A   1      32.361  28.003  23.091  1.00  0.00     0.329 S 
ATOM     17  H   UNL A   1      33.168  25.821  22.833  1.00  0.00     0.327 HD
ATOM     18  C   UNL A   1      32.134  28.534  24.730  1.00  0.00     0.124 A 
ATOM     19  C   UNL A   1      32.296  27.631  26.944  1.00  0.00     0.018 A 
ATOM     20  O   UNL A   1      31.062  27.948  22.481  1.00  0.00    -0.179 OA
ATOM     21  O   UNL A   1      33.460  28.791  22.553  1.00  0.00    -0.179 OA
ATOM     22  C   UNL A   1      31.814  29.803  25.172  1.00  0.00     0.025 A 
ATOM     23  C   UNL A   1      31.947  28.900  27.428  1.00  0.00     0.001 A 
ATOM     24  C   UNL A   1      31.726  29.981  26.552  1.00  0.00     0.002 A 
ENDBRANCH   9  11
ENDBRANCH   7   9
ENDBRANCH   6   7
ENDBRANCH   5   6
ENDBRANCH   4   5
ENDBRANCH   3   4
ENDBRANCH   2   3
ENDBRANCH   1   2
BRANCH   1  25
ATOM     25  O   UNL A   1      35.676  18.374  24.566  1.00  0.00    -0.376 OA
BRANCH  25  26
ATOM     26  C   UNL A   1      35.938  19.725  24.937  1.00  0.00     0.202 C 
BRANCH  26  27
ATOM     27  C   UNL A   1      37.348  20.268  24.647  1.00  0.00     0.261 C 
BRANCH  27  28
ATOM     28  O   UNL A   1      37.890  21.158  25.637  1.00  0.00    -0.460 OA
BRANCH  28  29
ATOM     29  C   UNL A   1      39.146  20.903  26.076  1.00  0.00     0.338 C 
ATOM     30  O   UNL A   1      39.776  19.873  25.913  1.00  0.00    -0.246 OA
BRANCH  29  31
ATOM     31  C   UNL A   1      39.701  22.177  26.583  1.00  0.00     0.060 A 
ATOM     32  C   UNL A   1      39.173  23.386  26.112  1.00  0.00     0.016 A 
ATOM     33  C   UNL A   1      40.712  22.176  27.548  1.00  0.00     0.016 A 
ATOM     34  C   UNL A   1      39.669  24.600  26.594  1.00  0.00     0.010 A 
ATOM     35  C   UNL A   1      41.225  23.390  28.010  1.00  0.00     0.010 A 
ATOM     36  C   UNL A   1      40.724  24.609  27.518  1.00  0.00    -0.014 A 
BRANCH  36  37
ATOM     37  C   UNL A   1      41.447  25.873  27.805  1.00  0.00     0.031 A 
ATOM     38  C   UNL A   1      40.709  26.953  28.548  1.00  0.00     0.074 A 
ATOM     39  C   UNL A   1      42.721  26.066  27.421  1.00  0.00     0.049 A 
ATOM     40  N   UNL A   1      41.090  28.163  28.862  1.00  0.00    -0.248 NA
ATOM     41  C   UNL A   1      39.346  26.615  28.989  1.00  0.00     0.031 C 
ATOM     42  C   UNL A   1      43.557  25.081  26.736  1.00  0.00     0.029 A 
ATOM     43  N   UNL A   1      43.533  27.166  27.547  1.00  0.00    -0.354 N 
ATOM     44  C   UNL A   1      40.017  28.732  29.539  1.00  0.00     0.074 A 
ATOM     45  C   UNL A   1      38.957  27.748  29.550  1.00  0.00     0.031 C 
ATOM     46  C   UNL A   1      44.761  25.628  26.492  1.00  0.00     0.029 A 
ATOM     47  C   UNL A   1      44.771  27.010  26.970  1.00  0.00     0.049 A 
ATOM     48  H   UNL A   1      43.254  27.990  28.010  1.00  0.00     0.167 HD
ATOM     49  C   UNL A   1      39.926  29.960  30.108  1.00  0.00     0.034 A 
ATOM     50  C   UNL A   1      45.782  27.891  26.822  1.00  0.00     0.034 A 
ATOM     51  C   UNL A   1      40.981  30.944  30.061  1.00  0.00     0.049 A 
ATOM     52  C   UNL A   1      45.623  29.292  27.369  1.00  0.00     0.074 A 
ATOM     53  C   UNL A   1      40.998  32.217  30.601  1.00  0.00     0.029 A 
ATOM     54  N   UNL A   1      42.202  30.768  29.422  1.00  0.00    -0.354 N 
ATOM     55  N   UNL A   1      44.605  29.821  28.011  1.00  0.00    -0.248 NA
ATOM     56  C   UNL A   1      46.752  30.212  27.173  1.00  0.00     0.031 C 
ATOM     57  C   UNL A   1      42.196  32.836  30.226  1.00  0.00     0.029 A 
ATOM     58  C   UNL A   1      42.964  31.922  29.522  1.00  0.00     0.049 A 
ATOM     59  H   UNL A   1      42.485  29.943  28.964  1.00  0.00     0.167 HD
ATOM     60  C   UNL A   1      44.987  31.124  28.324  1.00  0.00     0.074 A 
ATOM     61  C   UNL A   1      46.329  31.298  27.805  1.00  0.00     0.031 C 
ATOM     62  C   UNL A   1      44.296  32.087  28.987  1.00  0.00     0.034 A 
BRANCH  49  63
ATOM     63  C   UNL A   1      38.612  30.315  30.763  1.00  0.00     0.023 A 
ATOM     64  C   UNL A   1      37.570  30.929  30.045  1.00  0.00     0.031 A 
ATOM     65  C   UNL A   1      38.425  30.098  32.139  1.00  0.00     0.131 A 
ATOM     66  C   UNL A   1      36.427  31.382  30.722  1.00  0.00     0.055 A 
ATOM     67  C   UNL A   1      37.250  30.475  32.790  1.00  0.00     0.041 A 
ATOM     68  F   UNL A   1      39.395  29.541  32.881  1.00  0.00    -0.206 F 
ATOM     69  C   UNL A   1      36.249  31.137  32.084  1.00  0.00     0.022 A 
BRANCH  66  70
ATOM     70  S   UNL A   1      35.257  32.445  29.831  1.00  0.00     0.124 S 
ATOM     71  O   UNL A   1      34.781  31.548  28.781  1.00  0.00    -0.237 OA
ATOM     72  O   UNL A   1      34.290  32.787  30.867  1.00  0.00    -0.237 OA
ATOM     73  O   UNL A   1      36.088  33.552  29.363  1.00  0.00    -0.744 OA
ENDBRANCH  66  70
ENDBRANCH  49  63
BRANCH  50  74
ATOM     74  C   UNL A   1      47.023  27.504  26.090  1.00  0.00     0.023 A 
ATOM     75  C   UNL A   1      47.192  27.809  24.730  1.00  0.00     0.031 A 
ATOM     76  C   UNL A   1      48.035  26.768  26.732  1.00  0.00     0.131 A 
ATOM     77  C   UNL A   1      48.330  27.348  24.046  1.00  0.00     0.055 A 
ATOM     78  C   UNL A   1      49.186  26.354  26.060  1.00  0.00     0.041 A 
ATOM     79  F   UNL A   1      47.920  26.444  28.029  1.00  0.00    -0.206 F 
ATOM     80  C   UNL A   1      49.333  26.635  24.705  1.00  0.00     0.022 A 
BRANCH  77  81
ATOM     81  S   UNL A   1      48.447  27.631  22.257  1.00  0.00     0.124 S 
ATOM     82  O   UNL A   1      48.534  26.268  21.746  1.00  0.00    -0.237 OA
ATOM     83  O   UNL A   1      47.203  28.343  21.980  1.00  0.00    -0.237 OA
ATOM     84  O   UNL A   1      49.662  28.430  22.118  1.00  0.00    -0.744 OA
ENDBRANCH  77  81
ENDBRANCH  50  74
BRANCH  62  85
ATOM     85  C   UNL A   1      45.004  33.399  29.233  1.00  0.00     0.023 A 
ATOM     86  C   UNL A   1      44.878  34.489  28.354  1.00  0.00     0.031 A 
ATOM     87  C   UNL A   1      45.818  33.557  30.369  1.00  0.00     0.131 A 
ATOM     88  C   UNL A   1      45.597  35.671  28.599  1.00  0.00     0.055 A 
ATOM     89  C   UNL A   1      46.485  34.753  30.637  1.00  0.00     0.041 A 
ATOM     90  F   UNL A   1      45.975  32.549  31.242  1.00  0.00    -0.206 F 
ATOM     91  C   UNL A   1      46.385  35.815  29.743  1.00  0.00     0.022 A 
BRANCH  88  92
ATOM     92  S   UNL A   1      45.554  36.994  27.358  1.00  0.00     0.124 S 
ATOM     93  O   UNL A   1      46.275  38.068  28.033  1.00  0.00    -0.237 OA
ATOM     94  O   UNL A   1      46.238  36.381  26.224  1.00  0.00    -0.237 OA
ATOM     95  O   UNL A   1      44.125  37.236  27.162  1.00  0.00    -0.744 OA
ENDBRANCH  88  92
ENDBRANCH  62  85
ENDBRANCH  36  37
ENDBRANCH  29  31
ENDBRANCH  28  29
ENDBRANCH  27  28
ENDBRANCH  26  27
ENDBRANCH  25  26
ENDBRANCH   1  25
TORSDOF 21
ENDMDL
MODEL 2
REMARK VINA RESULT:     -10.4      1.759      2.107
REMARK SMILES C[C@H](NC1=[NH+]S(=O)(=O)c2ccccc21)C(=O)OCCOCCOCCOC(=O)c1ccc(-c2c3nc(c(-c4cc(S(=O)(=O)[O-])ccc4F)c4ccc([nH]4)c(-c4cc(S(=O)(=O)[O-])ccc4F)c4nc(c(-c5cc(S(=O)(=O)[O-])ccc5F)c5ccc2[nH]5)C=C4)C=C3)cc1
REMARK SMILES IDX 22 1 21 2 20 3 19 4 18 5 17 6 15 7 16 8 2 9 1 10 3 11 4 12
REMARK SMILES IDX 5 14 14 15 6 16 9 18 13 19 7 20 8 21 10 22 12 23 11 24 23 25
REMARK SMILES IDX 24 26 25 27 26 28 27 29 28 30 29 31 30 32 91 33 31 34 90 35
REMARK SMILES IDX 32 36 33 37 34 38 84 39 35 40 89 41 83 42 85 43 36 44 88 45
REMARK SMILES IDX 82 46 81 47 37 49 69 50 49 51 68 52 50 53 53 54 67 55 86 56
REMARK SMILES IDX 51 57 52 58 66 60 87 61 54 62 38 63 39 64 47 65 40 66 46 67
REMARK SMILES IDX 48 68 45 69 41 70 42 71 43 72 44 73 70 74 71 75 79 76 72 77
REMARK SMILES IDX 78 78 80 79 77 80 73 81 74 82 75 83 76 84 55 85 56 86 64 87
REMARK SMILES IDX 57 88 63 89 65 90 62 91 58 92 59 93 60 94 61 95
REMARK H PARENT 3 13 5 17 85 48 53 59
REMARK Flexibility Score: inf
ROOT
ATOM      1  C   UNL A   1      34.882  17.653  24.708  1.00  0.00     0.188 C 
ENDROOT
BRANCH   1   2
ATOM      2  C   UNL A   1      33.659  17.689  23.773  1.00  0.00     0.188 C 
BRANCH   2   3
ATOM      3  O   UNL A   1      32.444  18.256  24.253  1.00  0.00    -0.376 OA
BRANCH   3   4
ATOM      4  C   UNL A   1      32.490  19.164  25.348  1.00  0.00     0.202 C 
BRANCH   4   5
ATOM      5  C   UNL A   1      32.242  20.651  25.062  1.00  0.00     0.261 C 
BRANCH   5   6
ATOM      6  O   UNL A   1      33.082  21.199  24.023  1.00  0.00    -0.460 OA
BRANCH   6   7
ATOM      7  C   UNL A   1      32.414  21.630  22.913  1.00  0.00     0.350 C 
ATOM      8  O   UNL A   1      31.834  20.878  22.135  1.00  0.00    -0.247 OA
BRANCH   7   9
ATOM      9  C   UNL A   1      32.415  23.157  22.737  1.00  0.00     0.279 C 
ATOM     10  C   UNL A   1      33.303  23.488  21.537  1.00  0.00     0.071 C 
BRANCH   9  11
ATOM     11  N   UNL A   1      32.897  23.928  23.899  1.00  0.00    -0.260 N 
ATOM     12  C   UNL A   1      32.024  24.633  24.697  1.00  0.00     0.292 C 
ATOM     13  H   UNL A   1      33.859  23.940  24.107  1.00  0.00     0.306 HD
ATOM     14  N   UNL A   1      30.744  24.387  24.728  1.00  0.00    -0.162 N 
ATOM     15  C   UNL A   1      32.460  25.799  25.500  1.00  0.00     0.087 A 
ATOM     16  S   UNL A   1      29.942  25.494  25.633  1.00  0.00     0.329 S 
ATOM     17  H   UNL A   1      30.313  23.632  24.265  1.00  0.00     0.327 HD
ATOM     18  C   UNL A   1      31.350  26.433  26.029  1.00  0.00     0.124 A 
ATOM     19  C   UNL A   1      33.718  26.343  25.676  1.00  0.00     0.018 A 
ATOM     20  O   UNL A   1      29.464  24.915  26.857  1.00  0.00    -0.179 OA
ATOM     21  O   UNL A   1      29.118  26.333  24.776  1.00  0.00    -0.179 OA
ATOM     22  C   UNL A   1      31.402  27.646  26.687  1.00  0.00     0.025 A 
ATOM     23  C   UNL A   1      33.812  27.563  26.363  1.00  0.00     0.001 A 
ATOM     24  C   UNL A   1      32.663  28.217  26.848  1.00  0.00     0.002 A 
ENDBRANCH   9  11
ENDBRANCH   7   9
ENDBRANCH   6   7
ENDBRANCH   5   6
ENDBRANCH   4   5
ENDBRANCH   3   4
ENDBRANCH   2   3
ENDBRANCH   1   2
BRANCH   1  25
ATOM     25  O   UNL A   1      35.971  18.463  24.300  1.00  0.00    -0.376 OA
BRANCH  25  26
ATOM     26  C   UNL A   1      36.131  19.693  25.002  1.00  0.00     0.202 C 
BRANCH  26  27
ATOM     27  C   UNL A   1      37.382  20.527  24.676  1.00  0.00     0.261 C 
BRANCH  27  28
ATOM     28  O   UNL A   1      37.899  21.325  25.754  1.00  0.00    -0.460 OA
BRANCH  28  29
ATOM     29  C   UNL A   1      39.168  21.073  26.156  1.00  0.00     0.338 C 
ATOM     30  O   UNL A   1      39.802  20.052  25.958  1.00  0.00    -0.246 OA
BRANCH  29  31
ATOM     31  C   UNL A   1      39.725  22.343  26.673  1.00  0.00     0.060 A 
ATOM     32  C   UNL A   1      39.237  23.556  26.170  1.00  0.00     0.016 A 
ATOM     33  C   UNL A   1      40.698  22.334  27.676  1.00  0.00     0.016 A 
ATOM     34  C   UNL A   1      39.735  24.766  26.659  1.00  0.00     0.010 A 
ATOM     35  C   UNL A   1      41.213  23.544  28.146  1.00  0.00     0.010 A 
ATOM     36  C   UNL A   1      40.753  24.766  27.623  1.00  0.00    -0.014 A 
BRANCH  36  37
ATOM     37  C   UNL A   1      41.487  26.020  27.927  1.00  0.00     0.031 A 
ATOM     38  C   UNL A   1      40.757  27.097  28.682  1.00  0.00     0.074 A 
ATOM     39  C   UNL A   1      42.763  26.206  27.546  1.00  0.00     0.049 A 
ATOM     40  N   UNL A   1      41.148  28.300  29.011  1.00  0.00    -0.248 NA
ATOM     41  C   UNL A   1      39.391  26.765  29.118  1.00  0.00     0.031 C 
ATOM     42  C   UNL A   1      43.591  25.223  26.850  1.00  0.00     0.029 A 
ATOM     43  N   UNL A   1      43.584  27.298  27.687  1.00  0.00    -0.354 N 
ATOM     44  C   UNL A   1      40.079  28.870  29.694  1.00  0.00     0.074 A 
ATOM     45  C   UNL A   1      39.010  27.895  29.692  1.00  0.00     0.031 C 
ATOM     46  C   UNL A   1      44.800  25.763  26.615  1.00  0.00     0.029 A 
ATOM     47  C   UNL A   1      44.821  27.139  27.109  1.00  0.00     0.049 A 
ATOM     48  H   UNL A   1      43.311  28.119  28.159  1.00  0.00     0.167 HD
ATOM     49  C   UNL A   1      39.998  30.092  30.277  1.00  0.00     0.034 A 
ATOM     50  C   UNL A   1      45.840  28.013  26.973  1.00  0.00     0.034 A 
ATOM     51  C   UNL A   1      41.061  31.067  30.244  1.00  0.00     0.049 A 
ATOM     52  C   UNL A   1      45.692  29.409  27.537  1.00  0.00     0.074 A 
ATOM     53  C   UNL A   1      41.088  32.334  30.799  1.00  0.00     0.029 A 
ATOM     54  N   UNL A   1      42.281  30.888  29.604  1.00  0.00    -0.354 N 
ATOM     55  N   UNL A   1      44.678  29.938  28.184  1.00  0.00    -0.248 NA
ATOM     56  C   UNL A   1      46.829  30.321  27.353  1.00  0.00     0.031 C 
ATOM     57  C   UNL A   1      42.292  32.947  30.433  1.00  0.00     0.029 A 
ATOM     58  C   UNL A   1      43.053  32.035  29.719  1.00  0.00     0.049 A 
ATOM     59  H   UNL A   1      42.558  30.067  29.137  1.00  0.00     0.167 HD
ATOM     60  C   UNL A   1      45.071  31.234  28.513  1.00  0.00     0.074 A 
ATOM     61  C   UNL A   1      46.414  31.403  27.998  1.00  0.00     0.031 C 
ATOM     62  C   UNL A   1      44.387  32.195  29.187  1.00  0.00     0.034 A 
BRANCH  49  63
ATOM     63  C   UNL A   1      38.686  30.449  30.935  1.00  0.00     0.023 A 
ATOM     64  C   UNL A   1      37.646  31.071  30.220  1.00  0.00     0.031 A 
ATOM     65  C   UNL A   1      38.500  30.228  32.311  1.00  0.00     0.131 A 
ATOM     66  C   UNL A   1      36.506  31.527  30.901  1.00  0.00     0.055 A 
ATOM     67  C   UNL A   1      37.326  30.607  32.964  1.00  0.00     0.041 A 
ATOM     68  F   UNL A   1      39.468  29.663  33.050  1.00  0.00    -0.206 F 
ATOM     69  C   UNL A   1      36.328  31.277  32.263  1.00  0.00     0.022 A 
BRANCH  66  70
ATOM     70  S   UNL A   1      35.340  32.599  30.016  1.00  0.00     0.124 S 
ATOM     71  O   UNL A   1      34.292  32.787  31.017  1.00  0.00    -0.237 OA
ATOM     72  O   UNL A   1      36.154  33.770  29.714  1.00  0.00    -0.237 OA
ATOM     73  O   UNL A   1      34.947  31.797  28.859  1.00  0.00    -0.744 OA
ENDBRANCH  66  70
ENDBRANCH  49  63
BRANCH  50  74
ATOM     74  C   UNL A   1      47.078  27.624  26.238  1.00  0.00     0.023 A 
ATOM     75  C   UNL A   1      47.225  27.887  24.866  1.00  0.00     0.031 A 
ATOM     76  C   UNL A   1      48.112  26.929  26.890  1.00  0.00     0.131 A 
ATOM     77  C   UNL A   1      48.361  27.424  24.182  1.00  0.00     0.055 A 
ATOM     78  C   UNL A   1      49.262  26.514  26.217  1.00  0.00     0.041 A 
ATOM     79  F   UNL A   1      48.020  26.646  28.199  1.00  0.00    -0.206 F 
ATOM     80  C   UNL A   1      49.386  26.751  24.852  1.00  0.00     0.022 A 
BRANCH  77  81
ATOM     81  S   UNL A   1      48.450  27.649  22.384  1.00  0.00     0.124 S 
ATOM     82  O   UNL A   1      48.525  26.270  21.916  1.00  0.00    -0.237 OA
ATOM     83  O   UNL A   1      47.205  28.356  22.104  1.00  0.00    -0.237 OA
ATOM     84  O   UNL A   1      49.666  28.437  22.199  1.00  0.00    -0.744 OA
ENDBRANCH  77  81
ENDBRANCH  50  74
BRANCH  62  85
ATOM     85  C   UNL A   1      45.105  33.497  29.450  1.00  0.00     0.023 A 
ATOM     86  C   UNL A   1      45.817  33.729  30.640  1.00  0.00     0.031 A 
ATOM     87  C   UNL A   1      45.074  34.525  28.489  1.00  0.00     0.131 A 
ATOM     88  C   UNL A   1      46.426  34.975  30.860  1.00  0.00     0.055 A 
ATOM     89  C   UNL A   1      45.729  35.741  28.689  1.00  0.00     0.041 A 
ATOM     90  F   UNL A   1      44.408  34.359  27.335  1.00  0.00    -0.206 F 
ATOM     91  C   UNL A   1      46.400  35.975  29.885  1.00  0.00     0.022 A 
BRANCH  88  92
ATOM     92  S   UNL A   1      47.185  35.305  32.475  1.00  0.00     0.124 S 
ATOM     93  O   UNL A   1      46.181  36.148  33.116  1.00  0.00    -0.237 OA
ATOM     94  O   UNL A   1      47.340  33.963  33.028  1.00  0.00    -0.237 OA
ATOM     95  O   UNL A   1      48.436  35.982  32.135  1.00  0.00    -0.744 OA
ENDBRANCH  88  92
ENDBRANCH  62  85
ENDBRANCH  36  37
ENDBRANCH  29  31
ENDBRANCH  28  29
ENDBRANCH  27  28
ENDBRANCH  26  27
ENDBRANCH  25  26
ENDBRANCH   1  25
TORSDOF 21
ENDMDL
MODEL 3
REMARK VINA RESULT:     -10.3      0.814      7.459
REMARK SMILES C[C@H](NC1=[NH+]S(=O)(=O)c2ccccc21)C(=O)OCCOCCOCCOC(=O)c1ccc(-c2c3nc(c(-c4cc(S(=O)(=O)[O-])ccc4F)c4ccc([nH]4)c(-c4cc(S(=O)(=O)[O-])ccc4F)c4nc(c(-c5cc(S(=O)(=O)[O-])ccc5F)c5ccc2[nH]5)C=C4)C=C3)cc1
REMARK SMILES IDX 22 1 21 2 20 3 19 4 18 5 17 6 15 7 16 8 2 9 1 10 3 11 4 12
REMARK SMILES IDX 5 14 14 15 6 16 9 18 13 19 7 20 8 21 10 22 12 23 11 24 23 25
REMARK SMILES IDX 24 26 25 27 26 28 27 29 28 30 29 31 30 32 91 33 31 34 90 35
REMARK SMILES IDX 32 36 33 37 34 38 84 39 35 40 89 41 83 42 85 43 36 44 88 45
REMARK SMILES IDX 82 46 81 47 37 49 69 50 49 51 68 52 50 53 53 54 67 55 86 56
REMARK SMILES IDX 51 57 52 58 66 60 87 61 54 62 38 63 39 64 47 65 40 66 46 67
REMARK SMILES IDX 48 68 45 69 41 70 42 71 43 72 44 73 70 74 71 75 79 76 72 77
REMARK SMILES IDX 78 78 80 79 77 80 73 81 74 82 75 83 76 84 55 85 56 86 64 87
REMARK SMILES IDX 57 88 63 89 65 90 62 91 58 92 59 93 60 94 61 95
REMARK H PARENT 3 13 5 17 85 48 53 59
REMARK Flexibility Score: inf
ROOT
ATOM      1  C   UNL A   1      34.579  17.901  24.825  1.00  0.00     0.188 C 
ENDROOT
BRANCH   1   2
ATOM      2  C   UNL A   1      33.450  17.962  23.781  1.00  0.00     0.188 C 
BRANCH   2   3
ATOM      3  O   UNL A   1      32.471  18.991  23.887  1.00  0.00    -0.376 OA
BRANCH   3   4
ATOM      4  C   UNL A   1      32.395  19.751  25.088  1.00  0.00     0.202 C 
BRANCH   4   5
ATOM      5  C   UNL A   1      33.015  21.154  25.094  1.00  0.00     0.261 C 
BRANCH   5   6
ATOM      6  O   UNL A   1      33.619  21.536  23.839  1.00  0.00    -0.460 OA
BRANCH   6   7
ATOM      7  C   UNL A   1      32.997  22.566  23.193  1.00  0.00     0.350 C 
ATOM      8  O   UNL A   1      31.861  22.493  22.735  1.00  0.00    -0.247 OA
BRANCH   7   9
ATOM      9  C   UNL A   1      33.834  23.853  23.119  1.00  0.00     0.279 C 
ATOM     10  C   UNL A   1      35.310  23.454  23.168  1.00  0.00     0.071 C 
BRANCH   9  11
ATOM     11  N   UNL A   1      33.582  24.835  24.191  1.00  0.00    -0.260 N 
ATOM     12  C   UNL A   1      32.551  25.742  24.098  1.00  0.00     0.292 C 
ATOM     13  H   UNL A   1      34.161  24.842  24.987  1.00  0.00     0.306 HD
ATOM     14  N   UNL A   1      31.539  25.577  23.293  1.00  0.00    -0.162 N 
ATOM     15  C   UNL A   1      32.571  27.032  24.826  1.00  0.00     0.087 A 
ATOM     16  S   UNL A   1      30.566  26.896  23.273  1.00  0.00     0.329 S 
ATOM     17  H   UNL A   1      31.379  24.762  22.764  1.00  0.00     0.327 HD
ATOM     18  C   UNL A   1      31.526  27.824  24.386  1.00  0.00     0.124 A 
ATOM     19  C   UNL A   1      33.489  27.536  25.728  1.00  0.00     0.018 A 
ATOM     20  O   UNL A   1      29.312  26.625  23.920  1.00  0.00    -0.179 OA
ATOM     21  O   UNL A   1      30.666  27.567  21.986  1.00  0.00    -0.179 OA
ATOM     22  C   UNL A   1      31.363  29.148  24.744  1.00  0.00     0.025 A 
ATOM     23  C   UNL A   1      33.341  28.870  26.135  1.00  0.00     0.001 A 
ATOM     24  C   UNL A   1      32.298  29.674  25.634  1.00  0.00     0.002 A 
ENDBRANCH   9  11
ENDBRANCH   7   9
ENDBRANCH   6   7
ENDBRANCH   5   6
ENDBRANCH   4   5
ENDBRANCH   3   4
ENDBRANCH   2   3
ENDBRANCH   1   2
BRANCH   1  25
ATOM     25  O   UNL A   1      35.863  18.257  24.340  1.00  0.00    -0.376 OA
BRANCH  25  26
ATOM     26  C   UNL A   1      36.399  19.482  24.832  1.00  0.00     0.202 C 
BRANCH  26  27
ATOM     27  C   UNL A   1      37.926  19.563  24.993  1.00  0.00     0.261 C 
BRANCH  27  28
ATOM     28  O   UNL A   1      38.427  20.759  25.614  1.00  0.00    -0.460 OA
BRANCH  28  29
ATOM     29  C   UNL A   1      39.663  20.697  26.164  1.00  0.00     0.338 C 
ATOM     30  O   UNL A   1      40.431  19.754  26.119  1.00  0.00    -0.246 OA
BRANCH  29  31
ATOM     31  C   UNL A   1      40.005  22.061  26.627  1.00  0.00     0.060 A 
ATOM     32  C   UNL A   1      39.318  23.156  26.089  1.00  0.00     0.016 A 
ATOM     33  C   UNL A   1      40.975  22.252  27.615  1.00  0.00     0.016 A 
ATOM     34  C   UNL A   1      39.611  24.450  26.527  1.00  0.00     0.010 A 
ATOM     35  C   UNL A   1      41.285  23.547  28.035  1.00  0.00     0.010 A 
ATOM     36  C   UNL A   1      40.623  24.656  27.476  1.00  0.00    -0.014 A 
BRANCH  36  37
ATOM     37  C   UNL A   1      41.140  26.025  27.724  1.00  0.00     0.031 A 
ATOM     38  C   UNL A   1      42.522  26.356  27.228  1.00  0.00     0.074 A 
ATOM     39  C   UNL A   1      40.412  26.953  28.369  1.00  0.00     0.049 A 
ATOM     40  N   UNL A   1      43.222  27.449  27.374  1.00  0.00    -0.248 NA
ATOM     41  C   UNL A   1      43.204  25.296  26.469  1.00  0.00     0.031 C 
ATOM     42  C   UNL A   1      39.046  26.768  28.856  1.00  0.00     0.029 A 
ATOM     43  N   UNL A   1      40.728  28.238  28.733  1.00  0.00    -0.354 N 
ATOM     44  C   UNL A   1      44.429  27.212  26.724  1.00  0.00     0.074 A 
ATOM     45  C   UNL A   1      44.377  25.856  26.222  1.00  0.00     0.031 C 
ATOM     46  C   UNL A   1      38.647  27.899  29.467  1.00  0.00     0.029 A 
ATOM     47  C   UNL A   1      39.738  28.872  29.446  1.00  0.00     0.049 A 
ATOM     48  H   UNL A   1      41.585  28.666  28.503  1.00  0.00     0.167 HD
ATOM     49  C   UNL A   1      45.481  28.051  26.553  1.00  0.00     0.034 A 
ATOM     50  C   UNL A   1      39.727  30.086  30.034  1.00  0.00     0.034 A 
ATOM     51  C   UNL A   1      45.530  29.391  27.086  1.00  0.00     0.049 A 
ATOM     52  C   UNL A   1      40.951  30.968  29.924  1.00  0.00     0.074 A 
ATOM     53  C   UNL A   1      46.543  30.327  26.975  1.00  0.00     0.029 A 
ATOM     54  N   UNL A   1      44.529  29.980  27.847  1.00  0.00    -0.354 N 
ATOM     55  N   UNL A   1      42.086  30.737  29.305  1.00  0.00    -0.248 NA
ATOM     56  C   UNL A   1      40.886  32.276  30.591  1.00  0.00     0.031 C 
ATOM     57  C   UNL A   1      46.186  31.451  27.728  1.00  0.00     0.029 A 
ATOM     58  C   UNL A   1      44.915  31.252  28.244  1.00  0.00     0.049 A 
ATOM     59  H   UNL A   1      43.669  29.556  28.073  1.00  0.00     0.167 HD
ATOM     60  C   UNL A   1      42.857  31.885  29.480  1.00  0.00     0.074 A 
ATOM     61  C   UNL A   1      42.054  32.807  30.258  1.00  0.00     0.031 C 
ATOM     62  C   UNL A   1      44.110  32.156  29.032  1.00  0.00     0.034 A 
BRANCH  49  63
ATOM     63  C   UNL A   1      46.679  27.503  25.815  1.00  0.00     0.023 A 
ATOM     64  C   UNL A   1      46.997  27.919  24.509  1.00  0.00     0.031 A 
ATOM     65  C   UNL A   1      47.473  26.501  26.399  1.00  0.00     0.131 A 
ATOM     66  C   UNL A   1      48.023  27.275  23.801  1.00  0.00     0.055 A 
ATOM     67  C   UNL A   1      48.547  25.925  25.719  1.00  0.00     0.041 A 
ATOM     68  F   UNL A   1      47.202  26.045  27.632  1.00  0.00    -0.206 F 
ATOM     69  C   UNL A   1      48.816  26.298  24.405  1.00  0.00     0.022 A 
BRANCH  66  70
ATOM     70  S   UNL A   1      48.194  27.611  22.026  1.00  0.00     0.124 S 
ATOM     71  O   UNL A   1      49.356  28.498  22.003  1.00  0.00    -0.237 OA
ATOM     72  O   UNL A   1      48.396  26.279  21.470  1.00  0.00    -0.237 OA
ATOM     73  O   UNL A   1      46.927  28.249  21.674  1.00  0.00    -0.744 OA
ENDBRANCH  66  70
ENDBRANCH  49  63
BRANCH  50  74
ATOM     74  C   UNL A   1      38.542  30.535  30.822  1.00  0.00     0.023 A 
ATOM     75  C   UNL A   1      37.491  31.244  30.219  1.00  0.00     0.031 A 
ATOM     76  C   UNL A   1      38.475  30.309  32.209  1.00  0.00     0.131 A 
ATOM     77  C   UNL A   1      36.436  31.735  31.006  1.00  0.00     0.055 A 
ATOM     78  C   UNL A   1      37.400  30.756  32.978  1.00  0.00     0.041 A 
ATOM     79  F   UNL A   1      39.456  29.642  32.836  1.00  0.00    -0.206 F 
ATOM     80  C   UNL A   1      36.377  31.484  32.379  1.00  0.00     0.022 A 
BRANCH  77  81
ATOM     81  S   UNL A   1      35.172  32.774  30.221  1.00  0.00     0.124 S 
ATOM     82  O   UNL A   1      35.918  33.998  29.952  1.00  0.00    -0.237 OA
ATOM     83  O   UNL A   1      34.804  31.977  29.055  1.00  0.00    -0.237 OA
ATOM     84  O   UNL A   1      34.138  32.885  31.247  1.00  0.00    -0.744 OA
ENDBRANCH  77  81
ENDBRANCH  50  74
BRANCH  62  85
ATOM     85  C   UNL A   1      44.668  33.528  29.330  1.00  0.00     0.023 A 
ATOM     86  C   UNL A   1      44.576  34.586  28.410  1.00  0.00     0.031 A 
ATOM     87  C   UNL A   1      45.303  33.777  30.561  1.00  0.00     0.131 A 
ATOM     88  C   UNL A   1      45.154  35.829  28.712  1.00  0.00     0.055 A 
ATOM     89  C   UNL A   1      45.827  35.031  30.879  1.00  0.00     0.041 A 
ATOM     90  F   UNL A   1      45.421  32.803  31.478  1.00  0.00    -0.206 F 
ATOM     91  C   UNL A   1      45.764  36.062  29.947  1.00  0.00     0.022 A 
BRANCH  88  92
ATOM     92  S   UNL A   1      45.175  37.119  27.436  1.00  0.00     0.124 S 
ATOM     93  O   UNL A   1      46.045  36.531  26.422  1.00  0.00    -0.237 OA
ATOM     94  O   UNL A   1      43.764  37.228  27.079  1.00  0.00    -0.237 OA
ATOM     95  O   UNL A   1      45.729  38.280  28.129  1.00  0.00    -0.744 OA
ENDBRANCH  88  92
ENDBRANCH  62  85
ENDBRANCH  36  37
ENDBRANCH  29  31
ENDBRANCH  28  29
ENDBRANCH  27  28
ENDBRANCH  26  27
ENDBRANCH  25  26
ENDBRANCH   1  25
TORSDOF 21
ENDMDL
