MODEL 1
REMARK VINA RESULT:      -7.6      0.000      0.000
REMARK SMILES CCCC[C@@H](C(=O)OCCOCCOCCOC(=O)c1ccc(-c2c3nc(c(-c4cc(S(=O)(=O)[O-])ccc4F)c4ccc([nH]4)c(-c4cc(S(=O)(=O)[O-])ccc4F)c4nc(c(-c5cc(S(=O)(=O)[O-])ccc5F)c5ccc2[nH]5)C=C4)C=C3)cc1)[C@H](O)c1ccc(OC)c(O)c1
REMARK SMILES IDX 12 1 11 2 10 3 9 4 8 5 6 6 7 7 5 8 4 9 3 10 2 11 1 12 83 13
REMARK SMILES IDX 85 14 86 15 93 16 87 17 91 18 88 19 92 20 89 22 90 23 84 24
REMARK SMILES IDX 13 26 14 27 15 28 16 29 17 30 18 31 19 32 20 33 21 34 82 35
REMARK SMILES IDX 22 36 81 37 23 38 24 39 25 40 75 41 26 42 80 43 74 44 76 45
REMARK SMILES IDX 27 46 79 47 73 48 72 49 28 51 60 52 40 53 59 54 41 55 44 56
REMARK SMILES IDX 58 57 77 58 42 59 43 60 57 62 78 63 45 64 29 65 30 66 38 67
REMARK SMILES IDX 31 68 37 69 39 70 36 71 32 72 33 73 34 74 35 75 61 76 62 77
REMARK SMILES IDX 70 78 63 79 69 80 71 81 68 82 64 83 65 84 66 85 67 86 46 87
REMARK SMILES IDX 47 88 55 89 48 90 54 91 56 92 53 93 49 94 50 95 51 96 52 97
REMARK H PARENT 92 21 84 25 76 50 44 61
REMARK Flexibility Score: inf
ROOT
ATOM      1  C   UNL A   1      36.346  32.481  33.648  1.00  0.00     0.188 C 
ENDROOT
BRANCH   1   2
ATOM      2  O   UNL A   1      35.694  31.733  32.627  1.00  0.00    -0.376 OA
BRANCH   2   3
ATOM      3  C   UNL A   1      36.395  30.595  32.129  1.00  0.00     0.202 C 
BRANCH   3   4
ATOM      4  C   UNL A   1      37.168  30.785  30.811  1.00  0.00     0.261 C 
BRANCH   4   5
ATOM      5  O   UNL A   1      36.481  31.589  29.825  1.00  0.00    -0.463 OA
BRANCH   5   6
ATOM      6  C   UNL A   1      36.078  30.966  28.683  1.00  0.00     0.312 C 
ATOM      7  O   UNL A   1      36.734  30.110  28.097  1.00  0.00    -0.252 OA
BRANCH   6   8
ATOM      8  C   UNL A   1      34.666  31.348  28.216  1.00  0.00     0.132 C 
BRANCH   8   9
ATOM      9  C   UNL A   1      34.070  30.441  27.135  1.00  0.00     0.018 C 
BRANCH   9  10
ATOM     10  C   UNL A   1      32.983  29.438  27.546  1.00  0.00     0.001 C 
BRANCH  10  11
ATOM     11  C   UNL A   1      32.105  28.904  26.415  1.00  0.00    -0.003 C 
ATOM     12  C   UNL A   1      32.013  29.839  25.218  1.00  0.00     0.004 C 
ENDBRANCH  10  11
ENDBRANCH   9  10
ENDBRANCH   8   9
BRANCH   8  13
ATOM     13  C   UNL A   1      34.703  32.898  27.940  1.00  0.00     0.159 C 
BRANCH  13  14
ATOM     14  C   UNL A   1      34.234  34.024  28.868  1.00  0.00    -0.015 A 
ATOM     15  C   UNL A   1      34.166  33.985  30.262  1.00  0.00     0.010 A 
ATOM     16  C   UNL A   1      33.734  35.208  28.265  1.00  0.00     0.056 A 
ATOM     17  C   UNL A   1      33.697  35.077  31.009  1.00  0.00     0.051 A 
ATOM     18  C   UNL A   1      33.239  36.295  29.010  1.00  0.00     0.158 A 
ATOM     19  C   UNL A   1      33.215  36.236  30.399  1.00  0.00     0.160 A 
BRANCH  18  20
ATOM     20  O   UNL A   1      32.788  37.400  28.349  1.00  0.00    -0.504 OA
ATOM     21  H   UNL A   1      32.619  37.359  27.428  1.00  0.00     0.293 HD
ENDBRANCH  18  20
BRANCH  19  22
ATOM     22  O   UNL A   1      32.752  37.155  31.298  1.00  0.00    -0.493 OA
ATOM     23  C   UNL A   1      32.652  36.777  32.667  1.00  0.00     0.278 C 
ENDBRANCH  19  22
ENDBRANCH  13  14
BRANCH  13  24
ATOM     24  O   UNL A   1      36.089  33.195  27.649  1.00  0.00    -0.388 OA
ATOM     25  H   UNL A   1      36.316  32.851  26.771  1.00  0.00     0.211 HD
ENDBRANCH  13  24
ENDBRANCH   8  13
ENDBRANCH   6   8
ENDBRANCH   5   6
ENDBRANCH   4   5
ENDBRANCH   3   4
ENDBRANCH   2   3
ENDBRANCH   1   2
BRANCH   1  26
ATOM     26  C   UNL A   1      35.997  33.965  33.729  1.00  0.00     0.188 C 
BRANCH  26  27
ATOM     27  O   UNL A   1      36.843  34.836  32.994  1.00  0.00    -0.376 OA
BRANCH  27  28
ATOM     28  C   UNL A   1      37.545  34.258  31.890  1.00  0.00     0.202 C 
BRANCH  28  29
ATOM     29  C   UNL A   1      38.948  34.822  31.551  1.00  0.00     0.261 C 
BRANCH  29  30
ATOM     30  O   UNL A   1      39.969  34.704  32.569  1.00  0.00    -0.460 OA
BRANCH  30  31
ATOM     31  C   UNL A   1      40.130  33.486  33.138  1.00  0.00     0.338 C 
ATOM     32  O   UNL A   1      39.513  33.074  34.109  1.00  0.00    -0.246 OA
BRANCH  31  33
ATOM     33  C   UNL A   1      40.938  32.611  32.237  1.00  0.00     0.060 A 
ATOM     34  C   UNL A   1      41.998  31.909  32.820  1.00  0.00     0.016 A 
ATOM     35  C   UNL A   1      40.674  32.435  30.874  1.00  0.00     0.016 A 
ATOM     36  C   UNL A   1      42.817  31.086  32.047  1.00  0.00     0.010 A 
ATOM     37  C   UNL A   1      41.520  31.620  30.091  1.00  0.00     0.010 A 
ATOM     38  C   UNL A   1      42.626  30.967  30.669  1.00  0.00    -0.014 A 
BRANCH  38  39
ATOM     39  C   UNL A   1      43.739  30.369  29.867  1.00  0.00     0.031 A 
ATOM     40  C   UNL A   1      44.946  31.230  29.576  1.00  0.00     0.074 A 
ATOM     41  C   UNL A   1      43.780  29.059  29.550  1.00  0.00     0.049 A 
ATOM     42  N   UNL A   1      46.063  30.928  28.963  1.00  0.00    -0.248 NA
ATOM     43  C   UNL A   1      44.879  32.619  30.050  1.00  0.00     0.031 C 
ATOM     44  C   UNL A   1      42.745  28.080  29.874  1.00  0.00     0.029 A 
ATOM     45  N   UNL A   1      44.757  28.314  28.924  1.00  0.00    -0.354 N 
ATOM     46  C   UNL A   1      46.824  32.094  28.963  1.00  0.00     0.074 A 
ATOM     47  C   UNL A   1      46.025  33.113  29.612  1.00  0.00     0.031 C 
ATOM     48  C   UNL A   1      43.154  26.863  29.476  1.00  0.00     0.029 A 
ATOM     49  C   UNL A   1      44.465  26.970  28.833  1.00  0.00     0.049 A 
ATOM     50  H   UNL A   1      45.587  28.708  28.573  1.00  0.00     0.167 HD
ATOM     51  C   UNL A   1      48.072  32.304  28.474  1.00  0.00     0.034 A 
ATOM     52  C   UNL A   1      45.165  25.947  28.295  1.00  0.00     0.034 A 
ATOM     53  C   UNL A   1      48.872  31.287  27.834  1.00  0.00     0.049 A 
ATOM     54  C   UNL A   1      46.522  26.222  27.678  1.00  0.00     0.074 A 
ATOM     55  C   UNL A   1      50.133  31.409  27.276  1.00  0.00     0.029 A 
ATOM     56  N   UNL A   1      48.494  29.961  27.664  1.00  0.00    -0.354 N 
ATOM     57  N   UNL A   1      47.203  27.345  27.634  1.00  0.00    -0.248 NA
ATOM     58  C   UNL A   1      47.203  25.086  27.040  1.00  0.00     0.031 C 
ATOM     59  C   UNL A   1      50.481  30.184  26.697  1.00  0.00     0.029 A 
ATOM     60  C   UNL A   1      49.484  29.266  26.981  1.00  0.00     0.049 A 
ATOM     61  H   UNL A   1      47.648  29.571  27.982  1.00  0.00     0.167 HD
ATOM     62  C   UNL A   1      48.402  27.039  26.989  1.00  0.00     0.074 A 
ATOM     63  C   UNL A   1      48.363  25.624  26.692  1.00  0.00     0.031 C 
ATOM     64  C   UNL A   1      49.441  27.856  26.671  1.00  0.00     0.034 A 
BRANCH  51  65
ATOM     65  C   UNL A   1      48.610  33.716  28.537  1.00  0.00     0.023 A 
ATOM     66  C   UNL A   1      48.391  34.650  27.508  1.00  0.00     0.031 A 
ATOM     67  C   UNL A   1      49.398  34.116  29.631  1.00  0.00     0.131 A 
ATOM     68  C   UNL A   1      49.018  35.905  27.560  1.00  0.00     0.055 A 
ATOM     69  C   UNL A   1      49.942  35.398  29.721  1.00  0.00     0.041 A 
ATOM     70  F   UNL A   1      49.666  33.259  30.629  1.00  0.00    -0.206 F 
ATOM     71  C   UNL A   1      49.766  36.296  28.673  1.00  0.00     0.022 A 
BRANCH  68  72
ATOM     72  S   UNL A   1      48.978  36.960  26.084  1.00  0.00     0.124 S 
ATOM     73  O   UNL A   1      49.693  38.146  26.551  1.00  0.00    -0.237 OA
ATOM     74  O   UNL A   1      49.670  36.145  25.093  1.00  0.00    -0.237 OA
ATOM     75  O   UNL A   1      47.550  37.158  25.844  1.00  0.00    -0.744 OA
ENDBRANCH  68  72
ENDBRANCH  51  65
BRANCH  52  76
ATOM     76  C   UNL A   1      44.595  24.562  28.253  1.00  0.00     0.023 A 
ATOM     77  C   UNL A   1      44.104  23.998  27.061  1.00  0.00     0.031 A 
ATOM     78  C   UNL A   1      44.448  23.813  29.435  1.00  0.00     0.131 A 
ATOM     79  C   UNL A   1      43.447  22.755  27.089  1.00  0.00     0.055 A 
ATOM     80  C   UNL A   1      43.856  22.548  29.445  1.00  0.00     0.041 A 
ATOM     81  F   UNL A   1      44.878  24.303  30.608  1.00  0.00    -0.206 F 
ATOM     82  C   UNL A   1      43.338  22.018  28.270  1.00  0.00     0.022 A 
BRANCH  79  83
ATOM     83  S   UNL A   1      42.636  22.154  25.578  1.00  0.00     0.124 S 
ATOM     84  O   UNL A   1      43.045  23.157  24.603  1.00  0.00    -0.237 OA
ATOM     85  O   UNL A   1      43.229  20.829  25.429  1.00  0.00    -0.237 OA
ATOM     86  O   UNL A   1      41.217  22.162  25.929  1.00  0.00    -0.744 OA
ENDBRANCH  79  83
ENDBRANCH  52  76
BRANCH  64  87
ATOM     87  C   UNL A   1      50.646  27.224  26.004  1.00  0.00     0.023 A 
ATOM     88  C   UNL A   1      51.763  26.787  26.740  1.00  0.00     0.031 A 
ATOM     89  C   UNL A   1      50.690  27.085  24.604  1.00  0.00     0.131 A 
ATOM     90  C   UNL A   1      52.903  26.312  26.071  1.00  0.00     0.055 A 
ATOM     91  C   UNL A   1      51.797  26.539  23.950  1.00  0.00     0.041 A 
ATOM     92  F   UNL A   1      49.659  27.483  23.843  1.00  0.00    -0.206 F 
ATOM     93  C   UNL A   1      52.920  26.168  24.682  1.00  0.00     0.022 A 
BRANCH  90  94
ATOM     94  S   UNL A   1      54.416  26.016  27.029  1.00  0.00     0.124 S 
ATOM     95  O   UNL A   1      53.907  25.984  28.396  1.00  0.00    -0.237 OA
ATOM     96  O   UNL A   1      54.880  24.741  26.491  1.00  0.00    -0.237 OA
ATOM     97  O   UNL A   1      55.258  27.167  26.708  1.00  0.00    -0.744 OA
ENDBRANCH  90  94
ENDBRANCH  64  87
ENDBRANCH  38  39
ENDBRANCH  31  33
ENDBRANCH  30  31
ENDBRANCH  29  30
ENDBRANCH  28  29
ENDBRANCH  27  28
ENDBRANCH  26  27
ENDBRANCH   1  26
TORSDOF 28
ENDMDL
MODEL 2
REMARK VINA RESULT:      -7.4      7.550     14.065
REMARK SMILES CCCC[C@@H](C(=O)OCCOCCOCCOC(=O)c1ccc(-c2c3nc(c(-c4cc(S(=O)(=O)[O-])ccc4F)c4ccc([nH]4)c(-c4cc(S(=O)(=O)[O-])ccc4F)c4nc(c(-c5cc(S(=O)(=O)[O-])ccc5F)c5ccc2[nH]5)C=C4)C=C3)cc1)[C@H](O)c1ccc(OC)c(O)c1
REMARK SMILES IDX 12 1 11 2 10 3 9 4 8 5 6 6 7 7 5 8 4 9 3 10 2 11 1 12 83 13
REMARK SMILES IDX 85 14 86 15 93 16 87 17 91 18 88 19 92 20 89 22 90 23 84 24
REMARK SMILES IDX 13 26 14 27 15 28 16 29 17 30 18 31 19 32 20 33 21 34 82 35
REMARK SMILES IDX 22 36 81 37 23 38 24 39 25 40 75 41 26 42 80 43 74 44 76 45
REMARK SMILES IDX 27 46 79 47 73 48 72 49 28 51 60 52 40 53 59 54 41 55 44 56
REMARK SMILES IDX 58 57 77 58 42 59 43 60 57 62 78 63 45 64 29 65 30 66 38 67
REMARK SMILES IDX 31 68 37 69 39 70 36 71 32 72 33 73 34 74 35 75 61 76 62 77
REMARK SMILES IDX 70 78 63 79 69 80 71 81 68 82 64 83 65 84 66 85 67 86 46 87
REMARK SMILES IDX 47 88 55 89 48 90 54 91 56 92 53 93 49 94 50 95 51 96 52 97
REMARK H PARENT 92 21 84 25 76 50 44 61
REMARK Flexibility Score: inf
ROOT
ATOM      1  C   UNL A   1      49.911  23.870  38.833  1.00  0.00     0.188 C 
ENDROOT
BRANCH   1   2
ATOM      2  O   UNL A   1      51.052  23.018  38.827  1.00  0.00    -0.376 OA
BRANCH   2   3
ATOM      3  C   UNL A   1      51.975  23.188  39.901  1.00  0.00     0.202 C 
BRANCH   3   4
ATOM      4  C   UNL A   1      51.512  22.709  41.290  1.00  0.00     0.261 C 
BRANCH   4   5
ATOM      5  O   UNL A   1      50.362  21.834  41.267  1.00  0.00    -0.463 OA
BRANCH   5   6
ATOM      6  C   UNL A   1      50.598  20.493  41.273  1.00  0.00     0.312 C 
ATOM      7  O   UNL A   1      51.624  19.976  41.707  1.00  0.00    -0.252 OA
BRANCH   6   8
ATOM      8  C   UNL A   1      49.425  19.638  40.774  1.00  0.00     0.132 C 
BRANCH   8   9
ATOM      9  C   UNL A   1      49.012  18.492  41.701  1.00  0.00     0.018 C 
BRANCH   9  10
ATOM     10  C   UNL A   1      48.202  17.331  41.106  1.00  0.00     0.001 C 
BRANCH  10  11
ATOM     11  C   UNL A   1      46.787  17.153  41.656  1.00  0.00    -0.003 C 
ATOM     12  C   UNL A   1      45.770  18.106  41.047  1.00  0.00     0.004 C 
ENDBRANCH  10  11
ENDBRANCH   9  10
ENDBRANCH   8   9
BRANCH   8  13
ATOM     13  C   UNL A   1      49.746  19.292  39.271  1.00  0.00     0.159 C 
BRANCH  13  14
ATOM     14  C   UNL A   1      48.881  19.581  38.039  1.00  0.00    -0.015 A 
ATOM     15  C   UNL A   1      49.285  20.218  36.865  1.00  0.00     0.010 A 
ATOM     16  C   UNL A   1      47.503  19.247  38.111  1.00  0.00     0.056 A 
ATOM     17  C   UNL A   1      48.393  20.447  35.805  1.00  0.00     0.051 A 
ATOM     18  C   UNL A   1      46.601  19.498  37.060  1.00  0.00     0.158 A 
ATOM     19  C   UNL A   1      47.043  20.107  35.891  1.00  0.00     0.160 A 
BRANCH  18  20
ATOM     20  O   UNL A   1      45.294  19.135  37.209  1.00  0.00    -0.504 OA
ATOM     21  H   UNL A   1      45.078  18.305  37.587  1.00  0.00     0.293 HD
ENDBRANCH  18  20
BRANCH  19  22
ATOM     22  O   UNL A   1      46.334  20.465  34.779  1.00  0.00    -0.493 OA
ATOM     23  C   UNL A   1      45.178  21.280  34.943  1.00  0.00     0.278 C 
ENDBRANCH  19  22
ENDBRANCH  13  14
BRANCH  13  24
ATOM     24  O   UNL A   1      51.018  19.929  39.003  1.00  0.00    -0.388 OA
ATOM     25  H   UNL A   1      51.104  20.093  38.051  1.00  0.00     0.211 HD
ENDBRANCH  13  24
ENDBRANCH   8  13
ENDBRANCH   6   8
ENDBRANCH   5   6
ENDBRANCH   4   5
ENDBRANCH   3   4
ENDBRANCH   2   3
ENDBRANCH   1   2
BRANCH   1  26
ATOM     26  C   UNL A   1      48.550  23.177  38.839  1.00  0.00     0.188 C 
BRANCH  26  27
ATOM     27  O   UNL A   1      47.548  23.787  38.040  1.00  0.00    -0.376 OA
BRANCH  27  28
ATOM     28  C   UNL A   1      46.193  23.473  38.372  1.00  0.00     0.202 C 
BRANCH  28  29
ATOM     29  C   UNL A   1      45.190  24.648  38.503  1.00  0.00     0.261 C 
BRANCH  29  30
ATOM     30  O   UNL A   1      45.119  25.580  37.398  1.00  0.00    -0.460 OA
BRANCH  30  31
ATOM     31  C   UNL A   1      44.021  25.514  36.609  1.00  0.00     0.338 C 
ATOM     32  O   UNL A   1      42.868  25.638  36.994  1.00  0.00    -0.246 OA
BRANCH  31  33
ATOM     33  C   UNL A   1      44.426  25.573  35.173  1.00  0.00     0.060 A 
ATOM     34  C   UNL A   1      45.535  24.809  34.796  1.00  0.00     0.016 A 
ATOM     35  C   UNL A   1      43.746  26.312  34.198  1.00  0.00     0.016 A 
ATOM     36  C   UNL A   1      45.995  24.824  33.480  1.00  0.00     0.010 A 
ATOM     37  C   UNL A   1      44.229  26.342  32.872  1.00  0.00     0.010 A 
ATOM     38  C   UNL A   1      45.386  25.624  32.511  1.00  0.00    -0.014 A 
BRANCH  38  39
ATOM     39  C   UNL A   1      46.138  25.862  31.240  1.00  0.00     0.031 A 
ATOM     40  C   UNL A   1      45.765  25.039  30.029  1.00  0.00     0.074 A 
ATOM     41  C   UNL A   1      47.001  26.888  31.090  1.00  0.00     0.049 A 
ATOM     42  N   UNL A   1      46.216  25.099  28.801  1.00  0.00    -0.248 NA
ATOM     43  C   UNL A   1      44.733  24.014  30.238  1.00  0.00     0.031 C 
ATOM     44  C   UNL A   1      47.365  27.842  32.134  1.00  0.00     0.029 A 
ATOM     45  N   UNL A   1      47.693  27.328  29.982  1.00  0.00    -0.354 N 
ATOM     46  C   UNL A   1      45.538  24.108  28.097  1.00  0.00     0.074 A 
ATOM     47  C   UNL A   1      44.666  23.446  29.045  1.00  0.00     0.031 C 
ATOM     48  C   UNL A   1      48.186  28.771  31.612  1.00  0.00     0.029 A 
ATOM     49  C   UNL A   1      48.440  28.465  30.203  1.00  0.00     0.049 A 
ATOM     50  H   UNL A   1      47.658  26.870  29.112  1.00  0.00     0.167 HD
ATOM     51  C   UNL A   1      45.624  23.778  26.785  1.00  0.00     0.034 A 
ATOM     52  C   UNL A   1      49.236  29.176  29.373  1.00  0.00     0.034 A 
ATOM     53  C   UNL A   1      46.488  24.443  25.837  1.00  0.00     0.049 A 
ATOM     54  C   UNL A   1      49.384  28.735  27.931  1.00  0.00     0.074 A 
ATOM     55  C   UNL A   1      46.672  24.159  24.494  1.00  0.00     0.029 A 
ATOM     56  N   UNL A   1      47.311  25.522  26.127  1.00  0.00    -0.354 N 
ATOM     57  N   UNL A   1      48.779  27.758  27.294  1.00  0.00    -0.248 NA
ATOM     58  C   UNL A   1      50.322  29.500  27.097  1.00  0.00     0.031 C 
ATOM     59  C   UNL A   1      47.664  25.009  23.995  1.00  0.00     0.029 A 
ATOM     60  C   UNL A   1      48.029  25.893  24.997  1.00  0.00     0.049 A 
ATOM     61  H   UNL A   1      47.377  25.961  27.005  1.00  0.00     0.167 HD
ATOM     62  C   UNL A   1      49.245  27.812  25.980  1.00  0.00     0.074 A 
ATOM     63  C   UNL A   1      50.155  28.935  25.909  1.00  0.00     0.031 C 
ATOM     64  C   UNL A   1      48.948  27.005  24.927  1.00  0.00     0.034 A 
BRANCH  51  65
ATOM     65  C   UNL A   1      44.824  22.582  26.319  1.00  0.00     0.023 A 
ATOM     66  C   UNL A   1      45.430  21.366  25.955  1.00  0.00     0.031 A 
ATOM     67  C   UNL A   1      43.426  22.683  26.194  1.00  0.00     0.131 A 
ATOM     68  C   UNL A   1      44.650  20.332  25.413  1.00  0.00     0.055 A 
ATOM     69  C   UNL A   1      42.646  21.618  25.742  1.00  0.00     0.041 A 
ATOM     70  F   UNL A   1      42.794  23.827  26.499  1.00  0.00    -0.206 F 
ATOM     71  C   UNL A   1      43.260  20.439  25.332  1.00  0.00     0.022 A 
BRANCH  68  72
ATOM     72  S   UNL A   1      45.491  18.910  24.662  1.00  0.00     0.124 S 
ATOM     73  O   UNL A   1      46.830  19.448  24.432  1.00  0.00    -0.237 OA
ATOM     74  O   UNL A   1      45.380  17.893  25.700  1.00  0.00    -0.237 OA
ATOM     75  O   UNL A   1      44.715  18.654  23.451  1.00  0.00    -0.744 OA
ENDBRANCH  68  72
ENDBRANCH  51  65
BRANCH  52  76
ATOM     76  C   UNL A   1      50.014  30.354  29.875  1.00  0.00     0.023 A 
ATOM     77  C   UNL A   1      49.513  31.666  29.787  1.00  0.00     0.031 A 
ATOM     78  C   UNL A   1      51.322  30.190  30.369  1.00  0.00     0.131 A 
ATOM     79  C   UNL A   1      50.330  32.756  30.136  1.00  0.00     0.055 A 
ATOM     80  C   UNL A   1      52.104  31.272  30.779  1.00  0.00     0.041 A 
ATOM     81  F   UNL A   1      51.865  28.966  30.459  1.00  0.00    -0.206 F 
ATOM     82  C   UNL A   1      51.614  32.566  30.649  1.00  0.00     0.022 A 
BRANCH  79  83
ATOM     83  S   UNL A   1      49.734  34.442  29.810  1.00  0.00     0.124 S 
ATOM     84  O   UNL A   1      50.268  35.171  30.953  1.00  0.00    -0.237 OA
ATOM     85  O   UNL A   1      50.347  34.729  28.517  1.00  0.00    -0.237 OA
ATOM     86  O   UNL A   1      48.281  34.289  29.786  1.00  0.00    -0.744 OA
ENDBRANCH  79  83
ENDBRANCH  52  76
BRANCH  64  87
ATOM     87  C   UNL A   1      49.580  27.340  23.592  1.00  0.00     0.023 A 
ATOM     88  C   UNL A   1      50.954  27.156  23.348  1.00  0.00     0.031 A 
ATOM     89  C   UNL A   1      48.800  27.883  22.554  1.00  0.00     0.131 A 
ATOM     90  C   UNL A   1      51.517  27.586  22.136  1.00  0.00     0.055 A 
ATOM     91  C   UNL A   1      49.352  28.236  21.321  1.00  0.00     0.041 A 
ATOM     92  F   UNL A   1      47.483  28.085  22.721  1.00  0.00    -0.206 F 
ATOM     93  C   UNL A   1      50.722  28.108  21.113  1.00  0.00     0.022 A 
BRANCH  90  94
ATOM     94  S   UNL A   1      53.324  27.584  21.964  1.00  0.00     0.124 S 
ATOM     95  O   UNL A   1      53.499  28.063  20.596  1.00  0.00    -0.237 OA
ATOM     96  O   UNL A   1      53.738  28.503  23.019  1.00  0.00    -0.237 OA
ATOM     97  O   UNL A   1      53.688  26.185  22.181  1.00  0.00    -0.744 OA
ENDBRANCH  90  94
ENDBRANCH  64  87
ENDBRANCH  38  39
ENDBRANCH  31  33
ENDBRANCH  30  31
ENDBRANCH  29  30
ENDBRANCH  28  29
ENDBRANCH  27  28
ENDBRANCH  26  27
ENDBRANCH   1  26
TORSDOF 28
ENDMDL
MODEL 3
REMARK VINA RESULT:      -7.2      4.626     10.660
REMARK SMILES CCCC[C@@H](C(=O)OCCOCCOCCOC(=O)c1ccc(-c2c3nc(c(-c4cc(S(=O)(=O)[O-])ccc4F)c4ccc([nH]4)c(-c4cc(S(=O)(=O)[O-])ccc4F)c4nc(c(-c5cc(S(=O)(=O)[O-])ccc5F)c5ccc2[nH]5)C=C4)C=C3)cc1)[C@H](O)c1ccc(OC)c(O)c1
REMARK SMILES IDX 12 1 11 2 10 3 9 4 8 5 6 6 7 7 5 8 4 9 3 10 2 11 1 12 83 13
REMARK SMILES IDX 85 14 86 15 93 16 87 17 91 18 88 19 92 20 89 22 90 23 84 24
REMARK SMILES IDX 13 26 14 27 15 28 16 29 17 30 18 31 19 32 20 33 21 34 82 35
REMARK SMILES IDX 22 36 81 37 23 38 24 39 25 40 75 41 26 42 80 43 74 44 76 45
REMARK SMILES IDX 27 46 79 47 73 48 72 49 28 51 60 52 40 53 59 54 41 55 44 56
REMARK SMILES IDX 58 57 77 58 42 59 43 60 57 62 78 63 45 64 29 65 30 66 38 67
REMARK SMILES IDX 31 68 37 69 39 70 36 71 32 72 33 73 34 74 35 75 61 76 62 77
REMARK SMILES IDX 70 78 63 79 69 80 71 81 68 82 64 83 65 84 66 85 67 86 46 87
REMARK SMILES IDX 47 88 55 89 48 90 54 91 56 92 53 93 49 94 50 95 51 96 52 97
REMARK H PARENT 92 21 84 25 76 50 44 61
REMARK Flexibility Score: inf
ROOT
ATOM      1  C   UNL A   1      44.708  44.135  32.069  1.00  0.00     0.188 C 
ENDROOT
BRANCH   1   2
ATOM      2  O   UNL A   1      45.113  42.953  31.387  1.00  0.00    -0.376 OA
BRANCH   2   3
ATOM      3  C   UNL A   1      44.070  42.146  30.842  1.00  0.00     0.202 C 
BRANCH   3   4
ATOM      4  C   UNL A   1      44.462  40.729  30.386  1.00  0.00     0.261 C 
BRANCH   4   5
ATOM      5  O   UNL A   1      43.632  40.190  29.331  1.00  0.00    -0.463 OA
BRANCH   5   6
ATOM      6  C   UNL A   1      44.215  40.002  28.114  1.00  0.00     0.312 C 
ATOM      7  O   UNL A   1      44.825  40.873  27.500  1.00  0.00    -0.252 OA
BRANCH   6   8
ATOM      8  C   UNL A   1      44.140  38.561  27.590  1.00  0.00     0.132 C 
BRANCH   8   9
ATOM      9  C   UNL A   1      42.782  37.874  27.764  1.00  0.00     0.018 C 
BRANCH   9  10
ATOM     10  C   UNL A   1      42.628  36.842  28.890  1.00  0.00     0.001 C 
BRANCH  10  11
ATOM     11  C   UNL A   1      42.112  35.466  28.469  1.00  0.00    -0.003 C 
ATOM     12  C   UNL A   1      43.086  34.333  28.758  1.00  0.00     0.004 C 
ENDBRANCH  10  11
ENDBRANCH   9  10
ENDBRANCH   8   9
BRANCH   8  13
ATOM     13  C   UNL A   1      45.415  37.826  28.152  1.00  0.00     0.159 C 
BRANCH  13  14
ATOM     14  C   UNL A   1      45.920  36.424  27.793  1.00  0.00    -0.015 A 
ATOM     15  C   UNL A   1      46.510  35.502  28.658  1.00  0.00     0.010 A 
ATOM     16  C   UNL A   1      45.868  36.036  26.428  1.00  0.00     0.056 A 
ATOM     17  C   UNL A   1      46.956  34.248  28.208  1.00  0.00     0.051 A 
ATOM     18  C   UNL A   1      46.337  34.791  25.970  1.00  0.00     0.158 A 
ATOM     19  C   UNL A   1      46.891  33.881  26.863  1.00  0.00     0.160 A 
BRANCH  18  20
ATOM     20  O   UNL A   1      46.238  34.495  24.641  1.00  0.00    -0.504 OA
ATOM     21  H   UNL A   1      46.424  35.151  23.999  1.00  0.00     0.293 HD
ENDBRANCH  18  20
BRANCH  19  22
ATOM     22  O   UNL A   1      47.429  32.648  26.623  1.00  0.00    -0.493 OA
ATOM     23  C   UNL A   1      46.602  31.501  26.790  1.00  0.00     0.278 C 
ENDBRANCH  19  22
ENDBRANCH  13  14
BRANCH  13  24
ATOM     24  O   UNL A   1      46.519  38.717  27.863  1.00  0.00    -0.388 OA
ATOM     25  H   UNL A   1      46.472  38.999  26.937  1.00  0.00     0.211 HD
ENDBRANCH  13  24
ENDBRANCH   8  13
ENDBRANCH   6   8
ENDBRANCH   5   6
ENDBRANCH   4   5
ENDBRANCH   3   4
ENDBRANCH   2   3
ENDBRANCH   1   2
BRANCH   1  26
ATOM     26  C   UNL A   1      45.363  44.392  33.424  1.00  0.00     0.188 C 
BRANCH  26  27
ATOM     27  O   UNL A   1      44.735  43.773  34.537  1.00  0.00    -0.376 OA
BRANCH  27  28
ATOM     28  C   UNL A   1      45.479  42.744  35.195  1.00  0.00     0.202 C 
BRANCH  28  29
ATOM     29  C   UNL A   1      45.776  41.446  34.401  1.00  0.00     0.261 C 
BRANCH  29  30
ATOM     30  O   UNL A   1      44.653  40.584  34.104  1.00  0.00    -0.460 OA
BRANCH  30  31
ATOM     31  C   UNL A   1      44.362  39.621  35.010  1.00  0.00     0.338 C 
ATOM     32  O   UNL A   1      44.109  39.816  36.190  1.00  0.00    -0.246 OA
BRANCH  31  33
ATOM     33  C   UNL A   1      44.098  38.330  34.308  1.00  0.00     0.060 A 
ATOM     34  C   UNL A   1      43.879  37.206  35.110  1.00  0.00     0.016 A 
ATOM     35  C   UNL A   1      44.024  38.198  32.916  1.00  0.00     0.016 A 
ATOM     36  C   UNL A   1      43.647  35.956  34.536  1.00  0.00     0.010 A 
ATOM     37  C   UNL A   1      43.811  36.927  32.340  1.00  0.00     0.010 A 
ATOM     38  C   UNL A   1      43.659  35.785  33.150  1.00  0.00    -0.014 A 
BRANCH  38  39
ATOM     39  C   UNL A   1      43.762  34.387  32.628  1.00  0.00     0.031 A 
ATOM     40  C   UNL A   1      42.481  33.656  32.299  1.00  0.00     0.074 A 
ATOM     41  C   UNL A   1      44.939  33.827  32.282  1.00  0.00     0.049 A 
ATOM     42  N   UNL A   1      42.303  32.470  31.774  1.00  0.00    -0.248 NA
ATOM     43  C   UNL A   1      41.233  34.372  32.597  1.00  0.00     0.031 C 
ATOM     44  C   UNL A   1      46.248  34.461  32.425  1.00  0.00     0.029 A 
ATOM     45  N   UNL A   1      45.221  32.614  31.692  1.00  0.00    -0.354 N 
ATOM     46  C   UNL A   1      40.925  32.290  31.698  1.00  0.00     0.074 A 
ATOM     47  C   UNL A   1      40.318  33.480  32.257  1.00  0.00     0.031 C 
ATOM     48  C   UNL A   1      47.186  33.648  31.909  1.00  0.00     0.029 A 
ATOM     49  C   UNL A   1      46.559  32.417  31.427  1.00  0.00     0.049 A 
ATOM     50  H   UNL A   1      44.528  31.949  31.478  1.00  0.00     0.167 HD
ATOM     51  C   UNL A   1      40.223  31.238  31.207  1.00  0.00     0.034 A 
ATOM     52  C   UNL A   1      47.205  31.370  30.867  1.00  0.00     0.034 A 
ATOM     53  C   UNL A   1      40.827  30.054  30.642  1.00  0.00     0.049 A 
ATOM     54  C   UNL A   1      46.406  30.168  30.403  1.00  0.00     0.074 A 
ATOM     55  C   UNL A   1      40.203  28.921  30.149  1.00  0.00     0.029 A 
ATOM     56  N   UNL A   1      42.192  29.847  30.492  1.00  0.00    -0.354 N 
ATOM     57  N   UNL A   1      45.105  29.990  30.392  1.00  0.00    -0.248 NA
ATOM     58  C   UNL A   1      47.169  29.029  29.874  1.00  0.00     0.031 C 
ATOM     59  C   UNL A   1      41.187  27.998  29.781  1.00  0.00     0.029 A 
ATOM     60  C   UNL A   1      42.427  28.592  29.947  1.00  0.00     0.049 A 
ATOM     61  H   UNL A   1      42.891  30.495  30.737  1.00  0.00     0.167 HD
ATOM     62  C   UNL A   1      44.897  28.730  29.829  1.00  0.00     0.074 A 
ATOM     63  C   UNL A   1      46.203  28.209  29.486  1.00  0.00     0.031 C 
ATOM     64  C   UNL A   1      43.731  28.064  29.616  1.00  0.00     0.034 A 
BRANCH  51  65
ATOM     65  C   UNL A   1      38.718  31.288  31.344  1.00  0.00     0.023 A 
ATOM     66  C   UNL A   1      37.886  31.791  30.327  1.00  0.00     0.031 A 
ATOM     67  C   UNL A   1      38.110  30.864  32.539  1.00  0.00     0.131 A 
ATOM     68  C   UNL A   1      36.508  31.929  30.557  1.00  0.00     0.055 A 
ATOM     69  C   UNL A   1      36.728  30.917  32.726  1.00  0.00     0.041 A 
ATOM     70  F   UNL A   1      38.854  30.401  33.557  1.00  0.00    -0.206 F 
ATOM     71  C   UNL A   1      35.920  31.467  31.736  1.00  0.00     0.022 A 
BRANCH  68  72
ATOM     72  S   UNL A   1      35.516  32.867  29.362  1.00  0.00     0.124 S 
ATOM     73  O   UNL A   1      36.268  34.116  29.271  1.00  0.00    -0.237 OA
ATOM     74  O   UNL A   1      35.550  32.013  28.181  1.00  0.00    -0.237 OA
ATOM     75  O   UNL A   1      34.212  32.981  30.013  1.00  0.00    -0.744 OA
ENDBRANCH  68  72
ENDBRANCH  51  65
BRANCH  52  76
ATOM     76  C   UNL A   1      48.700  31.360  30.752  1.00  0.00     0.023 A 
ATOM     77  C   UNL A   1      49.359  31.859  29.613  1.00  0.00     0.031 A 
ATOM     78  C   UNL A   1      49.490  30.759  31.749  1.00  0.00     0.131 A 
ATOM     79  C   UNL A   1      50.750  31.702  29.480  1.00  0.00     0.055 A 
ATOM     80  C   UNL A   1      50.879  30.667  31.642  1.00  0.00     0.041 A 
ATOM     81  F   UNL A   1      48.919  30.245  32.850  1.00  0.00    -0.206 F 
ATOM     82  C   UNL A   1      51.516  31.127  30.496  1.00  0.00     0.022 A 
BRANCH  79  83
ATOM     83  S   UNL A   1      51.541  32.161  27.910  1.00  0.00     0.124 S 
ATOM     84  O   UNL A   1      50.610  33.154  27.388  1.00  0.00    -0.237 OA
ATOM     85  O   UNL A   1      52.834  32.664  28.364  1.00  0.00    -0.237 OA
ATOM     86  O   UNL A   1      51.591  30.900  27.174  1.00  0.00    -0.744 OA
ENDBRANCH  79  83
ENDBRANCH  52  76
BRANCH  64  87
ATOM     87  C   UNL A   1      43.815  26.713  28.935  1.00  0.00     0.023 A 
ATOM     88  C   UNL A   1      43.949  26.586  27.540  1.00  0.00     0.031 A 
ATOM     89  C   UNL A   1      43.727  25.530  29.693  1.00  0.00     0.131 A 
ATOM     90  C   UNL A   1      43.907  25.316  26.942  1.00  0.00     0.055 A 
ATOM     91  C   UNL A   1      43.766  24.267  29.099  1.00  0.00     0.041 A 
ATOM     92  F   UNL A   1      43.597  25.580  31.028  1.00  0.00    -0.206 F 
ATOM     93  C   UNL A   1      43.836  24.155  27.714  1.00  0.00     0.022 A 
BRANCH  90  94
ATOM     94  S   UNL A   1      43.809  25.207  25.133  1.00  0.00     0.124 S 
ATOM     95  O   UNL A   1      42.767  26.182  24.827  1.00  0.00    -0.237 OA
ATOM     96  O   UNL A   1      45.162  25.569  24.725  1.00  0.00    -0.237 OA
ATOM     97  O   UNL A   1      43.441  23.812  24.893  1.00  0.00    -0.744 OA
ENDBRANCH  90  94
ENDBRANCH  64  87
ENDBRANCH  38  39
ENDBRANCH  31  33
ENDBRANCH  30  31
ENDBRANCH  29  30
ENDBRANCH  28  29
ENDBRANCH  27  28
ENDBRANCH  26  27
ENDBRANCH   1  26
TORSDOF 28
ENDMDL
