MODEL 1
REMARK VINA RESULT:     -10.8      0.000      0.000
REMARK SMILES O=C(C[C@H](NC(=O)[C@]12C[C@H]3C[C@H](C[C@H](C3)C1)C2)c1cccc([N+](=O)[O-])c1)OCCOCCOCCOC(=O)c1ccc(-c2c3nc(c(-c4cc(S(=O)(=O)[O-])ccc4F)c4ccc([nH]4)c(-c4cc(S(=O)(=O)[O-])ccc4F)c4nc(c(-c5cc(S(=O)(=O)[O-])ccc5F)c5ccc2[nH]5)C=C4)C=C3)cc1
REMARK SMILES IDX 31 1 30 2 29 3 28 4 27 5 2 6 1 7 3 8 4 9 18 10 19 11 26 12
REMARK SMILES IDX 20 13 22 14 21 15 23 16 24 17 25 18 5 19 6 20 7 22 8 23 9 24
REMARK SMILES IDX 16 25 17 26 10 27 14 28 12 29 11 30 15 31 13 32 32 33 33 34
REMARK SMILES IDX 34 35 35 36 36 37 37 38 38 39 39 40 40 41 101 42 41 43
REMARK SMILES IDX 100 44 42 45 43 46 44 47 94 48 45 49 99 50 93 51 95 52 46 53
REMARK SMILES IDX 98 54 92 55 91 56 47 58 79 59 59 60 78 61 60 62 63 63 77 64
REMARK SMILES IDX 96 65 61 66 62 67 76 69 97 70 64 71 48 72 49 73 57 74 50 75
REMARK SMILES IDX 56 76 58 77 55 78 51 79 52 80 53 81 54 82 80 83 81 84 89 85
REMARK SMILES IDX 82 86 88 87 90 88 87 89 83 90 84 91 85 92 86 93 65 94 66 95
REMARK SMILES IDX 74 96 67 97 73 98 75 99 72 100 68 101 69 102 70 103 71 104
REMARK H PARENT 5 21 95 57 63 68
REMARK Flexibility Score: inf
ROOT
ATOM      1  C   UNL A   1      33.217  28.169  25.690  1.00  0.00     0.188 C 
ENDROOT
BRANCH   1   2
ATOM      2  O   UNL A   1      32.674  27.054  25.008  1.00  0.00    -0.376 OA
BRANCH   2   3
ATOM      3  C   UNL A   1      32.668  27.025  23.586  1.00  0.00     0.202 C 
BRANCH   3   4
ATOM      4  C   UNL A   1      32.748  25.664  22.897  1.00  0.00     0.261 C 
BRANCH   4   5
ATOM      5  O   UNL A   1      33.881  24.766  23.117  1.00  0.00    -0.463 OA
BRANCH   5   6
ATOM      6  C   UNL A   1      34.150  23.473  22.860  1.00  0.00     0.308 C 
ATOM      7  O   UNL A   1      33.274  22.761  22.373  1.00  0.00    -0.252 OA
BRANCH   6   8
ATOM      8  C   UNL A   1      35.508  22.913  23.146  1.00  0.00     0.152 C 
BRANCH   8   9
ATOM      9  C   UNL A   1      35.532  21.948  24.330  1.00  0.00     0.123 C 
BRANCH   9  10
ATOM     10  C   UNL A   1      36.819  22.136  25.111  1.00  0.00    -0.018 A 
ATOM     11  C   UNL A   1      37.199  23.355  25.685  1.00  0.00     0.006 A 
ATOM     12  C   UNL A   1      37.705  21.043  25.189  1.00  0.00     0.091 A 
ATOM     13  C   UNL A   1      38.437  23.483  26.326  1.00  0.00     0.007 A 
ATOM     14  C   UNL A   1      38.952  21.183  25.808  1.00  0.00     0.269 A 
ATOM     15  C   UNL A   1      39.319  22.401  26.384  1.00  0.00     0.085 A 
BRANCH  14  16
ATOM     16  N   UNL A   1      39.892  20.056  25.796  1.00  0.00     0.062 N 
ATOM     17  O   UNL A   1      39.441  18.941  25.502  1.00  0.00    -0.258 OA
ATOM     18  O   UNL A   1      41.065  20.293  26.114  1.00  0.00    -0.258 OA
ENDBRANCH  14  16
ENDBRANCH   9  10
BRANCH   9  19
ATOM     19  N   UNL A   1      34.325  22.013  25.150  1.00  0.00    -0.348 N 
ATOM     20  C   UNL A   1      33.366  21.109  25.473  1.00  0.00     0.226 C 
ATOM     21  H   UNL A   1      34.176  22.899  25.553  1.00  0.00     0.164 HD
ATOM     22  O   UNL A   1      32.410  21.566  26.109  1.00  0.00    -0.274 OA
BRANCH  20  23
ATOM     23  C   UNL A   1      33.411  19.634  25.044  1.00  0.00     0.050 C 
ATOM     24  C   UNL A   1      32.657  19.490  23.685  1.00  0.00     0.020 C 
ATOM     25  C   UNL A   1      32.693  18.710  26.054  1.00  0.00     0.020 C 
ATOM     26  C   UNL A   1      34.861  19.157  24.799  1.00  0.00     0.020 C 
ATOM     27  C   UNL A   1      32.654  18.030  23.201  1.00  0.00    -0.010 C 
ATOM     28  C   UNL A   1      32.722  17.252  25.584  1.00  0.00    -0.010 C 
ATOM     29  C   UNL A   1      34.873  17.688  24.337  1.00  0.00    -0.010 C 
ATOM     30  C   UNL A   1      34.105  17.561  23.012  1.00  0.00     0.007 C 
ATOM     31  C   UNL A   1      31.971  17.146  24.254  1.00  0.00     0.007 C 
ATOM     32  C   UNL A   1      34.188  16.816  25.403  1.00  0.00     0.007 C 
ENDBRANCH  20  23
ENDBRANCH   9  19
ENDBRANCH   8   9
ENDBRANCH   6   8
ENDBRANCH   5   6
ENDBRANCH   4   5
ENDBRANCH   3   4
ENDBRANCH   2   3
ENDBRANCH   1   2
BRANCH   1  33
ATOM     33  C   UNL A   1      32.177  29.177  26.192  1.00  0.00     0.188 C 
BRANCH  33  34
ATOM     34  O   UNL A   1      32.479  30.555  26.039  1.00  0.00    -0.376 OA
BRANCH  34  35
ATOM     35  C   UNL A   1      31.498  31.499  26.473  1.00  0.00     0.202 C 
BRANCH  35  36
ATOM     36  C   UNL A   1      31.950  32.925  26.830  1.00  0.00     0.261 C 
BRANCH  36  37
ATOM     37  O   UNL A   1      32.807  33.015  27.989  1.00  0.00    -0.460 OA
BRANCH  37  38
ATOM     38  C   UNL A   1      33.963  33.703  27.810  1.00  0.00     0.338 C 
ATOM     39  O   UNL A   1      34.076  34.886  27.541  1.00  0.00    -0.246 OA
BRANCH  38  40
ATOM     40  C   UNL A   1      35.133  32.848  28.090  1.00  0.00     0.060 A 
ATOM     41  C   UNL A   1      34.943  31.474  28.301  1.00  0.00     0.016 A 
ATOM     42  C   UNL A   1      36.379  33.431  28.317  1.00  0.00     0.016 A 
ATOM     43  C   UNL A   1      35.997  30.682  28.770  1.00  0.00     0.010 A 
ATOM     44  C   UNL A   1      37.425  32.642  28.807  1.00  0.00     0.010 A 
ATOM     45  C   UNL A   1      37.231  31.272  29.070  1.00  0.00    -0.014 A 
BRANCH  45  46
ATOM     46  C   UNL A   1      38.267  30.541  29.845  1.00  0.00     0.031 A 
ATOM     47  C   UNL A   1      38.481  30.920  31.284  1.00  0.00     0.074 A 
ATOM     48  C   UNL A   1      39.051  29.612  29.271  1.00  0.00     0.049 A 
ATOM     49  N   UNL A   1      39.451  30.594  32.100  1.00  0.00    -0.248 NA
ATOM     50  C   UNL A   1      37.467  31.805  31.873  1.00  0.00     0.031 C 
ATOM     51  C   UNL A   1      38.908  29.114  27.906  1.00  0.00     0.029 A 
ATOM     52  N   UNL A   1      40.152  28.953  29.762  1.00  0.00    -0.354 N 
ATOM     53  C   UNL A   1      39.177  31.253  33.294  1.00  0.00     0.074 A 
ATOM     54  C   UNL A   1      37.963  32.014  33.082  1.00  0.00     0.031 C 
ATOM     55  C   UNL A   1      39.916  28.260  27.650  1.00  0.00     0.029 A 
ATOM     56  C   UNL A   1      40.801  28.198  28.813  1.00  0.00     0.049 A 
ATOM     57  H   UNL A   1      40.447  29.015  30.699  1.00  0.00     0.167 HD
ATOM     58  C   UNL A   1      39.877  31.229  34.456  1.00  0.00     0.034 A 
ATOM     59  C   UNL A   1      41.999  27.578  28.856  1.00  0.00     0.034 A 
ATOM     60  C   UNL A   1      41.097  30.480  34.641  1.00  0.00     0.049 A 
ATOM     61  C   UNL A   1      42.820  27.637  30.123  1.00  0.00     0.074 A 
ATOM     62  C   UNL A   1      41.875  30.364  35.780  1.00  0.00     0.029 A 
ATOM     63  N   UNL A   1      41.732  29.739  33.651  1.00  0.00    -0.354 N 
ATOM     64  N   UNL A   1      42.559  28.260  31.250  1.00  0.00    -0.248 NA
ATOM     65  C   UNL A   1      44.096  26.906  30.126  1.00  0.00     0.031 C 
ATOM     66  C   UNL A   1      43.017  29.621  35.457  1.00  0.00     0.029 A 
ATOM     67  C   UNL A   1      42.912  29.198  34.142  1.00  0.00     0.049 A 
ATOM     68  H   UNL A   1      41.393  29.615  32.735  1.00  0.00     0.167 HD
ATOM     69  C   UNL A   1      43.621  27.969  32.104  1.00  0.00     0.074 A 
ATOM     70  C   UNL A   1      44.529  27.119  31.361  1.00  0.00     0.031 C 
ATOM     71  C   UNL A   1      43.819  28.358  33.390  1.00  0.00     0.034 A 
BRANCH  58  72
ATOM     72  C   UNL A   1      39.370  32.102  35.581  1.00  0.00     0.023 A 
ATOM     73  C   UNL A   1      39.789  33.436  35.733  1.00  0.00     0.031 A 
ATOM     74  C   UNL A   1      38.509  31.569  36.558  1.00  0.00     0.131 A 
ATOM     75  C   UNL A   1      39.430  34.155  36.884  1.00  0.00     0.055 A 
ATOM     76  C   UNL A   1      38.081  32.322  37.653  1.00  0.00     0.041 A 
ATOM     77  F   UNL A   1      38.093  30.295  36.481  1.00  0.00    -0.206 F 
ATOM     78  C   UNL A   1      38.560  33.615  37.834  1.00  0.00     0.022 A 
BRANCH  75  79
ATOM     79  S   UNL A   1      40.273  35.727  37.216  1.00  0.00     0.124 S 
ATOM     80  O   UNL A   1      39.906  35.972  38.610  1.00  0.00    -0.237 OA
ATOM     81  O   UNL A   1      41.672  35.392  36.974  1.00  0.00    -0.237 OA
ATOM     82  O   UNL A   1      39.673  36.648  36.252  1.00  0.00    -0.744 OA
ENDBRANCH  75  79
ENDBRANCH  58  72
BRANCH  59  83
ATOM     83  C   UNL A   1      42.535  26.919  27.630  1.00  0.00     0.023 A 
ATOM     84  C   UNL A   1      42.614  25.524  27.519  1.00  0.00     0.031 A 
ATOM     85  C   UNL A   1      42.994  27.697  26.549  1.00  0.00     0.131 A 
ATOM     86  C   UNL A   1      43.166  24.946  26.363  1.00  0.00     0.055 A 
ATOM     87  C   UNL A   1      43.496  27.117  25.383  1.00  0.00     0.041 A 
ATOM     88  F   UNL A   1      42.941  29.037  26.605  1.00  0.00    -0.206 F 
ATOM     89  C   UNL A   1      43.590  25.733  25.289  1.00  0.00     0.022 A 
BRANCH  86  90
ATOM     90  S   UNL A   1      43.376  23.145  26.298  1.00  0.00     0.124 S 
ATOM     91  O   UNL A   1      44.825  23.014  26.394  1.00  0.00    -0.237 OA
ATOM     92  O   UNL A   1      42.613  22.703  27.460  1.00  0.00    -0.237 OA
ATOM     93  O   UNL A   1      42.800  22.784  25.003  1.00  0.00    -0.744 OA
ENDBRANCH  86  90
ENDBRANCH  59  83
BRANCH  71  94
ATOM     94  C   UNL A   1      45.034  27.818  34.108  1.00  0.00     0.023 A 
ATOM     95  C   UNL A   1      45.039  26.557  34.729  1.00  0.00     0.031 A 
ATOM     96  C   UNL A   1      46.219  28.575  34.139  1.00  0.00     0.131 A 
ATOM     97  C   UNL A   1      46.198  26.105  35.382  1.00  0.00     0.055 A 
ATOM     98  C   UNL A   1      47.383  28.099  34.743  1.00  0.00     0.041 A 
ATOM     99  F   UNL A   1      46.271  29.787  33.563  1.00  0.00    -0.206 F 
ATOM    100  C   UNL A   1      47.374  26.860  35.377  1.00  0.00     0.022 A 
BRANCH  97 101
ATOM    101  S   UNL A   1      46.139  24.536  36.292  1.00  0.00     0.124 S 
ATOM    102  O   UNL A   1      47.189  23.764  35.636  1.00  0.00    -0.237 OA
ATOM    103  O   UNL A   1      46.419  24.958  37.661  1.00  0.00    -0.237 OA
ATOM    104  O   UNL A   1      44.779  24.055  36.061  1.00  0.00    -0.744 OA
ENDBRANCH  97 101
ENDBRANCH  71  94
ENDBRANCH  45  46
ENDBRANCH  38  40
ENDBRANCH  37  38
ENDBRANCH  36  37
ENDBRANCH  35  36
ENDBRANCH  34  35
ENDBRANCH  33  34
ENDBRANCH   1  33
TORSDOF 25
ENDMDL
MODEL 2
REMARK VINA RESULT:     -10.3      5.270     11.049
REMARK SMILES O=C(C[C@H](NC(=O)[C@]12C[C@H]3C[C@H](C[C@H](C3)C1)C2)c1cccc([N+](=O)[O-])c1)OCCOCCOCCOC(=O)c1ccc(-c2c3nc(c(-c4cc(S(=O)(=O)[O-])ccc4F)c4ccc([nH]4)c(-c4cc(S(=O)(=O)[O-])ccc4F)c4nc(c(-c5cc(S(=O)(=O)[O-])ccc5F)c5ccc2[nH]5)C=C4)C=C3)cc1
REMARK SMILES IDX 31 1 30 2 29 3 28 4 27 5 2 6 1 7 3 8 4 9 18 10 19 11 26 12
REMARK SMILES IDX 20 13 22 14 21 15 23 16 24 17 25 18 5 19 6 20 7 22 8 23 9 24
REMARK SMILES IDX 16 25 17 26 10 27 14 28 12 29 11 30 15 31 13 32 32 33 33 34
REMARK SMILES IDX 34 35 35 36 36 37 37 38 38 39 39 40 40 41 101 42 41 43
REMARK SMILES IDX 100 44 42 45 43 46 44 47 94 48 45 49 99 50 93 51 95 52 46 53
REMARK SMILES IDX 98 54 92 55 91 56 47 58 79 59 59 60 78 61 60 62 63 63 77 64
REMARK SMILES IDX 96 65 61 66 62 67 76 69 97 70 64 71 48 72 49 73 57 74 50 75
REMARK SMILES IDX 56 76 58 77 55 78 51 79 52 80 53 81 54 82 80 83 81 84 89 85
REMARK SMILES IDX 82 86 88 87 90 88 87 89 83 90 84 91 85 92 86 93 65 94 66 95
REMARK SMILES IDX 74 96 67 97 73 98 75 99 72 100 68 101 69 102 70 103 71 104
REMARK H PARENT 5 21 95 57 63 68
REMARK Flexibility Score: inf
ROOT
ATOM      1  C   UNL A   1      40.911  21.553  26.969  1.00  0.00     0.188 C 
ENDROOT
BRANCH   1   2
ATOM      2  O   UNL A   1      39.621  22.113  27.136  1.00  0.00    -0.376 OA
BRANCH   2   3
ATOM      3  C   UNL A   1      38.982  22.760  26.043  1.00  0.00     0.202 C 
BRANCH   3   4
ATOM      4  C   UNL A   1      37.755  22.087  25.430  1.00  0.00     0.261 C 
BRANCH   4   5
ATOM      5  O   UNL A   1      36.416  22.650  25.597  1.00  0.00    -0.463 OA
BRANCH   5   6
ATOM      6  C   UNL A   1      35.171  22.304  25.221  1.00  0.00     0.308 C 
ATOM      7  O   UNL A   1      34.855  22.388  24.035  1.00  0.00    -0.252 OA
BRANCH   6   8
ATOM      8  C   UNL A   1      34.187  21.806  26.231  1.00  0.00     0.152 C 
BRANCH   8   9
ATOM      9  C   UNL A   1      32.831  21.438  25.633  1.00  0.00     0.123 C 
BRANCH   9  10
ATOM     10  C   UNL A   1      32.762  19.938  25.417  1.00  0.00    -0.018 A 
ATOM     11  C   UNL A   1      32.678  19.012  26.464  1.00  0.00     0.006 A 
ATOM     12  C   UNL A   1      32.868  19.459  24.096  1.00  0.00     0.091 A 
ATOM     13  C   UNL A   1      32.697  17.639  26.201  1.00  0.00     0.007 A 
ATOM     14  C   UNL A   1      32.913  18.084  23.840  1.00  0.00     0.269 A 
ATOM     15  C   UNL A   1      32.821  17.170  24.891  1.00  0.00     0.085 A 
BRANCH  14  16
ATOM     16  N   UNL A   1      33.115  17.614  22.464  1.00  0.00     0.062 N 
ATOM     17  O   UNL A   1      34.062  16.843  22.259  1.00  0.00    -0.258 OA
ATOM     18  O   UNL A   1      32.344  18.049  21.598  1.00  0.00    -0.258 OA
ENDBRANCH  14  16
ENDBRANCH   9  10
BRANCH   9  19
ATOM     19  N   UNL A   1      31.703  21.981  26.385  1.00  0.00    -0.348 N 
ATOM     20  C   UNL A   1      31.139  23.213  26.461  1.00  0.00     0.226 C 
ATOM     21  H   UNL A   1      31.260  21.314  26.958  1.00  0.00     0.164 HD
ATOM     22  O   UNL A   1      30.252  23.329  27.314  1.00  0.00    -0.274 OA
BRANCH  20  23
ATOM     23  C   UNL A   1      31.587  24.407  25.604  1.00  0.00     0.050 C 
ATOM     24  C   UNL A   1      30.482  25.507  25.670  1.00  0.00     0.020 C 
ATOM     25  C   UNL A   1      31.752  24.027  24.115  1.00  0.00     0.020 C 
ATOM     26  C   UNL A   1      32.883  25.046  26.154  1.00  0.00     0.020 C 
ATOM     27  C   UNL A   1      30.864  26.732  24.822  1.00  0.00    -0.010 C 
ATOM     28  C   UNL A   1      32.166  25.243  23.279  1.00  0.00    -0.010 C 
ATOM     29  C   UNL A   1      33.289  26.260  25.298  1.00  0.00    -0.010 C 
ATOM     30  C   UNL A   1      32.179  27.322  25.354  1.00  0.00     0.007 C 
ATOM     31  C   UNL A   1      31.060  26.299  23.362  1.00  0.00     0.007 C 
ATOM     32  C   UNL A   1      33.483  25.810  23.840  1.00  0.00     0.007 C 
ENDBRANCH  20  23
ENDBRANCH   9  19
ENDBRANCH   8   9
ENDBRANCH   6   8
ENDBRANCH   5   6
ENDBRANCH   4   5
ENDBRANCH   3   4
ENDBRANCH   2   3
ENDBRANCH   1   2
BRANCH   1  33
ATOM     33  C   UNL A   1      40.927  20.029  26.800  1.00  0.00     0.188 C 
BRANCH  33  34
ATOM     34  O   UNL A   1      41.894  19.483  25.918  1.00  0.00    -0.376 OA
BRANCH  34  35
ATOM     35  C   UNL A   1      42.676  18.385  26.393  1.00  0.00     0.202 C 
BRANCH  35  36
ATOM     36  C   UNL A   1      43.953  17.998  25.628  1.00  0.00     0.261 C 
BRANCH  36  37
ATOM     37  O   UNL A   1      45.018  18.972  25.697  1.00  0.00    -0.460 OA
BRANCH  37  38
ATOM     38  C   UNL A   1      45.122  19.802  24.629  1.00  0.00     0.338 C 
ATOM     39  O   UNL A   1      45.379  19.485  23.480  1.00  0.00    -0.246 OA
BRANCH  38  40
ATOM     40  C   UNL A   1      44.775  21.187  25.001  1.00  0.00     0.060 A 
ATOM     41  C   UNL A   1      44.482  22.115  23.990  1.00  0.00     0.016 A 
ATOM     42  C   UNL A   1      44.913  21.604  26.324  1.00  0.00     0.016 A 
ATOM     43  C   UNL A   1      44.355  23.474  24.298  1.00  0.00     0.010 A 
ATOM     44  C   UNL A   1      44.807  22.966  26.625  1.00  0.00     0.010 A 
ATOM     45  C   UNL A   1      44.563  23.912  25.611  1.00  0.00    -0.014 A 
BRANCH  45  46
ATOM     46  C   UNL A   1      44.737  25.354  25.924  1.00  0.00     0.031 A 
ATOM     47  C   UNL A   1      46.122  25.938  25.852  1.00  0.00     0.074 A 
ATOM     48  C   UNL A   1      43.708  26.116  26.332  1.00  0.00     0.049 A 
ATOM     49  N   UNL A   1      46.566  27.092  26.280  1.00  0.00    -0.248 NA
ATOM     50  C   UNL A   1      47.144  25.090  25.226  1.00  0.00     0.031 C 
ATOM     51  C   UNL A   1      42.312  25.689  26.388  1.00  0.00     0.029 A 
ATOM     52  N   UNL A   1      43.691  27.402  26.816  1.00  0.00    -0.354 N 
ATOM     53  C   UNL A   1      47.928  27.100  25.997  1.00  0.00     0.074 A 
ATOM     54  C   UNL A   1      48.234  25.824  25.382  1.00  0.00     0.031 C 
ATOM     55  C   UNL A   1      41.578  26.679  26.924  1.00  0.00     0.029 A 
ATOM     56  C   UNL A   1      42.461  27.784  27.299  1.00  0.00     0.049 A 
ATOM     57  H   UNL A   1      44.480  27.991  26.816  1.00  0.00     0.167 HD
ATOM     58  C   UNL A   1      48.838  28.078  26.232  1.00  0.00     0.034 A 
ATOM     59  C   UNL A   1      42.101  28.871  28.014  1.00  0.00     0.034 A 
ATOM     60  C   UNL A   1      48.517  29.335  26.866  1.00  0.00     0.049 A 
ATOM     61  C   UNL A   1      43.141  29.911  28.358  1.00  0.00     0.074 A 
ATOM     62  C   UNL A   1      49.352  30.406  27.132  1.00  0.00     0.029 A 
ATOM     63  N   UNL A   1      47.262  29.680  27.356  1.00  0.00    -0.354 N 
ATOM     64  N   UNL A   1      44.427  29.916  28.090  1.00  0.00    -0.248 NA
ATOM     65  C   UNL A   1      42.680  31.094  29.100  1.00  0.00     0.031 C 
ATOM     66  C   UNL A   1      48.624  31.361  27.852  1.00  0.00     0.029 A 
ATOM     67  C   UNL A   1      47.312  30.928  27.959  1.00  0.00     0.049 A 
ATOM     68  H   UNL A   1      46.456  29.120  27.285  1.00  0.00     0.167 HD
ATOM     69  C   UNL A   1      44.920  31.116  28.600  1.00  0.00     0.074 A 
ATOM     70  C   UNL A   1      43.796  31.805  29.197  1.00  0.00     0.031 C 
ATOM     71  C   UNL A   1      46.186  31.606  28.564  1.00  0.00     0.034 A 
BRANCH  58  72
ATOM     72  C   UNL A   1      50.275  27.782  25.870  1.00  0.00     0.023 A 
ATOM     73  C   UNL A   1      50.774  27.992  24.572  1.00  0.00     0.031 A 
ATOM     74  C   UNL A   1      51.142  27.213  26.821  1.00  0.00     0.131 A 
ATOM     75  C   UNL A   1      52.060  27.544  24.235  1.00  0.00     0.055 A 
ATOM     76  C   UNL A   1      52.453  26.855  26.502  1.00  0.00     0.041 A 
ATOM     77  F   UNL A   1      50.719  26.966  28.071  1.00  0.00    -0.206 F 
ATOM     78  C   UNL A   1      52.912  26.999  25.197  1.00  0.00     0.022 A 
BRANCH  75  79
ATOM     79  S   UNL A   1      52.529  27.506  22.482  1.00  0.00     0.124 S 
ATOM     80  O   UNL A   1      53.025  26.139  22.338  1.00  0.00    -0.237 OA
ATOM     81  O   UNL A   1      51.268  27.802  21.813  1.00  0.00    -0.237 OA
ATOM     82  O   UNL A   1      53.552  28.545  22.378  1.00  0.00    -0.744 OA
ENDBRANCH  75  79
ENDBRANCH  58  72
BRANCH  59  83
ATOM     83  C   UNL A   1      40.705  28.988  28.527  1.00  0.00     0.023 A 
ATOM     84  C   UNL A   1      40.407  28.844  29.889  1.00  0.00     0.031 A 
ATOM     85  C   UNL A   1      39.640  29.231  27.638  1.00  0.00     0.131 A 
ATOM     86  C   UNL A   1      39.073  28.919  30.323  1.00  0.00     0.055 A 
ATOM     87  C   UNL A   1      38.322  29.353  28.080  1.00  0.00     0.041 A 
ATOM     88  F   UNL A   1      39.872  29.375  26.323  1.00  0.00    -0.206 F 
ATOM     89  C   UNL A   1      38.032  29.189  29.430  1.00  0.00     0.022 A 
BRANCH  86  90
ATOM     90  S   UNL A   1      38.700  28.602  32.071  1.00  0.00     0.124 S 
ATOM     91  O   UNL A   1      39.947  29.001  32.714  1.00  0.00    -0.237 OA
ATOM     92  O   UNL A   1      37.552  29.471  32.303  1.00  0.00    -0.237 OA
ATOM     93  O   UNL A   1      38.411  27.170  32.102  1.00  0.00    -0.744 OA
ENDBRANCH  86  90
ENDBRANCH  59  83
BRANCH  71  94
ATOM     94  C   UNL A   1      46.420  32.988  29.130  1.00  0.00     0.023 A 
ATOM     95  C   UNL A   1      46.216  34.153  28.372  1.00  0.00     0.031 A 
ATOM     96  C   UNL A   1      46.825  33.133  30.470  1.00  0.00     0.131 A 
ATOM     97  C   UNL A   1      46.447  35.413  28.951  1.00  0.00     0.055 A 
ATOM     98  C   UNL A   1      47.003  34.387  31.055  1.00  0.00     0.041 A 
ATOM     99  F   UNL A   1      47.036  32.053  31.240  1.00  0.00    -0.206 F 
ATOM    100  C   UNL A   1      46.823  35.536  30.292  1.00  0.00     0.022 A 
BRANCH  97 101
ATOM    101  S   UNL A   1      46.310  36.896  27.915  1.00  0.00     0.124 S 
ATOM    102  O   UNL A   1      44.900  36.874  27.539  1.00  0.00    -0.237 OA
ATOM    103  O   UNL A   1      46.708  37.958  28.833  1.00  0.00    -0.237 OA
ATOM    104  O   UNL A   1      47.247  36.641  26.822  1.00  0.00    -0.744 OA
ENDBRANCH  97 101
ENDBRANCH  71  94
ENDBRANCH  45  46
ENDBRANCH  38  40
ENDBRANCH  37  38
ENDBRANCH  36  37
ENDBRANCH  35  36
ENDBRANCH  34  35
ENDBRANCH  33  34
ENDBRANCH   1  33
TORSDOF 25
ENDMDL
MODEL 3
REMARK VINA RESULT:     -10.1      1.974      3.708
REMARK SMILES O=C(C[C@H](NC(=O)[C@]12C[C@H]3C[C@H](C[C@H](C3)C1)C2)c1cccc([N+](=O)[O-])c1)OCCOCCOCCOC(=O)c1ccc(-c2c3nc(c(-c4cc(S(=O)(=O)[O-])ccc4F)c4ccc([nH]4)c(-c4cc(S(=O)(=O)[O-])ccc4F)c4nc(c(-c5cc(S(=O)(=O)[O-])ccc5F)c5ccc2[nH]5)C=C4)C=C3)cc1
REMARK SMILES IDX 31 1 30 2 29 3 28 4 27 5 2 6 1 7 3 8 4 9 18 10 19 11 26 12
REMARK SMILES IDX 20 13 22 14 21 15 23 16 24 17 25 18 5 19 6 20 7 22 8 23 9 24
REMARK SMILES IDX 16 25 17 26 10 27 14 28 12 29 11 30 15 31 13 32 32 33 33 34
REMARK SMILES IDX 34 35 35 36 36 37 37 38 38 39 39 40 40 41 101 42 41 43
REMARK SMILES IDX 100 44 42 45 43 46 44 47 94 48 45 49 99 50 93 51 95 52 46 53
REMARK SMILES IDX 98 54 92 55 91 56 47 58 79 59 59 60 78 61 60 62 63 63 77 64
REMARK SMILES IDX 96 65 61 66 62 67 76 69 97 70 64 71 48 72 49 73 57 74 50 75
REMARK SMILES IDX 56 76 58 77 55 78 51 79 52 80 53 81 54 82 80 83 81 84 89 85
REMARK SMILES IDX 82 86 88 87 90 88 87 89 83 90 84 91 85 92 86 93 65 94 66 95
REMARK SMILES IDX 74 96 67 97 73 98 75 99 72 100 68 101 69 102 70 103 71 104
REMARK H PARENT 5 21 95 57 63 68
REMARK Flexibility Score: inf
ROOT
ATOM      1  C   UNL A   1      30.963  28.311  23.009  1.00  0.00     0.188 C 
ENDROOT
BRANCH   1   2
ATOM      2  O   UNL A   1      31.309  27.127  23.704  1.00  0.00    -0.376 OA
BRANCH   2   3
ATOM      3  C   UNL A   1      30.309  26.397  24.403  1.00  0.00     0.202 C 
BRANCH   3   4
ATOM      4  C   UNL A   1      30.681  25.783  25.751  1.00  0.00     0.261 C 
BRANCH   4   5
ATOM      5  O   UNL A   1      30.059  24.546  26.221  1.00  0.00    -0.463 OA
BRANCH   5   6
ATOM      6  C   UNL A   1      30.477  23.294  26.479  1.00  0.00     0.308 C 
ATOM      7  O   UNL A   1      30.733  22.971  27.638  1.00  0.00    -0.252 OA
BRANCH   6   8
ATOM      8  C   UNL A   1      30.614  22.299  25.370  1.00  0.00     0.152 C 
BRANCH   8   9
ATOM      9  C   UNL A   1      32.032  22.200  24.811  1.00  0.00     0.123 C 
BRANCH   9  10
ATOM     10  C   UNL A   1      32.190  20.894  24.055  1.00  0.00    -0.018 A 
ATOM     11  C   UNL A   1      32.028  20.782  22.669  1.00  0.00     0.006 A 
ATOM     12  C   UNL A   1      32.433  19.726  24.806  1.00  0.00     0.091 A 
ATOM     13  C   UNL A   1      32.109  19.533  22.043  1.00  0.00     0.007 A 
ATOM     14  C   UNL A   1      32.487  18.477  24.179  1.00  0.00     0.269 A 
ATOM     15  C   UNL A   1      32.332  18.377  22.795  1.00  0.00     0.085 A 
BRANCH  14  16
ATOM     16  N   UNL A   1      32.651  17.268  24.995  1.00  0.00     0.062 N 
ATOM     17  O   UNL A   1      32.898  16.210  24.402  1.00  0.00    -0.258 OA
ATOM     18  O   UNL A   1      32.497  17.385  26.218  1.00  0.00    -0.258 OA
ENDBRANCH  14  16
ENDBRANCH   9  10
BRANCH   9  19
ATOM     19  N   UNL A   1      32.433  23.378  24.047  1.00  0.00    -0.348 N 
ATOM     20  C   UNL A   1      33.619  24.011  23.860  1.00  0.00     0.226 C 
ATOM     21  H   UNL A   1      31.685  23.804  23.568  1.00  0.00     0.164 HD
ATOM     22  O   UNL A   1      33.552  25.072  23.229  1.00  0.00    -0.274 OA
BRANCH  20  23
ATOM     23  C   UNL A   1      34.952  23.500  24.428  1.00  0.00     0.050 C 
ATOM     24  C   UNL A   1      34.674  22.211  25.264  1.00  0.00     0.020 C 
ATOM     25  C   UNL A   1      35.608  24.520  25.385  1.00  0.00     0.020 C 
ATOM     26  C   UNL A   1      35.932  23.095  23.302  1.00  0.00     0.020 C 
ATOM     27  C   UNL A   1      35.970  21.651  25.872  1.00  0.00    -0.010 C 
ATOM     28  C   UNL A   1      36.918  23.971  25.962  1.00  0.00    -0.010 C 
ATOM     29  C   UNL A   1      37.244  22.554  23.899  1.00  0.00    -0.010 C 
ATOM     30  C   UNL A   1      36.948  21.302  24.739  1.00  0.00     0.007 C 
ATOM     31  C   UNL A   1      36.608  22.713  26.778  1.00  0.00     0.007 C 
ATOM     32  C   UNL A   1      37.870  23.630  24.802  1.00  0.00     0.007 C 
ENDBRANCH  20  23
ENDBRANCH   9  19
ENDBRANCH   8   9
ENDBRANCH   6   8
ENDBRANCH   5   6
ENDBRANCH   4   5
ENDBRANCH   3   4
ENDBRANCH   2   3
ENDBRANCH   1   2
BRANCH   1  33
ATOM     33  C   UNL A   1      30.927  29.573  23.878  1.00  0.00     0.188 C 
BRANCH  33  34
ATOM     34  O   UNL A   1      31.052  29.401  25.281  1.00  0.00    -0.376 OA
BRANCH  34  35
ATOM     35  C   UNL A   1      32.319  29.695  25.873  1.00  0.00     0.202 C 
BRANCH  35  36
ATOM     36  C   UNL A   1      32.400  30.795  26.943  1.00  0.00     0.261 C 
BRANCH  36  37
ATOM     37  O   UNL A   1      33.361  31.838  26.667  1.00  0.00    -0.460 OA
BRANCH  37  38
ATOM     38  C   UNL A   1      34.012  32.336  27.749  1.00  0.00     0.338 C 
ATOM     39  O   UNL A   1      33.625  33.223  28.490  1.00  0.00    -0.246 OA
BRANCH  38  40
ATOM     40  C   UNL A   1      35.255  31.583  28.008  1.00  0.00     0.060 A 
ATOM     41  C   UNL A   1      35.187  30.195  28.202  1.00  0.00     0.016 A 
ATOM     42  C   UNL A   1      36.447  32.270  28.234  1.00  0.00     0.016 A 
ATOM     43  C   UNL A   1      36.311  29.493  28.653  1.00  0.00     0.010 A 
ATOM     44  C   UNL A   1      37.561  31.569  28.706  1.00  0.00     0.010 A 
ATOM     45  C   UNL A   1      37.490  30.185  28.952  1.00  0.00    -0.014 A 
BRANCH  45  46
ATOM     46  C   UNL A   1      38.592  29.537  29.709  1.00  0.00     0.031 A 
ATOM     47  C   UNL A   1      38.946  30.086  31.064  1.00  0.00     0.074 A 
ATOM     48  C   UNL A   1      39.314  28.532  29.183  1.00  0.00     0.049 A 
ATOM     49  N   UNL A   1      39.988  29.846  31.818  1.00  0.00    -0.248 NA
ATOM     50  C   UNL A   1      37.997  31.053  31.632  1.00  0.00     0.031 C 
ATOM     51  C   UNL A   1      39.038  27.873  27.910  1.00  0.00     0.029 A 
ATOM     52  N   UNL A   1      40.454  27.920  29.645  1.00  0.00    -0.354 N 
ATOM     53  C   UNL A   1      39.833  30.651  32.942  1.00  0.00     0.074 A 
ATOM     54  C   UNL A   1      38.608  31.400  32.754  1.00  0.00     0.031 C 
ATOM     55  C   UNL A   1      40.012  26.978  27.667  1.00  0.00     0.029 A 
ATOM     56  C   UNL A   1      41.005  27.044  28.739  1.00  0.00     0.049 A 
ATOM     57  H   UNL A   1      40.838  28.092  30.535  1.00  0.00     0.167 HD
ATOM     58  C   UNL A   1      40.641  30.758  34.027  1.00  0.00     0.034 A 
ATOM     59  C   UNL A   1      42.199  26.415  28.745  1.00  0.00     0.034 A 
ATOM     60  C   UNL A   1      41.870  30.018  34.186  1.00  0.00     0.049 A 
ATOM     61  C   UNL A   1      43.138  26.615  29.912  1.00  0.00     0.074 A 
ATOM     62  C   UNL A   1      42.753  30.029  35.252  1.00  0.00     0.029 A 
ATOM     63  N   UNL A   1      42.404  29.150  33.240  1.00  0.00    -0.354 N 
ATOM     64  N   UNL A   1      42.990  27.376  30.972  1.00  0.00    -0.248 NA
ATOM     65  C   UNL A   1      44.405  25.869  29.883  1.00  0.00     0.031 C 
ATOM     66  C   UNL A   1      43.855  29.234  34.917  1.00  0.00     0.029 A 
ATOM     67  C   UNL A   1      43.623  28.655  33.679  1.00  0.00     0.049 A 
ATOM     68  H   UNL A   1      41.978  28.921  32.382  1.00  0.00     0.167 HD
ATOM     69  C   UNL A   1      44.127  27.174  31.751  1.00  0.00     0.074 A 
ATOM     70  C   UNL A   1      44.955  26.225  31.036  1.00  0.00     0.031 C 
ATOM     71  C   UNL A   1      44.449  27.715  32.955  1.00  0.00     0.034 A 
BRANCH  58  72
ATOM     72  C   UNL A   1      40.249  31.770  35.079  1.00  0.00     0.023 A 
ATOM     73  C   UNL A   1      39.441  31.427  36.177  1.00  0.00     0.031 A 
ATOM     74  C   UNL A   1      40.632  33.117  34.943  1.00  0.00     0.131 A 
ATOM     75  C   UNL A   1      38.960  32.429  37.033  1.00  0.00     0.055 A 
ATOM     76  C   UNL A   1      40.226  34.095  35.853  1.00  0.00     0.041 A 
ATOM     77  F   UNL A   1      41.385  33.512  33.904  1.00  0.00    -0.206 F 
ATOM     78  C   UNL A   1      39.366  33.758  36.893  1.00  0.00     0.022 A 
BRANCH  75  79
ATOM     79  S   UNL A   1      37.644  32.002  38.209  1.00  0.00     0.124 S 
ATOM     80  O   UNL A   1      36.639  33.021  37.911  1.00  0.00    -0.237 OA
ATOM     81  O   UNL A   1      37.306  30.638  37.820  1.00  0.00    -0.237 OA
ATOM     82  O   UNL A   1      38.292  32.141  39.512  1.00  0.00    -0.744 OA
ENDBRANCH  75  79
ENDBRANCH  58  72
BRANCH  59  83
ATOM     83  C   UNL A   1      42.611  25.602  27.564  1.00  0.00     0.023 A 
ATOM     84  C   UNL A   1      42.205  24.269  27.410  1.00  0.00     0.031 A 
ATOM     85  C   UNL A   1      43.443  26.160  26.574  1.00  0.00     0.131 A 
ATOM     86  C   UNL A   1      42.652  23.527  26.304  1.00  0.00     0.055 A 
ATOM     87  C   UNL A   1      43.845  25.433  25.452  1.00  0.00     0.041 A 
ATOM     88  F   UNL A   1      43.862  27.431  26.675  1.00  0.00    -0.206 F 
ATOM     89  C   UNL A   1      43.454  24.106  25.317  1.00  0.00     0.022 A 
BRANCH  86  90
ATOM     90  S   UNL A   1      42.217  21.768  26.194  1.00  0.00     0.124 S 
ATOM     91  O   UNL A   1      40.780  21.835  25.956  1.00  0.00    -0.237 OA
ATOM     92  O   UNL A   1      43.034  21.319  25.072  1.00  0.00    -0.237 OA
ATOM     93  O   UNL A   1      42.610  21.240  27.499  1.00  0.00    -0.744 OA
ENDBRANCH  86  90
ENDBRANCH  59  83
BRANCH  71  94
ATOM     94  C   UNL A   1      45.725  27.246  33.615  1.00  0.00     0.023 A 
ATOM     95  C   UNL A   1      45.772  26.102  34.431  1.00  0.00     0.031 A 
ATOM     96  C   UNL A   1      46.924  27.949  33.393  1.00  0.00     0.131 A 
ATOM     97  C   UNL A   1      46.987  25.713  35.019  1.00  0.00     0.055 A 
ATOM     98  C   UNL A   1      48.138  27.528  33.937  1.00  0.00     0.041 A 
ATOM     99  F   UNL A   1      46.938  29.049  32.624  1.00  0.00    -0.206 F 
ATOM    100  C   UNL A   1      48.172  26.408  34.763  1.00  0.00     0.022 A 
BRANCH  97 101
ATOM    101  S   UNL A   1      46.996  24.314  36.175  1.00  0.00     0.124 S 
ATOM    102  O   UNL A   1      45.867  24.632  37.045  1.00  0.00    -0.237 OA
ATOM    103  O   UNL A   1      46.814  23.172  35.287  1.00  0.00    -0.237 OA
ATOM    104  O   UNL A   1      48.310  24.400  36.809  1.00  0.00    -0.744 OA
ENDBRANCH  97 101
ENDBRANCH  71  94
ENDBRANCH  45  46
ENDBRANCH  38  40
ENDBRANCH  37  38
ENDBRANCH  36  37
ENDBRANCH  35  36
ENDBRANCH  34  35
ENDBRANCH  33  34
ENDBRANCH   1  33
TORSDOF 25
ENDMDL
