MODEL 1
REMARK VINA RESULT:     -12.5      0.000      0.000
REMARK SMILES O=C(OCCOCCOCCOC(=O)[C@@H]1[C@H](C(=O)NCc2ccncc2)[C@H]2C=C[C@@H]1O2)c1ccc(-c2c3nc(c(-c4cc(S(=O)(=O)[O-])ccc4F)c4ccc([nH]4)c(-c4cc(S(=O)(=O)[O-])ccc4F)c4nc(c(-c5cc(S(=O)(=O)[O-])ccc5F)c5ccc2[nH]5)C=C4)C=C3)cc1
REMARK SMILES IDX 7 1 6 2 5 3 4 4 3 5 2 6 1 7 32 8 33 9 94 10 34 11 93 12
REMARK SMILES IDX 35 13 36 14 37 15 87 16 38 17 92 18 86 19 88 20 39 21 91 22
REMARK SMILES IDX 85 23 84 24 40 26 72 27 52 28 71 29 53 30 56 31 70 32 89 33
REMARK SMILES IDX 54 34 55 35 69 37 90 38 57 39 41 40 42 41 50 42 43 43 49 44
REMARK SMILES IDX 51 45 48 46 44 47 45 48 46 49 47 50 73 51 74 52 82 53 75 54
REMARK SMILES IDX 81 55 83 56 80 57 76 58 77 59 78 60 79 61 58 62 59 63 67 64
REMARK SMILES IDX 60 65 66 66 68 67 65 68 61 69 62 70 63 71 64 72 8 73 9 74
REMARK SMILES IDX 10 75 11 76 12 77 13 78 14 79 15 80 16 81 30 82 27 83 29 84
REMARK SMILES IDX 31 85 28 86 17 87 18 88 19 89 20 91 21 92 22 93 26 94 23 95
REMARK SMILES IDX 25 96 24 97
REMARK H PARENT 88 25 56 36 19 90
REMARK Flexibility Score: inf
ROOT
ATOM      1  C   UNL A   1      42.135  20.733  26.283  1.00  0.00     0.188 C 
ENDROOT
BRANCH   1   2
ATOM      2  O   UNL A   1      43.181  20.947  25.332  1.00  0.00    -0.376 OA
BRANCH   2   3
ATOM      3  C   UNL A   1      44.206  21.932  25.396  1.00  0.00     0.202 C 
BRANCH   3   4
ATOM      4  C   UNL A   1      44.186  22.991  24.311  1.00  0.00     0.261 C 
BRANCH   4   5
ATOM      5  O   UNL A   1      43.499  24.220  24.621  1.00  0.00    -0.460 OA
BRANCH   5   6
ATOM      6  C   UNL A   1      44.171  25.249  25.194  1.00  0.00     0.338 C 
ATOM      7  O   UNL A   1      45.336  25.500  24.918  1.00  0.00    -0.246 OA
BRANCH   6   8
ATOM      8  C   UNL A   1      43.355  26.096  26.121  1.00  0.00     0.060 A 
ATOM      9  C   UNL A   1      43.740  27.403  26.474  1.00  0.00     0.016 A 
ATOM     10  C   UNL A   1      42.133  25.593  26.581  1.00  0.00     0.016 A 
ATOM     11  C   UNL A   1      42.864  28.244  27.155  1.00  0.00     0.010 A 
ATOM     12  C   UNL A   1      41.332  26.373  27.419  1.00  0.00     0.010 A 
ATOM     13  C   UNL A   1      41.718  27.690  27.732  1.00  0.00    -0.014 A 
BRANCH  13  14
ATOM     14  C   UNL A   1      41.293  28.273  29.027  1.00  0.00     0.031 A 
ATOM     15  C   UNL A   1      40.061  29.115  28.961  1.00  0.00     0.074 A 
ATOM     16  C   UNL A   1      41.894  28.027  30.201  1.00  0.00     0.049 A 
ATOM     17  N   UNL A   1      39.375  29.629  29.936  1.00  0.00    -0.248 NA
ATOM     18  C   UNL A   1      39.467  29.318  27.627  1.00  0.00     0.031 C 
ATOM     19  C   UNL A   1      42.926  27.033  30.382  1.00  0.00     0.029 A 
ATOM     20  N   UNL A   1      41.742  28.554  31.451  1.00  0.00    -0.354 N 
ATOM     21  C   UNL A   1      38.232  30.136  29.340  1.00  0.00     0.074 A 
ATOM     22  C   UNL A   1      38.316  29.881  27.925  1.00  0.00     0.031 C 
ATOM     23  C   UNL A   1      43.427  27.095  31.624  1.00  0.00     0.029 A 
ATOM     24  C   UNL A   1      42.700  28.124  32.347  1.00  0.00     0.049 A 
ATOM     25  H   UNL A   1      41.021  29.180  31.690  1.00  0.00     0.167 HD
ATOM     26  C   UNL A   1      37.212  30.786  29.935  1.00  0.00     0.034 A 
ATOM     27  C   UNL A   1      42.951  28.524  33.608  1.00  0.00     0.034 A 
ATOM     28  C   UNL A   1      37.292  31.198  31.307  1.00  0.00     0.049 A 
ATOM     29  C   UNL A   1      41.953  29.479  34.199  1.00  0.00     0.074 A 
ATOM     30  C   UNL A   1      36.437  32.014  32.013  1.00  0.00     0.029 A 
ATOM     31  N   UNL A   1      38.350  30.878  32.159  1.00  0.00    -0.354 N 
ATOM     32  N   UNL A   1      40.882  29.984  33.624  1.00  0.00    -0.248 NA
ATOM     33  C   UNL A   1      42.144  29.884  35.592  1.00  0.00     0.031 C 
ATOM     34  C   UNL A   1      37.028  32.270  33.254  1.00  0.00     0.029 A 
ATOM     35  C   UNL A   1      38.194  31.520  33.370  1.00  0.00     0.049 A 
ATOM     36  H   UNL A   1      39.098  30.280  31.930  1.00  0.00     0.167 HD
ATOM     37  C   UNL A   1      40.234  30.721  34.600  1.00  0.00     0.074 A 
ATOM     38  C   UNL A   1      41.054  30.615  35.797  1.00  0.00     0.031 C 
ATOM     39  C   UNL A   1      39.058  31.395  34.526  1.00  0.00     0.034 A 
BRANCH  26  40
ATOM     40  C   UNL A   1      36.103  31.220  29.015  1.00  0.00     0.023 A 
ATOM     41  C   UNL A   1      35.667  32.561  28.983  1.00  0.00     0.031 A 
ATOM     42  C   UNL A   1      35.327  30.255  28.357  1.00  0.00     0.131 A 
ATOM     43  C   UNL A   1      34.425  32.872  28.409  1.00  0.00     0.055 A 
ATOM     44  C   UNL A   1      34.146  30.592  27.695  1.00  0.00     0.041 A 
ATOM     45  F   UNL A   1      35.658  28.955  28.414  1.00  0.00    -0.206 F 
ATOM     46  C   UNL A   1      33.676  31.903  27.740  1.00  0.00     0.022 A 
BRANCH  43  47
ATOM     47  S   UNL A   1      33.688  34.495  28.769  1.00  0.00     0.124 S 
ATOM     48  O   UNL A   1      34.741  35.403  28.320  1.00  0.00    -0.237 OA
ATOM     49  O   UNL A   1      32.474  34.479  27.961  1.00  0.00    -0.237 OA
ATOM     50  O   UNL A   1      33.477  34.463  30.215  1.00  0.00    -0.744 OA
ENDBRANCH  43  47
ENDBRANCH  26  40
BRANCH  27  51
ATOM     51  C   UNL A   1      44.163  28.048  34.340  1.00  0.00     0.023 A 
ATOM     52  C   UNL A   1      44.160  26.898  35.145  1.00  0.00     0.031 A 
ATOM     53  C   UNL A   1      45.374  28.765  34.236  1.00  0.00     0.131 A 
ATOM     54  C   UNL A   1      45.329  26.513  35.831  1.00  0.00     0.055 A 
ATOM     55  C   UNL A   1      46.540  28.361  34.892  1.00  0.00     0.041 A 
ATOM     56  F   UNL A   1      45.445  29.871  33.478  1.00  0.00    -0.206 F 
ATOM     57  C   UNL A   1      46.521  27.232  35.701  1.00  0.00     0.022 A 
BRANCH  54  58
ATOM     58  S   UNL A   1      45.266  25.084  36.951  1.00  0.00     0.124 S 
ATOM     59  O   UNL A   1      44.169  24.308  36.384  1.00  0.00    -0.237 OA
ATOM     60  O   UNL A   1      46.603  24.520  36.795  1.00  0.00    -0.237 OA
ATOM     61  O   UNL A   1      44.995  25.684  38.256  1.00  0.00    -0.744 OA
ENDBRANCH  54  58
ENDBRANCH  27  51
BRANCH  39  62
ATOM     62  C   UNL A   1      38.566  32.031  35.792  1.00  0.00     0.023 A 
ATOM     63  C   UNL A   1      37.972  31.277  36.813  1.00  0.00     0.031 A 
ATOM     64  C   UNL A   1      38.763  33.408  35.994  1.00  0.00     0.131 A 
ATOM     65  C   UNL A   1      37.563  31.917  37.989  1.00  0.00     0.055 A 
ATOM     66  C   UNL A   1      38.421  34.024  37.193  1.00  0.00     0.041 A 
ATOM     67  F   UNL A   1      39.324  34.167  35.036  1.00  0.00    -0.206 F 
ATOM     68  C   UNL A   1      37.810  33.278  38.197  1.00  0.00     0.022 A 
BRANCH  65  69
ATOM     69  S   UNL A   1      36.636  30.959  39.213  1.00  0.00     0.124 S 
ATOM     70  O   UNL A   1      35.464  31.802  39.427  1.00  0.00    -0.237 OA
ATOM     71  O   UNL A   1      36.397  29.701  38.512  1.00  0.00    -0.237 OA
ATOM     72  O   UNL A   1      37.555  30.874  40.346  1.00  0.00    -0.744 OA
ENDBRANCH  65  69
ENDBRANCH  39  62
ENDBRANCH  13  14
ENDBRANCH   6   8
ENDBRANCH   5   6
ENDBRANCH   4   5
ENDBRANCH   3   4
ENDBRANCH   2   3
ENDBRANCH   1   2
BRANCH   1  73
ATOM     73  C   UNL A   1      41.773  21.837  27.397  1.00  0.00     0.188 C 
BRANCH  73  74
ATOM     74  O   UNL A   1      40.339  22.526  27.580  1.00  0.00    -0.376 OA
BRANCH  74  75
ATOM     75  C   UNL A   1      39.064  23.851  26.775  1.00  0.00     0.202 C 
BRANCH  75  76
ATOM     76  C   UNL A   1      37.411  23.671  26.129  1.00  0.00     0.261 C 
BRANCH  76  77
ATOM     77  O   UNL A   1      36.827  22.416  25.632  1.00  0.00    -0.463 OA
BRANCH  77  78
ATOM     78  C   UNL A   1      35.727  22.332  24.835  1.00  0.00     0.312 C 
ATOM     79  O   UNL A   1      35.401  21.293  24.269  1.00  0.00    -0.252 OA
BRANCH  78  80
ATOM     80  C   UNL A   1      34.828  23.598  24.791  1.00  0.00     0.147 C 
ATOM     81  C   UNL A   1      33.660  23.800  25.787  1.00  0.00     0.128 C 
ATOM     82  C   UNL A   1      34.094  23.843  23.428  1.00  0.00     0.157 C 
ATOM     83  C   UNL A   1      32.462  24.119  24.845  1.00  0.00     0.155 C 
ATOM     84  C   UNL A   1      33.632  25.269  23.279  1.00  0.00     0.004 C 
ATOM     85  O   UNL A   1      32.768  23.309  23.676  1.00  0.00    -0.365 OA
ATOM     86  C   UNL A   1      32.636  25.442  24.164  1.00  0.00     0.004 C 
BRANCH  81  87
ATOM     87  C   UNL A   1      33.401  22.739  26.874  1.00  0.00     0.227 C 
ATOM     88  O   UNL A   1      33.887  22.878  27.998  1.00  0.00    -0.275 OA
ATOM     89  N   UNL A   1      32.669  21.609  26.646  1.00  0.00    -0.352 N 
ATOM     90  H   UNL A   1      32.505  21.006  27.406  1.00  0.00     0.163 HD
BRANCH  89  91
ATOM     91  C   UNL A   1      32.127  21.249  25.379  1.00  0.00     0.151 C 
BRANCH  91  92
ATOM     92  C   UNL A   1      32.510  19.943  24.748  1.00  0.00    -0.026 A 
ATOM     93  C   UNL A   1      32.927  18.339  25.521  1.00  0.00     0.025 A 
ATOM     94  C   UNL A   1      32.242  19.951  22.918  1.00  0.00     0.025 A 
ATOM     95  C   UNL A   1      33.136  16.922  24.473  1.00  0.00     0.111 A 
ATOM     96  C   UNL A   1      32.516  18.467  22.007  1.00  0.00     0.111 A 
ATOM     97  N   UNL A   1      32.961  16.974  22.760  1.00  0.00    -0.265 NA
ENDBRANCH  91  92
ENDBRANCH  89  91
ENDBRANCH  81  87
ENDBRANCH  78  80
ENDBRANCH  77  78
ENDBRANCH  76  77
ENDBRANCH  75  76
ENDBRANCH  74  75
ENDBRANCH  73  74
ENDBRANCH   1  73
TORSDOF 23
ENDMDL
MODEL 2
REMARK VINA RESULT:     -12.3      2.416      8.356
REMARK SMILES O=C(OCCOCCOCCOC(=O)[C@@H]1[C@H](C(=O)NCc2ccncc2)[C@H]2C=C[C@@H]1O2)c1ccc(-c2c3nc(c(-c4cc(S(=O)(=O)[O-])ccc4F)c4ccc([nH]4)c(-c4cc(S(=O)(=O)[O-])ccc4F)c4nc(c(-c5cc(S(=O)(=O)[O-])ccc5F)c5ccc2[nH]5)C=C4)C=C3)cc1
REMARK SMILES IDX 7 1 6 2 5 3 4 4 3 5 2 6 1 7 32 8 33 9 94 10 34 11 93 12
REMARK SMILES IDX 35 13 36 14 37 15 87 16 38 17 92 18 86 19 88 20 39 21 91 22
REMARK SMILES IDX 85 23 84 24 40 26 72 27 52 28 71 29 53 30 56 31 70 32 89 33
REMARK SMILES IDX 54 34 55 35 69 37 90 38 57 39 41 40 42 41 50 42 43 43 49 44
REMARK SMILES IDX 51 45 48 46 44 47 45 48 46 49 47 50 73 51 74 52 82 53 75 54
REMARK SMILES IDX 81 55 83 56 80 57 76 58 77 59 78 60 79 61 58 62 59 63 67 64
REMARK SMILES IDX 60 65 66 66 68 67 65 68 61 69 62 70 63 71 64 72 8 73 9 74
REMARK SMILES IDX 10 75 11 76 12 77 13 78 14 79 15 80 16 81 30 82 27 83 29 84
REMARK SMILES IDX 31 85 28 86 17 87 18 88 19 89 20 91 21 92 22 93 26 94 23 95
REMARK SMILES IDX 25 96 24 97
REMARK H PARENT 88 25 56 36 19 90
REMARK Flexibility Score: inf
ROOT
ATOM      1  C   UNL A   1      32.741  29.997  26.615  1.00  0.00     0.188 C 
ENDROOT
BRANCH   1   2
ATOM      2  O   UNL A   1      31.567  30.812  26.669  1.00  0.00    -0.376 OA
BRANCH   2   3
ATOM      3  C   UNL A   1      31.511  32.216  26.895  1.00  0.00     0.202 C 
BRANCH   3   4
ATOM      4  C   UNL A   1      32.825  32.895  27.227  1.00  0.00     0.261 C 
BRANCH   4   5
ATOM      5  O   UNL A   1      32.743  34.159  27.916  1.00  0.00    -0.460 OA
BRANCH   5   6
ATOM      6  C   UNL A   1      33.538  34.403  28.987  1.00  0.00     0.338 C 
ATOM      7  O   UNL A   1      33.269  35.261  29.816  1.00  0.00    -0.246 OA
BRANCH   6   8
ATOM      8  C   UNL A   1      34.718  33.490  29.117  1.00  0.00     0.060 A 
ATOM      9  C   UNL A   1      34.592  32.166  29.578  1.00  0.00     0.016 A 
ATOM     10  C   UNL A   1      35.968  33.950  28.687  1.00  0.00     0.016 A 
ATOM     11  C   UNL A   1      35.657  31.275  29.483  1.00  0.00     0.010 A 
ATOM     12  C   UNL A   1      37.081  33.110  28.763  1.00  0.00     0.010 A 
ATOM     13  C   UNL A   1      36.928  31.780  29.193  1.00  0.00    -0.014 A 
BRANCH  13  14
ATOM     14  C   UNL A   1      38.065  31.109  29.869  1.00  0.00     0.031 A 
ATOM     15  C   UNL A   1      38.341  31.590  31.257  1.00  0.00     0.074 A 
ATOM     16  C   UNL A   1      38.767  30.096  29.341  1.00  0.00     0.049 A 
ATOM     17  N   UNL A   1      39.161  31.102  32.137  1.00  0.00    -0.248 NA
ATOM     18  C   UNL A   1      37.508  32.700  31.752  1.00  0.00     0.031 C 
ATOM     19  C   UNL A   1      38.402  29.415  28.121  1.00  0.00     0.029 A 
ATOM     20  N   UNL A   1      39.902  29.447  29.736  1.00  0.00    -0.354 N 
ATOM     21  C   UNL A   1      38.879  31.788  33.306  1.00  0.00     0.074 A 
ATOM     22  C   UNL A   1      37.826  32.730  33.028  1.00  0.00     0.031 C 
ATOM     23  C   UNL A   1      39.349  28.533  27.772  1.00  0.00     0.029 A 
ATOM     24  C   UNL A   1      40.383  28.561  28.793  1.00  0.00     0.049 A 
ATOM     25  H   UNL A   1      40.336  29.596  30.607  1.00  0.00     0.167 HD
ATOM     26  C   UNL A   1      39.479  31.653  34.506  1.00  0.00     0.034 A 
ATOM     27  C   UNL A   1      41.530  27.857  28.768  1.00  0.00     0.034 A 
ATOM     28  C   UNL A   1      40.662  30.857  34.660  1.00  0.00     0.049 A 
ATOM     29  C   UNL A   1      42.358  27.919  30.020  1.00  0.00     0.074 A 
ATOM     30  C   UNL A   1      41.495  30.754  35.751  1.00  0.00     0.029 A 
ATOM     31  N   UNL A   1      41.221  30.082  33.642  1.00  0.00    -0.354 N 
ATOM     32  N   UNL A   1      42.106  28.593  31.121  1.00  0.00    -0.248 NA
ATOM     33  C   UNL A   1      43.577  27.111  30.067  1.00  0.00     0.031 C 
ATOM     34  C   UNL A   1      42.608  30.002  35.361  1.00  0.00     0.029 A 
ATOM     35  C   UNL A   1      42.416  29.536  34.065  1.00  0.00     0.049 A 
ATOM     36  H   UNL A   1      40.822  29.945  32.753  1.00  0.00     0.167 HD
ATOM     37  C   UNL A   1      43.101  28.248  32.019  1.00  0.00     0.074 A 
ATOM     38  C   UNL A   1      43.975  27.322  31.317  1.00  0.00     0.031 C 
ATOM     39  C   UNL A   1      43.261  28.634  33.311  1.00  0.00     0.034 A 
BRANCH  26  40
ATOM     40  C   UNL A   1      38.949  32.548  35.594  1.00  0.00     0.023 A 
ATOM     41  C   UNL A   1      39.357  33.894  35.692  1.00  0.00     0.031 A 
ATOM     42  C   UNL A   1      38.233  31.992  36.665  1.00  0.00     0.131 A 
ATOM     43  C   UNL A   1      39.148  34.596  36.889  1.00  0.00     0.055 A 
ATOM     44  C   UNL A   1      37.937  32.732  37.809  1.00  0.00     0.041 A 
ATOM     45  F   UNL A   1      37.881  30.697  36.654  1.00  0.00    -0.206 F 
ATOM     46  C   UNL A   1      38.416  34.034  37.937  1.00  0.00     0.022 A 
BRANCH  43  47
ATOM     47  S   UNL A   1      40.060  36.146  37.154  1.00  0.00     0.124 S 
ATOM     48  O   UNL A   1      39.953  36.779  35.842  1.00  0.00    -0.237 OA
ATOM     49  O   UNL A   1      39.307  36.779  38.231  1.00  0.00    -0.237 OA
ATOM     50  O   UNL A   1      41.404  35.696  37.512  1.00  0.00    -0.744 OA
ENDBRANCH  43  47
ENDBRANCH  26  40
BRANCH  27  51
ATOM     51  C   UNL A   1      41.937  27.090  27.552  1.00  0.00     0.023 A 
ATOM     52  C   UNL A   1      41.802  25.696  27.455  1.00  0.00     0.031 A 
ATOM     53  C   UNL A   1      42.484  27.769  26.443  1.00  0.00     0.131 A 
ATOM     54  C   UNL A   1      42.226  25.026  26.290  1.00  0.00     0.055 A 
ATOM     55  C   UNL A   1      42.874  27.103  25.277  1.00  0.00     0.041 A 
ATOM     56  F   UNL A   1      42.636  29.103  26.471  1.00  0.00    -0.206 F 
ATOM     57  C   UNL A   1      42.753  25.722  25.198  1.00  0.00     0.022 A 
BRANCH  54  58
ATOM     58  S   UNL A   1      42.140  23.212  26.234  1.00  0.00     0.124 S 
ATOM     59  O   UNL A   1      42.777  22.922  24.955  1.00  0.00    -0.237 OA
ATOM     60  O   UNL A   1      42.890  22.837  27.428  1.00  0.00    -0.237 OA
ATOM     61  O   UNL A   1      40.705  22.936  26.292  1.00  0.00    -0.744 OA
ENDBRANCH  54  58
ENDBRANCH  27  51
BRANCH  39  62
ATOM     62  C   UNL A   1      44.402  28.013  34.062  1.00  0.00     0.023 A 
ATOM     63  C   UNL A   1      44.316  26.721  34.598  1.00  0.00     0.031 A 
ATOM     64  C   UNL A   1      45.615  28.714  34.177  1.00  0.00     0.131 A 
ATOM     65  C   UNL A   1      45.424  26.177  35.258  1.00  0.00     0.055 A 
ATOM     66  C   UNL A   1      46.734  28.140  34.770  1.00  0.00     0.041 A 
ATOM     67  F   UNL A   1      45.736  29.958  33.681  1.00  0.00    -0.206 F 
ATOM     68  C   UNL A   1      46.639  26.866  35.322  1.00  0.00     0.022 A 
BRANCH  65  69
ATOM     69  S   UNL A   1      45.230  24.586  36.098  1.00  0.00     0.124 S 
ATOM     70  O   UNL A   1      45.891  24.839  37.375  1.00  0.00    -0.237 OA
ATOM     71  O   UNL A   1      43.779  24.433  36.152  1.00  0.00    -0.237 OA
ATOM     72  O   UNL A   1      45.921  23.649  35.216  1.00  0.00    -0.744 OA
ENDBRANCH  65  69
ENDBRANCH  39  62
ENDBRANCH  13  14
ENDBRANCH   6   8
ENDBRANCH   5   6
ENDBRANCH   4   5
ENDBRANCH   3   4
ENDBRANCH   2   3
ENDBRANCH   1   2
BRANCH   1  73
ATOM     73  C   UNL A   1      32.742  28.574  25.864  1.00  0.00     0.188 C 
BRANCH  73  74
ATOM     74  O   UNL A   1      33.579  28.230  24.543  1.00  0.00    -0.376 OA
BRANCH  74  75
ATOM     75  C   UNL A   1      33.446  27.441  22.701  1.00  0.00     0.202 C 
BRANCH  75  76
ATOM     76  C   UNL A   1      33.163  25.772  22.139  1.00  0.00     0.261 C 
BRANCH  76  77
ATOM     77  O   UNL A   1      33.090  24.587  23.006  1.00  0.00    -0.463 OA
BRANCH  77  78
ATOM     78  C   UNL A   1      33.824  24.403  24.136  1.00  0.00     0.312 C 
ATOM     79  O   UNL A   1      33.665  25.087  25.143  1.00  0.00    -0.252 OA
BRANCH  78  80
ATOM     80  C   UNL A   1      34.786  23.184  24.126  1.00  0.00     0.147 C 
ATOM     81  C   UNL A   1      34.544  21.950  25.029  1.00  0.00     0.128 C 
ATOM     82  C   UNL A   1      36.278  23.513  24.476  1.00  0.00     0.157 C 
ATOM     83  C   UNL A   1      35.916  21.778  25.744  1.00  0.00     0.155 C 
ATOM     84  C   UNL A   1      37.223  22.437  24.010  1.00  0.00     0.004 C 
ATOM     85  O   UNL A   1      36.365  23.155  25.879  1.00  0.00    -0.365 OA
ATOM     86  C   UNL A   1      36.988  21.363  24.782  1.00  0.00     0.004 C 
BRANCH  81  87
ATOM     87  C   UNL A   1      33.300  21.910  25.937  1.00  0.00     0.227 C 
ATOM     88  O   UNL A   1      33.264  22.595  26.962  1.00  0.00    -0.275 OA
ATOM     89  N   UNL A   1      32.221  21.115  25.680  1.00  0.00    -0.352 N 
ATOM     90  H   UNL A   1      31.443  21.186  26.280  1.00  0.00     0.163 HD
BRANCH  89  91
ATOM     91  C   UNL A   1      32.148  20.192  24.598  1.00  0.00     0.151 C 
BRANCH  91  92
ATOM     92  C   UNL A   1      32.685  18.801  24.767  1.00  0.00    -0.026 A 
ATOM     93  C   UNL A   1      32.393  17.578  26.095  1.00  0.00     0.025 A 
ATOM     94  C   UNL A   1      33.547  18.200  23.245  1.00  0.00     0.025 A 
ATOM     95  C   UNL A   1      33.024  15.932  25.886  1.00  0.00     0.111 A 
ATOM     96  C   UNL A   1      34.143  16.542  23.197  1.00  0.00     0.111 A 
ATOM     97  N   UNL A   1      33.897  15.420  24.491  1.00  0.00    -0.265 NA
ENDBRANCH  91  92
ENDBRANCH  89  91
ENDBRANCH  81  87
ENDBRANCH  78  80
ENDBRANCH  77  78
ENDBRANCH  76  77
ENDBRANCH  75  76
ENDBRANCH  74  75
ENDBRANCH  73  74
ENDBRANCH   1  73
TORSDOF 23
ENDMDL
MODEL 3
REMARK VINA RESULT:     -12.2      2.545      8.565
REMARK SMILES O=C(OCCOCCOCCOC(=O)[C@@H]1[C@H](C(=O)NCc2ccncc2)[C@H]2C=C[C@@H]1O2)c1ccc(-c2c3nc(c(-c4cc(S(=O)(=O)[O-])ccc4F)c4ccc([nH]4)c(-c4cc(S(=O)(=O)[O-])ccc4F)c4nc(c(-c5cc(S(=O)(=O)[O-])ccc5F)c5ccc2[nH]5)C=C4)C=C3)cc1
REMARK SMILES IDX 7 1 6 2 5 3 4 4 3 5 2 6 1 7 32 8 33 9 94 10 34 11 93 12
REMARK SMILES IDX 35 13 36 14 37 15 87 16 38 17 92 18 86 19 88 20 39 21 91 22
REMARK SMILES IDX 85 23 84 24 40 26 72 27 52 28 71 29 53 30 56 31 70 32 89 33
REMARK SMILES IDX 54 34 55 35 69 37 90 38 57 39 41 40 42 41 50 42 43 43 49 44
REMARK SMILES IDX 51 45 48 46 44 47 45 48 46 49 47 50 73 51 74 52 82 53 75 54
REMARK SMILES IDX 81 55 83 56 80 57 76 58 77 59 78 60 79 61 58 62 59 63 67 64
REMARK SMILES IDX 60 65 66 66 68 67 65 68 61 69 62 70 63 71 64 72 8 73 9 74
REMARK SMILES IDX 10 75 11 76 12 77 13 78 14 79 15 80 16 81 30 82 27 83 29 84
REMARK SMILES IDX 31 85 28 86 17 87 18 88 19 89 20 91 21 92 22 93 26 94 23 95
REMARK SMILES IDX 25 96 24 97
REMARK H PARENT 88 25 56 36 19 90
REMARK Flexibility Score: inf
ROOT
ATOM      1  C   UNL A   1      32.733  30.080  26.254  1.00  0.00     0.188 C 
ENDROOT
BRANCH   1   2
ATOM      2  O   UNL A   1      31.549  30.873  26.366  1.00  0.00    -0.376 OA
BRANCH   2   3
ATOM      3  C   UNL A   1      31.471  32.248  26.726  1.00  0.00     0.202 C 
BRANCH   3   4
ATOM      4  C   UNL A   1      32.716  32.850  27.348  1.00  0.00     0.261 C 
BRANCH   4   5
ATOM      5  O   UNL A   1      32.608  34.206  27.826  1.00  0.00    -0.460 OA
BRANCH   5   6
ATOM      6  C   UNL A   1      33.395  34.632  28.845  1.00  0.00     0.338 C 
ATOM      7  O   UNL A   1      33.144  35.646  29.482  1.00  0.00    -0.246 OA
BRANCH   6   8
ATOM      8  C   UNL A   1      34.539  33.725  29.179  1.00  0.00     0.060 A 
ATOM      9  C   UNL A   1      34.381  32.591  29.998  1.00  0.00     0.016 A 
ATOM     10  C   UNL A   1      35.783  33.976  28.589  1.00  0.00     0.016 A 
ATOM     11  C   UNL A   1      35.400  31.650  30.115  1.00  0.00     0.010 A 
ATOM     12  C   UNL A   1      36.861  33.129  28.853  1.00  0.00     0.010 A 
ATOM     13  C   UNL A   1      36.674  31.981  29.645  1.00  0.00    -0.014 A 
BRANCH  13  14
ATOM     14  C   UNL A   1      37.815  31.462  30.436  1.00  0.00     0.031 A 
ATOM     15  C   UNL A   1      38.598  30.378  29.769  1.00  0.00     0.074 A 
ATOM     16  C   UNL A   1      38.196  31.950  31.626  1.00  0.00     0.049 A 
ATOM     17  N   UNL A   1      39.718  29.837  30.141  1.00  0.00    -0.248 NA
ATOM     18  C   UNL A   1      38.107  29.917  28.457  1.00  0.00     0.031 C 
ATOM     19  C   UNL A   1      37.650  33.151  32.213  1.00  0.00     0.029 A 
ATOM     20  N   UNL A   1      39.113  31.537  32.549  1.00  0.00    -0.354 N 
ATOM     21  C   UNL A   1      40.103  29.043  29.074  1.00  0.00     0.074 A 
ATOM     22  C   UNL A   1      39.101  29.160  28.046  1.00  0.00     0.031 C 
ATOM     23  C   UNL A   1      38.125  33.326  33.455  1.00  0.00     0.029 A 
ATOM     24  C   UNL A   1      39.060  32.250  33.730  1.00  0.00     0.049 A 
ATOM     25  H   UNL A   1      39.749  30.802  32.390  1.00  0.00     0.167 HD
ATOM     26  C   UNL A   1      41.197  28.260  28.983  1.00  0.00     0.034 A 
ATOM     27  C   UNL A   1      39.701  32.046  34.897  1.00  0.00     0.034 A 
ATOM     28  C   UNL A   1      42.037  28.020  30.121  1.00  0.00     0.049 A 
ATOM     29  C   UNL A   1      40.750  30.970  34.883  1.00  0.00     0.074 A 
ATOM     30  C   UNL A   1      43.072  27.122  30.254  1.00  0.00     0.029 A 
ATOM     31  N   UNL A   1      41.872  28.643  31.359  1.00  0.00    -0.354 N 
ATOM     32  N   UNL A   1      41.098  30.195  33.878  1.00  0.00    -0.248 NA
ATOM     33  C   UNL A   1      41.524  30.763  36.107  1.00  0.00     0.031 C 
ATOM     34  C   UNL A   1      43.464  27.128  31.596  1.00  0.00     0.029 A 
ATOM     35  C   UNL A   1      42.755  28.113  32.277  1.00  0.00     0.049 A 
ATOM     36  H   UNL A   1      41.221  29.356  31.550  1.00  0.00     0.167 HD
ATOM     37  C   UNL A   1      42.172  29.446  34.325  1.00  0.00     0.074 A 
ATOM     38  C   UNL A   1      42.398  29.846  35.705  1.00  0.00     0.031 C 
ATOM     39  C   UNL A   1      42.922  28.536  33.652  1.00  0.00     0.034 A 
BRANCH  26  40
ATOM     40  C   UNL A   1      41.343  27.509  27.687  1.00  0.00     0.023 A 
ATOM     41  C   UNL A   1      41.057  26.130  27.609  1.00  0.00     0.031 A 
ATOM     42  C   UNL A   1      41.996  28.113  26.602  1.00  0.00     0.131 A 
ATOM     43  C   UNL A   1      41.534  25.385  26.520  1.00  0.00     0.055 A 
ATOM     44  C   UNL A   1      42.372  27.383  25.475  1.00  0.00     0.041 A 
ATOM     45  F   UNL A   1      42.354  29.406  26.653  1.00  0.00    -0.206 F 
ATOM     46  C   UNL A   1      42.164  26.006  25.439  1.00  0.00     0.022 A 
BRANCH  43  47
ATOM     47  S   UNL A   1      41.548  23.572  26.653  1.00  0.00     0.124 S 
ATOM     48  O   UNL A   1      40.157  23.243  26.348  1.00  0.00    -0.237 OA
ATOM     49  O   UNL A   1      42.529  23.186  25.645  1.00  0.00    -0.237 OA
ATOM     50  O   UNL A   1      41.948  23.332  28.038  1.00  0.00    -0.744 OA
ENDBRANCH  43  47
ENDBRANCH  26  40
BRANCH  27  51
ATOM     51  C   UNL A   1      39.355  32.839  36.114  1.00  0.00     0.023 A 
ATOM     52  C   UNL A   1      39.918  34.096  36.385  1.00  0.00     0.031 A 
ATOM     53  C   UNL A   1      38.429  32.327  37.047  1.00  0.00     0.131 A 
ATOM     54  C   UNL A   1      39.570  34.786  37.563  1.00  0.00     0.055 A 
ATOM     55  C   UNL A   1      38.062  33.030  38.199  1.00  0.00     0.041 A 
ATOM     56  F   UNL A   1      37.851  31.132  36.845  1.00  0.00    -0.206 F 
ATOM     57  C   UNL A   1      38.640  34.265  38.467  1.00  0.00     0.022 A 
BRANCH  54  58
ATOM     58  S   UNL A   1      40.395  36.360  37.942  1.00  0.00     0.124 S 
ATOM     59  O   UNL A   1      39.327  37.109  38.593  1.00  0.00    -0.237 OA
ATOM     60  O   UNL A   1      41.494  35.926  38.799  1.00  0.00    -0.237 OA
ATOM     61  O   UNL A   1      40.796  36.861  36.627  1.00  0.00    -0.744 OA
ENDBRANCH  54  58
ENDBRANCH  27  51
BRANCH  39  62
ATOM     62  C   UNL A   1      44.089  27.948  34.389  1.00  0.00     0.023 A 
ATOM     63  C   UNL A   1      43.962  26.787  35.163  1.00  0.00     0.031 A 
ATOM     64  C   UNL A   1      45.359  28.533  34.248  1.00  0.00     0.131 A 
ATOM     65  C   UNL A   1      45.092  26.261  35.800  1.00  0.00     0.055 A 
ATOM     66  C   UNL A   1      46.490  27.964  34.824  1.00  0.00     0.041 A 
ATOM     67  F   UNL A   1      45.521  29.650  33.518  1.00  0.00    -0.206 F 
ATOM     68  C   UNL A   1      46.358  26.824  35.612  1.00  0.00     0.022 A 
BRANCH  65  69
ATOM     69  S   UNL A   1      44.870  24.872  36.939  1.00  0.00     0.124 S 
ATOM     70  O   UNL A   1      43.656  25.259  37.651  1.00  0.00    -0.237 OA
ATOM     71  O   UNL A   1      44.741  23.737  36.030  1.00  0.00    -0.237 OA
ATOM     72  O   UNL A   1      46.091  24.890  37.741  1.00  0.00    -0.744 OA
ENDBRANCH  65  69
ENDBRANCH  39  62
ENDBRANCH  13  14
ENDBRANCH   6   8
ENDBRANCH   5   6
ENDBRANCH   4   5
ENDBRANCH   3   4
ENDBRANCH   2   3
ENDBRANCH   1   2
BRANCH   1  73
ATOM     73  C   UNL A   1      32.690  28.583  25.667  1.00  0.00     0.188 C 
BRANCH  73  74
ATOM     74  O   UNL A   1      33.129  28.159  24.186  1.00  0.00    -0.376 OA
BRANCH  74  75
ATOM     75  C   UNL A   1      32.525  27.201  22.529  1.00  0.00     0.202 C 
BRANCH  75  76
ATOM     76  C   UNL A   1      32.169  25.482  22.212  1.00  0.00     0.261 C 
BRANCH  76  77
ATOM     77  O   UNL A   1      32.311  24.392  23.189  1.00  0.00    -0.463 OA
BRANCH  77  78
ATOM     78  C   UNL A   1      33.220  24.368  24.201  1.00  0.00     0.312 C 
ATOM     79  O   UNL A   1      33.107  25.065  25.205  1.00  0.00    -0.252 OA
BRANCH  78  80
ATOM     80  C   UNL A   1      34.343  23.304  24.073  1.00  0.00     0.147 C 
ATOM     81  C   UNL A   1      34.427  22.091  25.031  1.00  0.00     0.128 C 
ATOM     82  C   UNL A   1      35.803  23.864  24.184  1.00  0.00     0.157 C 
ATOM     83  C   UNL A   1      35.900  22.155  25.533  1.00  0.00     0.155 C 
ATOM     84  C   UNL A   1      36.822  22.917  23.606  1.00  0.00     0.004 C 
ATOM     85  O   UNL A   1      36.149  23.588  25.565  1.00  0.00    -0.365 OA
ATOM     86  C   UNL A   1      36.869  21.857  24.430  1.00  0.00     0.004 C 
BRANCH  81  87
ATOM     87  C   UNL A   1      33.351  21.912  26.119  1.00  0.00     0.227 C 
ATOM     88  O   UNL A   1      33.388  22.600  27.141  1.00  0.00    -0.275 OA
ATOM     89  N   UNL A   1      32.350  20.988  26.024  1.00  0.00    -0.352 N 
ATOM     90  H   UNL A   1      31.670  20.970  26.737  1.00  0.00     0.163 HD
BRANCH  89  91
ATOM     91  C   UNL A   1      32.226  20.048  24.961  1.00  0.00     0.151 C 
BRANCH  91  92
ATOM     92  C   UNL A   1      32.821  18.678  25.103  1.00  0.00    -0.026 A 
ATOM     93  C   UNL A   1      32.021  17.081  25.493  1.00  0.00     0.025 A 
ATOM     94  C   UNL A   1      34.577  18.621  24.525  1.00  0.00     0.025 A 
ATOM     95  C   UNL A   1      32.990  15.598  25.381  1.00  0.00     0.111 A 
ATOM     96  C   UNL A   1      35.418  17.072  24.495  1.00  0.00     0.111 A 
ATOM     97  N   UNL A   1      34.649  15.580  24.919  1.00  0.00    -0.265 NA
ENDBRANCH  91  92
ENDBRANCH  89  91
ENDBRANCH  81  87
ENDBRANCH  78  80
ENDBRANCH  77  78
ENDBRANCH  76  77
ENDBRANCH  75  76
ENDBRANCH  74  75
ENDBRANCH  73  74
ENDBRANCH   1  73
TORSDOF 23
ENDMDL
