MODEL 1
REMARK VINA RESULT:     -10.6      0.000      0.000
REMARK SMILES O=C(OCCOCCOCCOC(=O)[C@H]1C[C@](O)(c2ccc(F)cc2)[C@@H](c2ccc(F)cc2)O1)c1ccc(-c2c3nc(c(-c4cc(S(=O)(=O)[O-])ccc4F)c4ccc([nH]4)c(-c4cc(S(=O)(=O)[O-])ccc4F)c4nc(c(-c5cc(S(=O)(=O)[O-])ccc5F)c5ccc2[nH]5)C=C4)C=C3)cc1
REMARK SMILES IDX 7 1 6 2 5 3 4 4 3 5 2 6 1 7 35 8 36 9 97 10 37 11 96 12
REMARK SMILES IDX 38 13 39 14 40 15 90 16 41 17 95 18 89 19 91 20 42 21 94 22
REMARK SMILES IDX 88 23 87 24 43 26 75 27 55 28 74 29 56 30 59 31 73 32 92 33
REMARK SMILES IDX 57 34 58 35 72 37 93 38 60 39 44 40 45 41 53 42 46 43 52 44
REMARK SMILES IDX 54 45 51 46 47 47 48 48 49 49 50 50 76 51 77 52 85 53 78 54
REMARK SMILES IDX 84 55 86 56 83 57 79 58 80 59 81 60 82 61 61 62 62 63 70 64
REMARK SMILES IDX 63 65 69 66 71 67 68 68 64 69 65 70 66 71 67 72 8 73 9 74
REMARK SMILES IDX 10 75 11 76 12 77 13 78 14 79 15 80 16 81 34 82 17 83 26 84
REMARK SMILES IDX 19 85 20 86 25 87 21 88 24 89 22 90 23 91 18 92 27 94 28 95
REMARK SMILES IDX 33 96 29 97 32 98 30 99 31 100
REMARK H PARENT 91 25 59 36 18 93
REMARK Flexibility Score: inf
ROOT
ATOM      1  C   UNL A   1      33.144  36.140  29.166  1.00  0.00     0.188 C 
ENDROOT
BRANCH   1   2
ATOM      2  O   UNL A   1      32.590  36.289  30.460  1.00  0.00    -0.376 OA
BRANCH   2   3
ATOM      3  C   UNL A   1      33.289  37.103  31.408  1.00  0.00     0.202 C 
BRANCH   3   4
ATOM      4  C   UNL A   1      34.139  36.325  32.523  1.00  0.00     0.261 C 
BRANCH   4   5
ATOM      5  O   UNL A   1      34.373  34.739  32.479  1.00  0.00    -0.460 OA
BRANCH   5   6
ATOM      6  C   UNL A   1      34.906  33.553  31.940  1.00  0.00     0.338 C 
ATOM      7  O   UNL A   1      34.068  32.828  31.383  1.00  0.00    -0.246 OA
BRANCH   6   8
ATOM      8  C   UNL A   1      36.467  32.867  31.934  1.00  0.00     0.060 A 
ATOM      9  C   UNL A   1      38.208  33.201  30.928  1.00  0.00     0.016 A 
ATOM     10  C   UNL A   1      36.577  31.597  33.246  1.00  0.00     0.016 A 
ATOM     11  C   UNL A   1      39.675  32.420  31.321  1.00  0.00     0.010 A 
ATOM     12  C   UNL A   1      38.169  30.795  33.511  1.00  0.00     0.010 A 
ATOM     13  C   UNL A   1      39.633  31.222  32.552  1.00  0.00    -0.014 A 
BRANCH  13  14
ATOM     14  C   UNL A   1      40.911  30.536  32.383  1.00  0.00     0.031 A 
ATOM     15  C   UNL A   1      41.889  30.646  33.523  1.00  0.00     0.074 A 
ATOM     16  C   UNL A   1      40.928  29.432  31.608  1.00  0.00     0.049 A 
ATOM     17  N   UNL A   1      43.126  30.257  33.586  1.00  0.00    -0.248 NA
ATOM     18  C   UNL A   1      41.415  31.234  34.793  1.00  0.00     0.031 C 
ATOM     19  C   UNL A   1      39.781  28.845  30.906  1.00  0.00     0.029 A 
ATOM     20  N   UNL A   1      41.936  28.582  31.285  1.00  0.00    -0.354 N 
ATOM     21  C   UNL A   1      43.566  30.630  34.853  1.00  0.00     0.074 A 
ATOM     22  C   UNL A   1      42.501  31.294  35.537  1.00  0.00     0.031 C 
ATOM     23  C   UNL A   1      40.188  27.894  30.059  1.00  0.00     0.029 A 
ATOM     24  C   UNL A   1      41.617  27.763  30.224  1.00  0.00     0.049 A 
ATOM     25  H   UNL A   1      42.800  28.553  31.757  1.00  0.00     0.167 HD
ATOM     26  C   UNL A   1      44.766  30.379  35.402  1.00  0.00     0.034 A 
ATOM     27  C   UNL A   1      42.428  27.027  29.456  1.00  0.00     0.034 A 
ATOM     28  C   UNL A   1      45.729  29.591  34.703  1.00  0.00     0.049 A 
ATOM     29  C   UNL A   1      43.849  26.975  29.916  1.00  0.00     0.074 A 
ATOM     30  C   UNL A   1      47.040  29.338  35.030  1.00  0.00     0.029 A 
ATOM     31  N   UNL A   1      45.447  28.900  33.529  1.00  0.00    -0.354 N 
ATOM     32  N   UNL A   1      44.370  27.527  30.990  1.00  0.00    -0.248 NA
ATOM     33  C   UNL A   1      44.781  26.198  29.106  1.00  0.00     0.031 C 
ATOM     34  C   UNL A   1      47.577  28.567  33.999  1.00  0.00     0.029 A 
ATOM     35  C   UNL A   1      46.577  28.261  33.082  1.00  0.00     0.049 A 
ATOM     36  H   UNL A   1      44.568  28.874  33.085  1.00  0.00     0.167 HD
ATOM     37  C   UNL A   1      45.694  27.137  31.010  1.00  0.00     0.074 A 
ATOM     38  C   UNL A   1      45.880  26.289  29.841  1.00  0.00     0.031 C 
ATOM     39  C   UNL A   1      46.671  27.443  31.900  1.00  0.00     0.034 A 
BRANCH  26  40
ATOM     40  C   UNL A   1      45.109  31.039  36.701  1.00  0.00     0.023 A 
ATOM     41  C   UNL A   1      45.006  30.387  37.941  1.00  0.00     0.031 A 
ATOM     42  C   UNL A   1      45.543  32.374  36.682  1.00  0.00     0.131 A 
ATOM     43  C   UNL A   1      45.350  31.077  39.114  1.00  0.00     0.055 A 
ATOM     44  C   UNL A   1      45.933  33.037  37.843  1.00  0.00     0.041 A 
ATOM     45  F   UNL A   1      45.593  33.056  35.526  1.00  0.00    -0.206 F 
ATOM     46  C   UNL A   1      45.843  32.385  39.069  1.00  0.00     0.022 A 
BRANCH  43  47
ATOM     47  S   UNL A   1      45.116  30.257  40.714  1.00  0.00     0.124 S 
ATOM     48  O   UNL A   1      46.351  30.608  41.410  1.00  0.00    -0.237 OA
ATOM     49  O   UNL A   1      43.900  30.883  41.219  1.00  0.00    -0.237 OA
ATOM     50  O   UNL A   1      44.986  28.845  40.358  1.00  0.00    -0.744 OA
ENDBRANCH  43  47
ENDBRANCH  26  40
BRANCH  27  51
ATOM     51  C   UNL A   1      41.923  26.365  28.228  1.00  0.00     0.023 A 
ATOM     52  C   UNL A   1      41.638  24.996  28.219  1.00  0.00     0.031 A 
ATOM     53  C   UNL A   1      41.719  27.091  27.037  1.00  0.00     0.131 A 
ATOM     54  C   UNL A   1      41.210  24.380  27.035  1.00  0.00     0.055 A 
ATOM     55  C   UNL A   1      41.254  26.481  25.869  1.00  0.00     0.041 A 
ATOM     56  F   UNL A   1      41.954  28.413  26.994  1.00  0.00    -0.206 F 
ATOM     57  C   UNL A   1      41.011  25.112  25.861  1.00  0.00     0.022 A 
BRANCH  54  58
ATOM     58  S   UNL A   1      40.976  22.585  27.047  1.00  0.00     0.124 S 
ATOM     59  O   UNL A   1      41.376  22.245  28.408  1.00  0.00    -0.237 OA
ATOM     60  O   UNL A   1      39.553  22.467  26.747  1.00  0.00    -0.237 OA
ATOM     61  O   UNL A   1      41.876  22.118  25.994  1.00  0.00    -0.744 OA
ENDBRANCH  54  58
ENDBRANCH  27  51
BRANCH  39  62
ATOM     62  C   UNL A   1      48.007  26.848  31.621  1.00  0.00     0.023 A 
ATOM     63  C   UNL A   1      48.448  25.739  32.348  1.00  0.00     0.031 A 
ATOM     64  C   UNL A   1      48.811  27.364  30.593  1.00  0.00     0.131 A 
ATOM     65  C   UNL A   1      49.707  25.208  32.080  1.00  0.00     0.055 A 
ATOM     66  C   UNL A   1      50.029  26.778  30.274  1.00  0.00     0.041 A 
ATOM     67  F   UNL A   1      48.405  28.419  29.867  1.00  0.00    -0.206 F 
ATOM     68  C   UNL A   1      50.491  25.703  31.031  1.00  0.00     0.022 A 
BRANCH  65  69
ATOM     69  S   UNL A   1      50.328  23.918  33.179  1.00  0.00     0.124 S 
ATOM     70  O   UNL A   1      49.092  23.391  33.750  1.00  0.00    -0.237 OA
ATOM     71  O   UNL A   1      51.031  23.031  32.258  1.00  0.00    -0.237 OA
ATOM     72  O   UNL A   1      51.182  24.649  34.112  1.00  0.00    -0.744 OA
ENDBRANCH  65  69
ENDBRANCH  39  62
ENDBRANCH  13  14
ENDBRANCH   6   8
ENDBRANCH   5   6
ENDBRANCH   4   5
ENDBRANCH   3   4
ENDBRANCH   2   3
ENDBRANCH   1   2
BRANCH   1  73
ATOM     73  C   UNL A   1      33.297  34.662  28.799  1.00  0.00     0.188 C 
BRANCH  73  74
ATOM     74  O   UNL A   1      34.225  34.353  27.763  1.00  0.00    -0.376 OA
BRANCH  74  75
ATOM     75  C   UNL A   1      35.369  33.584  28.130  1.00  0.00     0.202 C 
BRANCH  75  76
ATOM     76  C   UNL A   1      35.361  32.043  27.951  1.00  0.00     0.261 C 
BRANCH  76  77
ATOM     77  O   UNL A   1      34.116  31.306  28.049  1.00  0.00    -0.461 OA
BRANCH  77  78
ATOM     78  C   UNL A   1      34.051  30.068  27.468  1.00  0.00     0.335 C 
ATOM     79  O   UNL A   1      35.014  29.309  27.399  1.00  0.00    -0.249 OA
BRANCH  78  80
ATOM     80  C   UNL A   1      32.633  29.674  26.905  1.00  0.00     0.232 C 
ATOM     81  C   UNL A   1      32.456  30.089  25.454  1.00  0.00     0.087 C 
ATOM     82  O   UNL A   1      32.172  28.343  27.033  1.00  0.00    -0.355 OA
ATOM     83  C   UNL A   1      31.752  28.938  24.703  1.00  0.00     0.123 C 
ATOM     84  C   UNL A   1      31.558  27.813  25.797  1.00  0.00     0.186 C 
BRANCH  83  85
ATOM     85  C   UNL A   1      30.456  29.458  23.998  1.00  0.00    -0.013 A 
ATOM     86  C   UNL A   1      29.972  30.762  24.250  1.00  0.00     0.010 A 
ATOM     87  C   UNL A   1      29.697  28.689  23.088  1.00  0.00     0.010 A 
ATOM     88  C   UNL A   1      28.836  31.269  23.594  1.00  0.00     0.039 A 
ATOM     89  C   UNL A   1      28.575  29.197  22.417  1.00  0.00     0.039 A 
ATOM     90  C   UNL A   1      28.156  30.487  22.673  1.00  0.00     0.123 A 
ATOM     91  F   UNL A   1      27.087  30.980  22.035  1.00  0.00    -0.207 F 
ENDBRANCH  83  85
BRANCH  83  92
ATOM     92  O   UNL A   1      32.712  28.538  23.710  1.00  0.00    -0.382 OA
ATOM     93  H   UNL A   1      33.589  28.466  24.119  1.00  0.00     0.212 HD
ENDBRANCH  83  92
BRANCH  84  94
ATOM     94  C   UNL A   1      32.137  26.289  25.696  1.00  0.00    -0.016 A 
ATOM     95  C   UNL A   1      30.715  25.404  25.163  1.00  0.00     0.009 A 
ATOM     96  C   UNL A   1      33.820  25.188  25.996  1.00  0.00     0.009 A 
ATOM     97  C   UNL A   1      30.918  23.701  24.925  1.00  0.00     0.039 A 
ATOM     98  C   UNL A   1      33.821  23.421  25.758  1.00  0.00     0.039 A 
ATOM     99  C   UNL A   1      32.365  22.715  25.231  1.00  0.00     0.123 A 
ATOM    100  F   UNL A   1      32.234  21.383  25.270  1.00  0.00    -0.207 F 
ENDBRANCH  84  94
ENDBRANCH  78  80
ENDBRANCH  77  78
ENDBRANCH  76  77
ENDBRANCH  75  76
ENDBRANCH  74  75
ENDBRANCH  73  74
ENDBRANCH   1  73
TORSDOF 23
ENDMDL
MODEL 2
REMARK VINA RESULT:     -10.3      5.343     10.976
REMARK SMILES O=C(OCCOCCOCCOC(=O)[C@H]1C[C@](O)(c2ccc(F)cc2)[C@@H](c2ccc(F)cc2)O1)c1ccc(-c2c3nc(c(-c4cc(S(=O)(=O)[O-])ccc4F)c4ccc([nH]4)c(-c4cc(S(=O)(=O)[O-])ccc4F)c4nc(c(-c5cc(S(=O)(=O)[O-])ccc5F)c5ccc2[nH]5)C=C4)C=C3)cc1
REMARK SMILES IDX 7 1 6 2 5 3 4 4 3 5 2 6 1 7 35 8 36 9 97 10 37 11 96 12
REMARK SMILES IDX 38 13 39 14 40 15 90 16 41 17 95 18 89 19 91 20 42 21 94 22
REMARK SMILES IDX 88 23 87 24 43 26 75 27 55 28 74 29 56 30 59 31 73 32 92 33
REMARK SMILES IDX 57 34 58 35 72 37 93 38 60 39 44 40 45 41 53 42 46 43 52 44
REMARK SMILES IDX 54 45 51 46 47 47 48 48 49 49 50 50 76 51 77 52 85 53 78 54
REMARK SMILES IDX 84 55 86 56 83 57 79 58 80 59 81 60 82 61 61 62 62 63 70 64
REMARK SMILES IDX 63 65 69 66 71 67 68 68 64 69 65 70 66 71 67 72 8 73 9 74
REMARK SMILES IDX 10 75 11 76 12 77 13 78 14 79 15 80 16 81 34 82 17 83 26 84
REMARK SMILES IDX 19 85 20 86 25 87 21 88 24 89 22 90 23 91 18 92 27 94 28 95
REMARK SMILES IDX 33 96 29 97 32 98 30 99 31 100
REMARK H PARENT 91 25 59 36 18 93
REMARK Flexibility Score: inf
ROOT
ATOM      1  C   UNL A   1      42.135  22.218  25.910  1.00  0.00     0.188 C 
ENDROOT
BRANCH   1   2
ATOM      2  O   UNL A   1      42.381  21.107  26.751  1.00  0.00    -0.376 OA
BRANCH   2   3
ATOM      3  C   UNL A   1      42.196  19.794  26.212  1.00  0.00     0.202 C 
BRANCH   3   4
ATOM      4  C   UNL A   1      43.420  19.193  25.367  1.00  0.00     0.261 C 
BRANCH   4   5
ATOM      5  O   UNL A   1      44.844  19.924  25.273  1.00  0.00    -0.460 OA
BRANCH   5   6
ATOM      6  C   UNL A   1      45.685  21.047  25.159  1.00  0.00     0.338 C 
ATOM      7  O   UNL A   1      46.791  20.802  24.656  1.00  0.00    -0.246 OA
BRANCH   6   8
ATOM      8  C   UNL A   1      45.526  22.681  25.620  1.00  0.00     0.060 A 
ATOM      9  C   UNL A   1      45.214  24.449  24.653  1.00  0.00     0.016 A 
ATOM     10  C   UNL A   1      45.542  22.802  27.444  1.00  0.00     0.016 A 
ATOM     11  C   UNL A   1      44.913  25.917  25.473  1.00  0.00     0.010 A 
ATOM     12  C   UNL A   1      45.283  24.426  28.183  1.00  0.00     0.010 A 
ATOM     13  C   UNL A   1      44.991  25.900  27.189  1.00  0.00    -0.014 A 
BRANCH  13  14
ATOM     14  C   UNL A   1      45.046  27.319  27.527  1.00  0.00     0.031 A 
ATOM     15  C   UNL A   1      43.815  27.907  28.165  1.00  0.00     0.074 A 
ATOM     16  C   UNL A   1      46.253  27.843  27.824  1.00  0.00     0.049 A 
ATOM     17  N   UNL A   1      43.542  29.146  28.441  1.00  0.00    -0.248 NA
ATOM     18  C   UNL A   1      42.747  26.982  28.602  1.00  0.00     0.031 C 
ATOM     19  C   UNL A   1      47.532  27.124  27.841  1.00  0.00     0.029 A 
ATOM     20  N   UNL A   1      46.617  29.098  28.193  1.00  0.00    -0.354 N 
ATOM     21  C   UNL A   1      42.265  29.129  28.994  1.00  0.00     0.074 A 
ATOM     22  C   UNL A   1      41.784  27.783  29.008  1.00  0.00     0.031 C 
ATOM     23  C   UNL A   1      48.549  27.983  27.959  1.00  0.00     0.029 A 
ATOM     24  C   UNL A   1      47.976  29.301  28.103  1.00  0.00     0.049 A 
ATOM     25  H   UNL A   1      45.980  29.786  28.492  1.00  0.00     0.167 HD
ATOM     26  C   UNL A   1      41.583  30.173  29.494  1.00  0.00     0.034 A 
ATOM     27  C   UNL A   1      48.656  30.453  28.097  1.00  0.00     0.034 A 
ATOM     28  C   UNL A   1      42.189  31.463  29.566  1.00  0.00     0.049 A 
ATOM     29  C   UNL A   1      47.832  31.667  28.380  1.00  0.00     0.074 A 
ATOM     30  C   UNL A   1      41.621  32.666  29.914  1.00  0.00     0.029 A 
ATOM     31  N   UNL A   1      43.535  31.692  29.304  1.00  0.00    -0.354 N 
ATOM     32  N   UNL A   1      46.550  31.723  28.668  1.00  0.00    -0.248 NA
ATOM     33  C   UNL A   1      48.520  32.954  28.372  1.00  0.00     0.031 C 
ATOM     34  C   UNL A   1      42.609  33.640  29.770  1.00  0.00     0.029 A 
ATOM     35  C   UNL A   1      43.811  33.032  29.428  1.00  0.00     0.049 A 
ATOM     36  H   UNL A   1      44.192  30.998  29.065  1.00  0.00     0.167 HD
ATOM     37  C   UNL A   1      46.275  33.054  28.911  1.00  0.00     0.074 A 
ATOM     38  C   UNL A   1      47.538  33.760  28.748  1.00  0.00     0.031 C 
ATOM     39  C   UNL A   1      45.100  33.648  29.237  1.00  0.00     0.034 A 
BRANCH  26  40
ATOM     40  C   UNL A   1      40.145  29.976  29.860  1.00  0.00     0.023 A 
ATOM     41  C   UNL A   1      39.690  29.950  31.188  1.00  0.00     0.031 A 
ATOM     42  C   UNL A   1      39.207  29.799  28.829  1.00  0.00     0.131 A 
ATOM     43  C   UNL A   1      38.323  29.763  31.447  1.00  0.00     0.055 A 
ATOM     44  C   UNL A   1      37.846  29.667  29.089  1.00  0.00     0.041 A 
ATOM     45  F   UNL A   1      39.607  29.751  27.548  1.00  0.00    -0.206 F 
ATOM     46  C   UNL A   1      37.396  29.655  30.406  1.00  0.00     0.022 A 
BRANCH  43  47
ATOM     47  S   UNL A   1      37.766  29.631  33.168  1.00  0.00     0.124 S 
ATOM     48  O   UNL A   1      37.364  28.229  33.241  1.00  0.00    -0.237 OA
ATOM     49  O   UNL A   1      38.963  29.991  33.919  1.00  0.00    -0.237 OA
ATOM     50  O   UNL A   1      36.669  30.594  33.247  1.00  0.00    -0.744 OA
ENDBRANCH  43  47
ENDBRANCH  26  40
BRANCH  27  51
ATOM     51  C   UNL A   1      50.106  30.483  27.788  1.00  0.00     0.023 A 
ATOM     52  C   UNL A   1      50.554  30.663  26.476  1.00  0.00     0.031 A 
ATOM     53  C   UNL A   1      51.074  30.328  28.802  1.00  0.00     0.131 A 
ATOM     54  C   UNL A   1      51.928  30.638  26.198  1.00  0.00     0.055 A 
ATOM     55  C   UNL A   1      52.444  30.343  28.526  1.00  0.00     0.041 A 
ATOM     56  F   UNL A   1      50.702  30.174  30.084  1.00  0.00    -0.206 F 
ATOM     57  C   UNL A   1      52.877  30.484  27.213  1.00  0.00     0.022 A 
BRANCH  54  58
ATOM     58  S   UNL A   1      52.447  30.751  24.468  1.00  0.00     0.124 S 
ATOM     59  O   UNL A   1      51.789  31.981  24.042  1.00  0.00    -0.237 OA
ATOM     60  O   UNL A   1      53.899  30.811  24.594  1.00  0.00    -0.237 OA
ATOM     61  O   UNL A   1      51.923  29.523  23.874  1.00  0.00    -0.744 OA
ENDBRANCH  54  58
ENDBRANCH  27  51
BRANCH  39  62
ATOM     62  C   UNL A   1      45.154  35.123  29.431  1.00  0.00     0.023 A 
ATOM     63  C   UNL A   1      45.110  35.978  28.326  1.00  0.00     0.031 A 
ATOM     64  C   UNL A   1      45.200  35.667  30.723  1.00  0.00     0.131 A 
ATOM     65  C   UNL A   1      45.177  37.354  28.530  1.00  0.00     0.055 A 
ATOM     66  C   UNL A   1      45.181  37.041  30.923  1.00  0.00     0.041 A 
ATOM     67  F   UNL A   1      45.225  34.869  31.804  1.00  0.00    -0.206 F 
ATOM     68  C   UNL A   1      45.187  37.894  29.821  1.00  0.00     0.022 A 
BRANCH  65  69
ATOM     69  S   UNL A   1      45.334  38.413  27.075  1.00  0.00     0.124 S 
ATOM     70  O   UNL A   1      46.184  37.605  26.207  1.00  0.00    -0.237 OA
ATOM     71  O   UNL A   1      43.948  38.563  26.646  1.00  0.00    -0.237 OA
ATOM     72  O   UNL A   1      45.956  39.625  27.604  1.00  0.00    -0.744 OA
ENDBRANCH  65  69
ENDBRANCH  39  62
ENDBRANCH  13  14
ENDBRANCH   6   8
ENDBRANCH   5   6
ENDBRANCH   4   5
ENDBRANCH   3   4
ENDBRANCH   2   3
ENDBRANCH   1   2
BRANCH   1  73
ATOM     73  C   UNL A   1      41.844  23.477  26.733  1.00  0.00     0.188 C 
BRANCH  73  74
ATOM     74  O   UNL A   1      41.360  24.610  26.018  1.00  0.00    -0.376 OA
BRANCH  74  75
ATOM     75  C   UNL A   1      40.262  25.315  26.594  1.00  0.00     0.202 C 
BRANCH  75  76
ATOM     76  C   UNL A   1      39.025  24.537  27.113  1.00  0.00     0.261 C 
BRANCH  76  77
ATOM     77  O   UNL A   1      37.988  24.120  26.188  1.00  0.00    -0.461 OA
BRANCH  77  78
ATOM     78  C   UNL A   1      37.970  22.811  25.787  1.00  0.00     0.335 C 
ATOM     79  O   UNL A   1      38.792  21.981  26.168  1.00  0.00    -0.249 OA
BRANCH  78  80
ATOM     80  C   UNL A   1      36.795  22.434  24.806  1.00  0.00     0.232 C 
ATOM     81  C   UNL A   1      35.870  21.383  25.396  1.00  0.00     0.087 C 
ATOM     82  O   UNL A   1      35.990  23.456  24.250  1.00  0.00    -0.355 OA
ATOM     83  C   UNL A   1      34.413  21.784  25.075  1.00  0.00     0.123 C 
ATOM     84  C   UNL A   1      34.544  23.149  24.290  1.00  0.00     0.186 C 
BRANCH  83  85
ATOM     85  C   UNL A   1      33.677  20.619  24.336  1.00  0.00    -0.013 A 
ATOM     86  C   UNL A   1      32.675  20.893  23.377  1.00  0.00     0.010 A 
ATOM     87  C   UNL A   1      33.947  19.251  24.565  1.00  0.00     0.010 A 
ATOM     88  C   UNL A   1      32.031  19.865  22.666  1.00  0.00     0.039 A 
ATOM     89  C   UNL A   1      33.322  18.223  23.844  1.00  0.00     0.039 A 
ATOM     90  C   UNL A   1      32.370  18.540  22.896  1.00  0.00     0.123 A 
ATOM     91  F   UNL A   1      31.769  17.564  22.203  1.00  0.00    -0.207 F 
ENDBRANCH  83  85
BRANCH  83  92
ATOM     92  O   UNL A   1      33.819  21.983  26.369  1.00  0.00    -0.382 OA
ATOM     93  H   UNL A   1      33.451  21.144  26.689  1.00  0.00     0.212 HD
ENDBRANCH  83  92
BRANCH  84  94
ATOM     94  C   UNL A   1      33.858  24.564  24.735  1.00  0.00    -0.016 A 
ATOM     95  C   UNL A   1      32.359  24.534  23.818  1.00  0.00     0.009 A 
ATOM     96  C   UNL A   1      34.177  26.210  25.884  1.00  0.00     0.009 A 
ATOM     97  C   UNL A   1      31.310  25.897  24.023  1.00  0.00     0.039 A 
ATOM     98  C   UNL A   1      33.003  27.552  25.919  1.00  0.00     0.039 A 
ATOM     99  C   UNL A   1      31.595  27.368  24.981  1.00  0.00     0.123 A 
ATOM    100  F   UNL A   1      30.805  28.428  24.775  1.00  0.00    -0.207 F 
ENDBRANCH  84  94
ENDBRANCH  78  80
ENDBRANCH  77  78
ENDBRANCH  76  77
ENDBRANCH  75  76
ENDBRANCH  74  75
ENDBRANCH  73  74
ENDBRANCH   1  73
TORSDOF 23
ENDMDL
MODEL 3
REMARK VINA RESULT:     -10.1      3.494      6.191
REMARK SMILES O=C(OCCOCCOCCOC(=O)[C@H]1C[C@](O)(c2ccc(F)cc2)[C@@H](c2ccc(F)cc2)O1)c1ccc(-c2c3nc(c(-c4cc(S(=O)(=O)[O-])ccc4F)c4ccc([nH]4)c(-c4cc(S(=O)(=O)[O-])ccc4F)c4nc(c(-c5cc(S(=O)(=O)[O-])ccc5F)c5ccc2[nH]5)C=C4)C=C3)cc1
REMARK SMILES IDX 7 1 6 2 5 3 4 4 3 5 2 6 1 7 35 8 36 9 97 10 37 11 96 12
REMARK SMILES IDX 38 13 39 14 40 15 90 16 41 17 95 18 89 19 91 20 42 21 94 22
REMARK SMILES IDX 88 23 87 24 43 26 75 27 55 28 74 29 56 30 59 31 73 32 92 33
REMARK SMILES IDX 57 34 58 35 72 37 93 38 60 39 44 40 45 41 53 42 46 43 52 44
REMARK SMILES IDX 54 45 51 46 47 47 48 48 49 49 50 50 76 51 77 52 85 53 78 54
REMARK SMILES IDX 84 55 86 56 83 57 79 58 80 59 81 60 82 61 61 62 62 63 70 64
REMARK SMILES IDX 63 65 69 66 71 67 68 68 64 69 65 70 66 71 67 72 8 73 9 74
REMARK SMILES IDX 10 75 11 76 12 77 13 78 14 79 15 80 16 81 34 82 17 83 26 84
REMARK SMILES IDX 19 85 20 86 25 87 21 88 24 89 22 90 23 91 18 92 27 94 28 95
REMARK SMILES IDX 33 96 29 97 32 98 30 99 31 100
REMARK H PARENT 91 25 59 36 18 93
REMARK Flexibility Score: inf
ROOT
ATOM      1  C   UNL A   1      38.843  29.593  28.395  1.00  0.00     0.188 C 
ENDROOT
BRANCH   1   2
ATOM      2  O   UNL A   1      37.489  29.189  28.476  1.00  0.00    -0.376 OA
BRANCH   2   3
ATOM      3  C   UNL A   1      36.497  30.014  27.855  1.00  0.00     0.202 C 
BRANCH   3   4
ATOM      4  C   UNL A   1      35.657  30.972  28.830  1.00  0.00     0.261 C 
BRANCH   4   5
ATOM      5  O   UNL A   1      36.122  31.296  30.330  1.00  0.00    -0.460 OA
BRANCH   5   6
ATOM      6  C   UNL A   1      36.907  31.101  31.482  1.00  0.00     0.338 C 
ATOM      7  O   UNL A   1      36.379  31.504  32.529  1.00  0.00    -0.246 OA
BRANCH   6   8
ATOM      8  C   UNL A   1      38.469  30.469  31.742  1.00  0.00     0.060 A 
ATOM      9  C   UNL A   1      40.362  31.224  31.798  1.00  0.00     0.016 A 
ATOM     10  C   UNL A   1      38.343  28.697  32.176  1.00  0.00     0.016 A 
ATOM     11  C   UNL A   1      41.716  30.305  32.285  1.00  0.00     0.010 A 
ATOM     12  C   UNL A   1      39.861  27.823  32.602  1.00  0.00     0.010 A 
ATOM     13  C   UNL A   1      41.465  28.642  32.634  1.00  0.00    -0.014 A 
BRANCH  13  14
ATOM     14  C   UNL A   1      42.823  28.105  32.658  1.00  0.00     0.031 A 
ATOM     15  C   UNL A   1      43.373  27.726  34.008  1.00  0.00     0.074 A 
ATOM     16  C   UNL A   1      43.249  27.439  31.566  1.00  0.00     0.049 A 
ATOM     17  N   UNL A   1      44.574  27.358  34.334  1.00  0.00    -0.248 NA
ATOM     18  C   UNL A   1      42.444  27.711  35.159  1.00  0.00     0.031 C 
ATOM     19  C   UNL A   1      42.480  27.198  30.339  1.00  0.00     0.029 A 
ATOM     20  N   UNL A   1      44.426  26.817  31.300  1.00  0.00    -0.354 N 
ATOM     21  C   UNL A   1      44.539  27.158  35.711  1.00  0.00     0.074 A 
ATOM     22  C   UNL A   1      43.225  27.456  36.189  1.00  0.00     0.031 C 
ATOM     23  C   UNL A   1      43.271  26.704  29.381  1.00  0.00     0.029 A 
ATOM     24  C   UNL A   1      44.581  26.527  29.962  1.00  0.00     0.049 A 
ATOM     25  H   UNL A   1      45.096  26.597  31.988  1.00  0.00     0.167 HD
ATOM     26  C   UNL A   1      45.535  26.707  36.491  1.00  0.00     0.034 A 
ATOM     27  C   UNL A   1      45.693  26.197  29.296  1.00  0.00     0.034 A 
ATOM     28  C   UNL A   1      46.777  26.301  35.916  1.00  0.00     0.049 A 
ATOM     29  C   UNL A   1      46.893  25.966  30.156  1.00  0.00     0.074 A 
ATOM     30  C   UNL A   1      47.945  25.945  36.545  1.00  0.00     0.029 A 
ATOM     31  N   UNL A   1      46.980  26.177  34.545  1.00  0.00    -0.354 N 
ATOM     32  N   UNL A   1      46.965  26.011  31.469  1.00  0.00    -0.248 NA
ATOM     33  C   UNL A   1      48.138  25.618  29.480  1.00  0.00     0.031 C 
ATOM     34  C   UNL A   1      48.887  25.694  35.547  1.00  0.00     0.029 A 
ATOM     35  C   UNL A   1      48.278  25.799  34.301  1.00  0.00     0.049 A 
ATOM     36  H   UNL A   1      46.296  26.335  33.855  1.00  0.00     0.167 HD
ATOM     37  C   UNL A   1      48.262  25.661  31.787  1.00  0.00     0.074 A 
ATOM     38  C   UNL A   1      48.928  25.396  30.520  1.00  0.00     0.031 C 
ATOM     39  C   UNL A   1      48.857  25.566  33.003  1.00  0.00     0.034 A 
BRANCH  26  40
ATOM     40  C   UNL A   1      45.354  26.751  37.976  1.00  0.00     0.023 A 
ATOM     41  C   UNL A   1      45.490  27.929  38.730  1.00  0.00     0.031 A 
ATOM     42  C   UNL A   1      45.041  25.559  38.651  1.00  0.00     0.131 A 
ATOM     43  C   UNL A   1      45.301  27.885  40.120  1.00  0.00     0.055 A 
ATOM     44  C   UNL A   1      44.802  25.532  40.022  1.00  0.00     0.041 A 
ATOM     45  F   UNL A   1      44.966  24.398  37.979  1.00  0.00    -0.206 F 
ATOM     46  C   UNL A   1      44.925  26.703  40.765  1.00  0.00     0.022 A 
BRANCH  43  47
ATOM     47  S   UNL A   1      45.580  29.391  41.091  1.00  0.00     0.124 S 
ATOM     48  O   UNL A   1      44.517  30.262  40.598  1.00  0.00    -0.237 OA
ATOM     49  O   UNL A   1      45.433  28.918  42.462  1.00  0.00    -0.237 OA
ATOM     50  O   UNL A   1      46.934  29.794  40.714  1.00  0.00    -0.744 OA
ENDBRANCH  43  47
ENDBRANCH  26  40
BRANCH  27  51
ATOM     51  C   UNL A   1      45.700  26.119  27.815  1.00  0.00     0.023 A 
ATOM     52  C   UNL A   1      46.324  27.108  27.050  1.00  0.00     0.031 A 
ATOM     53  C   UNL A   1      45.080  25.049  27.135  1.00  0.00     0.131 A 
ATOM     54  C   UNL A   1      46.276  27.041  25.650  1.00  0.00     0.055 A 
ATOM     55  C   UNL A   1      45.070  24.966  25.741  1.00  0.00     0.041 A 
ATOM     56  F   UNL A   1      44.487  24.058  27.820  1.00  0.00    -0.206 F 
ATOM     57  C   UNL A   1      45.659  25.976  24.989  1.00  0.00     0.022 A 
BRANCH  54  58
ATOM     58  S   UNL A   1      46.990  28.413  24.709  1.00  0.00     0.124 S 
ATOM     59  O   UNL A   1      46.402  29.568  25.379  1.00  0.00    -0.237 OA
ATOM     60  O   UNL A   1      48.419  28.209  24.919  1.00  0.00    -0.237 OA
ATOM     61  O   UNL A   1      46.519  28.173  23.346  1.00  0.00    -0.744 OA
ENDBRANCH  54  58
ENDBRANCH  27  51
BRANCH  39  62
ATOM     62  C   UNL A   1      50.289  25.160  32.989  1.00  0.00     0.023 A 
ATOM     63  C   UNL A   1      50.636  23.806  33.042  1.00  0.00     0.031 A 
ATOM     64  C   UNL A   1      51.299  26.127  32.872  1.00  0.00     0.131 A 
ATOM     65  C   UNL A   1      51.982  23.450  33.043  1.00  0.00     0.055 A 
ATOM     66  C   UNL A   1      52.636  25.760  32.789  1.00  0.00     0.041 A 
ATOM     67  F   UNL A   1      50.994  27.433  32.802  1.00  0.00    -0.206 F 
ATOM     68  C   UNL A   1      52.985  24.414  32.891  1.00  0.00     0.022 A 
BRANCH  65  69
ATOM     69  S   UNL A   1      52.393  21.715  33.328  1.00  0.00     0.124 S 
ATOM     70  O   UNL A   1      53.774  21.653  32.861  1.00  0.00    -0.237 OA
ATOM     71  O   UNL A   1      52.203  21.580  34.769  1.00  0.00    -0.237 OA
ATOM     72  O   UNL A   1      51.423  20.997  32.503  1.00  0.00    -0.744 OA
ENDBRANCH  65  69
ENDBRANCH  39  62
ENDBRANCH  13  14
ENDBRANCH   6   8
ENDBRANCH   5   6
ENDBRANCH   4   5
ENDBRANCH   3   4
ENDBRANCH   2   3
ENDBRANCH   1   2
BRANCH   1  73
ATOM     73  C   UNL A   1      39.771  28.382  28.268  1.00  0.00     0.188 C 
BRANCH  73  74
ATOM     74  O   UNL A   1      39.333  27.327  27.416  1.00  0.00    -0.376 OA
BRANCH  74  75
ATOM     75  C   UNL A   1      39.322  26.013  27.972  1.00  0.00     0.202 C 
BRANCH  75  76
ATOM     76  C   UNL A   1      39.563  24.781  27.061  1.00  0.00     0.261 C 
BRANCH  76  77
ATOM     77  O   UNL A   1      38.437  24.063  26.495  1.00  0.00    -0.461 OA
BRANCH  77  78
ATOM     78  C   UNL A   1      38.633  22.769  26.094  1.00  0.00     0.335 C 
ATOM     79  O   UNL A   1      39.581  22.085  26.473  1.00  0.00    -0.249 OA
BRANCH  78  80
ATOM     80  C   UNL A   1      37.532  22.204  25.118  1.00  0.00     0.232 C 
ATOM     81  C   UNL A   1      36.562  21.272  25.824  1.00  0.00     0.087 C 
ATOM     82  O   UNL A   1      36.775  23.096  24.323  1.00  0.00    -0.355 OA
ATOM     83  C   UNL A   1      35.135  21.592  25.327  1.00  0.00     0.123 C 
ATOM     84  C   UNL A   1      35.329  22.788  24.312  1.00  0.00     0.186 C 
BRANCH  83  85
ATOM     85  C   UNL A   1      34.451  20.302  24.766  1.00  0.00    -0.013 A 
ATOM     86  C   UNL A   1      33.135  20.349  24.251  1.00  0.00     0.010 A 
ATOM     87  C   UNL A   1      35.075  19.034  24.735  1.00  0.00     0.010 A 
ATOM     88  C   UNL A   1      32.515  19.214  23.701  1.00  0.00     0.039 A 
ATOM     89  C   UNL A   1      34.468  17.904  24.169  1.00  0.00     0.039 A 
ATOM     90  C   UNL A   1      33.193  18.004  23.651  1.00  0.00     0.123 A 
ATOM     91  F   UNL A   1      32.607  16.930  23.108  1.00  0.00    -0.207 F 
ENDBRANCH  83  85
BRANCH  83  92
ATOM     92  O   UNL A   1      34.446  22.024  26.513  1.00  0.00    -0.382 OA
ATOM     93  H   UNL A   1      33.769  21.370  26.750  1.00  0.00     0.212 HD
ENDBRANCH  83  92
BRANCH  84  94
ATOM     94  C   UNL A   1      34.617  24.254  24.432  1.00  0.00    -0.016 A 
ATOM     95  C   UNL A   1      33.973  24.469  22.811  1.00  0.00     0.009 A 
ATOM     96  C   UNL A   1      34.299  25.780  25.737  1.00  0.00     0.009 A 
ATOM     97  C   UNL A   1      33.114  25.944  22.519  1.00  0.00     0.039 A 
ATOM     98  C   UNL A   1      33.440  27.259  25.233  1.00  0.00     0.039 A 
ATOM     99  C   UNL A   1      32.870  27.311  23.631  1.00  0.00     0.123 A 
ATOM    100  F   UNL A   1      32.442  28.475  23.127  1.00  0.00    -0.207 F 
ENDBRANCH  84  94
ENDBRANCH  78  80
ENDBRANCH  77  78
ENDBRANCH  76  77
ENDBRANCH  75  76
ENDBRANCH  74  75
ENDBRANCH  73  74
ENDBRANCH   1  73
TORSDOF 23
ENDMDL
