MODEL 1
REMARK VINA RESULT:      -9.8      0.000      0.000
REMARK SMILES O=C(Cc1ccn(C(F)F)c(=O)c1)OCCOCCOCCOC(=O)c1ccc(-c2c3nc(c(-c4cc(S(=O)(=O)[O-])ccc4F)c4ccc([nH]4)c(-c4cc(S(=O)(=O)[O-])ccc4F)c4nc(c(-c5cc(S(=O)(=O)[O-])ccc5F)c5ccc2[nH]5)C=C4)C=C3)cc1
REMARK SMILES IDX 19 1 18 2 17 3 16 4 15 5 14 6 2 7 1 8 3 9 4 10 5 11 13 12
REMARK SMILES IDX 6 13 11 14 7 15 12 16 8 17 9 18 10 19 20 20 21 21 22 22
REMARK SMILES IDX 23 23 24 24 25 25 26 26 27 27 88 28 28 29 87 30 29 31 30 32
REMARK SMILES IDX 31 33 81 34 32 35 86 36 80 37 82 38 33 39 85 40 79 41 78 42
REMARK SMILES IDX 34 44 66 45 46 46 65 47 47 48 50 49 64 50 83 51 48 52 49 53
REMARK SMILES IDX 63 55 84 56 51 57 35 58 36 59 44 60 37 61 43 62 45 63 42 64
REMARK SMILES IDX 38 65 39 66 40 67 41 68 67 69 68 70 76 71 69 72 75 73 77 74
REMARK SMILES IDX 74 75 70 76 71 77 72 78 73 79 52 80 53 81 61 82 54 83 60 84
REMARK SMILES IDX 62 85 59 86 55 87 56 88 57 89 58 90
REMARK H PARENT 82 43 50 54
REMARK Flexibility Score: inf
ROOT
ATOM      1  C   UNL A   1      39.373  23.206  26.515  1.00  0.00     0.188 C 
ENDROOT
BRANCH   1   2
ATOM      2  C   UNL A   1      38.109  24.074  26.492  1.00  0.00     0.188 C 
BRANCH   2   3
ATOM      3  O   UNL A   1      36.940  23.367  26.128  1.00  0.00    -0.376 OA
BRANCH   3   4
ATOM      4  C   UNL A   1      36.016  24.041  25.303  1.00  0.00     0.202 C 
BRANCH   4   5
ATOM      5  C   UNL A   1      35.888  23.382  23.934  1.00  0.00     0.261 C 
BRANCH   5   6
ATOM      6  O   UNL A   1      34.755  22.503  23.728  1.00  0.00    -0.463 OA
BRANCH   6   7
ATOM      7  C   UNL A   1      33.485  22.771  23.367  1.00  0.00     0.310 C 
ATOM      8  O   UNL A   1      33.271  23.715  22.607  1.00  0.00    -0.252 OA
BRANCH   7   9
ATOM      9  C   UNL A   1      32.319  21.988  23.952  1.00  0.00     0.158 C 
BRANCH   9  10
ATOM     10  C   UNL A   1      32.430  20.498  23.959  1.00  0.00    -0.030 A 
ATOM     11  C   UNL A   1      32.845  19.843  25.178  1.00  0.00     0.023 A 
ATOM     12  C   UNL A   1      32.211  19.770  22.850  1.00  0.00     0.076 A 
ATOM     13  C   UNL A   1      33.078  18.529  25.181  1.00  0.00     0.095 A 
ATOM     14  C   UNL A   1      32.434  18.300  22.850  1.00  0.00     0.255 A 
ATOM     15  N   UNL A   1      32.910  17.772  24.038  1.00  0.00    -0.258 N 
ATOM     16  O   UNL A   1      32.189  17.671  21.827  1.00  0.00    -0.269 OA
BRANCH  15  17
ATOM     17  C   UNL A   1      33.341  16.401  24.011  1.00  0.00     0.451 C 
ATOM     18  F   UNL A   1      34.397  16.225  23.182  1.00  0.00    -0.185 F 
ATOM     19  F   UNL A   1      33.697  15.989  25.250  1.00  0.00    -0.185 F 
ENDBRANCH  15  17
ENDBRANCH   9  10
ENDBRANCH   7   9
ENDBRANCH   6   7
ENDBRANCH   5   6
ENDBRANCH   4   5
ENDBRANCH   3   4
ENDBRANCH   2   3
ENDBRANCH   1   2
BRANCH   1  20
ATOM     20  O   UNL A   1      39.265  21.813  26.777  1.00  0.00    -0.376 OA
BRANCH  20  21
ATOM     21  C   UNL A   1      39.401  20.895  25.703  1.00  0.00     0.202 C 
BRANCH  21  22
ATOM     22  C   UNL A   1      39.786  19.441  26.023  1.00  0.00     0.261 C 
BRANCH  22  23
ATOM     23  O   UNL A   1      40.989  19.254  26.795  1.00  0.00    -0.460 OA
BRANCH  23  24
ATOM     24  C   UNL A   1      42.171  19.404  26.130  1.00  0.00     0.338 C 
ATOM     25  O   UNL A   1      42.674  18.617  25.358  1.00  0.00    -0.246 OA
BRANCH  24  26
ATOM     26  C   UNL A   1      42.702  20.773  26.370  1.00  0.00     0.060 A 
ATOM     27  C   UNL A   1      43.240  21.518  25.321  1.00  0.00     0.016 A 
ATOM     28  C   UNL A   1      42.648  21.321  27.661  1.00  0.00     0.016 A 
ATOM     29  C   UNL A   1      43.716  22.815  25.565  1.00  0.00     0.010 A 
ATOM     30  C   UNL A   1      43.142  22.613  27.905  1.00  0.00     0.010 A 
ATOM     31  C   UNL A   1      43.669  23.378  26.855  1.00  0.00    -0.014 A 
BRANCH  31  32
ATOM     32  C   UNL A   1      44.021  24.815  27.044  1.00  0.00     0.031 A 
ATOM     33  C   UNL A   1      43.023  25.837  27.513  1.00  0.00     0.074 A 
ATOM     34  C   UNL A   1      45.290  25.198  26.798  1.00  0.00     0.049 A 
ATOM     35  N   UNL A   1      43.224  27.093  27.821  1.00  0.00    -0.248 NA
ATOM     36  C   UNL A   1      41.626  25.401  27.653  1.00  0.00     0.031 C 
ATOM     37  C   UNL A   1      46.339  24.310  26.299  1.00  0.00     0.029 A 
ATOM     38  N   UNL A   1      45.918  26.413  26.935  1.00  0.00    -0.354 N 
ATOM     39  C   UNL A   1      41.988  27.599  28.211  1.00  0.00     0.074 A 
ATOM     40  C   UNL A   1      41.033  26.520  28.060  1.00  0.00     0.031 C 
ATOM     41  C   UNL A   1      47.481  25.003  26.183  1.00  0.00     0.029 A 
ATOM     42  C   UNL A   1      47.244  26.395  26.567  1.00  0.00     0.049 A 
ATOM     43  H   UNL A   1      45.461  27.222  27.264  1.00  0.00     0.167 HD
ATOM     44  C   UNL A   1      41.693  28.841  28.668  1.00  0.00     0.034 A 
ATOM     45  C   UNL A   1      48.171  27.377  26.530  1.00  0.00     0.034 A 
ATOM     46  C   UNL A   1      42.659  29.903  28.821  1.00  0.00     0.049 A 
ATOM     47  C   UNL A   1      47.811  28.752  27.035  1.00  0.00     0.074 A 
ATOM     48  C   UNL A   1      42.454  31.166  29.354  1.00  0.00     0.029 A 
ATOM     49  N   UNL A   1      43.991  29.849  28.440  1.00  0.00    -0.354 N 
ATOM     50  N   UNL A   1      46.671  29.171  27.530  1.00  0.00    -0.248 NA
ATOM     51  C   UNL A   1      48.859  29.783  27.000  1.00  0.00     0.031 C 
ATOM     52  C   UNL A   1      43.628  31.901  29.212  1.00  0.00     0.029 A 
ATOM     53  C   UNL A   1      44.602  31.071  28.682  1.00  0.00     0.049 A 
ATOM     54  H   UNL A   1      44.438  29.061  28.055  1.00  0.00     0.167 HD
ATOM     55  C   UNL A   1      46.871  30.505  27.880  1.00  0.00     0.074 A 
ATOM     56  C   UNL A   1      48.250  30.814  27.572  1.00  0.00     0.031 C 
ATOM     57  C   UNL A   1      45.982  31.389  28.398  1.00  0.00     0.034 A 
BRANCH  44  58
ATOM     58  C   UNL A   1      40.278  29.163  29.091  1.00  0.00     0.023 A 
ATOM     59  C   UNL A   1      39.920  29.092  30.453  1.00  0.00     0.031 A 
ATOM     60  C   UNL A   1      39.251  29.297  28.140  1.00  0.00     0.131 A 
ATOM     61  C   UNL A   1      38.567  29.086  30.819  1.00  0.00     0.055 A 
ATOM     62  C   UNL A   1      37.907  29.341  28.515  1.00  0.00     0.041 A 
ATOM     63  F   UNL A   1      39.541  29.353  26.830  1.00  0.00    -0.206 F 
ATOM     64  C   UNL A   1      37.559  29.214  29.857  1.00  0.00     0.022 A 
BRANCH  61  65
ATOM     65  S   UNL A   1      38.063  28.806  32.540  1.00  0.00     0.124 S 
ATOM     66  O   UNL A   1      39.061  29.579  33.276  1.00  0.00    -0.237 OA
ATOM     67  O   UNL A   1      36.711  29.356  32.557  1.00  0.00    -0.237 OA
ATOM     68  O   UNL A   1      38.160  27.359  32.703  1.00  0.00    -0.744 OA
ENDBRANCH  61  65
ENDBRANCH  44  58
BRANCH  45  69
ATOM     69  C   UNL A   1      49.536  27.060  26.014  1.00  0.00     0.023 A 
ATOM     70  C   UNL A   1      50.577  26.750  26.909  1.00  0.00     0.031 A 
ATOM     71  C   UNL A   1      49.850  27.161  24.648  1.00  0.00     0.131 A 
ATOM     72  C   UNL A   1      51.891  26.634  26.440  1.00  0.00     0.055 A 
ATOM     73  C   UNL A   1      51.148  26.958  24.175  1.00  0.00     0.041 A 
ATOM     74  F   UNL A   1      48.897  27.468  23.755  1.00  0.00    -0.206 F 
ATOM     75  C   UNL A   1      52.180  26.714  25.075  1.00  0.00     0.022 A 
BRANCH  72  76
ATOM     76  S   UNL A   1      53.280  26.529  27.602  1.00  0.00     0.124 S 
ATOM     77  O   UNL A   1      53.910  27.835  27.442  1.00  0.00    -0.237 OA
ATOM     78  O   UNL A   1      52.589  26.312  28.871  1.00  0.00    -0.237 OA
ATOM     79  O   UNL A   1      54.052  25.389  27.116  1.00  0.00    -0.744 OA
ENDBRANCH  72  76
ENDBRANCH  45  69
BRANCH  57  80
ATOM     80  C   UNL A   1      46.428  32.806  28.686  1.00  0.00     0.023 A 
ATOM     81  C   UNL A   1      46.540  33.737  27.633  1.00  0.00     0.031 A 
ATOM     82  C   UNL A   1      46.923  33.174  29.949  1.00  0.00     0.131 A 
ATOM     83  C   UNL A   1      47.189  34.960  27.848  1.00  0.00     0.055 A 
ATOM     84  C   UNL A   1      47.517  34.417  30.170  1.00  0.00     0.041 A 
ATOM     85  F   UNL A   1      46.852  32.321  30.984  1.00  0.00    -0.206 F 
ATOM     86  C   UNL A   1      47.671  35.308  29.112  1.00  0.00     0.022 A 
BRANCH  83  87
ATOM     87  S   UNL A   1      47.530  36.095  26.472  1.00  0.00     0.124 S 
ATOM     88  O   UNL A   1      48.057  35.188  25.455  1.00  0.00    -0.237 OA
ATOM     89  O   UNL A   1      46.207  36.644  26.193  1.00  0.00    -0.237 OA
ATOM     90  O   UNL A   1      48.499  37.036  27.023  1.00  0.00    -0.744 OA
ENDBRANCH  83  87
ENDBRANCH  57  80
ENDBRANCH  31  32
ENDBRANCH  24  26
ENDBRANCH  23  24
ENDBRANCH  22  23
ENDBRANCH  21  22
ENDBRANCH  20  21
ENDBRANCH   1  20
TORSDOF 22
ENDMDL
MODEL 2
REMARK VINA RESULT:      -9.4      6.003      8.855
REMARK SMILES O=C(Cc1ccn(C(F)F)c(=O)c1)OCCOCCOCCOC(=O)c1ccc(-c2c3nc(c(-c4cc(S(=O)(=O)[O-])ccc4F)c4ccc([nH]4)c(-c4cc(S(=O)(=O)[O-])ccc4F)c4nc(c(-c5cc(S(=O)(=O)[O-])ccc5F)c5ccc2[nH]5)C=C4)C=C3)cc1
REMARK SMILES IDX 19 1 18 2 17 3 16 4 15 5 14 6 2 7 1 8 3 9 4 10 5 11 13 12
REMARK SMILES IDX 6 13 11 14 7 15 12 16 8 17 9 18 10 19 20 20 21 21 22 22
REMARK SMILES IDX 23 23 24 24 25 25 26 26 27 27 88 28 28 29 87 30 29 31 30 32
REMARK SMILES IDX 31 33 81 34 32 35 86 36 80 37 82 38 33 39 85 40 79 41 78 42
REMARK SMILES IDX 34 44 66 45 46 46 65 47 47 48 50 49 64 50 83 51 48 52 49 53
REMARK SMILES IDX 63 55 84 56 51 57 35 58 36 59 44 60 37 61 43 62 45 63 42 64
REMARK SMILES IDX 38 65 39 66 40 67 41 68 67 69 68 70 76 71 69 72 75 73 77 74
REMARK SMILES IDX 74 75 70 76 71 77 72 78 73 79 52 80 53 81 61 82 54 83 60 84
REMARK SMILES IDX 62 85 59 86 55 87 56 88 57 89 58 90
REMARK H PARENT 82 43 50 54
REMARK Flexibility Score: inf
ROOT
ATOM      1  C   UNL A   1      33.446  28.442  23.999  1.00  0.00     0.188 C 
ENDROOT
BRANCH   1   2
ATOM      2  C   UNL A   1      34.193  27.655  22.915  1.00  0.00     0.188 C 
BRANCH   2   3
ATOM      3  O   UNL A   1      33.341  27.006  21.993  1.00  0.00    -0.376 OA
BRANCH   3   4
ATOM      4  C   UNL A   1      32.862  25.730  22.356  1.00  0.00     0.202 C 
BRANCH   4   5
ATOM      5  C   UNL A   1      31.342  25.702  22.467  1.00  0.00     0.261 C 
BRANCH   5   6
ATOM      6  O   UNL A   1      30.740  24.500  23.008  1.00  0.00    -0.463 OA
BRANCH   6   7
ATOM      7  C   UNL A   1      31.031  23.790  24.115  1.00  0.00     0.310 C 
ATOM      8  O   UNL A   1      30.662  24.217  25.208  1.00  0.00    -0.252 OA
BRANCH   7   9
ATOM      9  C   UNL A   1      31.878  22.528  24.040  1.00  0.00     0.158 C 
BRANCH   9  10
ATOM     10  C   UNL A   1      33.336  22.663  24.340  1.00  0.00    -0.030 A 
ATOM     11  C   UNL A   1      33.746  22.805  25.717  1.00  0.00     0.023 A 
ATOM     12  C   UNL A   1      34.255  22.714  23.359  1.00  0.00     0.076 A 
ATOM     13  C   UNL A   1      35.024  23.057  26.007  1.00  0.00     0.095 A 
ATOM     14  C   UNL A   1      35.687  22.959  23.673  1.00  0.00     0.255 A 
ATOM     15  N   UNL A   1      35.975  23.165  25.012  1.00  0.00    -0.258 N 
ATOM     16  O   UNL A   1      36.496  22.963  22.752  1.00  0.00    -0.269 OA
BRANCH  15  17
ATOM     17  C   UNL A   1      37.302  23.617  25.326  1.00  0.00     0.451 C 
ATOM     18  F   UNL A   1      37.334  24.303  26.493  1.00  0.00    -0.185 F 
ATOM     19  F   UNL A   1      38.152  22.568  25.424  1.00  0.00    -0.185 F 
ENDBRANCH  15  17
ENDBRANCH   9  10
ENDBRANCH   7   9
ENDBRANCH   6   7
ENDBRANCH   5   6
ENDBRANCH   4   5
ENDBRANCH   3   4
ENDBRANCH   2   3
ENDBRANCH   1   2
BRANCH   1  20
ATOM     20  O   UNL A   1      33.899  28.386  25.345  1.00  0.00    -0.376 OA
BRANCH  20  21
ATOM     21  C   UNL A   1      32.978  28.640  26.396  1.00  0.00     0.202 C 
BRANCH  21  22
ATOM     22  C   UNL A   1      32.657  30.100  26.755  1.00  0.00     0.261 C 
BRANCH  22  23
ATOM     23  O   UNL A   1      33.711  31.059  26.534  1.00  0.00    -0.460 OA
BRANCH  23  24
ATOM     24  C   UNL A   1      34.122  31.775  27.620  1.00  0.00     0.338 C 
ATOM     25  O   UNL A   1      33.501  32.644  28.193  1.00  0.00    -0.246 OA
BRANCH  24  26
ATOM     26  C   UNL A   1      35.414  31.227  28.113  1.00  0.00     0.060 A 
ATOM     27  C   UNL A   1      36.522  32.058  28.273  1.00  0.00     0.016 A 
ATOM     28  C   UNL A   1      35.510  29.863  28.433  1.00  0.00     0.016 A 
ATOM     29  C   UNL A   1      37.724  31.524  28.761  1.00  0.00     0.010 A 
ATOM     30  C   UNL A   1      36.721  29.329  28.904  1.00  0.00     0.010 A 
ATOM     31  C   UNL A   1      37.837  30.158  29.085  1.00  0.00    -0.014 A 
BRANCH  31  32
ATOM     32  C   UNL A   1      39.070  29.662  29.761  1.00  0.00     0.031 A 
ATOM     33  C   UNL A   1      39.494  30.140  31.122  1.00  0.00     0.074 A 
ATOM     34  C   UNL A   1      39.818  28.737  29.126  1.00  0.00     0.049 A 
ATOM     35  N   UNL A   1      40.482  29.712  31.867  1.00  0.00    -0.248 NA
ATOM     36  C   UNL A   1      38.718  31.233  31.725  1.00  0.00     0.031 C 
ATOM     37  C   UNL A   1      39.535  28.226  27.785  1.00  0.00     0.029 A 
ATOM     38  N   UNL A   1      40.951  28.060  29.509  1.00  0.00    -0.354 N 
ATOM     39  C   UNL A   1      40.440  30.465  33.036  1.00  0.00     0.074 A 
ATOM     40  C   UNL A   1      39.351  31.407  32.882  1.00  0.00     0.031 C 
ATOM     41  C   UNL A   1      40.459  27.310  27.463  1.00  0.00     0.029 A 
ATOM     42  C   UNL A   1      41.422  27.187  28.556  1.00  0.00     0.049 A 
ATOM     43  H   UNL A   1      41.386  28.190  30.384  1.00  0.00     0.167 HD
ATOM     44  C   UNL A   1      41.228  30.359  34.134  1.00  0.00     0.034 A 
ATOM     45  C   UNL A   1      42.507  26.382  28.546  1.00  0.00     0.034 A 
ATOM     46  C   UNL A   1      42.305  29.407  34.275  1.00  0.00     0.049 A 
ATOM     47  C   UNL A   1      43.372  26.291  29.779  1.00  0.00     0.074 A 
ATOM     48  C   UNL A   1      43.098  29.183  35.389  1.00  0.00     0.029 A 
ATOM     49  N   UNL A   1      42.754  28.538  33.292  1.00  0.00    -0.354 N 
ATOM     50  N   UNL A   1      43.232  26.912  30.926  1.00  0.00    -0.248 NA
ATOM     51  C   UNL A   1      44.527  25.383  29.733  1.00  0.00     0.031 C 
ATOM     52  C   UNL A   1      44.078  28.252  35.052  1.00  0.00     0.029 A 
ATOM     53  C   UNL A   1      43.841  27.815  33.760  1.00  0.00     0.049 A 
ATOM     54  H   UNL A   1      42.359  28.448  32.395  1.00  0.00     0.167 HD
ATOM     55  C   UNL A   1      44.267  26.457  31.739  1.00  0.00     0.074 A 
ATOM     56  C   UNL A   1      45.006  25.482  30.966  1.00  0.00     0.031 C 
ATOM     57  C   UNL A   1      44.576  26.826  33.007  1.00  0.00     0.034 A 
BRANCH  44  58
ATOM     58  C   UNL A   1      40.971  31.253  35.326  1.00  0.00     0.023 A 
ATOM     59  C   UNL A   1      39.792  31.090  36.082  1.00  0.00     0.031 A 
ATOM     60  C   UNL A   1      41.756  32.396  35.556  1.00  0.00     0.131 A 
ATOM     61  C   UNL A   1      39.398  32.090  36.982  1.00  0.00     0.055 A 
ATOM     62  C   UNL A   1      41.384  33.364  36.490  1.00  0.00     0.041 A 
ATOM     63  F   UNL A   1      42.879  32.603  34.849  1.00  0.00    -0.206 F 
ATOM     64  C   UNL A   1      40.190  33.224  37.193  1.00  0.00     0.022 A 
BRANCH  61  65
ATOM     65  S   UNL A   1      37.796  32.008  37.832  1.00  0.00     0.124 S 
ATOM     66  O   UNL A   1      37.403  30.619  37.599  1.00  0.00    -0.237 OA
ATOM     67  O   UNL A   1      38.162  32.330  39.208  1.00  0.00    -0.237 OA
ATOM     68  O   UNL A   1      36.982  33.003  37.143  1.00  0.00    -0.744 OA
ENDBRANCH  61  65
ENDBRANCH  44  58
BRANCH  45  69
ATOM     69  C   UNL A   1      42.799  25.581  27.320  1.00  0.00     0.023 A 
ATOM     70  C   UNL A   1      42.306  24.269  27.196  1.00  0.00     0.031 A 
ATOM     71  C   UNL A   1      43.649  26.062  26.310  1.00  0.00     0.131 A 
ATOM     72  C   UNL A   1      42.729  23.459  26.136  1.00  0.00     0.055 A 
ATOM     73  C   UNL A   1      44.000  25.280  25.208  1.00  0.00     0.041 A 
ATOM     74  F   UNL A   1      44.158  27.302  26.387  1.00  0.00    -0.206 F 
ATOM     75  C   UNL A   1      43.556  23.963  25.128  1.00  0.00     0.022 A 
BRANCH  72  76
ATOM     76  S   UNL A   1      42.344  21.686  26.117  1.00  0.00     0.124 S 
ATOM     77  O   UNL A   1      42.658  21.292  27.486  1.00  0.00    -0.237 OA
ATOM     78  O   UNL A   1      40.924  21.695  25.771  1.00  0.00    -0.237 OA
ATOM     79  O   UNL A   1      43.227  21.153  25.085  1.00  0.00    -0.744 OA
ENDBRANCH  72  76
ENDBRANCH  45  69
BRANCH  57  80
ATOM     80  C   UNL A   1      45.771  26.198  33.691  1.00  0.00     0.023 A 
ATOM     81  C   UNL A   1      45.603  25.046  34.486  1.00  0.00     0.031 A 
ATOM     82  C   UNL A   1      47.020  26.843  33.716  1.00  0.00     0.131 A 
ATOM     83  C   UNL A   1      46.645  24.615  35.319  1.00  0.00     0.055 A 
ATOM     84  C   UNL A   1      48.072  26.374  34.504  1.00  0.00     0.041 A 
ATOM     85  F   UNL A   1      47.231  27.950  32.985  1.00  0.00    -0.206 F 
ATOM     86  C   UNL A   1      47.881  25.267  35.326  1.00  0.00     0.022 A 
BRANCH  83  87
ATOM     87  S   UNL A   1      46.398  23.261  36.503  1.00  0.00     0.124 S 
ATOM     88  O   UNL A   1      46.939  22.117  35.771  1.00  0.00    -0.237 OA
ATOM     89  O   UNL A   1      47.193  23.703  37.645  1.00  0.00    -0.237 OA
ATOM     90  O   UNL A   1      44.954  23.234  36.713  1.00  0.00    -0.744 OA
ENDBRANCH  83  87
ENDBRANCH  57  80
ENDBRANCH  31  32
ENDBRANCH  24  26
ENDBRANCH  23  24
ENDBRANCH  22  23
ENDBRANCH  21  22
ENDBRANCH  20  21
ENDBRANCH   1  20
TORSDOF 22
ENDMDL
MODEL 3
REMARK VINA RESULT:      -9.4      3.435      4.495
REMARK SMILES O=C(Cc1ccn(C(F)F)c(=O)c1)OCCOCCOCCOC(=O)c1ccc(-c2c3nc(c(-c4cc(S(=O)(=O)[O-])ccc4F)c4ccc([nH]4)c(-c4cc(S(=O)(=O)[O-])ccc4F)c4nc(c(-c5cc(S(=O)(=O)[O-])ccc5F)c5ccc2[nH]5)C=C4)C=C3)cc1
REMARK SMILES IDX 19 1 18 2 17 3 16 4 15 5 14 6 2 7 1 8 3 9 4 10 5 11 13 12
REMARK SMILES IDX 6 13 11 14 7 15 12 16 8 17 9 18 10 19 20 20 21 21 22 22
REMARK SMILES IDX 23 23 24 24 25 25 26 26 27 27 88 28 28 29 87 30 29 31 30 32
REMARK SMILES IDX 31 33 81 34 32 35 86 36 80 37 82 38 33 39 85 40 79 41 78 42
REMARK SMILES IDX 34 44 66 45 46 46 65 47 47 48 50 49 64 50 83 51 48 52 49 53
REMARK SMILES IDX 63 55 84 56 51 57 35 58 36 59 44 60 37 61 43 62 45 63 42 64
REMARK SMILES IDX 38 65 39 66 40 67 41 68 67 69 68 70 76 71 69 72 75 73 77 74
REMARK SMILES IDX 74 75 70 76 71 77 72 78 73 79 52 80 53 81 61 82 54 83 60 84
REMARK SMILES IDX 62 85 59 86 55 87 56 88 57 89 58 90
REMARK H PARENT 82 43 50 54
REMARK Flexibility Score: inf
ROOT
ATOM      1  C   UNL A   1      36.970  22.336  25.277  1.00  0.00     0.188 C 
ENDROOT
BRANCH   1   2
ATOM      2  C   UNL A   1      35.591  21.667  25.345  1.00  0.00     0.188 C 
BRANCH   2   3
ATOM      3  O   UNL A   1      35.133  21.441  26.662  1.00  0.00    -0.376 OA
BRANCH   3   4
ATOM      4  C   UNL A   1      33.744  21.550  26.883  1.00  0.00     0.202 C 
BRANCH   4   5
ATOM      5  C   UNL A   1      32.936  20.936  25.745  1.00  0.00     0.261 C 
BRANCH   5   6
ATOM      6  O   UNL A   1      31.807  21.696  25.251  1.00  0.00    -0.463 OA
BRANCH   6   7
ATOM      7  C   UNL A   1      31.686  23.005  24.955  1.00  0.00     0.310 C 
ATOM      8  O   UNL A   1      32.472  23.506  24.152  1.00  0.00    -0.252 OA
BRANCH   7   9
ATOM      9  C   UNL A   1      30.661  23.879  25.661  1.00  0.00     0.158 C 
BRANCH   9  10
ATOM     10  C   UNL A   1      30.614  25.323  25.281  1.00  0.00    -0.030 A 
ATOM     11  C   UNL A   1      29.813  25.712  24.144  1.00  0.00     0.023 A 
ATOM     12  C   UNL A   1      31.343  26.247  25.932  1.00  0.00     0.076 A 
ATOM     13  C   UNL A   1      29.854  26.971  23.701  1.00  0.00     0.095 A 
ATOM     14  C   UNL A   1      31.369  27.660  25.469  1.00  0.00     0.255 A 
ATOM     15  N   UNL A   1      30.636  27.922  24.324  1.00  0.00    -0.258 N 
ATOM     16  O   UNL A   1      32.019  28.475  26.114  1.00  0.00    -0.269 OA
BRANCH  15  17
ATOM     17  C   UNL A   1      30.811  29.218  23.727  1.00  0.00     0.451 C 
ATOM     18  F   UNL A   1      30.658  30.212  24.633  1.00  0.00    -0.185 F 
ATOM     19  F   UNL A   1      32.043  29.326  23.179  1.00  0.00    -0.185 F 
ENDBRANCH  15  17
ENDBRANCH   9  10
ENDBRANCH   7   9
ENDBRANCH   6   7
ENDBRANCH   5   6
ENDBRANCH   4   5
ENDBRANCH   3   4
ENDBRANCH   2   3
ENDBRANCH   1   2
BRANCH   1  20
ATOM     20  O   UNL A   1      38.140  21.554  25.480  1.00  0.00    -0.376 OA
BRANCH  20  21
ATOM     21  C   UNL A   1      38.155  20.204  25.039  1.00  0.00     0.202 C 
BRANCH  21  22
ATOM     22  C   UNL A   1      39.110  19.216  25.729  1.00  0.00     0.261 C 
BRANCH  22  23
ATOM     23  O   UNL A   1      40.519  19.433  25.514  1.00  0.00    -0.460 OA
BRANCH  23  24
ATOM     24  C   UNL A   1      41.300  19.522  26.629  1.00  0.00     0.338 C 
ATOM     25  O   UNL A   1      41.685  18.603  27.320  1.00  0.00    -0.246 OA
BRANCH  24  26
ATOM     26  C   UNL A   1      41.756  20.927  26.803  1.00  0.00     0.060 A 
ATOM     27  C   UNL A   1      41.711  21.824  25.736  1.00  0.00     0.016 A 
ATOM     28  C   UNL A   1      42.221  21.355  28.057  1.00  0.00     0.016 A 
ATOM     29  C   UNL A   1      42.124  23.150  25.928  1.00  0.00     0.010 A 
ATOM     30  C   UNL A   1      42.653  22.679  28.240  1.00  0.00     0.010 A 
ATOM     31  C   UNL A   1      42.595  23.594  27.179  1.00  0.00    -0.014 A 
BRANCH  31  32
ATOM     32  C   UNL A   1      42.862  25.046  27.393  1.00  0.00     0.031 A 
ATOM     33  C   UNL A   1      41.842  25.975  27.990  1.00  0.00     0.074 A 
ATOM     34  C   UNL A   1      44.073  25.529  27.049  1.00  0.00     0.049 A 
ATOM     35  N   UNL A   1      41.982  27.232  28.329  1.00  0.00    -0.248 NA
ATOM     36  C   UNL A   1      40.498  25.434  28.238  1.00  0.00     0.031 C 
ATOM     37  C   UNL A   1      45.130  24.738  26.422  1.00  0.00     0.029 A 
ATOM     38  N   UNL A   1      44.624  26.782  27.177  1.00  0.00    -0.354 N 
ATOM     39  C   UNL A   1      40.756  27.632  28.848  1.00  0.00     0.074 A 
ATOM     40  C   UNL A   1      39.869  26.492  28.741  1.00  0.00     0.031 C 
ATOM     41  C   UNL A   1      46.205  25.516  26.232  1.00  0.00     0.029 A 
ATOM     42  C   UNL A   1      45.908  26.873  26.691  1.00  0.00     0.049 A 
ATOM     43  H   UNL A   1      44.144  27.543  27.578  1.00  0.00     0.167 HD
ATOM     44  C   UNL A   1      40.418  28.834  29.379  1.00  0.00     0.034 A 
ATOM     45  C   UNL A   1      46.756  27.921  26.608  1.00  0.00     0.034 A 
ATOM     46  C   UNL A   1      41.317  29.959  29.486  1.00  0.00     0.049 A 
ATOM     47  C   UNL A   1      46.350  29.249  27.199  1.00  0.00     0.074 A 
ATOM     48  C   UNL A   1      41.074  31.184  30.086  1.00  0.00     0.029 A 
ATOM     49  N   UNL A   1      42.609  30.015  28.985  1.00  0.00    -0.354 N 
ATOM     50  N   UNL A   1      45.234  29.566  27.811  1.00  0.00    -0.248 NA
ATOM     51  C   UNL A   1      47.314  30.355  27.110  1.00  0.00     0.031 C 
ATOM     52  C   UNL A   1      42.176  32.008  29.867  1.00  0.00     0.029 A 
ATOM     53  C   UNL A   1      43.152  31.270  29.219  1.00  0.00     0.049 A 
ATOM     54  H   UNL A   1      43.072  29.275  28.530  1.00  0.00     0.167 HD
ATOM     55  C   UNL A   1      45.371  30.899  28.194  1.00  0.00     0.074 A 
ATOM     56  C   UNL A   1      46.690  31.319  27.776  1.00  0.00     0.031 C 
ATOM     57  C   UNL A   1      44.474  31.697  28.825  1.00  0.00     0.034 A 
BRANCH  44  58
ATOM     58  C   UNL A   1      39.029  29.036  29.940  1.00  0.00     0.023 A 
ATOM     59  C   UNL A   1      38.091  29.813  29.229  1.00  0.00     0.031 A 
ATOM     60  C   UNL A   1      38.723  28.673  31.263  1.00  0.00     0.131 A 
ATOM     61  C   UNL A   1      36.926  30.258  29.868  1.00  0.00     0.055 A 
ATOM     62  C   UNL A   1      37.538  29.077  31.879  1.00  0.00     0.041 A 
ATOM     63  F   UNL A   1      39.592  27.947  31.986  1.00  0.00    -0.206 F 
ATOM     64  C   UNL A   1      36.643  29.890  31.188  1.00  0.00     0.022 A 
BRANCH  61  65
ATOM     65  S   UNL A   1      35.791  31.413  29.050  1.00  0.00     0.124 S 
ATOM     66  O   UNL A   1      35.053  31.966  30.185  1.00  0.00    -0.237 OA
ATOM     67  O   UNL A   1      36.712  32.337  28.395  1.00  0.00    -0.237 OA
ATOM     68  O   UNL A   1      35.006  30.563  28.161  1.00  0.00    -0.744 OA
ENDBRANCH  61  65
ENDBRANCH  44  58
BRANCH  45  69
ATOM     69  C   UNL A   1      48.086  27.723  25.959  1.00  0.00     0.023 A 
ATOM     70  C   UNL A   1      48.213  27.816  24.561  1.00  0.00     0.031 A 
ATOM     71  C   UNL A   1      49.217  27.338  26.698  1.00  0.00     0.131 A 
ATOM     72  C   UNL A   1      49.414  27.452  23.941  1.00  0.00     0.055 A 
ATOM     73  C   UNL A   1      50.439  27.060  26.082  1.00  0.00     0.041 A 
ATOM     74  F   UNL A   1      49.146  27.220  28.033  1.00  0.00    -0.206 F 
ATOM     75  C   UNL A   1      50.536  27.095  24.695  1.00  0.00     0.022 A 
BRANCH  72  76
ATOM     76  S   UNL A   1      49.508  27.282  22.137  1.00  0.00     0.124 S 
ATOM     77  O   UNL A   1      48.998  28.571  21.683  1.00  0.00    -0.237 OA
ATOM     78  O   UNL A   1      50.939  27.061  21.934  1.00  0.00    -0.237 OA
ATOM     79  O   UNL A   1      48.659  26.129  21.855  1.00  0.00    -0.744 OA
ENDBRANCH  72  76
ENDBRANCH  45  69
BRANCH  57  80
ATOM     80  C   UNL A   1      44.845  33.133  29.127  1.00  0.00     0.023 A 
ATOM     81  C   UNL A   1      44.754  34.112  28.117  1.00  0.00     0.031 A 
ATOM     82  C   UNL A   1      45.464  33.488  30.338  1.00  0.00     0.131 A 
ATOM     83  C   UNL A   1      45.331  35.374  28.312  1.00  0.00     0.055 A 
ATOM     84  C   UNL A   1      45.986  34.765  30.548  1.00  0.00     0.041 A 
ATOM     85  F   UNL A   1      45.586  32.591  31.330  1.00  0.00    -0.206 F 
ATOM     86  C   UNL A   1      45.939  35.709  29.525  1.00  0.00     0.022 A 
BRANCH  83  87
ATOM     87  S   UNL A   1      45.411  36.587  26.964  1.00  0.00     0.124 S 
ATOM     88  O   UNL A   1      45.977  35.794  25.876  1.00  0.00    -0.237 OA
ATOM     89  O   UNL A   1      44.009  36.959  26.802  1.00  0.00    -0.237 OA
ATOM     90  O   UNL A   1      46.284  37.635  27.484  1.00  0.00    -0.744 OA
ENDBRANCH  83  87
ENDBRANCH  57  80
ENDBRANCH  31  32
ENDBRANCH  24  26
ENDBRANCH  23  24
ENDBRANCH  22  23
ENDBRANCH  21  22
ENDBRANCH  20  21
ENDBRANCH   1  20
TORSDOF 22
ENDMDL
