MODEL 1
REMARK VINA RESULT:     -10.3      0.000      0.000
REMARK SMILES NC(=O)[C@@H]1CCCCN1C(=O)N[C@H]1C=C[C@@H](C(=O)OCCOCCOCCOC(=O)c2ccc(-c3c4nc(c(-c5cc(S(=O)(=O)[O-])ccc5F)c5ccc([nH]5)c(-c5cc(S(=O)(=O)[O-])ccc5F)c5nc(c(-c6cc(S(=O)(=O)[O-])ccc6F)c6ccc3[nH]6)C=C5)C=C4)cc2)C1
REMARK SMILES IDX 23 1 22 2 21 3 20 4 19 5 17 6 18 7 16 8 13 9 14 10 94 11
REMARK SMILES IDX 15 12 12 13 10 14 11 15 9 17 4 18 5 19 6 20 8 21 7 22 2 23
REMARK SMILES IDX 1 24 3 27 24 28 25 29 26 30 27 31 28 32 29 33 30 34 31 35
REMARK SMILES IDX 32 36 93 37 33 38 92 39 34 40 35 41 36 42 86 43 37 44 91 45
REMARK SMILES IDX 85 46 87 47 38 48 90 49 84 50 83 51 39 53 71 54 51 55 70 56
REMARK SMILES IDX 52 57 55 58 69 59 88 60 53 61 54 62 68 64 89 65 56 66 40 67
REMARK SMILES IDX 41 68 49 69 42 70 48 71 50 72 47 73 43 74 44 75 45 76 46 77
REMARK SMILES IDX 72 78 73 79 81 80 74 81 80 82 82 83 79 84 75 85 76 86 77 87
REMARK SMILES IDX 78 88 57 89 58 90 66 91 59 92 65 93 67 94 64 95 60 96 61 97
REMARK SMILES IDX 62 98 63 99
REMARK H PARENT 12 16 1 25 1 26 87 52 55 63
REMARK Flexibility Score: inf
ROOT
ATOM      1  C   UNL A   1      34.323  16.807  24.523  1.00  0.00     0.188 C 
ENDROOT
BRANCH   1   2
ATOM      2  O   UNL A   1      33.104  16.986  25.240  1.00  0.00    -0.376 OA
BRANCH   2   3
ATOM      3  C   UNL A   1      32.071  17.758  24.639  1.00  0.00     0.202 C 
BRANCH   3   4
ATOM      4  C   UNL A   1      32.421  19.218  24.353  1.00  0.00     0.261 C 
BRANCH   4   5
ATOM      5  O   UNL A   1      32.641  19.971  25.560  1.00  0.00    -0.463 OA
BRANCH   5   6
ATOM      6  C   UNL A   1      32.578  21.320  25.414  1.00  0.00     0.312 C 
ATOM      7  O   UNL A   1      32.460  22.100  26.353  1.00  0.00    -0.252 OA
BRANCH   6   8
ATOM      8  C   UNL A   1      32.771  21.776  23.963  1.00  0.00     0.124 C 
ATOM      9  C   UNL A   1      32.611  23.762  22.489  1.00  0.00     0.107 C 
ATOM     10  C   UNL A   1      33.993  23.569  23.037  1.00  0.00    -0.006 C 
ATOM     11  C   UNL A   1      31.796  22.817  23.388  1.00  0.00     0.048 C 
ATOM     12  C   UNL A   1      34.084  22.488  23.821  1.00  0.00    -0.014 C 
BRANCH   9  13
ATOM     13  N   UNL A   1      32.241  25.156  22.647  1.00  0.00    -0.332 N 
ATOM     14  C   UNL A   1      32.251  26.106  23.597  1.00  0.00     0.318 C 
ATOM     15  O   UNL A   1      31.881  27.215  23.199  1.00  0.00    -0.249 OA
ATOM     16  H   UNL A   1      31.873  25.513  21.807  1.00  0.00     0.165 HD
BRANCH  14  17
ATOM     17  N   UNL A   1      32.622  25.911  24.899  1.00  0.00    -0.313 N 
ATOM     18  C   UNL A   1      31.559  26.007  25.934  1.00  0.00     0.176 C 
ATOM     19  C   UNL A   1      31.463  27.456  26.414  1.00  0.00     0.035 C 
ATOM     20  C   UNL A   1      32.810  27.832  27.040  1.00  0.00     0.004 C 
ATOM     21  C   UNL A   1      33.932  26.145  25.487  1.00  0.00     0.122 C 
ATOM     22  C   UNL A   1      33.975  27.552  26.086  1.00  0.00     0.022 C 
BRANCH  18  23
ATOM     23  C   UNL A   1      30.203  25.301  25.744  1.00  0.00     0.240 C 
ATOM     24  N   UNL A   1      30.083  24.117  26.421  1.00  0.00    -0.368 N 
ATOM     25  H   UNL A   1      29.250  23.595  26.358  1.00  0.00     0.159 HD
ATOM     26  H   UNL A   1      30.830  23.787  26.971  1.00  0.00     0.159 HD
ATOM     27  O   UNL A   1      29.215  25.820  25.230  1.00  0.00    -0.273 OA
ENDBRANCH  18  23
ENDBRANCH  14  17
ENDBRANCH   9  13
ENDBRANCH   6   8
ENDBRANCH   5   6
ENDBRANCH   4   5
ENDBRANCH   3   4
ENDBRANCH   2   3
ENDBRANCH   1   2
BRANCH   1  28
ATOM     28  C   UNL A   1      35.547  17.638  24.938  1.00  0.00     0.188 C 
BRANCH  28  29
ATOM     29  O   UNL A   1      35.600  18.917  24.323  1.00  0.00    -0.376 OA
BRANCH  29  30
ATOM     30  C   UNL A   1      36.175  19.934  25.130  1.00  0.00     0.202 C 
BRANCH  30  31
ATOM     31  C   UNL A   1      37.640  20.141  24.753  1.00  0.00     0.261 C 
BRANCH  31  32
ATOM     32  O   UNL A   1      38.236  21.246  25.462  1.00  0.00    -0.460 OA
BRANCH  32  33
ATOM     33  C   UNL A   1      39.370  20.968  26.133  1.00  0.00     0.338 C 
ATOM     34  O   UNL A   1      39.956  19.895  26.180  1.00  0.00    -0.246 OA
BRANCH  33  35
ATOM     35  C   UNL A   1      39.871  22.205  26.748  1.00  0.00     0.060 A 
ATOM     36  C   UNL A   1      39.429  23.443  26.271  1.00  0.00     0.016 A 
ATOM     37  C   UNL A   1      40.843  22.138  27.743  1.00  0.00     0.016 A 
ATOM     38  C   UNL A   1      39.997  24.625  26.743  1.00  0.00     0.010 A 
ATOM     39  C   UNL A   1      41.395  23.325  28.235  1.00  0.00     0.010 A 
ATOM     40  C   UNL A   1      41.000  24.572  27.715  1.00  0.00    -0.014 A 
BRANCH  40  41
ATOM     41  C   UNL A   1      41.738  25.796  28.111  1.00  0.00     0.031 A 
ATOM     42  C   UNL A   1      41.000  26.871  28.860  1.00  0.00     0.074 A 
ATOM     43  C   UNL A   1      43.035  25.956  27.794  1.00  0.00     0.049 A 
ATOM     44  N   UNL A   1      41.354  28.102  29.112  1.00  0.00    -0.248 NA
ATOM     45  C   UNL A   1      39.677  26.501  29.387  1.00  0.00     0.031 C 
ATOM     46  C   UNL A   1      43.880  24.951  27.149  1.00  0.00     0.029 A 
ATOM     47  N   UNL A   1      43.865  27.038  27.954  1.00  0.00    -0.354 N 
ATOM     48  C   UNL A   1      40.281  28.672  29.790  1.00  0.00     0.074 A 
ATOM     49  C   UNL A   1      39.264  27.649  29.905  1.00  0.00     0.031 C 
ATOM     50  C   UNL A   1      45.102  25.472  26.947  1.00  0.00     0.029 A 
ATOM     51  C   UNL A   1      45.105  26.866  27.384  1.00  0.00     0.049 A 
ATOM     52  H   UNL A   1      43.598  27.857  28.431  1.00  0.00     0.167 HD
ATOM     53  C   UNL A   1      40.159  29.936  30.263  1.00  0.00     0.034 A 
ATOM     54  C   UNL A   1      46.103  27.750  27.185  1.00  0.00     0.034 A 
ATOM     55  C   UNL A   1      41.192  30.936  30.143  1.00  0.00     0.049 A 
ATOM     56  C   UNL A   1      45.911  29.177  27.637  1.00  0.00     0.074 A 
ATOM     57  C   UNL A   1      41.182  32.247  30.586  1.00  0.00     0.029 A 
ATOM     58  N   UNL A   1      42.423  30.735  29.531  1.00  0.00    -0.354 N 
ATOM     59  N   UNL A   1      44.877  29.724  28.234  1.00  0.00    -0.248 NA
ATOM     60  C   UNL A   1      47.018  30.108  27.380  1.00  0.00     0.031 C 
ATOM     61  C   UNL A   1      42.378  32.854  30.187  1.00  0.00     0.029 A 
ATOM     62  C   UNL A   1      43.167  31.902  29.559  1.00  0.00     0.049 A 
ATOM     63  H   UNL A   1      42.723  29.885  29.134  1.00  0.00     0.167 HD
ATOM     64  C   UNL A   1      45.222  31.055  28.451  1.00  0.00     0.074 A 
ATOM     65  C   UNL A   1      46.564  31.224  27.930  1.00  0.00     0.031 C 
ATOM     66  C   UNL A   1      44.503  32.049  29.030  1.00  0.00     0.034 A 
BRANCH  53  67
ATOM     67  C   UNL A   1      38.838  30.321  30.883  1.00  0.00     0.023 A 
ATOM     68  C   UNL A   1      37.795  30.881  30.127  1.00  0.00     0.031 A 
ATOM     69  C   UNL A   1      38.635  30.151  32.264  1.00  0.00     0.131 A 
ATOM     70  C   UNL A   1      36.622  31.313  30.768  1.00  0.00     0.055 A 
ATOM     71  C   UNL A   1      37.437  30.514  32.883  1.00  0.00     0.041 A 
ATOM     72  F   UNL A   1      39.606  29.643  33.040  1.00  0.00    -0.206 F 
ATOM     73  C   UNL A   1      36.427  31.112  32.136  1.00  0.00     0.022 A 
BRANCH  70  74
ATOM     74  S   UNL A   1      35.409  32.262  29.809  1.00  0.00     0.124 S 
ATOM     75  O   UNL A   1      36.183  33.449  29.448  1.00  0.00    -0.237 OA
ATOM     76  O   UNL A   1      35.089  31.353  28.716  1.00  0.00    -0.237 OA
ATOM     77  O   UNL A   1      34.328  32.499  30.762  1.00  0.00    -0.744 OA
ENDBRANCH  70  74
ENDBRANCH  53  67
BRANCH  54  78
ATOM     78  C   UNL A   1      47.344  27.344  26.464  1.00  0.00     0.023 A 
ATOM     79  C   UNL A   1      48.319  26.553  27.092  1.00  0.00     0.031 A 
ATOM     80  C   UNL A   1      47.602  27.792  25.155  1.00  0.00     0.131 A 
ATOM     81  C   UNL A   1      49.524  26.271  26.429  1.00  0.00     0.055 A 
ATOM     82  C   UNL A   1      48.779  27.463  24.480  1.00  0.00     0.041 A 
ATOM     83  F   UNL A   1      46.705  28.554  24.509  1.00  0.00    -0.206 F 
ATOM     84  C   UNL A   1      49.755  26.708  25.123  1.00  0.00     0.022 A 
BRANCH  81  85
ATOM     85  S   UNL A   1      50.827  25.392  27.336  1.00  0.00     0.124 S 
ATOM     86  O   UNL A   1      51.713  24.980  26.254  1.00  0.00    -0.237 OA
ATOM     87  O   UNL A   1      51.335  26.437  28.220  1.00  0.00    -0.237 OA
ATOM     88  O   UNL A   1      50.107  24.310  28.003  1.00  0.00    -0.744 OA
ENDBRANCH  81  85
ENDBRANCH  54  78
BRANCH  66  89
ATOM     89  C   UNL A   1      45.183  33.387  29.180  1.00  0.00     0.023 A 
ATOM     90  C   UNL A   1      45.187  34.337  28.145  1.00  0.00     0.031 A 
ATOM     91  C   UNL A   1      45.850  33.705  30.376  1.00  0.00     0.131 A 
ATOM     92  C   UNL A   1      45.892  35.539  28.305  1.00  0.00     0.055 A 
ATOM     93  C   UNL A   1      46.502  34.926  30.551  1.00  0.00     0.041 A 
ATOM     94  F   UNL A   1      45.878  32.833  31.397  1.00  0.00    -0.206 F 
ATOM     95  C   UNL A   1      46.536  35.846  29.506  1.00  0.00     0.022 A 
BRANCH  92  96
ATOM     96  S   UNL A   1      46.032  36.662  26.887  1.00  0.00     0.124 S 
ATOM     97  O   UNL A   1      46.220  35.731  25.779  1.00  0.00    -0.237 OA
ATOM     98  O   UNL A   1      44.754  37.366  26.919  1.00  0.00    -0.237 OA
ATOM     99  O   UNL A   1      47.198  37.482  27.212  1.00  0.00    -0.744 OA
ENDBRANCH  92  96
ENDBRANCH  66  89
ENDBRANCH  40  41
ENDBRANCH  33  35
ENDBRANCH  32  33
ENDBRANCH  31  32
ENDBRANCH  30  31
ENDBRANCH  29  30
ENDBRANCH  28  29
ENDBRANCH   1  28
TORSDOF 23
ENDMDL
MODEL 2
REMARK VINA RESULT:      -9.5      1.851      7.618
REMARK SMILES NC(=O)[C@@H]1CCCCN1C(=O)N[C@H]1C=C[C@@H](C(=O)OCCOCCOCCOC(=O)c2ccc(-c3c4nc(c(-c5cc(S(=O)(=O)[O-])ccc5F)c5ccc([nH]5)c(-c5cc(S(=O)(=O)[O-])ccc5F)c5nc(c(-c6cc(S(=O)(=O)[O-])ccc6F)c6ccc3[nH]6)C=C5)C=C4)cc2)C1
REMARK SMILES IDX 23 1 22 2 21 3 20 4 19 5 17 6 18 7 16 8 13 9 14 10 94 11
REMARK SMILES IDX 15 12 12 13 10 14 11 15 9 17 4 18 5 19 6 20 8 21 7 22 2 23
REMARK SMILES IDX 1 24 3 27 24 28 25 29 26 30 27 31 28 32 29 33 30 34 31 35
REMARK SMILES IDX 32 36 93 37 33 38 92 39 34 40 35 41 36 42 86 43 37 44 91 45
REMARK SMILES IDX 85 46 87 47 38 48 90 49 84 50 83 51 39 53 71 54 51 55 70 56
REMARK SMILES IDX 52 57 55 58 69 59 88 60 53 61 54 62 68 64 89 65 56 66 40 67
REMARK SMILES IDX 41 68 49 69 42 70 48 71 50 72 47 73 43 74 44 75 45 76 46 77
REMARK SMILES IDX 72 78 73 79 81 80 74 81 80 82 82 83 79 84 75 85 76 86 77 87
REMARK SMILES IDX 78 88 57 89 58 90 66 91 59 92 65 93 67 94 64 95 60 96 61 97
REMARK SMILES IDX 62 98 63 99
REMARK H PARENT 12 16 1 25 1 26 87 52 55 63
REMARK Flexibility Score: inf
ROOT
ATOM      1  C   UNL A   1      34.680  17.139  24.226  1.00  0.00     0.188 C 
ENDROOT
BRANCH   1   2
ATOM      2  O   UNL A   1      33.479  16.835  24.932  1.00  0.00    -0.376 OA
BRANCH   2   3
ATOM      3  C   UNL A   1      32.410  17.773  24.889  1.00  0.00     0.202 C 
BRANCH   3   4
ATOM      4  C   UNL A   1      32.748  19.181  25.376  1.00  0.00     0.261 C 
BRANCH   4   5
ATOM      5  O   UNL A   1      33.061  20.072  24.288  1.00  0.00    -0.463 OA
BRANCH   5   6
ATOM      6  C   UNL A   1      33.097  21.388  24.618  1.00  0.00     0.312 C 
ATOM      7  O   UNL A   1      33.167  21.796  25.773  1.00  0.00    -0.252 OA
BRANCH   6   8
ATOM      8  C   UNL A   1      33.144  22.314  23.396  1.00  0.00     0.124 C 
ATOM      9  C   UNL A   1      32.245  24.446  22.509  1.00  0.00     0.107 C 
ATOM     10  C   UNL A   1      33.563  24.627  23.202  1.00  0.00    -0.006 C 
ATOM     11  C   UNL A   1      31.852  23.033  22.975  1.00  0.00     0.048 C 
ATOM     12  C   UNL A   1      34.056  23.473  23.668  1.00  0.00    -0.014 C 
BRANCH   9  13
ATOM     13  N   UNL A   1      31.332  25.473  22.977  1.00  0.00    -0.332 N 
ATOM     14  C   UNL A   1      31.305  26.472  23.874  1.00  0.00     0.318 C 
ATOM     15  O   UNL A   1      30.269  27.145  23.840  1.00  0.00    -0.249 OA
ATOM     16  H   UNL A   1      30.477  25.421  22.492  1.00  0.00     0.165 HD
BRANCH  14  17
ATOM     17  N   UNL A   1      32.302  26.756  24.765  1.00  0.00    -0.313 N 
ATOM     18  C   UNL A   1      32.106  26.318  26.172  1.00  0.00     0.176 C 
ATOM     19  C   UNL A   1      31.405  27.435  26.946  1.00  0.00     0.035 C 
ATOM     20  C   UNL A   1      32.319  28.665  26.925  1.00  0.00     0.004 C 
ATOM     21  C   UNL A   1      33.261  27.848  24.698  1.00  0.00     0.122 C 
ATOM     22  C   UNL A   1      32.730  29.039  25.498  1.00  0.00     0.022 C 
BRANCH  18  23
ATOM     23  C   UNL A   1      31.605  24.898  26.497  1.00  0.00     0.240 C 
ATOM     24  N   UNL A   1      32.506  24.124  27.180  1.00  0.00    -0.368 N 
ATOM     25  H   UNL A   1      32.271  23.201  27.431  1.00  0.00     0.159 HD
ATOM     26  H   UNL A   1      33.387  24.492  27.421  1.00  0.00     0.159 HD
ATOM     27  O   UNL A   1      30.441  24.527  26.376  1.00  0.00    -0.273 OA
ENDBRANCH  18  23
ENDBRANCH  14  17
ENDBRANCH   9  13
ENDBRANCH   6   8
ENDBRANCH   5   6
ENDBRANCH   4   5
ENDBRANCH   3   4
ENDBRANCH   2   3
ENDBRANCH   1   2
BRANCH   1  28
ATOM     28  C   UNL A   1      35.824  17.827  24.986  1.00  0.00     0.188 C 
BRANCH  28  29
ATOM     29  O   UNL A   1      36.427  18.891  24.265  1.00  0.00    -0.376 OA
BRANCH  29  30
ATOM     30  C   UNL A   1      36.576  20.093  25.006  1.00  0.00     0.202 C 
BRANCH  30  31
ATOM     31  C   UNL A   1      38.035  20.543  24.993  1.00  0.00     0.261 C 
BRANCH  31  32
ATOM     32  O   UNL A   1      38.264  21.681  25.848  1.00  0.00    -0.460 OA
BRANCH  32  33
ATOM     33  C   UNL A   1      39.447  21.701  26.492  1.00  0.00     0.338 C 
ATOM     34  O   UNL A   1      40.243  20.779  26.603  1.00  0.00    -0.246 OA
BRANCH  33  35
ATOM     35  C   UNL A   1      39.696  23.064  26.981  1.00  0.00     0.060 A 
ATOM     36  C   UNL A   1      38.931  24.127  26.489  1.00  0.00     0.016 A 
ATOM     37  C   UNL A   1      40.745  23.301  27.866  1.00  0.00     0.016 A 
ATOM     38  C   UNL A   1      39.244  25.440  26.831  1.00  0.00     0.010 A 
ATOM     39  C   UNL A   1      41.044  24.617  28.229  1.00  0.00     0.010 A 
ATOM     40  C   UNL A   1      40.318  25.696  27.689  1.00  0.00    -0.014 A 
BRANCH  40  41
ATOM     41  C   UNL A   1      40.780  27.084  27.936  1.00  0.00     0.031 A 
ATOM     42  C   UNL A   1      42.214  27.427  27.644  1.00  0.00     0.074 A 
ATOM     43  C   UNL A   1      39.943  28.015  28.426  1.00  0.00     0.049 A 
ATOM     44  N   UNL A   1      42.902  28.485  27.982  1.00  0.00    -0.248 NA
ATOM     45  C   UNL A   1      42.975  26.432  26.873  1.00  0.00     0.031 C 
ATOM     46  C   UNL A   1      38.512  27.827  28.665  1.00  0.00     0.029 A 
ATOM     47  N   UNL A   1      40.184  29.304  28.833  1.00  0.00    -0.354 N 
ATOM     48  C   UNL A   1      44.190  28.267  27.504  1.00  0.00     0.074 A 
ATOM     49  C   UNL A   1      44.185  26.973  26.856  1.00  0.00     0.031 C 
ATOM     50  C   UNL A   1      38.007  28.953  29.198  1.00  0.00     0.029 A 
ATOM     51  C   UNL A   1      39.089  29.912  29.402  1.00  0.00     0.049 A 
ATOM     52  H   UNL A   1      41.055  29.750  28.727  1.00  0.00     0.167 HD
ATOM     53  C   UNL A   1      45.274  29.073  27.607  1.00  0.00     0.034 A 
ATOM     54  C   UNL A   1      38.988  31.082  30.065  1.00  0.00     0.034 A 
ATOM     55  C   UNL A   1      45.251  30.363  28.252  1.00  0.00     0.049 A 
ATOM     56  C   UNL A   1      40.229  31.922  30.249  1.00  0.00     0.074 A 
ATOM     57  C   UNL A   1      46.286  31.267  28.413  1.00  0.00     0.029 A 
ATOM     58  N   UNL A   1      44.131  30.933  28.846  1.00  0.00    -0.354 N 
ATOM     59  N   UNL A   1      41.454  31.690  29.837  1.00  0.00    -0.248 NA
ATOM     60  C   UNL A   1      40.073  33.178  30.995  1.00  0.00     0.031 C 
ATOM     61  C   UNL A   1      45.808  32.352  29.159  1.00  0.00     0.029 A 
ATOM     62  C   UNL A   1      44.456  32.160  29.398  1.00  0.00     0.049 A 
ATOM     63  H   UNL A   1      43.236  30.522  28.870  1.00  0.00     0.167 HD
ATOM     64  C   UNL A   1      42.207  32.786  30.249  1.00  0.00     0.074 A 
ATOM     65  C   UNL A   1      41.296  33.683  30.930  1.00  0.00     0.031 C 
ATOM     66  C   UNL A   1      43.531  33.036  30.077  1.00  0.00     0.034 A 
BRANCH  53  67
ATOM     67  C   UNL A   1      46.584  28.545  27.075  1.00  0.00     0.023 A 
ATOM     68  C   UNL A   1      46.826  28.399  25.699  1.00  0.00     0.031 A 
ATOM     69  C   UNL A   1      47.596  28.150  27.969  1.00  0.00     0.131 A 
ATOM     70  C   UNL A   1      48.023  27.810  25.259  1.00  0.00     0.055 A 
ATOM     71  C   UNL A   1      48.814  27.634  27.522  1.00  0.00     0.041 A 
ATOM     72  F   UNL A   1      47.411  28.243  29.296  1.00  0.00    -0.206 F 
ATOM     73  C   UNL A   1      49.027  27.449  26.160  1.00  0.00     0.022 A 
BRANCH  70  74
ATOM     74  S   UNL A   1      48.192  27.401  23.500  1.00  0.00     0.124 S 
ATOM     75  O   UNL A   1      49.560  27.836  23.226  1.00  0.00    -0.237 OA
ATOM     76  O   UNL A   1      47.967  25.961  23.487  1.00  0.00    -0.237 OA
ATOM     77  O   UNL A   1      47.152  28.203  22.860  1.00  0.00    -0.744 OA
ENDBRANCH  70  74
ENDBRANCH  53  67
BRANCH  54  78
ATOM     78  C   UNL A   1      37.692  31.502  30.670  1.00  0.00     0.023 A 
ATOM     79  C   UNL A   1      36.786  32.302  29.955  1.00  0.00     0.031 A 
ATOM     80  C   UNL A   1      37.365  31.161  31.995  1.00  0.00     0.131 A 
ATOM     81  C   UNL A   1      35.621  32.770  30.582  1.00  0.00     0.055 A 
ATOM     82  C   UNL A   1      36.179  31.584  32.597  1.00  0.00     0.041 A 
ATOM     83  F   UNL A   1      38.197  30.401  32.725  1.00  0.00    -0.206 F 
ATOM     84  C   UNL A   1      35.304  32.405  31.893  1.00  0.00     0.022 A 
BRANCH  81  85
ATOM     85  S   UNL A   1      34.563  33.938  29.684  1.00  0.00     0.124 S 
ATOM     86  O   UNL A   1      33.582  33.044  29.079  1.00  0.00    -0.237 OA
ATOM     87  O   UNL A   1      34.075  34.792  30.762  1.00  0.00    -0.237 OA
ATOM     88  O   UNL A   1      35.482  34.582  28.749  1.00  0.00    -0.744 OA
ENDBRANCH  81  85
ENDBRANCH  54  78
BRANCH  66  89
ATOM     89  C   UNL A   1      44.048  34.358  30.587  1.00  0.00     0.023 A 
ATOM     90  C   UNL A   1      43.977  35.530  29.815  1.00  0.00     0.031 A 
ATOM     91  C   UNL A   1      44.636  34.438  31.862  1.00  0.00     0.131 A 
ATOM     92  C   UNL A   1      44.534  36.721  30.303  1.00  0.00     0.055 A 
ATOM     93  C   UNL A   1      45.138  35.638  32.365  1.00  0.00     0.041 A 
ATOM     94  F   UNL A   1      44.731  33.348  32.641  1.00  0.00    -0.206 F 
ATOM     95  C   UNL A   1      45.100  36.786  31.579  1.00  0.00     0.022 A 
BRANCH  92  96
ATOM     96  S   UNL A   1      44.590  38.168  29.210  1.00  0.00     0.124 S 
ATOM     97  O   UNL A   1      44.348  37.570  27.901  1.00  0.00    -0.237 OA
ATOM     98  O   UNL A   1      43.515  39.001  29.739  1.00  0.00    -0.237 OA
ATOM     99  O   UNL A   1      45.938  38.697  29.410  1.00  0.00    -0.744 OA
ENDBRANCH  92  96
ENDBRANCH  66  89
ENDBRANCH  40  41
ENDBRANCH  33  35
ENDBRANCH  32  33
ENDBRANCH  31  32
ENDBRANCH  30  31
ENDBRANCH  29  30
ENDBRANCH  28  29
ENDBRANCH   1  28
TORSDOF 23
ENDMDL
MODEL 3
REMARK VINA RESULT:      -9.5      6.412     11.434
REMARK SMILES NC(=O)[C@@H]1CCCCN1C(=O)N[C@H]1C=C[C@@H](C(=O)OCCOCCOCCOC(=O)c2ccc(-c3c4nc(c(-c5cc(S(=O)(=O)[O-])ccc5F)c5ccc([nH]5)c(-c5cc(S(=O)(=O)[O-])ccc5F)c5nc(c(-c6cc(S(=O)(=O)[O-])ccc6F)c6ccc3[nH]6)C=C5)C=C4)cc2)C1
REMARK SMILES IDX 23 1 22 2 21 3 20 4 19 5 17 6 18 7 16 8 13 9 14 10 94 11
REMARK SMILES IDX 15 12 12 13 10 14 11 15 9 17 4 18 5 19 6 20 8 21 7 22 2 23
REMARK SMILES IDX 1 24 3 27 24 28 25 29 26 30 27 31 28 32 29 33 30 34 31 35
REMARK SMILES IDX 32 36 93 37 33 38 92 39 34 40 35 41 36 42 86 43 37 44 91 45
REMARK SMILES IDX 85 46 87 47 38 48 90 49 84 50 83 51 39 53 71 54 51 55 70 56
REMARK SMILES IDX 52 57 55 58 69 59 88 60 53 61 54 62 68 64 89 65 56 66 40 67
REMARK SMILES IDX 41 68 49 69 42 70 48 71 50 72 47 73 43 74 44 75 45 76 46 77
REMARK SMILES IDX 72 78 73 79 81 80 74 81 80 82 82 83 79 84 75 85 76 86 77 87
REMARK SMILES IDX 78 88 57 89 58 90 66 91 59 92 65 93 67 94 64 95 60 96 61 97
REMARK SMILES IDX 62 98 63 99
REMARK H PARENT 12 16 1 25 1 26 87 52 55 63
REMARK Flexibility Score: inf
ROOT
ATOM      1  C   UNL A   1      35.613  33.976  33.818  1.00  0.00     0.188 C 
ENDROOT
BRANCH   1   2
ATOM      2  O   UNL A   1      35.980  33.468  35.099  1.00  0.00    -0.376 OA
BRANCH   2   3
ATOM      3  C   UNL A   1      37.360  33.249  35.372  1.00  0.00     0.202 C 
BRANCH   3   4
ATOM      4  C   UNL A   1      37.784  31.786  35.488  1.00  0.00     0.261 C 
BRANCH   4   5
ATOM      5  O   UNL A   1      38.935  31.488  34.676  1.00  0.00    -0.463 OA
BRANCH   5   6
ATOM      6  C   UNL A   1      39.970  30.910  35.338  1.00  0.00     0.312 C 
ATOM      7  O   UNL A   1      39.964  30.689  36.545  1.00  0.00    -0.252 OA
BRANCH   6   8
ATOM      8  C   UNL A   1      41.107  30.467  34.410  1.00  0.00     0.124 C 
ATOM      9  C   UNL A   1      43.090  28.986  34.298  1.00  0.00     0.107 C 
ATOM     10  C   UNL A   1      41.855  28.325  33.765  1.00  0.00    -0.006 C 
ATOM     11  C   UNL A   1      42.491  30.203  35.024  1.00  0.00     0.048 C 
ATOM     12  C   UNL A   1      40.787  29.130  33.810  1.00  0.00    -0.014 C 
BRANCH   9  13
ATOM     13  N   UNL A   1      43.759  28.061  35.195  1.00  0.00    -0.332 N 
ATOM     14  C   UNL A   1      44.025  26.747  35.282  1.00  0.00     0.318 C 
ATOM     15  O   UNL A   1      44.726  26.444  36.252  1.00  0.00    -0.249 OA
ATOM     16  H   UNL A   1      44.126  28.539  35.973  1.00  0.00     0.165 HD
BRANCH  14  17
ATOM     17  N   UNL A   1      43.582  25.796  34.406  1.00  0.00    -0.313 N 
ATOM     18  C   UNL A   1      42.796  24.665  34.966  1.00  0.00     0.176 C 
ATOM     19  C   UNL A   1      43.755  23.538  35.353  1.00  0.00     0.035 C 
ATOM     20  C   UNL A   1      44.469  23.072  34.080  1.00  0.00     0.004 C 
ATOM     21  C   UNL A   1      44.176  25.424  33.131  1.00  0.00     0.122 C 
ATOM     22  C   UNL A   1      45.125  24.242  33.340  1.00  0.00     0.022 C 
BRANCH  18  23
ATOM     23  C   UNL A   1      41.656  24.915  35.973  1.00  0.00     0.240 C 
ATOM     24  N   UNL A   1      42.027  24.791  37.286  1.00  0.00    -0.368 N 
ATOM     25  H   UNL A   1      41.364  24.933  38.000  1.00  0.00     0.159 HD
ATOM     26  H   UNL A   1      42.956  24.560  37.515  1.00  0.00     0.159 HD
ATOM     27  O   UNL A   1      40.567  25.401  35.684  1.00  0.00    -0.273 OA
ENDBRANCH  18  23
ENDBRANCH  14  17
ENDBRANCH   9  13
ENDBRANCH   6   8
ENDBRANCH   5   6
ENDBRANCH   4   5
ENDBRANCH   3   4
ENDBRANCH   2   3
ENDBRANCH   1   2
BRANCH   1  28
ATOM     28  C   UNL A   1      34.615  35.141  33.751  1.00  0.00     0.188 C 
BRANCH  28  29
ATOM     29  O   UNL A   1      34.561  35.770  32.479  1.00  0.00    -0.376 OA
BRANCH  29  30
ATOM     30  C   UNL A   1      33.297  35.689  31.836  1.00  0.00     0.202 C 
BRANCH  30  31
ATOM     31  C   UNL A   1      33.476  35.678  30.319  1.00  0.00     0.261 C 
BRANCH  31  32
ATOM     32  O   UNL A   1      32.853  34.534  29.703  1.00  0.00    -0.460 OA
BRANCH  32  33
ATOM     33  C   UNL A   1      33.572  33.922  28.742  1.00  0.00     0.338 C 
ATOM     34  O   UNL A   1      33.241  33.735  27.579  1.00  0.00    -0.246 OA
BRANCH  33  35
ATOM     35  C   UNL A   1      34.895  33.584  29.283  1.00  0.00     0.060 A 
ATOM     36  C   UNL A   1      36.043  34.125  28.694  1.00  0.00     0.016 A 
ATOM     37  C   UNL A   1      35.003  32.663  30.323  1.00  0.00     0.016 A 
ATOM     38  C   UNL A   1      37.308  33.707  29.100  1.00  0.00     0.010 A 
ATOM     39  C   UNL A   1      36.273  32.263  30.747  1.00  0.00     0.010 A 
ATOM     40  C   UNL A   1      37.432  32.756  30.118  1.00  0.00    -0.014 A 
BRANCH  40  41
ATOM     41  C   UNL A   1      38.752  32.168  30.452  1.00  0.00     0.031 A 
ATOM     42  C   UNL A   1      39.610  32.863  31.472  1.00  0.00     0.074 A 
ATOM     43  C   UNL A   1      39.186  31.049  29.847  1.00  0.00     0.049 A 
ATOM     44  N   UNL A   1      40.870  32.680  31.764  1.00  0.00    -0.248 NA
ATOM     45  C   UNL A   1      38.953  33.916  32.264  1.00  0.00     0.031 C 
ATOM     46  C   UNL A   1      38.410  30.239  28.908  1.00  0.00     0.029 A 
ATOM     47  N   UNL A   1      40.400  30.412  29.916  1.00  0.00    -0.354 N 
ATOM     48  C   UNL A   1      41.172  33.621  32.742  1.00  0.00     0.074 A 
ATOM     49  C   UNL A   1      39.961  34.375  32.990  1.00  0.00     0.031 C 
ATOM     50  C   UNL A   1      39.176  29.224  28.471  1.00  0.00     0.029 A 
ATOM     51  C   UNL A   1      40.513  29.354  29.044  1.00  0.00     0.049 A 
ATOM     52  H   UNL A   1      41.119  30.685  30.531  1.00  0.00     0.167 HD
ATOM     53  C   UNL A   1      42.356  33.838  33.367  1.00  0.00     0.034 A 
ATOM     54  C   UNL A   1      41.589  28.616  28.705  1.00  0.00     0.034 A 
ATOM     55  C   UNL A   1      43.547  33.067  33.107  1.00  0.00     0.049 A 
ATOM     56  C   UNL A   1      42.920  28.933  29.344  1.00  0.00     0.074 A 
ATOM     57  C   UNL A   1      44.800  33.193  33.680  1.00  0.00     0.029 A 
ATOM     58  N   UNL A   1      43.632  32.023  32.194  1.00  0.00    -0.354 N 
ATOM     59  N   UNL A   1      43.211  29.855  30.233  1.00  0.00    -0.248 NA
ATOM     60  C   UNL A   1      44.066  28.115  28.928  1.00  0.00     0.031 C 
ATOM     61  C   UNL A   1      45.657  32.270  33.069  1.00  0.00     0.029 A 
ATOM     62  C   UNL A   1      44.921  31.516  32.167  1.00  0.00     0.049 A 
ATOM     63  H   UNL A   1      42.885  31.692  31.645  1.00  0.00     0.167 HD
ATOM     64  C   UNL A   1      44.569  29.706  30.502  1.00  0.00     0.074 A 
ATOM     65  C   UNL A   1      45.033  28.599  29.691  1.00  0.00     0.031 C 
ATOM     66  C   UNL A   1      45.363  30.413  31.346  1.00  0.00     0.034 A 
BRANCH  53  67
ATOM     67  C   UNL A   1      42.431  34.998  34.329  1.00  0.00     0.023 A 
ATOM     68  C   UNL A   1      41.939  34.910  35.642  1.00  0.00     0.031 A 
ATOM     69  C   UNL A   1      42.976  36.224  33.909  1.00  0.00     0.131 A 
ATOM     70  C   UNL A   1      41.943  36.047  36.466  1.00  0.00     0.055 A 
ATOM     71  C   UNL A   1      43.044  37.330  34.758  1.00  0.00     0.041 A 
ATOM     72  F   UNL A   1      43.437  36.374  32.657  1.00  0.00    -0.206 F 
ATOM     73  C   UNL A   1      42.512  37.249  36.041  1.00  0.00     0.022 A 
BRANCH  70  74
ATOM     74  S   UNL A   1      41.070  35.969  38.055  1.00  0.00     0.124 S 
ATOM     75  O   UNL A   1      39.962  36.894  37.829  1.00  0.00    -0.237 OA
ATOM     76  O   UNL A   1      40.712  34.559  38.150  1.00  0.00    -0.237 OA
ATOM     77  O   UNL A   1      42.069  36.426  39.018  1.00  0.00    -0.744 OA
ENDBRANCH  70  74
ENDBRANCH  53  67
BRANCH  54  78
ATOM     78  C   UNL A   1      41.484  27.555  27.662  1.00  0.00     0.023 A 
ATOM     79  C   UNL A   1      41.320  26.206  28.016  1.00  0.00     0.031 A 
ATOM     80  C   UNL A   1      41.605  27.866  26.295  1.00  0.00     0.131 A 
ATOM     81  C   UNL A   1      41.327  25.216  27.022  1.00  0.00     0.055 A 
ATOM     82  C   UNL A   1      41.557  26.883  25.305  1.00  0.00     0.041 A 
ATOM     83  F   UNL A   1      41.767  29.140  25.901  1.00  0.00    -0.206 F 
ATOM     84  C   UNL A   1      41.430  25.546  25.668  1.00  0.00     0.022 A 
BRANCH  81  85
ATOM     85  S   UNL A   1      41.285  23.475  27.531  1.00  0.00     0.124 S 
ATOM     86  O   UNL A   1      41.973  22.826  26.421  1.00  0.00    -0.237 OA
ATOM     87  O   UNL A   1      42.008  23.516  28.799  1.00  0.00    -0.237 OA
ATOM     88  O   UNL A   1      39.858  23.186  27.638  1.00  0.00    -0.744 OA
ENDBRANCH  81  85
ENDBRANCH  54  78
BRANCH  66  89
ATOM     89  C   UNL A   1      46.798  29.966  31.471  1.00  0.00     0.023 A 
ATOM     90  C   UNL A   1      47.199  29.017  32.426  1.00  0.00     0.031 A 
ATOM     91  C   UNL A   1      47.780  30.514  30.626  1.00  0.00     0.131 A 
ATOM     92  C   UNL A   1      48.555  28.684  32.551  1.00  0.00     0.055 A 
ATOM     93  C   UNL A   1      49.120  30.137  30.718  1.00  0.00     0.041 A 
ATOM     94  F   UNL A   1      47.452  31.426  29.697  1.00  0.00    -0.206 F 
ATOM     95  C   UNL A   1      49.516  29.226  31.693  1.00  0.00     0.022 A 
BRANCH  92  96
ATOM     96  S   UNL A   1      49.064  27.597  33.912  1.00  0.00     0.124 S 
ATOM     97  O   UNL A   1      49.466  28.558  34.934  1.00  0.00    -0.237 OA
ATOM     98  O   UNL A   1      47.842  26.848  34.186  1.00  0.00    -0.237 OA
ATOM     99  O   UNL A   1      50.154  26.812  33.335  1.00  0.00    -0.744 OA
ENDBRANCH  92  96
ENDBRANCH  66  89
ENDBRANCH  40  41
ENDBRANCH  33  35
ENDBRANCH  32  33
ENDBRANCH  31  32
ENDBRANCH  30  31
ENDBRANCH  29  30
ENDBRANCH  28  29
ENDBRANCH   1  28
TORSDOF 23
ENDMDL
