MODEL 1
REMARK VINA RESULT:      -8.6      0.000      0.000
REMARK SMILES NS(=O)(=O)c1ccc(-c2cc(Cl)cc3c2O[C@H](C(F)(F)F)C(C(=O)OCCOCCOCCOC(=O)c2ccc(-c4c5nc(c(-c6cc(S(=O)(=O)[O-])ccc6F)c6ccc([nH]6)c(-c6cc(S(=O)(=O)[O-])ccc6F)c6nc(c(-c7cc(S(=O)(=O)[O-])ccc7F)c7ccc4[nH]7)C=C6)C=C5)cc2)=C3)cc1
REMARK SMILES IDX 29 1 28 2 27 3 26 4 25 5 23 6 24 7 22 8 9 9 10 10 15 11
REMARK SMILES IDX 11 12 14 13 16 14 12 15 13 16 100 17 17 18 8 19 5 20 6 21
REMARK SMILES IDX 102 22 7 23 101 24 2 25 3 26 4 27 1 28 18 31 19 32 20 33
REMARK SMILES IDX 21 34 30 35 31 36 32 37 33 38 34 39 35 40 36 41 37 42 38 43
REMARK SMILES IDX 99 44 39 45 98 46 40 47 41 48 42 49 92 50 43 51 97 52 91 53
REMARK SMILES IDX 93 54 44 55 96 56 90 57 89 58 45 60 77 61 57 62 76 63 58 64
REMARK SMILES IDX 61 65 75 66 94 67 59 68 60 69 74 71 95 72 62 73 46 74 47 75
REMARK SMILES IDX 55 76 48 77 54 78 56 79 53 80 49 81 50 82 51 83 52 84 78 85
REMARK SMILES IDX 79 86 87 87 80 88 86 89 88 90 85 91 81 92 82 93 83 94 84 95
REMARK SMILES IDX 63 96 64 97 72 98 65 99 71 100 73 101 70 102 66 103 67 104
REMARK SMILES IDX 68 105 69 106
REMARK H PARENT 1 29 1 30 93 59 61 70
REMARK Flexibility Score: inf
ROOT
ATOM      1  C   UNL A   1      45.471  19.066  24.277  1.00  0.00     0.188 C 
ENDROOT
BRANCH   1   2
ATOM      2  O   UNL A   1      44.266  18.383  24.579  1.00  0.00    -0.376 OA
BRANCH   2   3
ATOM      3  C   UNL A   1      43.872  18.379  25.948  1.00  0.00     0.202 C 
BRANCH   3   4
ATOM      4  C   UNL A   1      42.357  18.342  26.191  1.00  0.00     0.261 C 
BRANCH   4   5
ATOM      5  O   UNL A   1      41.931  19.445  27.031  1.00  0.00    -0.460 OA
BRANCH   5   6
ATOM      6  C   UNL A   1      41.694  20.601  26.373  1.00  0.00     0.338 C 
ATOM      7  O   UNL A   1      42.178  20.887  25.285  1.00  0.00    -0.246 OA
BRANCH   6   8
ATOM      8  C   UNL A   1      40.678  21.447  27.055  1.00  0.00     0.087 C 
ATOM      9  C   UNL A   1      41.253  25.372  28.210  1.00  0.00     0.026 A 
ATOM     10  C   UNL A   1      42.652  25.505  28.367  1.00  0.00     0.033 A 
ATOM     11  C   UNL A   1      40.802  24.068  27.997  1.00  0.00     0.135 A 
ATOM     12  C   UNL A   1      43.517  24.417  28.479  1.00  0.00     0.042 A 
ATOM     13  C   UNL A   1      41.635  22.986  28.359  1.00  0.00     0.019 A 
ATOM     14  O   UNL A   1      39.644  23.732  27.304  1.00  0.00    -0.475 OA
ATOM     15  Cl  UNL A   1      45.217  24.627  28.570  1.00  0.00    -0.084 Cl
ATOM     16  C   UNL A   1      42.996  23.145  28.564  1.00  0.00     0.032 A 
ATOM     17  C   UNL A   1      41.040  21.634  28.335  1.00  0.00     0.027 C 
ATOM     18  C   UNL A   1      39.917  22.583  26.371  1.00  0.00     0.316 C 
BRANCH   9  19
ATOM     19  C   UNL A   1      40.481  26.580  28.618  1.00  0.00    -0.015 A 
ATOM     20  C   UNL A   1      39.681  28.665  30.386  1.00  0.00     0.082 A 
ATOM     21  C   UNL A   1      40.656  28.906  29.420  1.00  0.00     0.022 A 
ATOM     22  C   UNL A   1      39.038  27.426  30.420  1.00  0.00     0.022 A 
ATOM     23  C   UNL A   1      41.033  27.871  28.539  1.00  0.00     0.010 A 
ATOM     24  C   UNL A   1      39.424  26.404  29.535  1.00  0.00     0.010 A 
BRANCH  20  25
ATOM     25  S   UNL A   1      39.333  29.843  31.674  1.00  0.00     0.238 S 
ATOM     26  O   UNL A   1      39.637  29.226  32.941  1.00  0.00    -0.207 OA
ATOM     27  O   UNL A   1      38.046  30.438  31.383  1.00  0.00    -0.207 OA
BRANCH  25  28
ATOM     28  N   UNL A   1      40.475  31.054  31.476  1.00  0.00    -0.225 NA
ATOM     29  H   UNL A   1      41.146  31.019  32.244  1.00  0.00     0.137 HD
ATOM     30  H   UNL A   1      40.011  31.962  31.471  1.00  0.00     0.137 HD
ENDBRANCH  25  28
ENDBRANCH  20  25
ENDBRANCH   9  19
BRANCH  18  31
ATOM     31  C   UNL A   1      38.628  22.019  25.767  1.00  0.00     0.430 C 
ATOM     32  F   UNL A   1      38.237  22.697  24.665  1.00  0.00    -0.167 F 
ATOM     33  F   UNL A   1      38.751  20.715  25.433  1.00  0.00    -0.167 F 
ATOM     34  F   UNL A   1      37.607  22.095  26.661  1.00  0.00    -0.167 F 
ENDBRANCH  18  31
ENDBRANCH   6   8
ENDBRANCH   5   6
ENDBRANCH   4   5
ENDBRANCH   3   4
ENDBRANCH   2   3
ENDBRANCH   1   2
BRANCH   1  35
ATOM     35  C   UNL A   1      45.718  20.344  25.109  1.00  0.00     0.188 C 
BRANCH  35  36
ATOM     36  O   UNL A   1      45.401  21.618  24.562  1.00  0.00    -0.376 OA
BRANCH  36  37
ATOM     37  C   UNL A   1      45.604  22.783  25.354  1.00  0.00     0.202 C 
BRANCH  37  38
ATOM     38  C   UNL A   1      46.442  23.928  24.773  1.00  0.00     0.261 C 
BRANCH  38  39
ATOM     39  O   UNL A   1      46.784  24.957  25.724  1.00  0.00    -0.460 OA
BRANCH  39  40
ATOM     40  C   UNL A   1      46.800  26.220  25.225  1.00  0.00     0.338 C 
ATOM     41  O   UNL A   1      47.155  26.559  24.109  1.00  0.00    -0.246 OA
BRANCH  40  42
ATOM     42  C   UNL A   1      46.145  27.158  26.162  1.00  0.00     0.060 A 
ATOM     43  C   UNL A   1      46.926  27.699  27.185  1.00  0.00     0.016 A 
ATOM     44  C   UNL A   1      44.773  27.424  26.118  1.00  0.00     0.016 A 
ATOM     45  C   UNL A   1      46.333  28.495  28.165  1.00  0.00     0.010 A 
ATOM     46  C   UNL A   1      44.182  28.225  27.114  1.00  0.00     0.010 A 
ATOM     47  C   UNL A   1      44.956  28.769  28.151  1.00  0.00    -0.014 A 
BRANCH  47  48
ATOM     48  C   UNL A   1      44.349  29.504  29.302  1.00  0.00     0.031 A 
ATOM     49  C   UNL A   1      44.228  28.815  30.629  1.00  0.00     0.074 A 
ATOM     50  C   UNL A   1      43.958  30.791  29.204  1.00  0.00     0.049 A 
ATOM     51  N   UNL A   1      43.752  29.274  31.758  1.00  0.00    -0.248 NA
ATOM     52  C   UNL A   1      44.674  27.418  30.678  1.00  0.00     0.031 C 
ATOM     53  C   UNL A   1      44.015  31.571  27.981  1.00  0.00     0.029 A 
ATOM     54  N   UNL A   1      43.496  31.687  30.144  1.00  0.00    -0.354 N 
ATOM     55  C   UNL A   1      43.768  28.198  32.635  1.00  0.00     0.074 A 
ATOM     56  C   UNL A   1      44.357  27.084  31.919  1.00  0.00     0.031 C 
ATOM     57  C   UNL A   1      43.737  32.855  28.267  1.00  0.00     0.029 A 
ATOM     58  C   UNL A   1      43.384  32.982  29.676  1.00  0.00     0.049 A 
ATOM     59  H   UNL A   1      43.267  31.427  31.066  1.00  0.00     0.167 HD
ATOM     60  C   UNL A   1      43.282  28.134  33.899  1.00  0.00     0.034 A 
ATOM     61  C   UNL A   1      43.030  34.133  30.296  1.00  0.00     0.034 A 
ATOM     62  C   UNL A   1      42.678  29.245  34.592  1.00  0.00     0.049 A 
ATOM     63  C   UNL A   1      42.514  34.047  31.713  1.00  0.00     0.074 A 
ATOM     64  C   UNL A   1      42.162  29.278  35.876  1.00  0.00     0.029 A 
ATOM     65  N   UNL A   1      42.478  30.511  34.055  1.00  0.00    -0.354 N 
ATOM     66  N   UNL A   1      42.514  33.015  32.529  1.00  0.00    -0.248 NA
ATOM     67  C   UNL A   1      41.894  35.255  32.277  1.00  0.00     0.031 C 
ATOM     68  C   UNL A   1      41.593  30.538  36.089  1.00  0.00     0.029 A 
ATOM     69  C   UNL A   1      41.834  31.327  34.976  1.00  0.00     0.049 A 
ATOM     70  H   UNL A   1      42.753  30.789  33.152  1.00  0.00     0.167 HD
ATOM     71  C   UNL A   1      41.840  33.436  33.672  1.00  0.00     0.074 A 
ATOM     72  C   UNL A   1      41.532  34.838  33.482  1.00  0.00     0.031 C 
ATOM     73  C   UNL A   1      41.497  32.718  34.771  1.00  0.00     0.034 A 
BRANCH  60  74
ATOM     74  C   UNL A   1      43.267  26.772  34.548  1.00  0.00     0.023 A 
ATOM     75  C   UNL A   1      44.443  26.123  34.958  1.00  0.00     0.031 A 
ATOM     76  C   UNL A   1      42.050  26.079  34.675  1.00  0.00     0.131 A 
ATOM     77  C   UNL A   1      44.385  24.788  35.387  1.00  0.00     0.055 A 
ATOM     78  C   UNL A   1      41.990  24.783  35.188  1.00  0.00     0.041 A 
ATOM     79  F   UNL A   1      40.899  26.639  34.271  1.00  0.00    -0.206 F 
ATOM     80  C   UNL A   1      43.165  24.122  35.529  1.00  0.00     0.022 A 
BRANCH  77  81
ATOM     81  S   UNL A   1      45.942  23.877  35.576  1.00  0.00     0.124 S 
ATOM     82  O   UNL A   1      46.528  24.018  34.244  1.00  0.00    -0.237 OA
ATOM     83  O   UNL A   1      46.606  24.609  36.647  1.00  0.00    -0.237 OA
ATOM     84  O   UNL A   1      45.509  22.524  35.917  1.00  0.00    -0.744 OA
ENDBRANCH  77  81
ENDBRANCH  60  74
BRANCH  61  85
ATOM     85  C   UNL A   1      43.073  35.459  29.594  1.00  0.00     0.023 A 
ATOM     86  C   UNL A   1      44.158  36.340  29.773  1.00  0.00     0.031 A 
ATOM     87  C   UNL A   1      42.014  35.902  28.779  1.00  0.00     0.131 A 
ATOM     88  C   UNL A   1      44.151  37.609  29.163  1.00  0.00     0.055 A 
ATOM     89  C   UNL A   1      42.045  37.131  28.116  1.00  0.00     0.041 A 
ATOM     90  F   UNL A   1      40.924  35.138  28.604  1.00  0.00    -0.206 F 
ATOM     91  C   UNL A   1      43.114  37.996  28.312  1.00  0.00     0.022 A 
BRANCH  88  92
ATOM     92  S   UNL A   1      45.472  38.793  29.558  1.00  0.00     0.124 S 
ATOM     93  O   UNL A   1      44.859  40.062  29.181  1.00  0.00    -0.237 OA
ATOM     94  O   UNL A   1      45.670  38.565  30.986  1.00  0.00    -0.237 OA
ATOM     95  O   UNL A   1      46.578  38.363  28.705  1.00  0.00    -0.744 OA
ENDBRANCH  88  92
ENDBRANCH  61  85
BRANCH  73  96
ATOM     96  C   UNL A   1      40.758  33.448  35.869  1.00  0.00     0.023 A 
ATOM     97  C   UNL A   1      41.432  34.180  36.862  1.00  0.00     0.031 A 
ATOM     98  C   UNL A   1      39.352  33.412  35.916  1.00  0.00     0.131 A 
ATOM     99  C   UNL A   1      40.703  34.814  37.882  1.00  0.00     0.055 A 
ATOM    100  C   UNL A   1      38.631  34.092  36.899  1.00  0.00     0.041 A 
ATOM    101  F   UNL A   1      38.657  32.725  34.996  1.00  0.00    -0.206 F 
ATOM    102  C   UNL A   1      39.307  34.791  37.895  1.00  0.00     0.022 A 
BRANCH  99 103
ATOM    103  S   UNL A   1      41.606  35.622  39.234  1.00  0.00     0.124 S 
ATOM    104  O   UNL A   1      40.994  36.946  39.257  1.00  0.00    -0.237 OA
ATOM    105  O   UNL A   1      41.305  34.759  40.372  1.00  0.00    -0.237 OA
ATOM    106  O   UNL A   1      42.998  35.589  38.786  1.00  0.00    -0.744 OA
ENDBRANCH  99 103
ENDBRANCH  73  96
ENDBRANCH  47  48
ENDBRANCH  40  42
ENDBRANCH  39  40
ENDBRANCH  38  39
ENDBRANCH  37  38
ENDBRANCH  36  37
ENDBRANCH  35  36
ENDBRANCH   1  35
TORSDOF 24
ENDMDL
MODEL 2
REMARK VINA RESULT:      -8.0      3.592      8.736
REMARK SMILES NS(=O)(=O)c1ccc(-c2cc(Cl)cc3c2O[C@H](C(F)(F)F)C(C(=O)OCCOCCOCCOC(=O)c2ccc(-c4c5nc(c(-c6cc(S(=O)(=O)[O-])ccc6F)c6ccc([nH]6)c(-c6cc(S(=O)(=O)[O-])ccc6F)c6nc(c(-c7cc(S(=O)(=O)[O-])ccc7F)c7ccc4[nH]7)C=C6)C=C5)cc2)=C3)cc1
REMARK SMILES IDX 29 1 28 2 27 3 26 4 25 5 23 6 24 7 22 8 9 9 10 10 15 11
REMARK SMILES IDX 11 12 14 13 16 14 12 15 13 16 100 17 17 18 8 19 5 20 6 21
REMARK SMILES IDX 102 22 7 23 101 24 2 25 3 26 4 27 1 28 18 31 19 32 20 33
REMARK SMILES IDX 21 34 30 35 31 36 32 37 33 38 34 39 35 40 36 41 37 42 38 43
REMARK SMILES IDX 99 44 39 45 98 46 40 47 41 48 42 49 92 50 43 51 97 52 91 53
REMARK SMILES IDX 93 54 44 55 96 56 90 57 89 58 45 60 77 61 57 62 76 63 58 64
REMARK SMILES IDX 61 65 75 66 94 67 59 68 60 69 74 71 95 72 62 73 46 74 47 75
REMARK SMILES IDX 55 76 48 77 54 78 56 79 53 80 49 81 50 82 51 83 52 84 78 85
REMARK SMILES IDX 79 86 87 87 80 88 86 89 88 90 85 91 81 92 82 93 83 94 84 95
REMARK SMILES IDX 63 96 64 97 72 98 65 99 71 100 73 101 70 102 66 103 67 104
REMARK SMILES IDX 68 105 69 106
REMARK H PARENT 1 29 1 30 93 59 61 70
REMARK Flexibility Score: inf
ROOT
ATOM      1  C   UNL A   1      47.165  27.239  24.749  1.00  0.00     0.188 C 
ENDROOT
BRANCH   1   2
ATOM      2  O   UNL A   1      46.439  26.178  25.348  1.00  0.00    -0.376 OA
BRANCH   2   3
ATOM      3  C   UNL A   1      45.424  26.555  26.272  1.00  0.00     0.202 C 
BRANCH   3   4
ATOM      4  C   UNL A   1      45.194  25.570  27.426  1.00  0.00     0.261 C 
BRANCH   4   5
ATOM      5  O   UNL A   1      44.091  25.994  28.269  1.00  0.00    -0.460 OA
BRANCH   5   6
ATOM      6  C   UNL A   1      43.092  25.092  28.392  1.00  0.00     0.338 C 
ATOM      7  O   UNL A   1      43.120  24.132  29.151  1.00  0.00    -0.246 OA
BRANCH   6   8
ATOM      8  C   UNL A   1      41.892  25.459  27.594  1.00  0.00     0.087 C 
ATOM      9  C   UNL A   1      39.028  22.796  26.263  1.00  0.00     0.026 A 
ATOM     10  C   UNL A   1      39.691  21.549  26.197  1.00  0.00     0.033 A 
ATOM     11  C   UNL A   1      39.852  23.893  26.517  1.00  0.00     0.135 A 
ATOM     12  C   UNL A   1      41.079  21.419  26.208  1.00  0.00     0.042 A 
ATOM     13  C   UNL A   1      41.240  23.780  26.276  1.00  0.00     0.019 A 
ATOM     14  O   UNL A   1      39.443  25.064  27.144  1.00  0.00    -0.475 OA
ATOM     15  Cl  UNL A   1      41.838  19.879  26.224  1.00  0.00    -0.084 Cl
ATOM     16  C   UNL A   1      41.865  22.549  26.158  1.00  0.00     0.032 A 
ATOM     17  C   UNL A   1      42.041  25.019  26.335  1.00  0.00     0.027 C 
ATOM     18  C   UNL A   1      40.471  25.492  28.158  1.00  0.00     0.316 C 
BRANCH   9  19
ATOM     19  C   UNL A   1      37.634  22.767  25.734  1.00  0.00    -0.015 A 
ATOM     20  C   UNL A   1      34.864  22.107  25.772  1.00  0.00     0.082 A 
ATOM     21  C   UNL A   1      35.288  23.362  26.205  1.00  0.00     0.022 A 
ATOM     22  C   UNL A   1      35.794  21.213  25.237  1.00  0.00     0.022 A 
ATOM     23  C   UNL A   1      36.660  23.684  26.166  1.00  0.00     0.010 A 
ATOM     24  C   UNL A   1      37.159  21.549  25.204  1.00  0.00     0.010 A 
BRANCH  20  25
ATOM     25  S   UNL A   1      33.190  21.552  26.017  1.00  0.00     0.238 S 
ATOM     26  O   UNL A   1      32.661  21.142  24.741  1.00  0.00    -0.207 OA
ATOM     27  O   UNL A   1      32.530  22.524  26.862  1.00  0.00    -0.207 OA
BRANCH  25  28
ATOM     28  N   UNL A   1      33.326  20.147  26.922  1.00  0.00    -0.225 NA
ATOM     29  H   UNL A   1      34.098  19.585  26.563  1.00  0.00     0.137 HD
ATOM     30  H   UNL A   1      32.459  19.615  26.856  1.00  0.00     0.137 HD
ENDBRANCH  25  28
ENDBRANCH  20  25
ENDBRANCH   9  19
BRANCH  18  31
ATOM     31  C   UNL A   1      40.188  26.896  28.700  1.00  0.00     0.430 C 
ATOM     32  F   UNL A   1      40.295  27.847  27.745  1.00  0.00    -0.167 F 
ATOM     33  F   UNL A   1      38.956  26.991  29.248  1.00  0.00    -0.167 F 
ATOM     34  F   UNL A   1      41.074  27.219  29.680  1.00  0.00    -0.167 F 
ENDBRANCH  18  31
ENDBRANCH   6   8
ENDBRANCH   5   6
ENDBRANCH   4   5
ENDBRANCH   3   4
ENDBRANCH   2   3
ENDBRANCH   1   2
BRANCH   1  35
ATOM     35  C   UNL A   1      48.622  26.893  24.370  1.00  0.00     0.188 C 
BRANCH  35  36
ATOM     36  O   UNL A   1      49.383  27.799  23.580  1.00  0.00    -0.376 OA
BRANCH  36  37
ATOM     37  C   UNL A   1      50.740  28.050  23.928  1.00  0.00     0.202 C 
BRANCH  37  38
ATOM     38  C   UNL A   1      51.644  26.857  24.264  1.00  0.00     0.261 C 
BRANCH  38  39
ATOM     39  O   UNL A   1      52.461  27.042  25.437  1.00  0.00    -0.460 OA
BRANCH  39  40
ATOM     40  C   UNL A   1      52.303  26.101  26.404  1.00  0.00     0.338 C 
ATOM     41  O   UNL A   1      53.037  25.153  26.625  1.00  0.00    -0.246 OA
BRANCH  40  42
ATOM     42  C   UNL A   1      51.194  26.467  27.310  1.00  0.00     0.060 A 
ATOM     43  C   UNL A   1      50.055  25.658  27.296  1.00  0.00     0.016 A 
ATOM     44  C   UNL A   1      51.209  27.634  28.079  1.00  0.00     0.016 A 
ATOM     45  C   UNL A   1      48.934  26.024  28.042  1.00  0.00     0.010 A 
ATOM     46  C   UNL A   1      50.071  27.998  28.825  1.00  0.00     0.010 A 
ATOM     47  C   UNL A   1      48.919  27.196  28.813  1.00  0.00    -0.014 A 
BRANCH  47  48
ATOM     48  C   UNL A   1      47.646  27.616  29.475  1.00  0.00     0.031 A 
ATOM     49  C   UNL A   1      46.840  28.728  28.873  1.00  0.00     0.074 A 
ATOM     50  C   UNL A   1      47.165  26.987  30.566  1.00  0.00     0.049 A 
ATOM     51  N   UNL A   1      45.702  29.234  29.272  1.00  0.00    -0.248 NA
ATOM     52  C   UNL A   1      47.409  29.371  27.683  1.00  0.00     0.031 C 
ATOM     53  C   UNL A   1      47.846  25.903  31.251  1.00  0.00     0.029 A 
ATOM     54  N   UNL A   1      45.980  27.118  31.257  1.00  0.00    -0.354 N 
ATOM     55  C   UNL A   1      45.454  30.309  28.429  1.00  0.00     0.074 A 
ATOM     56  C   UNL A   1      46.533  30.338  27.462  1.00  0.00     0.031 C 
ATOM     57  C   UNL A   1      47.018  25.377  32.171  1.00  0.00     0.029 A 
ATOM     58  C   UNL A   1      45.779  26.146  32.217  1.00  0.00     0.049 A 
ATOM     59  H   UNL A   1      45.333  27.840  31.081  1.00  0.00     0.167 HD
ATOM     60  C   UNL A   1      44.450  31.217  28.495  1.00  0.00     0.034 A 
ATOM     61  C   UNL A   1      44.736  25.903  33.046  1.00  0.00     0.034 A 
ATOM     62  C   UNL A   1      43.393  31.188  29.477  1.00  0.00     0.049 A 
ATOM     63  C   UNL A   1      43.614  26.913  33.089  1.00  0.00     0.074 A 
ATOM     64  C   UNL A   1      42.331  32.062  29.620  1.00  0.00     0.029 A 
ATOM     65  N   UNL A   1      43.280  30.258  30.503  1.00  0.00    -0.354 N 
ATOM     66  N   UNL A   1      43.400  27.941  32.297  1.00  0.00    -0.248 NA
ATOM     67  C   UNL A   1      42.625  26.772  34.169  1.00  0.00     0.031 C 
ATOM     68  C   UNL A   1      41.615  31.700  30.767  1.00  0.00     0.029 A 
ATOM     69  C   UNL A   1      42.172  30.545  31.290  1.00  0.00     0.049 A 
ATOM     70  H   UNL A   1      43.895  29.503  30.650  1.00  0.00     0.167 HD
ATOM     71  C   UNL A   1      42.292  28.601  32.826  1.00  0.00     0.074 A 
ATOM     72  C   UNL A   1      41.826  27.806  33.941  1.00  0.00     0.031 C 
ATOM     73  C   UNL A   1      41.727  29.768  32.426  1.00  0.00     0.034 A 
BRANCH  60  74
ATOM     74  C   UNL A   1      44.541  32.393  27.554  1.00  0.00     0.023 A 
ATOM     75  C   UNL A   1      45.090  33.625  27.943  1.00  0.00     0.031 A 
ATOM     76  C   UNL A   1      43.983  32.293  26.266  1.00  0.00     0.131 A 
ATOM     77  C   UNL A   1      44.984  34.733  27.088  1.00  0.00     0.055 A 
ATOM     78  C   UNL A   1      43.963  33.376  25.387  1.00  0.00     0.041 A 
ATOM     79  F   UNL A   1      43.418  31.148  25.853  1.00  0.00    -0.206 F 
ATOM     80  C   UNL A   1      44.448  34.611  25.803  1.00  0.00     0.022 A 
BRANCH  77  81
ATOM     81  S   UNL A   1      45.385  36.373  27.750  1.00  0.00     0.124 S 
ATOM     82  O   UNL A   1      46.217  36.925  26.683  1.00  0.00    -0.237 OA
ATOM     83  O   UNL A   1      44.068  36.976  27.910  1.00  0.00    -0.237 OA
ATOM     84  O   UNL A   1      46.094  36.077  28.993  1.00  0.00    -0.744 OA
ENDBRANCH  77  81
ENDBRANCH  60  74
BRANCH  61  85
ATOM     85  C   UNL A   1      44.704  24.709  33.955  1.00  0.00     0.023 A 
ATOM     86  C   UNL A   1      45.181  24.791  35.279  1.00  0.00     0.031 A 
ATOM     87  C   UNL A   1      44.253  23.451  33.513  1.00  0.00     0.131 A 
ATOM     88  C   UNL A   1      45.207  23.646  36.097  1.00  0.00     0.055 A 
ATOM     89  C   UNL A   1      44.212  22.334  34.351  1.00  0.00     0.041 A 
ATOM     90  F   UNL A   1      43.833  23.285  32.248  1.00  0.00    -0.206 F 
ATOM     91  C   UNL A   1      44.699  22.426  35.649  1.00  0.00     0.022 A 
BRANCH  88  92
ATOM     92  S   UNL A   1      45.995  23.739  37.732  1.00  0.00     0.124 S 
ATOM     93  O   UNL A   1      47.384  24.010  37.380  1.00  0.00    -0.237 OA
ATOM     94  O   UNL A   1      45.260  24.829  38.365  1.00  0.00    -0.237 OA
ATOM     95  O   UNL A   1      45.749  22.416  38.302  1.00  0.00    -0.744 OA
ENDBRANCH  88  92
ENDBRANCH  61  85
BRANCH  73  96
ATOM     96  C   UNL A   1      40.520  30.249  33.197  1.00  0.00     0.023 A 
ATOM     97  C   UNL A   1      40.631  31.156  34.266  1.00  0.00     0.031 A 
ATOM     98  C   UNL A   1      39.234  29.795  32.849  1.00  0.00     0.131 A 
ATOM     99  C   UNL A   1      39.484  31.549  34.975  1.00  0.00     0.055 A 
ATOM    100  C   UNL A   1      38.092  30.234  33.520  1.00  0.00     0.041 A 
ATOM    101  F   UNL A   1      39.069  28.926  31.839  1.00  0.00    -0.206 F 
ATOM    102  C   UNL A   1      38.213  31.108  34.596  1.00  0.00     0.022 A 
BRANCH  99 103
ATOM    103  S   UNL A   1      39.676  32.597  36.444  1.00  0.00     0.124 S 
ATOM    104  O   UNL A   1      38.908  33.781  36.073  1.00  0.00    -0.237 OA
ATOM    105  O   UNL A   1      39.100  31.768  37.498  1.00  0.00    -0.237 OA
ATOM    106  O   UNL A   1      41.121  32.798  36.537  1.00  0.00    -0.744 OA
ENDBRANCH  99 103
ENDBRANCH  73  96
ENDBRANCH  47  48
ENDBRANCH  40  42
ENDBRANCH  39  40
ENDBRANCH  38  39
ENDBRANCH  37  38
ENDBRANCH  36  37
ENDBRANCH  35  36
ENDBRANCH   1  35
TORSDOF 24
ENDMDL
MODEL 3
REMARK VINA RESULT:      -7.9      3.597      9.594
REMARK SMILES NS(=O)(=O)c1ccc(-c2cc(Cl)cc3c2O[C@H](C(F)(F)F)C(C(=O)OCCOCCOCCOC(=O)c2ccc(-c4c5nc(c(-c6cc(S(=O)(=O)[O-])ccc6F)c6ccc([nH]6)c(-c6cc(S(=O)(=O)[O-])ccc6F)c6nc(c(-c7cc(S(=O)(=O)[O-])ccc7F)c7ccc4[nH]7)C=C6)C=C5)cc2)=C3)cc1
REMARK SMILES IDX 29 1 28 2 27 3 26 4 25 5 23 6 24 7 22 8 9 9 10 10 15 11
REMARK SMILES IDX 11 12 14 13 16 14 12 15 13 16 100 17 17 18 8 19 5 20 6 21
REMARK SMILES IDX 102 22 7 23 101 24 2 25 3 26 4 27 1 28 18 31 19 32 20 33
REMARK SMILES IDX 21 34 30 35 31 36 32 37 33 38 34 39 35 40 36 41 37 42 38 43
REMARK SMILES IDX 99 44 39 45 98 46 40 47 41 48 42 49 92 50 43 51 97 52 91 53
REMARK SMILES IDX 93 54 44 55 96 56 90 57 89 58 45 60 77 61 57 62 76 63 58 64
REMARK SMILES IDX 61 65 75 66 94 67 59 68 60 69 74 71 95 72 62 73 46 74 47 75
REMARK SMILES IDX 55 76 48 77 54 78 56 79 53 80 49 81 50 82 51 83 52 84 78 85
REMARK SMILES IDX 79 86 87 87 80 88 86 89 88 90 85 91 81 92 82 93 83 94 84 95
REMARK SMILES IDX 63 96 64 97 72 98 65 99 71 100 73 101 70 102 66 103 67 104
REMARK SMILES IDX 68 105 69 106
REMARK H PARENT 1 29 1 30 93 59 61 70
REMARK Flexibility Score: inf
ROOT
ATOM      1  C   UNL A   1      35.546  33.659  29.748  1.00  0.00     0.188 C 
ENDROOT
BRANCH   1   2
ATOM      2  O   UNL A   1      36.677  32.882  30.104  1.00  0.00    -0.376 OA
BRANCH   2   3
ATOM      3  C   UNL A   1      37.906  33.238  29.478  1.00  0.00     0.202 C 
BRANCH   3   4
ATOM      4  C   UNL A   1      39.106  32.356  29.848  1.00  0.00     0.261 C 
BRANCH   4   5
ATOM      5  O   UNL A   1      38.937  31.002  29.357  1.00  0.00    -0.460 OA
BRANCH   5   6
ATOM      6  C   UNL A   1      40.085  30.308  29.199  1.00  0.00     0.338 C 
ATOM      7  O   UNL A   1      41.182  30.692  29.583  1.00  0.00    -0.246 OA
BRANCH   6   8
ATOM      8  C   UNL A   1      39.860  28.959  28.614  1.00  0.00     0.087 C 
ATOM      9  C   UNL A   1      42.838  26.441  27.249  1.00  0.00     0.026 A 
ATOM     10  C   UNL A   1      43.915  27.295  26.919  1.00  0.00     0.033 A 
ATOM     11  C   UNL A   1      41.643  27.090  27.564  1.00  0.00     0.135 A 
ATOM     12  C   UNL A   1      43.775  28.671  26.744  1.00  0.00     0.042 A 
ATOM     13  C   UNL A   1      41.455  28.425  27.146  1.00  0.00     0.019 A 
ATOM     14  O   UNL A   1      40.660  26.578  28.405  1.00  0.00    -0.475 OA
ATOM     15  Cl  UNL A   1      45.129  29.680  26.440  1.00  0.00    -0.084 Cl
ATOM     16  C   UNL A   1      42.518  29.233  26.772  1.00  0.00     0.032 A 
ATOM     17  C   UNL A   1      40.102  28.999  27.293  1.00  0.00     0.027 C 
ATOM     18  C   UNL A   1      40.172  27.651  29.341  1.00  0.00     0.316 C 
BRANCH   9  19
ATOM     19  C   UNL A   1      43.068  25.012  26.892  1.00  0.00    -0.015 A 
ATOM     20  C   UNL A   1      44.417  22.845  25.629  1.00  0.00     0.082 A 
ATOM     21  C   UNL A   1      44.688  23.154  26.960  1.00  0.00     0.022 A 
ATOM     22  C   UNL A   1      43.418  23.544  24.950  1.00  0.00     0.022 A 
ATOM     23  C   UNL A   1      44.002  24.218  27.581  1.00  0.00     0.010 A 
ATOM     24  C   UNL A   1      42.741  24.603  25.582  1.00  0.00     0.010 A 
BRANCH  20  25
ATOM     25  S   UNL A   1      45.410  21.679  24.721  1.00  0.00     0.238 S 
ATOM     26  O   UNL A   1      44.545  20.951  23.827  1.00  0.00    -0.207 OA
ATOM     27  O   UNL A   1      46.285  21.024  25.668  1.00  0.00    -0.207 OA
BRANCH  25  28
ATOM     28  N   UNL A   1      46.390  22.618  23.736  1.00  0.00    -0.225 NA
ATOM     29  H   UNL A   1      46.649  22.084  22.906  1.00  0.00     0.137 HD
ATOM     30  H   UNL A   1      47.232  22.882  24.247  1.00  0.00     0.137 HD
ENDBRANCH  25  28
ENDBRANCH  20  25
ENDBRANCH   9  19
BRANCH  18  31
ATOM     31  C   UNL A   1      38.928  27.210  30.117  1.00  0.00     0.430 C 
ATOM     32  F   UNL A   1      37.841  27.955  29.813  1.00  0.00    -0.167 F 
ATOM     33  F   UNL A   1      38.621  25.913  29.891  1.00  0.00    -0.167 F 
ATOM     34  F   UNL A   1      39.130  27.333  31.456  1.00  0.00    -0.167 F 
ENDBRANCH  18  31
ENDBRANCH   6   8
ENDBRANCH   5   6
ENDBRANCH   4   5
ENDBRANCH   3   4
ENDBRANCH   2   3
ENDBRANCH   1   2
BRANCH   1  35
ATOM     35  C   UNL A   1      34.699  34.154  30.942  1.00  0.00     0.188 C 
BRANCH  35  36
ATOM     36  O   UNL A   1      34.172  33.218  31.875  1.00  0.00    -0.376 OA
BRANCH  36  37
ATOM     37  C   UNL A   1      35.023  32.700  32.891  1.00  0.00     0.202 C 
BRANCH  37  38
ATOM     38  C   UNL A   1      35.365  33.595  34.088  1.00  0.00     0.261 C 
BRANCH  38  39
ATOM     39  O   UNL A   1      36.778  33.781  34.308  1.00  0.00    -0.460 OA
BRANCH  39  40
ATOM     40  C   UNL A   1      37.330  32.959  35.237  1.00  0.00     0.338 C 
ATOM     41  O   UNL A   1      36.871  32.685  36.333  1.00  0.00    -0.246 OA
BRANCH  40  42
ATOM     42  C   UNL A   1      38.510  32.262  34.682  1.00  0.00     0.060 A 
ATOM     43  C   UNL A   1      39.763  32.609  35.191  1.00  0.00     0.016 A 
ATOM     44  C   UNL A   1      38.416  31.370  33.609  1.00  0.00     0.016 A 
ATOM     45  C   UNL A   1      40.917  32.071  34.621  1.00  0.00     0.010 A 
ATOM     46  C   UNL A   1      39.587  30.836  33.038  1.00  0.00     0.010 A 
ATOM     47  C   UNL A   1      40.852  31.181  33.537  1.00  0.00    -0.014 A 
BRANCH  47  48
ATOM     48  C   UNL A   1      42.120  30.749  32.873  1.00  0.00     0.031 A 
ATOM     49  C   UNL A   1      42.605  29.343  33.068  1.00  0.00     0.074 A 
ATOM     50  C   UNL A   1      42.814  31.564  32.054  1.00  0.00     0.049 A 
ATOM     51  N   UNL A   1      43.664  28.758  32.571  1.00  0.00    -0.248 NA
ATOM     52  C   UNL A   1      41.806  28.499  33.964  1.00  0.00     0.031 C 
ATOM     53  C   UNL A   1      42.459  32.946  31.784  1.00  0.00     0.029 A 
ATOM     54  N   UNL A   1      43.916  31.346  31.256  1.00  0.00    -0.354 N 
ATOM     55  C   UNL A   1      43.704  27.499  33.155  1.00  0.00     0.074 A 
ATOM     56  C   UNL A   1      42.529  27.391  33.996  1.00  0.00     0.031 C 
ATOM     57  C   UNL A   1      43.234  33.411  30.789  1.00  0.00     0.029 A 
ATOM     58  C   UNL A   1      44.213  32.398  30.411  1.00  0.00     0.049 A 
ATOM     59  H   UNL A   1      44.444  30.515  31.285  1.00  0.00     0.167 HD
ATOM     60  C   UNL A   1      44.665  26.549  33.043  1.00  0.00     0.034 A 
ATOM     61  C   UNL A   1      45.162  32.542  29.455  1.00  0.00     0.034 A 
ATOM     62  C   UNL A   1      45.842  26.679  32.218  1.00  0.00     0.049 A 
ATOM     63  C   UNL A   1      46.210  31.461  29.327  1.00  0.00     0.074 A 
ATOM     64  C   UNL A   1      46.867  25.768  32.037  1.00  0.00     0.029 A 
ATOM     65  N   UNL A   1      46.170  27.798  31.463  1.00  0.00    -0.354 N 
ATOM     66  N   UNL A   1      46.250  30.279  29.903  1.00  0.00    -0.248 NA
ATOM     67  C   UNL A   1      47.371  31.751  28.473  1.00  0.00     0.031 C 
ATOM     68  C   UNL A   1      47.843  26.360  31.228  1.00  0.00     0.029 A 
ATOM     69  C   UNL A   1      47.388  27.605  30.825  1.00  0.00     0.049 A 
ATOM     70  H   UNL A   1      45.618  28.610  31.390  1.00  0.00     0.167 HD
ATOM     71  C   UNL A   1      47.468  29.718  29.528  1.00  0.00     0.074 A 
ATOM     72  C   UNL A   1      48.089  30.644  28.605  1.00  0.00     0.031 C 
ATOM     73  C   UNL A   1      48.024  28.546  29.929  1.00  0.00     0.034 A 
BRANCH  60  74
ATOM     74  C   UNL A   1      44.534  25.348  33.947  1.00  0.00     0.023 A 
ATOM     75  C   UNL A   1      44.931  25.376  35.293  1.00  0.00     0.031 A 
ATOM     76  C   UNL A   1      44.082  24.127  33.414  1.00  0.00     0.131 A 
ATOM     77  C   UNL A   1      44.955  24.184  36.034  1.00  0.00     0.055 A 
ATOM     78  C   UNL A   1      44.023  22.965  34.183  1.00  0.00     0.041 A 
ATOM     79  F   UNL A   1      43.719  24.035  32.125  1.00  0.00    -0.206 F 
ATOM     80  C   UNL A   1      44.480  22.984  35.497  1.00  0.00     0.022 A 
BRANCH  77  81
ATOM     81  S   UNL A   1      45.791  24.188  37.644  1.00  0.00     0.124 S 
ATOM     82  O   UNL A   1      46.314  22.824  37.705  1.00  0.00    -0.237 OA
ATOM     83  O   UNL A   1      46.781  25.245  37.479  1.00  0.00    -0.237 OA
ATOM     84  O   UNL A   1      44.715  24.478  38.588  1.00  0.00    -0.744 OA
ENDBRANCH  77  81
ENDBRANCH  60  74
BRANCH  61  85
ATOM     85  C   UNL A   1      45.233  33.762  28.583  1.00  0.00     0.023 A 
ATOM     86  C   UNL A   1      45.840  34.948  29.042  1.00  0.00     0.031 A 
ATOM     87  C   UNL A   1      44.652  33.792  27.301  1.00  0.00     0.131 A 
ATOM     88  C   UNL A   1      45.839  36.103  28.238  1.00  0.00     0.055 A 
ATOM     89  C   UNL A   1      44.718  34.919  26.478  1.00  0.00     0.041 A 
ATOM     90  F   UNL A   1      44.012  32.715  26.819  1.00  0.00    -0.206 F 
ATOM     91  C   UNL A   1      45.307  36.086  26.947  1.00  0.00     0.022 A 
BRANCH  88  92
ATOM     92  S   UNL A   1      46.463  37.666  28.925  1.00  0.00     0.124 S 
ATOM     93  O   UNL A   1      45.314  38.548  28.755  1.00  0.00    -0.237 OA
ATOM     94  O   UNL A   1      46.795  37.286  30.295  1.00  0.00    -0.237 OA
ATOM     95  O   UNL A   1      47.611  37.975  28.075  1.00  0.00    -0.744 OA
ENDBRANCH  88  92
ENDBRANCH  61  85
BRANCH  73  96
ATOM     96  C   UNL A   1      49.374  28.190  29.351  1.00  0.00     0.023 A 
ATOM     97  C   UNL A   1      49.506  27.366  28.219  1.00  0.00     0.031 A 
ATOM     98  C   UNL A   1      50.548  28.690  29.943  1.00  0.00     0.131 A 
ATOM     99  C   UNL A   1      50.784  27.035  27.738  1.00  0.00     0.055 A 
ATOM    100  C   UNL A   1      51.812  28.405  29.427  1.00  0.00     0.041 A 
ATOM    101  F   UNL A   1      50.481  29.478  31.028  1.00  0.00    -0.206 F 
ATOM    102  C   UNL A   1      51.936  27.565  28.324  1.00  0.00     0.022 A 
BRANCH  99 103
ATOM    103  S   UNL A   1      50.928  25.849  26.372  1.00  0.00     0.124 S 
ATOM    104  O   UNL A   1      50.856  24.571  27.074  1.00  0.00    -0.237 OA
ATOM    105  O   UNL A   1      49.777  26.186  25.541  1.00  0.00    -0.237 OA
ATOM    106  O   UNL A   1      52.229  26.160  25.782  1.00  0.00    -0.744 OA
ENDBRANCH  99 103
ENDBRANCH  73  96
ENDBRANCH  47  48
ENDBRANCH  40  42
ENDBRANCH  39  40
ENDBRANCH  38  39
ENDBRANCH  37  38
ENDBRANCH  36  37
ENDBRANCH  35  36
ENDBRANCH   1  35
TORSDOF 24
ENDMDL
