MODEL 1
REMARK VINA RESULT:     -11.3      0.000      0.000
REMARK SMILES C[C@H]1[C@H](C(=O)OCCOCCOCCOC(=O)c2ccc(-c3c4nc(c(-c5cc(S(=O)(=O)[O-])ccc5F)c5ccc([nH]5)c(-c5cc(S(=O)(=O)[O-])ccc5F)c5nc(c(-c6cc(S(=O)(=O)[O-])ccc6F)c6ccc3[nH]6)C=C5)C=C4)cc2)CC[N@@H+]1Cc1ccc(C(F)(F)F)cc1
REMARK SMILES IDX 10 1 9 2 8 3 7 4 6 5 4 6 5 7 3 8 1 9 2 10 83 11 81 12 82 13
REMARK SMILES IDX 84 15 85 16 86 17 94 18 87 19 93 20 88 21 89 22 90 23 91 24
REMARK SMILES IDX 92 25 11 26 12 27 13 28 14 29 15 30 16 31 17 32 18 33 19 34
REMARK SMILES IDX 80 35 20 36 79 37 21 38 22 39 23 40 73 41 24 42 78 43 72 44
REMARK SMILES IDX 74 45 25 46 77 47 71 48 70 49 26 51 58 52 38 53 57 54 39 55
REMARK SMILES IDX 42 56 56 57 75 58 40 59 41 60 55 62 76 63 43 64 27 65 28 66
REMARK SMILES IDX 36 67 29 68 35 69 37 70 34 71 30 72 31 73 32 74 33 75 59 76
REMARK SMILES IDX 60 77 68 78 61 79 67 80 69 81 66 82 62 83 63 84 64 85 65 86
REMARK SMILES IDX 44 87 45 88 53 89 46 90 52 91 54 92 51 93 47 94 48 95 49 96
REMARK SMILES IDX 50 97
REMARK H PARENT 83 14 74 50 42 61
REMARK Flexibility Score: inf
ROOT
ATOM      1  C   UNL A   1      30.089  26.733  23.881  1.00  0.00     0.188 C 
ENDROOT
BRANCH   1   2
ATOM      2  O   UNL A   1      30.260  25.341  23.643  1.00  0.00    -0.376 OA
BRANCH   2   3
ATOM      3  C   UNL A   1      30.322  24.466  24.767  1.00  0.00     0.202 C 
BRANCH   3   4
ATOM      4  C   UNL A   1      30.447  25.079  26.173  1.00  0.00     0.261 C 
BRANCH   4   5
ATOM      5  O   UNL A   1      31.766  24.976  26.760  1.00  0.00    -0.463 OA
BRANCH   5   6
ATOM      6  C   UNL A   1      32.689  25.862  26.318  1.00  0.00     0.315 C 
ATOM      7  O   UNL A   1      32.637  27.064  26.567  1.00  0.00    -0.252 OA
BRANCH   6   8
ATOM      8  C   UNL A   1      33.890  25.259  25.579  1.00  0.00     0.162 C 
ATOM      9  C   UNL A   1      35.712  23.522  25.915  1.00  0.00     0.076 C 
ATOM     10  C   UNL A   1      34.210  23.753  25.640  1.00  0.00     0.195 C 
ATOM     11  N   UNL A   1      33.968  23.194  24.306  1.00  0.00    -0.328 N 
ATOM     12  C   UNL A   1      33.734  25.561  24.087  1.00  0.00     0.083 C 
ATOM     13  C   UNL A   1      34.044  24.277  23.343  1.00  0.00     0.263 C 
ATOM     14  H   UNL A   1      34.708  22.533  24.072  1.00  0.00     0.348 HD
BRANCH  11  15
ATOM     15  C   UNL A   1      32.840  22.270  24.205  1.00  0.00     0.299 C 
BRANCH  15  16
ATOM     16  C   UNL A   1      33.163  20.794  24.113  1.00  0.00     0.006 A 
ATOM     17  C   UNL A   1      34.281  20.271  24.781  1.00  0.00     0.010 A 
ATOM     18  C   UNL A   1      32.354  19.922  23.378  1.00  0.00     0.010 A 
ATOM     19  C   UNL A   1      34.561  18.902  24.741  1.00  0.00     0.013 A 
ATOM     20  C   UNL A   1      32.615  18.552  23.359  1.00  0.00     0.013 A 
ATOM     21  C   UNL A   1      33.717  18.026  24.046  1.00  0.00     0.056 A 
BRANCH  21  22
ATOM     22  C   UNL A   1      33.990  16.544  24.049  1.00  0.00     0.416 C 
ATOM     23  F   UNL A   1      34.940  16.190  24.959  1.00  0.00    -0.166 F 
ATOM     24  F   UNL A   1      32.887  15.803  24.356  1.00  0.00    -0.166 F 
ATOM     25  F   UNL A   1      34.429  16.069  22.849  1.00  0.00    -0.166 F 
ENDBRANCH  21  22
ENDBRANCH  15  16
ENDBRANCH  11  15
ENDBRANCH   6   8
ENDBRANCH   5   6
ENDBRANCH   4   5
ENDBRANCH   3   4
ENDBRANCH   2   3
ENDBRANCH   1   2
BRANCH   1  26
ATOM     26  C   UNL A   1      30.751  27.719  22.909  1.00  0.00     0.188 C 
BRANCH  26  27
ATOM     27  O   UNL A   1      30.993  29.005  23.425  1.00  0.00    -0.376 OA
BRANCH  27  28
ATOM     28  C   UNL A   1      31.048  29.189  24.825  1.00  0.00     0.202 C 
BRANCH  28  29
ATOM     29  C   UNL A   1      31.581  30.482  25.472  1.00  0.00     0.261 C 
BRANCH  29  30
ATOM     30  O   UNL A   1      32.601  30.365  26.473  1.00  0.00    -0.460 OA
BRANCH  30  31
ATOM     31  C   UNL A   1      32.988  31.497  27.106  1.00  0.00     0.338 C 
ATOM     32  O   UNL A   1      32.291  32.469  27.353  1.00  0.00    -0.246 OA
BRANCH  31  33
ATOM     33  C   UNL A   1      34.331  31.234  27.676  1.00  0.00     0.060 A 
ATOM     34  C   UNL A   1      34.714  29.917  27.979  1.00  0.00     0.016 A 
ATOM     35  C   UNL A   1      35.231  32.285  27.850  1.00  0.00     0.016 A 
ATOM     36  C   UNL A   1      35.999  29.647  28.456  1.00  0.00     0.010 A 
ATOM     37  C   UNL A   1      36.501  32.019  28.364  1.00  0.00     0.010 A 
ATOM     38  C   UNL A   1      36.886  30.704  28.688  1.00  0.00    -0.014 A 
BRANCH  38  39
ATOM     39  C   UNL A   1      38.128  30.507  29.474  1.00  0.00     0.031 A 
ATOM     40  C   UNL A   1      39.149  29.553  28.921  1.00  0.00     0.074 A 
ATOM     41  C   UNL A   1      38.327  31.100  30.664  1.00  0.00     0.049 A 
ATOM     42  N   UNL A   1      40.184  29.009  29.503  1.00  0.00    -0.248 NA
ATOM     43  C   UNL A   1      38.956  29.147  27.520  1.00  0.00     0.031 C 
ATOM     44  C   UNL A   1      37.457  32.107  31.266  1.00  0.00     0.029 A 
ATOM     45  N   UNL A   1      39.319  30.909  31.596  1.00  0.00    -0.354 N 
ATOM     46  C   UNL A   1      40.749  28.170  28.549  1.00  0.00     0.074 A 
ATOM     47  C   UNL A   1      39.931  28.266  27.360  1.00  0.00     0.031 C 
ATOM     48  C   UNL A   1      37.936  32.423  32.483  1.00  0.00     0.029 A 
ATOM     49  C   UNL A   1      39.106  31.592  32.773  1.00  0.00     0.049 A 
ATOM     50  H   UNL A   1      40.105  30.338  31.439  1.00  0.00     0.167 HD
ATOM     51  C   UNL A   1      41.848  27.385  28.663  1.00  0.00     0.034 A 
ATOM     52  C   UNL A   1      39.746  31.510  33.959  1.00  0.00     0.034 A 
ATOM     53  C   UNL A   1      42.639  27.295  29.864  1.00  0.00     0.049 A 
ATOM     54  C   UNL A   1      40.900  30.541  34.107  1.00  0.00     0.074 A 
ATOM     55  C   UNL A   1      43.772  26.535  30.093  1.00  0.00     0.029 A 
ATOM     56  N   UNL A   1      42.372  27.978  31.044  1.00  0.00    -0.354 N 
ATOM     57  N   UNL A   1      41.412  29.723  33.215  1.00  0.00    -0.248 NA
ATOM     58  C   UNL A   1      41.560  30.478  35.419  1.00  0.00     0.031 C 
ATOM     59  C   UNL A   1      44.139  26.692  31.433  1.00  0.00     0.029 A 
ATOM     60  C   UNL A   1      43.299  27.630  32.012  1.00  0.00     0.049 A 
ATOM     61  H   UNL A   1      41.633  28.617  31.172  1.00  0.00     0.167 HD
ATOM     62  C   UNL A   1      42.481  29.088  33.847  1.00  0.00     0.074 A 
ATOM     63  C   UNL A   1      42.536  29.609  35.196  1.00  0.00     0.031 C 
ATOM     64  C   UNL A   1      43.349  28.170  33.351  1.00  0.00     0.034 A 
BRANCH  51  65
ATOM     65  C   UNL A   1      42.205  26.514  27.484  1.00  0.00     0.023 A 
ATOM     66  C   UNL A   1      41.813  25.167  27.408  1.00  0.00     0.031 A 
ATOM     67  C   UNL A   1      42.982  27.035  26.434  1.00  0.00     0.131 A 
ATOM     68  C   UNL A   1      42.260  24.368  26.346  1.00  0.00     0.055 A 
ATOM     69  C   UNL A   1      43.349  26.258  25.334  1.00  0.00     0.041 A 
ATOM     70  F   UNL A   1      43.412  28.306  26.465  1.00  0.00    -0.206 F 
ATOM     71  C   UNL A   1      43.001  24.911  25.293  1.00  0.00     0.022 A 
BRANCH  68  72
ATOM     72  S   UNL A   1      41.993  22.577  26.439  1.00  0.00     0.124 S 
ATOM     73  O   UNL A   1      42.918  22.088  25.419  1.00  0.00    -0.237 OA
ATOM     74  O   UNL A   1      42.349  22.276  27.821  1.00  0.00    -0.237 OA
ATOM     75  O   UNL A   1      40.577  22.424  26.111  1.00  0.00    -0.744 OA
ENDBRANCH  68  72
ENDBRANCH  51  65
BRANCH  52  76
ATOM     76  C   UNL A   1      39.283  32.313  35.130  1.00  0.00     0.023 A 
ATOM     77  C   UNL A   1      39.709  33.638  35.315  1.00  0.00     0.031 A 
ATOM     78  C   UNL A   1      38.456  31.747  36.119  1.00  0.00     0.131 A 
ATOM     79  C   UNL A   1      39.350  34.334  36.481  1.00  0.00     0.055 A 
ATOM     80  C   UNL A   1      38.050  32.465  37.245  1.00  0.00     0.041 A 
ATOM     81  F   UNL A   1      38.028  30.480  36.001  1.00  0.00    -0.206 F 
ATOM     82  C   UNL A   1      38.510  33.763  37.439  1.00  0.00     0.022 A 
BRANCH  79  83
ATOM     83  S   UNL A   1      40.088  35.964  36.781  1.00  0.00     0.124 S 
ATOM     84  O   UNL A   1      41.491  35.621  36.982  1.00  0.00    -0.237 OA
ATOM     85  O   UNL A   1      39.770  36.672  35.546  1.00  0.00    -0.237 OA
ATOM     86  O   UNL A   1      39.386  36.443  37.970  1.00  0.00    -0.744 OA
ENDBRANCH  79  83
ENDBRANCH  52  76
BRANCH  64  87
ATOM     87  C   UNL A   1      44.494  27.730  34.231  1.00  0.00     0.023 A 
ATOM     88  C   UNL A   1      44.387  26.656  35.130  1.00  0.00     0.031 A 
ATOM     89  C   UNL A   1      45.742  28.373  34.115  1.00  0.00     0.131 A 
ATOM     90  C   UNL A   1      45.501  26.273  35.895  1.00  0.00     0.055 A 
ATOM     91  C   UNL A   1      46.859  27.952  34.834  1.00  0.00     0.041 A 
ATOM     92  F   UNL A   1      45.900  29.407  33.272  1.00  0.00    -0.206 F 
ATOM     93  C   UNL A   1      46.741  26.900  35.736  1.00  0.00     0.022 A 
BRANCH  90  94
ATOM     94  S   UNL A   1      45.304  24.973  37.146  1.00  0.00     0.124 S 
ATOM     95  O   UNL A   1      45.930  23.828  36.494  1.00  0.00    -0.237 OA
ATOM     96  O   UNL A   1      46.022  25.526  38.289  1.00  0.00    -0.237 OA
ATOM     97  O   UNL A   1      43.856  24.875  37.315  1.00  0.00    -0.744 OA
ENDBRANCH  90  94
ENDBRANCH  64  87
ENDBRANCH  38  39
ENDBRANCH  31  33
ENDBRANCH  30  31
ENDBRANCH  29  30
ENDBRANCH  28  29
ENDBRANCH  27  28
ENDBRANCH  26  27
ENDBRANCH   1  26
TORSDOF 23
ENDMDL
MODEL 2
REMARK VINA RESULT:     -10.8      4.305      8.499
REMARK SMILES C[C@H]1[C@H](C(=O)OCCOCCOCCOC(=O)c2ccc(-c3c4nc(c(-c5cc(S(=O)(=O)[O-])ccc5F)c5ccc([nH]5)c(-c5cc(S(=O)(=O)[O-])ccc5F)c5nc(c(-c6cc(S(=O)(=O)[O-])ccc6F)c6ccc3[nH]6)C=C5)C=C4)cc2)CC[N@@H+]1Cc1ccc(C(F)(F)F)cc1
REMARK SMILES IDX 10 1 9 2 8 3 7 4 6 5 4 6 5 7 3 8 1 9 2 10 83 11 81 12 82 13
REMARK SMILES IDX 84 15 85 16 86 17 94 18 87 19 93 20 88 21 89 22 90 23 91 24
REMARK SMILES IDX 92 25 11 26 12 27 13 28 14 29 15 30 16 31 17 32 18 33 19 34
REMARK SMILES IDX 80 35 20 36 79 37 21 38 22 39 23 40 73 41 24 42 78 43 72 44
REMARK SMILES IDX 74 45 25 46 77 47 71 48 70 49 26 51 58 52 38 53 57 54 39 55
REMARK SMILES IDX 42 56 56 57 75 58 40 59 41 60 55 62 76 63 43 64 27 65 28 66
REMARK SMILES IDX 36 67 29 68 35 69 37 70 34 71 30 72 31 73 32 74 33 75 59 76
REMARK SMILES IDX 60 77 68 78 61 79 67 80 69 81 66 82 62 83 63 84 64 85 65 86
REMARK SMILES IDX 44 87 45 88 53 89 46 90 52 91 54 92 51 93 47 94 48 95 49 96
REMARK SMILES IDX 50 97
REMARK H PARENT 83 14 74 50 42 61
REMARK Flexibility Score: inf
ROOT
ATOM      1  C   UNL A   1      32.925  30.791  26.546  1.00  0.00     0.188 C 
ENDROOT
BRANCH   1   2
ATOM      2  O   UNL A   1      31.795  30.048  26.987  1.00  0.00    -0.376 OA
BRANCH   2   3
ATOM      3  C   UNL A   1      31.547  28.779  26.389  1.00  0.00     0.202 C 
BRANCH   3   4
ATOM      4  C   UNL A   1      31.626  27.520  27.270  1.00  0.00     0.261 C 
BRANCH   4   5
ATOM      5  O   UNL A   1      30.716  26.460  26.893  1.00  0.00    -0.463 OA
BRANCH   5   6
ATOM      6  C   UNL A   1      31.178  25.571  25.982  1.00  0.00     0.315 C 
ATOM      7  O   UNL A   1      30.618  25.359  24.908  1.00  0.00    -0.252 OA
BRANCH   6   8
ATOM      8  C   UNL A   1      32.526  24.919  26.313  1.00  0.00     0.162 C 
ATOM      9  C   UNL A   1      33.475  22.963  27.626  1.00  0.00     0.076 C 
ATOM     10  C   UNL A   1      32.700  23.389  26.360  1.00  0.00     0.195 C 
ATOM     11  N   UNL A   1      33.556  23.005  25.233  1.00  0.00    -0.328 N 
ATOM     12  C   UNL A   1      33.552  25.394  25.282  1.00  0.00     0.083 C 
ATOM     13  C   UNL A   1      34.327  24.170  24.836  1.00  0.00     0.263 C 
ATOM     14  H   UNL A   1      34.222  22.295  25.534  1.00  0.00     0.348 HD
BRANCH  11  15
ATOM     15  C   UNL A   1      32.904  22.229  24.180  1.00  0.00     0.299 C 
BRANCH  15  16
ATOM     16  C   UNL A   1      33.188  20.743  24.141  1.00  0.00     0.006 A 
ATOM     17  C   UNL A   1      34.399  20.240  24.641  1.00  0.00     0.010 A 
ATOM     18  C   UNL A   1      32.252  19.842  23.625  1.00  0.00     0.010 A 
ATOM     19  C   UNL A   1      34.652  18.866  24.652  1.00  0.00     0.013 A 
ATOM     20  C   UNL A   1      32.489  18.468  23.661  1.00  0.00     0.013 A 
ATOM     21  C   UNL A   1      33.688  17.965  24.182  1.00  0.00     0.056 A 
BRANCH  21  22
ATOM     22  C   UNL A   1      33.940  16.480  24.246  1.00  0.00     0.416 C 
ATOM     23  F   UNL A   1      34.674  16.121  25.336  1.00  0.00    -0.166 F 
ATOM     24  F   UNL A   1      32.790  15.750  24.316  1.00  0.00    -0.166 F 
ATOM     25  F   UNL A   1      34.616  15.996  23.166  1.00  0.00    -0.166 F 
ENDBRANCH  21  22
ENDBRANCH  15  16
ENDBRANCH  11  15
ENDBRANCH   6   8
ENDBRANCH   5   6
ENDBRANCH   4   5
ENDBRANCH   3   4
ENDBRANCH   2   3
ENDBRANCH   1   2
BRANCH   1  26
ATOM     26  C   UNL A   1      34.112  30.941  27.508  1.00  0.00     0.188 C 
BRANCH  26  27
ATOM     27  O   UNL A   1      34.680  32.226  27.572  1.00  0.00    -0.376 OA
BRANCH  27  28
ATOM     28  C   UNL A   1      34.043  33.225  28.343  1.00  0.00     0.202 C 
BRANCH  28  29
ATOM     29  C   UNL A   1      34.364  33.454  29.833  1.00  0.00     0.261 C 
BRANCH  29  30
ATOM     30  O   UNL A   1      34.396  32.313  30.699  1.00  0.00    -0.460 OA
BRANCH  30  31
ATOM     31  C   UNL A   1      35.274  32.334  31.730  1.00  0.00     0.338 C 
ATOM     32  O   UNL A   1      35.057  32.735  32.863  1.00  0.00    -0.246 OA
BRANCH  31  33
ATOM     33  C   UNL A   1      36.453  31.543  31.308  1.00  0.00     0.060 A 
ATOM     34  C   UNL A   1      37.309  30.997  32.279  1.00  0.00     0.016 A 
ATOM     35  C   UNL A   1      36.675  31.291  29.955  1.00  0.00     0.016 A 
ATOM     36  C   UNL A   1      38.389  30.196  31.899  1.00  0.00     0.010 A 
ATOM     37  C   UNL A   1      37.777  30.523  29.575  1.00  0.00     0.010 A 
ATOM     38  C   UNL A   1      38.650  29.988  30.540  1.00  0.00    -0.014 A 
BRANCH  38  39
ATOM     39  C   UNL A   1      39.940  29.415  30.083  1.00  0.00     0.031 A 
ATOM     40  C   UNL A   1      41.122  30.341  30.025  1.00  0.00     0.074 A 
ATOM     41  C   UNL A   1      40.054  28.140  29.675  1.00  0.00     0.049 A 
ATOM     42  N   UNL A   1      42.278  30.181  29.440  1.00  0.00    -0.248 NA
ATOM     43  C   UNL A   1      40.961  31.632  30.711  1.00  0.00     0.031 C 
ATOM     44  C   UNL A   1      39.009  27.123  29.763  1.00  0.00     0.029 A 
ATOM     45  N   UNL A   1      41.105  27.492  29.071  1.00  0.00    -0.354 N 
ATOM     46  C   UNL A   1      42.973  31.365  29.658  1.00  0.00     0.074 A 
ATOM     47  C   UNL A   1      42.101  32.237  30.414  1.00  0.00     0.031 C 
ATOM     48  C   UNL A   1      39.460  25.987  29.202  1.00  0.00     0.029 A 
ATOM     49  C   UNL A   1      40.798  26.215  28.655  1.00  0.00     0.049 A 
ATOM     50  H   UNL A   1      41.992  27.901  28.946  1.00  0.00     0.167 HD
ATOM     51  C   UNL A   1      44.224  31.695  29.254  1.00  0.00     0.034 A 
ATOM     52  C   UNL A   1      41.494  25.359  27.877  1.00  0.00     0.034 A 
ATOM     53  C   UNL A   1      45.070  30.814  28.489  1.00  0.00     0.049 A 
ATOM     54  C   UNL A   1      42.843  25.786  27.336  1.00  0.00     0.074 A 
ATOM     55  C   UNL A   1      46.353  31.040  28.026  1.00  0.00     0.029 A 
ATOM     56  N   UNL A   1      44.711  29.542  28.061  1.00  0.00    -0.354 N 
ATOM     57  N   UNL A   1      43.484  26.919  27.514  1.00  0.00    -0.248 NA
ATOM     58  C   UNL A   1      43.559  24.825  26.484  1.00  0.00     0.031 C 
ATOM     59  C   UNL A   1      46.737  29.943  27.249  1.00  0.00     0.029 A 
ATOM     60  C   UNL A   1      45.735  28.988  27.312  1.00  0.00     0.049 A 
ATOM     61  H   UNL A   1      43.854  29.099  28.261  1.00  0.00     0.167 HD
ATOM     62  C   UNL A   1      44.696  26.784  26.837  1.00  0.00     0.074 A 
ATOM     63  C   UNL A   1      44.694  25.466  26.241  1.00  0.00     0.031 C 
ATOM     64  C   UNL A   1      45.724  27.664  26.734  1.00  0.00     0.034 A 
BRANCH  51  65
ATOM     65  C   UNL A   1      44.713  33.085  29.572  1.00  0.00     0.023 A 
ATOM     66  C   UNL A   1      44.410  34.186  28.753  1.00  0.00     0.031 A 
ATOM     67  C   UNL A   1      45.527  33.306  30.698  1.00  0.00     0.131 A 
ATOM     68  C   UNL A   1      44.976  35.439  29.028  1.00  0.00     0.055 A 
ATOM     69  C   UNL A   1      46.015  34.574  31.017  1.00  0.00     0.041 A 
ATOM     70  F   UNL A   1      45.876  32.288  31.500  1.00  0.00    -0.206 F 
ATOM     71  C   UNL A   1      45.753  35.647  30.171  1.00  0.00     0.022 A 
BRANCH  68  72
ATOM     72  S   UNL A   1      44.813  36.753  27.790  1.00  0.00     0.124 S 
ATOM     73  O   UNL A   1      46.205  37.147  27.593  1.00  0.00    -0.237 OA
ATOM     74  O   UNL A   1      44.182  36.058  26.674  1.00  0.00    -0.237 OA
ATOM     75  O   UNL A   1      43.978  37.751  28.456  1.00  0.00    -0.744 OA
ENDBRANCH  68  72
ENDBRANCH  51  65
BRANCH  52  76
ATOM     76  C   UNL A   1      40.918  24.034  27.499  1.00  0.00     0.023 A 
ATOM     77  C   UNL A   1      39.798  23.944  26.657  1.00  0.00     0.031 A 
ATOM     78  C   UNL A   1      41.438  22.837  28.027  1.00  0.00     0.131 A 
ATOM     79  C   UNL A   1      39.207  22.695  26.407  1.00  0.00     0.055 A 
ATOM     80  C   UNL A   1      40.885  21.592  27.724  1.00  0.00     0.041 A 
ATOM     81  F   UNL A   1      42.501  22.863  28.848  1.00  0.00    -0.206 F 
ATOM     82  C   UNL A   1      39.753  21.517  26.920  1.00  0.00     0.022 A 
BRANCH  79  83
ATOM     83  S   UNL A   1      37.646  22.643  25.484  1.00  0.00     0.124 S 
ATOM     84  O   UNL A   1      37.579  23.996  24.941  1.00  0.00    -0.237 OA
ATOM     85  O   UNL A   1      37.897  21.576  24.522  1.00  0.00    -0.237 OA
ATOM     86  O   UNL A   1      36.653  22.333  26.511  1.00  0.00    -0.744 OA
ENDBRANCH  79  83
ENDBRANCH  52  76
BRANCH  64  87
ATOM     87  C   UNL A   1      46.978  27.208  26.027  1.00  0.00     0.023 A 
ATOM     88  C   UNL A   1      48.053  26.610  26.706  1.00  0.00     0.031 A 
ATOM     89  C   UNL A   1      47.063  27.325  24.626  1.00  0.00     0.131 A 
ATOM     90  C   UNL A   1      49.177  26.174  25.984  1.00  0.00     0.055 A 
ATOM     91  C   UNL A   1      48.156  26.840  23.910  1.00  0.00     0.041 A 
ATOM     92  F   UNL A   1      46.065  27.891  23.928  1.00  0.00    -0.206 F 
ATOM     93  C   UNL A   1      49.224  26.265  24.590  1.00  0.00     0.022 A 
BRANCH  90  94
ATOM     94  S   UNL A   1      50.609  25.529  26.893  1.00  0.00     0.124 S 
ATOM     95  O   UNL A   1      51.522  25.180  25.811  1.00  0.00    -0.237 OA
ATOM     96  O   UNL A   1      51.000  26.670  27.714  1.00  0.00    -0.237 OA
ATOM     97  O   UNL A   1      50.063  24.393  27.635  1.00  0.00    -0.744 OA
ENDBRANCH  90  94
ENDBRANCH  64  87
ENDBRANCH  38  39
ENDBRANCH  31  33
ENDBRANCH  30  31
ENDBRANCH  29  30
ENDBRANCH  28  29
ENDBRANCH  27  28
ENDBRANCH  26  27
ENDBRANCH   1  26
TORSDOF 23
ENDMDL
MODEL 3
REMARK VINA RESULT:     -10.6      1.769      7.700
REMARK SMILES C[C@H]1[C@H](C(=O)OCCOCCOCCOC(=O)c2ccc(-c3c4nc(c(-c5cc(S(=O)(=O)[O-])ccc5F)c5ccc([nH]5)c(-c5cc(S(=O)(=O)[O-])ccc5F)c5nc(c(-c6cc(S(=O)(=O)[O-])ccc6F)c6ccc3[nH]6)C=C5)C=C4)cc2)CC[N@@H+]1Cc1ccc(C(F)(F)F)cc1
REMARK SMILES IDX 10 1 9 2 8 3 7 4 6 5 4 6 5 7 3 8 1 9 2 10 83 11 81 12 82 13
REMARK SMILES IDX 84 15 85 16 86 17 94 18 87 19 93 20 88 21 89 22 90 23 91 24
REMARK SMILES IDX 92 25 11 26 12 27 13 28 14 29 15 30 16 31 17 32 18 33 19 34
REMARK SMILES IDX 80 35 20 36 79 37 21 38 22 39 23 40 73 41 24 42 78 43 72 44
REMARK SMILES IDX 74 45 25 46 77 47 71 48 70 49 26 51 58 52 38 53 57 54 39 55
REMARK SMILES IDX 42 56 56 57 75 58 40 59 41 60 55 62 76 63 43 64 27 65 28 66
REMARK SMILES IDX 36 67 29 68 35 69 37 70 34 71 30 72 31 73 32 74 33 75 59 76
REMARK SMILES IDX 60 77 68 78 61 79 67 80 69 81 66 82 62 83 63 84 64 85 65 86
REMARK SMILES IDX 44 87 45 88 53 89 46 90 52 91 54 92 51 93 47 94 48 95 49 96
REMARK SMILES IDX 50 97
REMARK H PARENT 83 14 74 50 42 61
REMARK Flexibility Score: inf
ROOT
ATOM      1  C   UNL A   1      32.294  29.156  25.489  1.00  0.00     0.188 C 
ENDROOT
BRANCH   1   2
ATOM      2  O   UNL A   1      31.124  28.800  24.762  1.00  0.00    -0.376 OA
BRANCH   2   3
ATOM      3  C   UNL A   1      31.139  28.945  23.344  1.00  0.00     0.202 C 
BRANCH   3   4
ATOM      4  C   UNL A   1      32.037  28.008  22.517  1.00  0.00     0.261 C 
BRANCH   4   5
ATOM      5  O   UNL A   1      31.931  26.607  22.865  1.00  0.00    -0.463 OA
BRANCH   5   6
ATOM      6  C   UNL A   1      33.045  25.859  22.682  1.00  0.00     0.315 C 
ATOM      7  O   UNL A   1      33.651  25.811  21.613  1.00  0.00    -0.252 OA
BRANCH   6   8
ATOM      8  C   UNL A   1      33.591  25.160  23.932  1.00  0.00     0.162 C 
ATOM      9  C   UNL A   1      32.890  24.585  26.305  1.00  0.00     0.076 C 
ATOM     10  C   UNL A   1      32.705  24.253  24.808  1.00  0.00     0.195 C 
ATOM     11  N   UNL A   1      33.189  22.877  24.653  1.00  0.00    -0.328 N 
ATOM     12  C   UNL A   1      34.760  24.268  23.510  1.00  0.00     0.083 C 
ATOM     13  C   UNL A   1      34.568  22.933  24.202  1.00  0.00     0.263 C 
ATOM     14  H   UNL A   1      33.189  22.409  25.558  1.00  0.00     0.348 HD
BRANCH  11  15
ATOM     15  C   UNL A   1      32.282  21.964  23.960  1.00  0.00     0.299 C 
BRANCH  15  16
ATOM     16  C   UNL A   1      32.497  20.482  24.176  1.00  0.00     0.006 A 
ATOM     17  C   UNL A   1      32.523  19.603  23.081  1.00  0.00     0.010 A 
ATOM     18  C   UNL A   1      32.689  19.959  25.458  1.00  0.00     0.010 A 
ATOM     19  C   UNL A   1      32.768  18.239  23.265  1.00  0.00     0.013 A 
ATOM     20  C   UNL A   1      32.960  18.603  25.642  1.00  0.00     0.013 A 
ATOM     21  C   UNL A   1      33.011  17.730  24.548  1.00  0.00     0.056 A 
BRANCH  21  22
ATOM     22  C   UNL A   1      33.329  16.269  24.739  1.00  0.00     0.416 C 
ATOM     23  F   UNL A   1      32.219  15.482  24.678  1.00  0.00    -0.166 F 
ATOM     24  F   UNL A   1      34.181  15.785  23.791  1.00  0.00    -0.166 F 
ATOM     25  F   UNL A   1      33.916  15.992  25.937  1.00  0.00    -0.166 F 
ENDBRANCH  21  22
ENDBRANCH  15  16
ENDBRANCH  11  15
ENDBRANCH   6   8
ENDBRANCH   5   6
ENDBRANCH   4   5
ENDBRANCH   3   4
ENDBRANCH   2   3
ENDBRANCH   1   2
BRANCH   1  26
ATOM     26  C   UNL A   1      32.129  29.619  26.943  1.00  0.00     0.188 C 
BRANCH  26  27
ATOM     27  O   UNL A   1      32.564  30.930  27.212  1.00  0.00    -0.376 OA
BRANCH  27  28
ATOM     28  C   UNL A   1      31.726  32.018  26.880  1.00  0.00     0.202 C 
BRANCH  28  29
ATOM     29  C   UNL A   1      32.192  33.484  26.976  1.00  0.00     0.261 C 
BRANCH  29  30
ATOM     30  O   UNL A   1      32.658  33.962  28.244  1.00  0.00    -0.460 OA
BRANCH  30  31
ATOM     31  C   UNL A   1      33.861  34.585  28.274  1.00  0.00     0.338 C 
ATOM     32  O   UNL A   1      34.066  35.780  28.133  1.00  0.00    -0.246 OA
BRANCH  31  33
ATOM     33  C   UNL A   1      34.846  33.595  28.772  1.00  0.00     0.060 A 
ATOM     34  C   UNL A   1      34.403  32.473  29.491  1.00  0.00     0.016 A 
ATOM     35  C   UNL A   1      36.198  33.750  28.472  1.00  0.00     0.016 A 
ATOM     36  C   UNL A   1      35.314  31.500  29.911  1.00  0.00     0.010 A 
ATOM     37  C   UNL A   1      37.112  32.797  28.926  1.00  0.00     0.010 A 
ATOM     38  C   UNL A   1      36.679  31.678  29.664  1.00  0.00    -0.014 A 
BRANCH  38  39
ATOM     39  C   UNL A   1      37.700  30.848  30.348  1.00  0.00     0.031 A 
ATOM     40  C   UNL A   1      38.060  31.222  31.758  1.00  0.00     0.074 A 
ATOM     41  C   UNL A   1      38.334  29.837  29.730  1.00  0.00     0.049 A 
ATOM     42  N   UNL A   1      39.072  30.841  32.489  1.00  0.00    -0.248 NA
ATOM     43  C   UNL A   1      37.154  32.172  32.422  1.00  0.00     0.031 C 
ATOM     44  C   UNL A   1      38.018  29.323  28.399  1.00  0.00     0.029 A 
ATOM     45  N   UNL A   1      39.407  29.080  30.138  1.00  0.00    -0.354 N 
ATOM     46  C   UNL A   1      38.945  31.531  33.690  1.00  0.00     0.074 A 
ATOM     47  C   UNL A   1      37.768  32.363  33.579  1.00  0.00     0.031 C 
ATOM     48  C   UNL A   1      38.899  28.355  28.087  1.00  0.00     0.029 A 
ATOM     49  C   UNL A   1      39.881  28.229  29.164  1.00  0.00     0.049 A 
ATOM     50  H   UNL A   1      39.799  29.141  31.038  1.00  0.00     0.167 HD
ATOM     51  C   UNL A   1      39.747  31.477  34.781  1.00  0.00     0.034 A 
ATOM     52  C   UNL A   1      41.007  27.483  29.128  1.00  0.00     0.034 A 
ATOM     53  C   UNL A   1      40.924  30.650  34.863  1.00  0.00     0.049 A 
ATOM     54  C   UNL A   1      41.954  27.524  30.309  1.00  0.00     0.074 A 
ATOM     55  C   UNL A   1      41.809  30.515  35.917  1.00  0.00     0.029 A 
ATOM     56  N   UNL A   1      41.388  29.827  33.844  1.00  0.00    -0.354 N 
ATOM     57  N   UNL A   1      41.850  28.203  31.429  1.00  0.00    -0.248 NA
ATOM     58  C   UNL A   1      43.172  26.705  30.221  1.00  0.00     0.031 C 
ATOM     59  C   UNL A   1      42.852  29.679  35.506  1.00  0.00     0.029 A 
ATOM     60  C   UNL A   1      42.565  29.209  34.234  1.00  0.00     0.049 A 
ATOM     61  H   UNL A   1      40.946  29.701  32.973  1.00  0.00     0.167 HD
ATOM     62  C   UNL A   1      42.964  27.853  32.194  1.00  0.00     0.074 A 
ATOM     63  C   UNL A   1      43.729  26.911  31.406  1.00  0.00     0.031 C 
ATOM     64  C   UNL A   1      43.311  28.260  33.441  1.00  0.00     0.034 A 
BRANCH  51  65
ATOM     65  C   UNL A   1      39.413  32.390  35.934  1.00  0.00     0.023 A 
ATOM     66  C   UNL A   1      38.638  31.959  37.024  1.00  0.00     0.031 A 
ATOM     67  C   UNL A   1      39.851  33.727  35.924  1.00  0.00     0.131 A 
ATOM     68  C   UNL A   1      38.262  32.873  38.019  1.00  0.00     0.055 A 
ATOM     69  C   UNL A   1      39.549  34.608  36.963  1.00  0.00     0.041 A 
ATOM     70  F   UNL A   1      40.569  34.205  34.896  1.00  0.00    -0.206 F 
ATOM     71  C   UNL A   1      38.736  34.187  38.012  1.00  0.00     0.022 A 
BRANCH  68  72
ATOM     72  S   UNL A   1      37.020  32.363  39.237  1.00  0.00     0.124 S 
ATOM     73  O   UNL A   1      35.776  32.695  38.546  1.00  0.00    -0.237 OA
ATOM     74  O   UNL A   1      37.300  30.941  39.398  1.00  0.00    -0.237 OA
ATOM     75  O   UNL A   1      37.318  33.195  40.401  1.00  0.00    -0.744 OA
ENDBRANCH  68  72
ENDBRANCH  51  65
BRANCH  52  76
ATOM     76  C   UNL A   1      41.349  26.681  27.916  1.00  0.00     0.023 A 
ATOM     77  C   UNL A   1      41.006  25.323  27.825  1.00  0.00     0.031 A 
ATOM     78  C   UNL A   1      42.083  27.244  26.855  1.00  0.00     0.131 A 
ATOM     79  C   UNL A   1      41.437  24.563  26.726  1.00  0.00     0.055 A 
ATOM     80  C   UNL A   1      42.453  26.499  25.734  1.00  0.00     0.041 A 
ATOM     81  F   UNL A   1      42.449  28.535  26.893  1.00  0.00    -0.206 F 
ATOM     82  C   UNL A   1      42.142  25.145  25.671  1.00  0.00     0.022 A 
BRANCH  79  83
ATOM     83  S   UNL A   1      41.151  22.771  26.744  1.00  0.00     0.124 S 
ATOM     84  O   UNL A   1      39.711  22.700  26.522  1.00  0.00    -0.237 OA
ATOM     85  O   UNL A   1      41.993  22.318  25.642  1.00  0.00    -0.237 OA
ATOM     86  O   UNL A   1      41.599  22.367  28.075  1.00  0.00    -0.744 OA
ENDBRANCH  79  83
ENDBRANCH  52  76
BRANCH  64  87
ATOM     87  C   UNL A   1      44.523  27.627  34.081  1.00  0.00     0.023 A 
ATOM     88  C   UNL A   1      44.456  26.421  34.799  1.00  0.00     0.031 A 
ATOM     89  C   UNL A   1      45.787  28.224  33.909  1.00  0.00     0.131 A 
ATOM     90  C   UNL A   1      45.627  25.865  35.339  1.00  0.00     0.055 A 
ATOM     91  C   UNL A   1      46.953  27.639  34.399  1.00  0.00     0.041 A 
ATOM     92  F   UNL A   1      45.909  29.379  33.233  1.00  0.00    -0.206 F 
ATOM     93  C   UNL A   1      46.876  26.455  35.124  1.00  0.00     0.022 A 
BRANCH  90  94
ATOM     94  S   UNL A   1      45.499  24.381  36.376  1.00  0.00     0.124 S 
ATOM     95  O   UNL A   1      46.891  24.140  36.734  1.00  0.00    -0.237 OA
ATOM     96  O   UNL A   1      44.630  24.830  37.459  1.00  0.00    -0.237 OA
ATOM     97  O   UNL A   1      44.907  23.387  35.482  1.00  0.00    -0.744 OA
ENDBRANCH  90  94
ENDBRANCH  64  87
ENDBRANCH  38  39
ENDBRANCH  31  33
ENDBRANCH  30  31
ENDBRANCH  29  30
ENDBRANCH  28  29
ENDBRANCH  27  28
ENDBRANCH  26  27
ENDBRANCH   1  26
TORSDOF 23
ENDMDL
