MODEL 1
REMARK VINA RESULT:     -10.4      0.000      0.000
REMARK SMILES CSc1ccc(/C=C2\C(C)=C(CC(=O)OCCOCCOCCOC(=O)c3ccc(-c4c5nc(c(-c6cc(S(=O)(=O)[O-])ccc6F)c6ccc([nH]6)c(-c6cc(S(=O)(=O)[O-])ccc6F)c6nc(c(-c7cc(S(=O)(=O)[O-])ccc7F)c7ccc4[nH]7)C=C6)C=C5)cc3)c3cc(F)ccc32)cc1
REMARK SMILES IDX 19 1 18 2 17 3 16 4 15 5 13 6 14 7 12 8 11 9 7 10 8 11 9 12
REMARK SMILES IDX 96 13 10 14 90 15 95 16 91 17 94 18 92 19 93 20 6 21 3 22
REMARK SMILES IDX 4 23 98 24 5 25 97 26 2 27 1 28 20 29 21 30 22 31 23 32
REMARK SMILES IDX 24 33 25 34 26 35 27 36 28 37 89 38 29 39 88 40 30 41 31 42
REMARK SMILES IDX 32 43 82 44 33 45 87 46 81 47 83 48 34 49 86 50 80 51 79 52
REMARK SMILES IDX 35 54 67 55 47 56 66 57 48 58 51 59 65 60 84 61 49 62 50 63
REMARK SMILES IDX 64 65 85 66 52 67 36 68 37 69 45 70 38 71 44 72 46 73 43 74
REMARK SMILES IDX 39 75 40 76 41 77 42 78 68 79 69 80 77 81 70 82 76 83 78 84
REMARK SMILES IDX 75 85 71 86 72 87 73 88 74 89 53 90 54 91 62 92 55 93 61 94
REMARK SMILES IDX 63 95 60 96 56 97 57 98 58 99 59 100
REMARK H PARENT 83 53 51 64
REMARK Flexibility Score: inf
ROOT
ATOM      1  C   UNL A   1      40.919  21.547  27.657  1.00  0.00     0.188 C 
ENDROOT
BRANCH   1   2
ATOM      2  O   UNL A   1      41.063  22.698  26.838  1.00  0.00    -0.376 OA
BRANCH   2   3
ATOM      3  C   UNL A   1      40.562  23.936  27.343  1.00  0.00     0.202 C 
BRANCH   3   4
ATOM      4  C   UNL A   1      39.038  24.076  27.427  1.00  0.00     0.261 C 
BRANCH   4   5
ATOM      5  O   UNL A   1      38.420  24.326  26.140  1.00  0.00    -0.463 OA
BRANCH   5   6
ATOM      6  C   UNL A   1      37.697  23.295  25.638  1.00  0.00     0.310 C 
ATOM      7  O   UNL A   1      37.989  22.112  25.809  1.00  0.00    -0.252 OA
BRANCH   6   8
ATOM      8  C   UNL A   1      36.462  23.672  24.824  1.00  0.00     0.159 C 
BRANCH   8   9
ATOM      9  C   UNL A   1      35.019  23.494  25.337  1.00  0.00    -0.025 C 
ATOM     10  C   UNL A   1      33.515  25.620  22.986  1.00  0.00     0.017 C 
ATOM     11  C   UNL A   1      33.812  24.606  23.808  1.00  0.00    -0.014 C 
ATOM     12  C   UNL A   1      34.148  24.543  25.259  1.00  0.00    -0.039 C 
ATOM     13  C   UNL A   1      33.733  23.197  23.362  1.00  0.00    -0.010 A 
ATOM     14  C   UNL A   1      32.921  24.457  26.177  1.00  0.00     0.045 C 
ATOM     15  C   UNL A   1      34.258  22.517  24.470  1.00  0.00    -0.011 A 
ATOM     16  C   UNL A   1      32.797  22.622  22.500  1.00  0.00     0.012 A 
ATOM     17  C   UNL A   1      33.644  21.343  24.859  1.00  0.00     0.048 A 
ATOM     18  C   UNL A   1      32.298  21.362  22.828  1.00  0.00     0.040 A 
ATOM     19  C   UNL A   1      32.691  20.758  24.022  1.00  0.00     0.123 A 
ATOM     20  F   UNL A   1      32.070  19.641  24.424  1.00  0.00    -0.207 F 
BRANCH  10  21
ATOM     21  C   UNL A   1      33.020  26.979  23.284  1.00  0.00    -0.025 A 
ATOM     22  C   UNL A   1      32.366  28.711  25.375  1.00  0.00     0.007 A 
ATOM     23  C   UNL A   1      33.614  28.791  24.764  1.00  0.00     0.015 A 
ATOM     24  C   UNL A   1      31.378  27.915  24.786  1.00  0.00     0.015 A 
ATOM     25  C   UNL A   1      33.911  27.976  23.675  1.00  0.00     0.009 A 
ATOM     26  C   UNL A   1      31.699  27.059  23.731  1.00  0.00     0.009 A 
BRANCH  22  27
ATOM     27  S   UNL A   1      32.040  29.381  26.995  1.00  0.00    -0.130 SA
ATOM     28  C   UNL A   1      33.355  30.604  27.166  1.00  0.00     0.091 C 
ENDBRANCH  22  27
ENDBRANCH  10  21
ENDBRANCH   8   9
ENDBRANCH   6   8
ENDBRANCH   5   6
ENDBRANCH   4   5
ENDBRANCH   3   4
ENDBRANCH   2   3
ENDBRANCH   1   2
BRANCH   1  29
ATOM     29  C   UNL A   1      41.101  20.178  26.998  1.00  0.00     0.188 C 
BRANCH  29  30
ATOM     30  O   UNL A   1      42.435  19.699  26.983  1.00  0.00    -0.376 OA
BRANCH  30  31
ATOM     31  C   UNL A   1      42.835  19.054  25.779  1.00  0.00     0.202 C 
BRANCH  31  32
ATOM     32  C   UNL A   1      43.910  19.873  25.045  1.00  0.00     0.261 C 
BRANCH  32  33
ATOM     33  O   UNL A   1      44.161  21.165  25.635  1.00  0.00    -0.460 OA
BRANCH  33  34
ATOM     34  C   UNL A   1      45.465  21.535  25.682  1.00  0.00     0.338 C 
ATOM     35  O   UNL A   1      46.423  20.848  25.385  1.00  0.00    -0.246 OA
BRANCH  34  36
ATOM     36  C   UNL A   1      45.528  22.987  25.939  1.00  0.00     0.060 A 
ATOM     37  C   UNL A   1      45.658  23.437  27.258  1.00  0.00     0.016 A 
ATOM     38  C   UNL A   1      45.409  23.901  24.903  1.00  0.00     0.016 A 
ATOM     39  C   UNL A   1      45.594  24.784  27.574  1.00  0.00     0.010 A 
ATOM     40  C   UNL A   1      45.375  25.264  25.210  1.00  0.00     0.010 A 
ATOM     41  C   UNL A   1      45.437  25.707  26.548  1.00  0.00    -0.014 A 
BRANCH  41  42
ATOM     42  C   UNL A   1      45.198  27.130  26.859  1.00  0.00     0.031 A 
ATOM     43  C   UNL A   1      46.370  28.058  26.832  1.00  0.00     0.074 A 
ATOM     44  C   UNL A   1      43.973  27.579  27.179  1.00  0.00     0.049 A 
ATOM     45  N   UNL A   1      46.513  29.230  27.385  1.00  0.00    -0.248 NA
ATOM     46  C   UNL A   1      47.549  27.577  26.098  1.00  0.00     0.031 C 
ATOM     47  C   UNL A   1      42.735  26.802  27.103  1.00  0.00     0.029 A 
ATOM     48  N   UNL A   1      43.580  28.796  27.674  1.00  0.00    -0.354 N 
ATOM     49  C   UNL A   1      47.826  29.604  27.123  1.00  0.00     0.074 A 
ATOM     50  C   UNL A   1      48.429  28.531  26.359  1.00  0.00     0.031 C 
ATOM     51  C   UNL A   1      41.727  27.546  27.585  1.00  0.00     0.029 A 
ATOM     52  C   UNL A   1      42.268  28.809  28.081  1.00  0.00     0.049 A 
ATOM     53  H   UNL A   1      44.176  29.577  27.732  1.00  0.00     0.167 HD
ATOM     54  C   UNL A   1      48.462  30.735  27.514  1.00  0.00     0.034 A 
ATOM     55  C   UNL A   1      41.604  29.696  28.848  1.00  0.00     0.034 A 
ATOM     56  C   UNL A   1      47.814  31.781  28.267  1.00  0.00     0.049 A 
ATOM     57  C   UNL A   1      42.347  30.900  29.368  1.00  0.00     0.074 A 
ATOM     58  C   UNL A   1      48.343  32.973  28.723  1.00  0.00     0.029 A 
ATOM     59  N   UNL A   1      46.486  31.750  28.682  1.00  0.00    -0.354 N 
ATOM     60  N   UNL A   1      43.609  31.228  29.201  1.00  0.00    -0.248 NA
ATOM     61  C   UNL A   1      41.584  31.849  30.188  1.00  0.00     0.031 C 
ATOM     62  C   UNL A   1      47.359  33.628  29.473  1.00  0.00     0.029 A 
ATOM     63  C   UNL A   1      46.188  32.887  29.414  1.00  0.00     0.049 A 
ATOM     64  H   UNL A   1      45.850  31.025  28.484  1.00  0.00     0.167 HD
ATOM     65  C   UNL A   1      43.782  32.437  29.868  1.00  0.00     0.074 A 
ATOM     66  C   UNL A   1      42.496  32.776  30.445  1.00  0.00     0.031 C 
ATOM     67  C   UNL A   1      44.896  33.205  29.981  1.00  0.00     0.034 A 
BRANCH  54  68
ATOM     68  C   UNL A   1      49.938  30.831  27.216  1.00  0.00     0.023 A 
ATOM     69  C   UNL A   1      50.435  31.522  26.098  1.00  0.00     0.031 A 
ATOM     70  C   UNL A   1      50.860  30.145  28.027  1.00  0.00     0.131 A 
ATOM     71  C   UNL A   1      51.796  31.431  25.768  1.00  0.00     0.055 A 
ATOM     72  C   UNL A   1      52.227  30.135  27.746  1.00  0.00     0.041 A 
ATOM     73  F   UNL A   1      50.444  29.443  29.093  1.00  0.00    -0.206 F 
ATOM     74  C   UNL A   1      52.699  30.764  26.598  1.00  0.00     0.022 A 
BRANCH  71  75
ATOM     75  S   UNL A   1      52.335  32.037  24.145  1.00  0.00     0.124 S 
ATOM     76  O   UNL A   1      51.679  33.343  24.084  1.00  0.00    -0.237 OA
ATOM     77  O   UNL A   1      53.787  32.058  24.283  1.00  0.00    -0.237 OA
ATOM     78  O   UNL A   1      51.809  31.041  23.214  1.00  0.00    -0.744 OA
ENDBRANCH  71  75
ENDBRANCH  54  68
BRANCH  55  79
ATOM     79  C   UNL A   1      40.197  29.423  29.247  1.00  0.00     0.023 A 
ATOM     80  C   UNL A   1      39.849  29.211  30.588  1.00  0.00     0.031 A 
ATOM     81  C   UNL A   1      39.173  29.373  28.281  1.00  0.00     0.131 A 
ATOM     82  C   UNL A   1      38.514  28.938  30.926  1.00  0.00     0.055 A 
ATOM     83  C   UNL A   1      37.841  29.148  28.628  1.00  0.00     0.041 A 
ATOM     84  F   UNL A   1      39.454  29.570  26.983  1.00  0.00    -0.206 F 
ATOM     85  C   UNL A   1      37.506  28.921  29.958  1.00  0.00     0.022 A 
BRANCH  82  86
ATOM     86  S   UNL A   1      38.117  28.558  32.655  1.00  0.00     0.124 S 
ATOM     87  O   UNL A   1      36.785  29.136  32.786  1.00  0.00    -0.237 OA
ATOM     88  O   UNL A   1      38.190  27.101  32.670  1.00  0.00    -0.237 OA
ATOM     89  O   UNL A   1      39.171  29.240  33.403  1.00  0.00    -0.744 OA
ENDBRANCH  82  86
ENDBRANCH  55  79
BRANCH  67  90
ATOM     90  C   UNL A   1      44.756  34.528  30.690  1.00  0.00     0.023 A 
ATOM     91  C   UNL A   1      45.038  34.679  32.058  1.00  0.00     0.031 A 
ATOM     92  C   UNL A   1      44.367  35.667  29.961  1.00  0.00     0.131 A 
ATOM     93  C   UNL A   1      44.899  35.940  32.661  1.00  0.00     0.055 A 
ATOM     94  C   UNL A   1      44.280  36.925  30.554  1.00  0.00     0.041 A 
ATOM     95  F   UNL A   1      44.084  35.575  28.651  1.00  0.00    -0.206 F 
ATOM     96  C   UNL A   1      44.540  37.066  31.914  1.00  0.00     0.022 A 
BRANCH  93  97
ATOM     97  S   UNL A   1      45.143  36.086  34.452  1.00  0.00     0.124 S 
ATOM     98  O   UNL A   1      44.646  37.433  34.717  1.00  0.00    -0.237 OA
ATOM     99  O   UNL A   1      44.328  34.992  34.971  1.00  0.00    -0.237 OA
ATOM    100  O   UNL A   1      46.585  35.913  34.618  1.00  0.00    -0.744 OA
ENDBRANCH  93  97
ENDBRANCH  67  90
ENDBRANCH  41  42
ENDBRANCH  34  36
ENDBRANCH  33  34
ENDBRANCH  32  33
ENDBRANCH  31  32
ENDBRANCH  30  31
ENDBRANCH  29  30
ENDBRANCH   1  29
TORSDOF 23
ENDMDL
MODEL 2
REMARK VINA RESULT:     -10.0      1.736      7.633
REMARK SMILES CSc1ccc(/C=C2\C(C)=C(CC(=O)OCCOCCOCCOC(=O)c3ccc(-c4c5nc(c(-c6cc(S(=O)(=O)[O-])ccc6F)c6ccc([nH]6)c(-c6cc(S(=O)(=O)[O-])ccc6F)c6nc(c(-c7cc(S(=O)(=O)[O-])ccc7F)c7ccc4[nH]7)C=C6)C=C5)cc3)c3cc(F)ccc32)cc1
REMARK SMILES IDX 19 1 18 2 17 3 16 4 15 5 13 6 14 7 12 8 11 9 7 10 8 11 9 12
REMARK SMILES IDX 96 13 10 14 90 15 95 16 91 17 94 18 92 19 93 20 6 21 3 22
REMARK SMILES IDX 4 23 98 24 5 25 97 26 2 27 1 28 20 29 21 30 22 31 23 32
REMARK SMILES IDX 24 33 25 34 26 35 27 36 28 37 89 38 29 39 88 40 30 41 31 42
REMARK SMILES IDX 32 43 82 44 33 45 87 46 81 47 83 48 34 49 86 50 80 51 79 52
REMARK SMILES IDX 35 54 67 55 47 56 66 57 48 58 51 59 65 60 84 61 49 62 50 63
REMARK SMILES IDX 64 65 85 66 52 67 36 68 37 69 45 70 38 71 44 72 46 73 43 74
REMARK SMILES IDX 39 75 40 76 41 77 42 78 68 79 69 80 77 81 70 82 76 83 78 84
REMARK SMILES IDX 75 85 71 86 72 87 73 88 74 89 53 90 54 91 62 92 55 93 61 94
REMARK SMILES IDX 63 95 60 96 56 97 57 98 58 99 59 100
REMARK H PARENT 83 53 51 64
REMARK Flexibility Score: inf
ROOT
ATOM      1  C   UNL A   1      41.899  21.565  27.654  1.00  0.00     0.188 C 
ENDROOT
BRANCH   1   2
ATOM      2  O   UNL A   1      41.741  22.528  26.623  1.00  0.00    -0.376 OA
BRANCH   2   3
ATOM      3  C   UNL A   1      40.731  23.522  26.796  1.00  0.00     0.202 C 
BRANCH   3   4
ATOM      4  C   UNL A   1      39.287  23.022  26.910  1.00  0.00     0.261 C 
BRANCH   4   5
ATOM      5  O   UNL A   1      38.361  23.767  26.080  1.00  0.00    -0.463 OA
BRANCH   5   6
ATOM      6  C   UNL A   1      37.263  23.079  25.681  1.00  0.00     0.310 C 
ATOM      7  O   UNL A   1      37.215  21.852  25.614  1.00  0.00    -0.252 OA
BRANCH   6   8
ATOM      8  C   UNL A   1      36.044  23.918  25.307  1.00  0.00     0.159 C 
BRANCH   8   9
ATOM      9  C   UNL A   1      34.601  23.543  25.700  1.00  0.00    -0.025 C 
ATOM     10  C   UNL A   1      33.016  25.764  23.495  1.00  0.00     0.017 C 
ATOM     11  C   UNL A   1      33.371  24.698  24.222  1.00  0.00    -0.014 C 
ATOM     12  C   UNL A   1      33.631  24.504  25.677  1.00  0.00    -0.039 C 
ATOM     13  C   UNL A   1      33.464  23.347  23.624  1.00  0.00    -0.010 A 
ATOM     14  C   UNL A   1      32.371  24.196  26.496  1.00  0.00     0.045 C 
ATOM     15  C   UNL A   1      33.995  22.601  24.685  1.00  0.00    -0.011 A 
ATOM     16  C   UNL A   1      32.643  22.784  22.645  1.00  0.00     0.012 A 
ATOM     17  C   UNL A   1      33.486  21.335  24.905  1.00  0.00     0.048 A 
ATOM     18  C   UNL A   1      32.261  21.453  22.802  1.00  0.00     0.040 A 
ATOM     19  C   UNL A   1      32.648  20.759  23.949  1.00  0.00     0.123 A 
ATOM     20  F   UNL A   1      32.126  19.549  24.186  1.00  0.00    -0.207 F 
BRANCH  10  21
ATOM     21  C   UNL A   1      32.366  27.025  23.902  1.00  0.00    -0.025 A 
ATOM     22  C   UNL A   1      30.330  28.812  23.220  1.00  0.00     0.007 A 
ATOM     23  C   UNL A   1      30.112  27.839  24.192  1.00  0.00     0.015 A 
ATOM     24  C   UNL A   1      31.634  29.022  22.760  1.00  0.00     0.015 A 
ATOM     25  C   UNL A   1      31.150  26.998  24.581  1.00  0.00     0.009 A 
ATOM     26  C   UNL A   1      32.657  28.140  23.111  1.00  0.00     0.009 A 
BRANCH  22  27
ATOM     27  S   UNL A   1      29.001  29.635  22.363  1.00  0.00    -0.130 SA
ATOM     28  C   UNL A   1      28.838  31.165  23.305  1.00  0.00     0.091 C 
ENDBRANCH  22  27
ENDBRANCH  10  21
ENDBRANCH   8   9
ENDBRANCH   6   8
ENDBRANCH   5   6
ENDBRANCH   4   5
ENDBRANCH   3   4
ENDBRANCH   2   3
ENDBRANCH   1   2
BRANCH   1  29
ATOM     29  C   UNL A   1      41.770  20.088  27.274  1.00  0.00     0.188 C 
BRANCH  29  30
ATOM     30  O   UNL A   1      42.986  19.462  26.903  1.00  0.00    -0.376 OA
BRANCH  30  31
ATOM     31  C   UNL A   1      42.895  18.561  25.804  1.00  0.00     0.202 C 
BRANCH  31  32
ATOM     32  C   UNL A   1      44.141  18.658  24.908  1.00  0.00     0.261 C 
BRANCH  32  33
ATOM     33  O   UNL A   1      44.963  19.812  25.175  1.00  0.00    -0.460 OA
BRANCH  33  34
ATOM     34  C   UNL A   1      44.817  20.840  24.302  1.00  0.00     0.338 C 
ATOM     35  O   UNL A   1      44.523  20.754  23.126  1.00  0.00    -0.246 OA
BRANCH  34  36
ATOM     36  C   UNL A   1      44.852  22.105  25.062  1.00  0.00     0.060 A 
ATOM     37  C   UNL A   1      44.510  23.296  24.411  1.00  0.00     0.016 A 
ATOM     38  C   UNL A   1      45.267  22.132  26.385  1.00  0.00     0.016 A 
ATOM     39  C   UNL A   1      44.647  24.526  25.032  1.00  0.00     0.010 A 
ATOM     40  C   UNL A   1      45.379  23.367  27.029  1.00  0.00     0.010 A 
ATOM     41  C   UNL A   1      45.099  24.568  26.345  1.00  0.00    -0.014 A 
BRANCH  41  42
ATOM     42  C   UNL A   1      45.414  25.863  26.981  1.00  0.00     0.031 A 
ATOM     43  C   UNL A   1      44.287  26.644  27.576  1.00  0.00     0.074 A 
ATOM     44  C   UNL A   1      46.670  26.339  27.007  1.00  0.00     0.049 A 
ATOM     45  N   UNL A   1      44.220  27.913  27.868  1.00  0.00    -0.248 NA
ATOM     46  C   UNL A   1      43.061  25.883  27.856  1.00  0.00     0.031 C 
ATOM     47  C   UNL A   1      47.867  25.610  26.586  1.00  0.00     0.029 A 
ATOM     48  N   UNL A   1      47.138  27.576  27.371  1.00  0.00    -0.354 N 
ATOM     49  C   UNL A   1      42.917  28.122  28.305  1.00  0.00     0.074 A 
ATOM     50  C   UNL A   1      42.237  26.845  28.242  1.00  0.00     0.031 C 
ATOM     51  C   UNL A   1      48.926  26.431  26.667  1.00  0.00     0.029 A 
ATOM     52  C   UNL A   1      48.463  27.760  27.059  1.00  0.00     0.049 A 
ATOM     53  H   UNL A   1      46.582  28.260  27.809  1.00  0.00     0.167 HD
ATOM     54  C   UNL A   1      42.349  29.288  28.698  1.00  0.00     0.034 A 
ATOM     55  C   UNL A   1      49.195  28.890  27.005  1.00  0.00     0.034 A 
ATOM     56  C   UNL A   1      43.073  30.535  28.752  1.00  0.00     0.049 A 
ATOM     57  C   UNL A   1      48.529  30.200  27.341  1.00  0.00     0.074 A 
ATOM     58  C   UNL A   1      42.617  31.783  29.132  1.00  0.00     0.029 A 
ATOM     59  N   UNL A   1      44.412  30.688  28.408  1.00  0.00    -0.354 N 
ATOM     60  N   UNL A   1      47.278  30.428  27.676  1.00  0.00    -0.248 NA
ATOM     61  C   UNL A   1      49.365  31.404  27.284  1.00  0.00     0.031 C 
ATOM     62  C   UNL A   1      43.658  32.702  28.948  1.00  0.00     0.029 A 
ATOM     63  C   UNL A   1      44.790  32.015  28.535  1.00  0.00     0.049 A 
ATOM     64  H   UNL A   1      45.006  29.960  28.114  1.00  0.00     0.167 HD
ATOM     65  C   UNL A   1      47.187  31.799  27.900  1.00  0.00     0.074 A 
ATOM     66  C   UNL A   1      48.507  32.345  27.656  1.00  0.00     0.031 C 
ATOM     67  C   UNL A   1      46.115  32.537  28.287  1.00  0.00     0.034 A 
BRANCH  54  68
ATOM     68  C   UNL A   1      40.869  29.268  28.992  1.00  0.00     0.023 A 
ATOM     69  C   UNL A   1      40.365  29.193  30.301  1.00  0.00     0.031 A 
ATOM     70  C   UNL A   1      39.947  29.238  27.930  1.00  0.00     0.131 A 
ATOM     71  C   UNL A   1      38.991  28.997  30.511  1.00  0.00     0.055 A 
ATOM     72  C   UNL A   1      38.572  29.136  28.149  1.00  0.00     0.041 A 
ATOM     73  F   UNL A   1      40.368  29.278  26.656  1.00  0.00    -0.206 F 
ATOM     74  C   UNL A   1      38.089  28.994  29.445  1.00  0.00     0.022 A 
BRANCH  71  75
ATOM     75  S   UNL A   1      38.425  28.559  32.178  1.00  0.00     0.124 S 
ATOM     76  O   UNL A   1      37.030  28.998  32.142  1.00  0.00    -0.237 OA
ATOM     77  O   UNL A   1      38.640  27.118  32.216  1.00  0.00    -0.237 OA
ATOM     78  O   UNL A   1      39.293  29.345  33.053  1.00  0.00    -0.744 OA
ENDBRANCH  71  75
ENDBRANCH  54  68
BRANCH  55  79
ATOM     79  C   UNL A   1      50.602  28.838  26.522  1.00  0.00     0.023 A 
ATOM     80  C   UNL A   1      50.910  28.989  25.163  1.00  0.00     0.031 A 
ATOM     81  C   UNL A   1      51.664  28.639  27.424  1.00  0.00     0.131 A 
ATOM     82  C   UNL A   1      52.247  28.917  24.740  1.00  0.00     0.055 A 
ATOM     83  C   UNL A   1      52.994  28.615  27.005  1.00  0.00     0.041 A 
ATOM     84  F   UNL A   1      51.422  28.490  28.736  1.00  0.00    -0.206 F 
ATOM     85  C   UNL A   1      53.291  28.748  25.653  1.00  0.00     0.022 A 
BRANCH  82  86
ATOM     86  S   UNL A   1      52.601  29.003  22.963  1.00  0.00     0.124 S 
ATOM     87  O   UNL A   1      52.388  27.621  22.552  1.00  0.00    -0.237 OA
ATOM     88  O   UNL A   1      51.611  29.970  22.503  1.00  0.00    -0.237 OA
ATOM     89  O   UNL A   1      53.987  29.464  22.915  1.00  0.00    -0.744 OA
ENDBRANCH  82  86
ENDBRANCH  55  79
BRANCH  67  90
ATOM     90  C   UNL A   1      46.342  34.004  28.548  1.00  0.00     0.023 A 
ATOM     91  C   UNL A   1      46.885  34.476  29.755  1.00  0.00     0.031 A 
ATOM     92  C   UNL A   1      46.038  34.941  27.544  1.00  0.00     0.131 A 
ATOM     93  C   UNL A   1      47.083  35.855  29.936  1.00  0.00     0.055 A 
ATOM     94  C   UNL A   1      46.285  36.303  27.710  1.00  0.00     0.041 A 
ATOM     95  F   UNL A   1      45.516  34.542  26.373  1.00  0.00    -0.206 F 
ATOM     96  C   UNL A   1      46.803  36.768  28.914  1.00  0.00     0.022 A 
BRANCH  93  97
ATOM     97  S   UNL A   1      47.664  36.453  31.546  1.00  0.00     0.124 S 
ATOM     98  O   UNL A   1      46.574  36.052  32.430  1.00  0.00    -0.237 OA
ATOM     99  O   UNL A   1      48.920  35.730  31.716  1.00  0.00    -0.237 OA
ATOM    100  O   UNL A   1      47.803  37.894  31.348  1.00  0.00    -0.744 OA
ENDBRANCH  93  97
ENDBRANCH  67  90
ENDBRANCH  41  42
ENDBRANCH  34  36
ENDBRANCH  33  34
ENDBRANCH  32  33
ENDBRANCH  31  32
ENDBRANCH  30  31
ENDBRANCH  29  30
ENDBRANCH   1  29
TORSDOF 23
ENDMDL
MODEL 3
REMARK VINA RESULT:      -9.2      3.414      9.037
REMARK SMILES CSc1ccc(/C=C2\C(C)=C(CC(=O)OCCOCCOCCOC(=O)c3ccc(-c4c5nc(c(-c6cc(S(=O)(=O)[O-])ccc6F)c6ccc([nH]6)c(-c6cc(S(=O)(=O)[O-])ccc6F)c6nc(c(-c7cc(S(=O)(=O)[O-])ccc7F)c7ccc4[nH]7)C=C6)C=C5)cc3)c3cc(F)ccc32)cc1
REMARK SMILES IDX 19 1 18 2 17 3 16 4 15 5 13 6 14 7 12 8 11 9 7 10 8 11 9 12
REMARK SMILES IDX 96 13 10 14 90 15 95 16 91 17 94 18 92 19 93 20 6 21 3 22
REMARK SMILES IDX 4 23 98 24 5 25 97 26 2 27 1 28 20 29 21 30 22 31 23 32
REMARK SMILES IDX 24 33 25 34 26 35 27 36 28 37 89 38 29 39 88 40 30 41 31 42
REMARK SMILES IDX 32 43 82 44 33 45 87 46 81 47 83 48 34 49 86 50 80 51 79 52
REMARK SMILES IDX 35 54 67 55 47 56 66 57 48 58 51 59 65 60 84 61 49 62 50 63
REMARK SMILES IDX 64 65 85 66 52 67 36 68 37 69 45 70 38 71 44 72 46 73 43 74
REMARK SMILES IDX 39 75 40 76 41 77 42 78 68 79 69 80 77 81 70 82 76 83 78 84
REMARK SMILES IDX 75 85 71 86 72 87 73 88 74 89 53 90 54 91 62 92 55 93 61 94
REMARK SMILES IDX 63 95 60 96 56 97 57 98 58 99 59 100
REMARK H PARENT 83 53 51 64
REMARK Flexibility Score: inf
ROOT
ATOM      1  C   UNL A   1      34.277  32.808  28.688  1.00  0.00     0.188 C 
ENDROOT
BRANCH   1   2
ATOM      2  O   UNL A   1      34.112  31.409  28.511  1.00  0.00    -0.376 OA
BRANCH   2   3
ATOM      3  C   UNL A   1      33.964  30.924  27.177  1.00  0.00     0.202 C 
BRANCH   3   4
ATOM      4  C   UNL A   1      32.574  31.061  26.546  1.00  0.00     0.261 C 
BRANCH   4   5
ATOM      5  O   UNL A   1      31.889  29.792  26.403  1.00  0.00    -0.463 OA
BRANCH   5   6
ATOM      6  C   UNL A   1      32.679  28.696  26.511  1.00  0.00     0.310 C 
ATOM      7  O   UNL A   1      32.719  27.980  27.511  1.00  0.00    -0.252 OA
BRANCH   6   8
ATOM      8  C   UNL A   1      33.547  28.370  25.298  1.00  0.00     0.159 C 
BRANCH   8   9
ATOM      9  C   UNL A   1      32.973  28.036  23.907  1.00  0.00    -0.025 C 
ATOM     10  C   UNL A   1      32.544  24.603  24.484  1.00  0.00     0.017 C 
ATOM     11  C   UNL A   1      32.390  25.880  24.117  1.00  0.00    -0.014 C 
ATOM     12  C   UNL A   1      33.247  26.823  23.343  1.00  0.00    -0.039 C 
ATOM     13  C   UNL A   1      31.127  26.612  24.365  1.00  0.00    -0.010 A 
ATOM     14  C   UNL A   1      33.050  26.736  21.824  1.00  0.00     0.045 C 
ATOM     15  C   UNL A   1      31.467  27.912  23.963  1.00  0.00    -0.011 A 
ATOM     16  C   UNL A   1      29.823  26.120  24.295  1.00  0.00     0.012 A 
ATOM     17  C   UNL A   1      30.532  28.632  23.245  1.00  0.00     0.048 A 
ATOM     18  C   UNL A   1      28.853  26.926  23.702  1.00  0.00     0.040 A 
ATOM     19  C   UNL A   1      29.225  28.151  23.146  1.00  0.00     0.123 A 
ATOM     20  F   UNL A   1      28.334  28.833  22.415  1.00  0.00    -0.207 F 
BRANCH  10  21
ATOM     21  C   UNL A   1      33.413  23.546  23.929  1.00  0.00    -0.025 A 
ATOM     22  C   UNL A   1      35.503  21.807  24.571  1.00  0.00     0.007 A 
ATOM     23  C   UNL A   1      34.185  21.359  24.601  1.00  0.00     0.015 A 
ATOM     24  C   UNL A   1      35.776  23.056  24.004  1.00  0.00     0.015 A 
ATOM     25  C   UNL A   1      33.152  22.207  24.211  1.00  0.00     0.009 A 
ATOM     26  C   UNL A   1      34.734  23.922  23.669  1.00  0.00     0.009 A 
BRANCH  22  27
ATOM     27  S   UNL A   1      36.825  20.975  25.430  1.00  0.00    -0.130 SA
ATOM     28  C   UNL A   1      36.820  19.352  24.641  1.00  0.00     0.091 C 
ENDBRANCH  22  27
ENDBRANCH  10  21
ENDBRANCH   8   9
ENDBRANCH   6   8
ENDBRANCH   5   6
ENDBRANCH   4   5
ENDBRANCH   3   4
ENDBRANCH   2   3
ENDBRANCH   1   2
BRANCH   1  29
ATOM     29  C   UNL A   1      35.509  33.288  29.459  1.00  0.00     0.188 C 
BRANCH  29  30
ATOM     30  O   UNL A   1      35.223  33.976  30.665  1.00  0.00    -0.376 OA
BRANCH  30  31
ATOM     31  C   UNL A   1      34.304  33.323  31.534  1.00  0.00     0.202 C 
BRANCH  31  32
ATOM     32  C   UNL A   1      35.018  32.782  32.784  1.00  0.00     0.261 C 
BRANCH  32  33
ATOM     33  O   UNL A   1      36.306  32.195  32.511  1.00  0.00    -0.460 OA
BRANCH  33  34
ATOM     34  C   UNL A   1      37.321  32.639  33.293  1.00  0.00     0.338 C 
ATOM     35  O   UNL A   1      37.214  33.231  34.349  1.00  0.00    -0.246 OA
BRANCH  34  36
ATOM     36  C   UNL A   1      38.588  32.092  32.769  1.00  0.00     0.060 A 
ATOM     37  C   UNL A   1      39.025  32.490  31.500  1.00  0.00     0.016 A 
ATOM     38  C   UNL A   1      39.314  31.157  33.490  1.00  0.00     0.016 A 
ATOM     39  C   UNL A   1      40.135  31.917  30.903  1.00  0.00     0.010 A 
ATOM     40  C   UNL A   1      40.453  30.596  32.908  1.00  0.00     0.010 A 
ATOM     41  C   UNL A   1      40.849  30.951  31.601  1.00  0.00    -0.014 A 
BRANCH  41  42
ATOM     42  C   UNL A   1      41.932  30.202  30.935  1.00  0.00     0.031 A 
ATOM     43  C   UNL A   1      43.285  30.835  30.871  1.00  0.00     0.074 A 
ATOM     44  C   UNL A   1      41.710  28.998  30.382  1.00  0.00     0.049 A 
ATOM     45  N   UNL A   1      44.285  30.578  30.075  1.00  0.00    -0.248 NA
ATOM     46  C   UNL A   1      43.525  31.927  31.827  1.00  0.00     0.031 C 
ATOM     47  C   UNL A   1      40.476  28.221  30.501  1.00  0.00     0.029 A 
ATOM     48  N   UNL A   1      42.512  28.238  29.570  1.00  0.00    -0.354 N 
ATOM     49  C   UNL A   1      45.256  31.522  30.386  1.00  0.00     0.074 A 
ATOM     50  C   UNL A   1      44.720  32.350  31.447  1.00  0.00     0.031 C 
ATOM     51  C   UNL A   1      40.585  27.116  29.746  1.00  0.00     0.029 A 
ATOM     52  C   UNL A   1      41.855  27.160  29.027  1.00  0.00     0.049 A 
ATOM     53  H   UNL A   1      43.459  28.443  29.395  1.00  0.00     0.167 HD
ATOM     54  C   UNL A   1      46.473  31.684  29.811  1.00  0.00     0.034 A 
ATOM     55  C   UNL A   1      42.202  26.358  28.001  1.00  0.00     0.034 A 
ATOM     56  C   UNL A   1      46.966  30.825  28.762  1.00  0.00     0.049 A 
ATOM     57  C   UNL A   1      43.510  26.610  27.296  1.00  0.00     0.074 A 
ATOM     58  C   UNL A   1      48.177  30.880  28.098  1.00  0.00     0.029 A 
ATOM     59  N   UNL A   1      46.263  29.754  28.221  1.00  0.00    -0.354 N 
ATOM     60  N   UNL A   1      44.402  27.548  27.521  1.00  0.00    -0.248 NA
ATOM     61  C   UNL A   1      43.855  25.704  26.193  1.00  0.00     0.031 C 
ATOM     62  C   UNL A   1      48.176  29.890  27.107  1.00  0.00     0.029 A 
ATOM     63  C   UNL A   1      47.000  29.161  27.209  1.00  0.00     0.049 A 
ATOM     64  H   UNL A   1      45.370  29.460  28.513  1.00  0.00     0.167 HD
ATOM     65  C   UNL A   1      45.430  27.325  26.609  1.00  0.00     0.074 A 
ATOM     66  C   UNL A   1      45.042  26.168  25.826  1.00  0.00     0.031 C 
ATOM     67  C   UNL A   1      46.594  28.005  26.442  1.00  0.00     0.034 A 
BRANCH  54  68
ATOM     68  C   UNL A   1      47.283  32.883  30.241  1.00  0.00     0.023 A 
ATOM     69  C   UNL A   1      47.225  34.110  29.559  1.00  0.00     0.031 A 
ATOM     70  C   UNL A   1      48.193  32.765  31.306  1.00  0.00     0.131 A 
ATOM     71  C   UNL A   1      48.127  35.135  29.886  1.00  0.00     0.055 A 
ATOM     72  C   UNL A   1      49.023  33.821  31.688  1.00  0.00     0.041 A 
ATOM     73  F   UNL A   1      48.315  31.610  31.978  1.00  0.00    -0.206 F 
ATOM     74  C   UNL A   1      49.007  35.008  30.963  1.00  0.00     0.022 A 
BRANCH  71  75
ATOM     75  S   UNL A   1      48.260  36.559  28.770  1.00  0.00     0.124 S 
ATOM     76  O   UNL A   1      49.150  36.039  27.733  1.00  0.00    -0.237 OA
ATOM     77  O   UNL A   1      46.875  36.778  28.372  1.00  0.00    -0.237 OA
ATOM     78  O   UNL A   1      48.842  37.602  29.613  1.00  0.00    -0.744 OA
ENDBRANCH  71  75
ENDBRANCH  54  68
BRANCH  55  79
ATOM     79  C   UNL A   1      41.252  25.316  27.523  1.00  0.00     0.023 A 
ATOM     80  C   UNL A   1      41.562  23.951  27.616  1.00  0.00     0.031 A 
ATOM     81  C   UNL A   1      40.010  25.677  26.968  1.00  0.00     0.131 A 
ATOM     82  C   UNL A   1      40.650  22.997  27.139  1.00  0.00     0.055 A 
ATOM     83  C   UNL A   1      39.088  24.722  26.539  1.00  0.00     0.041 A 
ATOM     84  F   UNL A   1      39.664  26.969  26.858  1.00  0.00    -0.206 F 
ATOM     85  C   UNL A   1      39.409  23.372  26.618  1.00  0.00     0.022 A 
BRANCH  82  86
ATOM     86  S   UNL A   1      41.130  21.248  27.170  1.00  0.00     0.124 S 
ATOM     87  O   UNL A   1      40.206  20.671  26.200  1.00  0.00    -0.237 OA
ATOM     88  O   UNL A   1      42.530  21.309  26.766  1.00  0.00    -0.237 OA
ATOM     89  O   UNL A   1      40.902  20.857  28.560  1.00  0.00    -0.744 OA
ENDBRANCH  82  86
ENDBRANCH  55  79
BRANCH  67  90
ATOM     90  C   UNL A   1      47.570  27.467  25.427  1.00  0.00     0.023 A 
ATOM     91  C   UNL A   1      47.556  27.877  24.083  1.00  0.00     0.031 A 
ATOM     92  C   UNL A   1      48.557  26.550  25.833  1.00  0.00     0.131 A 
ATOM     93  C   UNL A   1      48.499  27.348  23.186  1.00  0.00     0.055 A 
ATOM     94  C   UNL A   1      49.521  26.068  24.949  1.00  0.00     0.041 A 
ATOM     95  F   UNL A   1      48.611  26.125  27.106  1.00  0.00    -0.206 F 
ATOM     96  C   UNL A   1      49.491  26.461  23.615  1.00  0.00     0.022 A 
BRANCH  93  97
ATOM     97  S   UNL A   1      48.384  27.792  21.432  1.00  0.00     0.124 S 
ATOM     98  O   UNL A   1      49.428  28.803  21.305  1.00  0.00    -0.237 OA
ATOM     99  O   UNL A   1      48.644  26.520  20.767  1.00  0.00    -0.237 OA
ATOM    100  O   UNL A   1      47.017  28.293  21.293  1.00  0.00    -0.744 OA
ENDBRANCH  93  97
ENDBRANCH  67  90
ENDBRANCH  41  42
ENDBRANCH  34  36
ENDBRANCH  33  34
ENDBRANCH  32  33
ENDBRANCH  31  32
ENDBRANCH  30  31
ENDBRANCH  29  30
ENDBRANCH   1  29
TORSDOF 23
ENDMDL
