MODEL 1
REMARK VINA RESULT:      -9.2      0.000      0.000
REMARK SMILES O=C(OCCOCCOCCOC(=O)[C@H]1O[C@@H](Oc2c(-c3cc(O)c(O)c(O)c3)oc3cc(O)cc(O)c3c2=O)[C@H](O)[C@@H](O)[C@@H]1O)c1ccc(-c2c3nc(c(-c4cc(S(=O)(=O)[O-])ccc4F)c4ccc([nH]4)c(-c4cc(S(=O)(=O)[O-])ccc4F)c4nc(c(-c5cc(S(=O)(=O)[O-])ccc5F)c5ccc2[nH]5)C=C4)C=C3)cc1
REMARK SMILES IDX 8 1 7 2 6 3 5 4 4 5 3 6 2 7 1 8 47 9 48 10 109 11 49 12
REMARK SMILES IDX 108 13 50 14 51 15 52 16 102 17 53 18 107 19 101 20 103 21
REMARK SMILES IDX 54 22 106 23 100 24 99 25 55 27 87 28 67 29 86 30 68 31
REMARK SMILES IDX 71 32 85 33 104 34 69 35 70 36 84 38 105 39 72 40 56 41
REMARK SMILES IDX 57 42 65 43 58 44 64 45 66 46 63 47 59 48 60 49 61 50 62 51
REMARK SMILES IDX 88 52 89 53 97 54 90 55 96 56 98 57 95 58 91 59 92 60 93 61
REMARK SMILES IDX 94 62 73 63 74 64 82 65 75 66 81 67 83 68 80 69 76 70 77 71
REMARK SMILES IDX 78 72 79 73 9 74 10 75 11 76 12 77 13 78 14 79 15 80 16 81
REMARK SMILES IDX 45 82 17 83 43 84 41 85 46 86 18 88 19 89 20 90 39 91 30 92
REMARK SMILES IDX 38 93 40 94 31 95 36 96 32 97 35 98 33 99 21 100 22 101
REMARK SMILES IDX 29 102 23 103 27 104 25 105 24 106 28 108 26 110 37 112
REMARK SMILES IDX 34 114 44 116 42 118
REMARK H PARENT 103 26 71 37 46 87 24 107 28 109 26 111 37 113 34 115 44 117
REMARK H PARENT 42 119
REMARK Flexibility Score: inf
ROOT
ATOM      1  C   UNL A   1      43.428  35.955  38.354  1.00  0.00     0.188 C 
ENDROOT
BRANCH   1   2
ATOM      2  C   UNL A   1      42.775  35.653  39.704  1.00  0.00     0.188 C 
BRANCH   2   3
ATOM      3  O   UNL A   1      43.603  36.064  40.800  1.00  0.00    -0.376 OA
BRANCH   3   4
ATOM      4  C   UNL A   1      44.918  35.499  40.779  1.00  0.00     0.202 C 
BRANCH   4   5
ATOM      5  C   UNL A   1      45.091  34.227  41.620  1.00  0.00     0.261 C 
BRANCH   5   6
ATOM      6  O   UNL A   1      44.776  33.037  40.879  1.00  0.00    -0.460 OA
BRANCH   6   7
ATOM      7  C   UNL A   1      45.641  32.270  40.166  1.00  0.00     0.338 C 
ATOM      8  O   UNL A   1      46.725  31.977  40.668  1.00  0.00    -0.246 OA
BRANCH   7   9
ATOM      9  C   UNL A   1      45.304  31.710  38.824  1.00  0.00     0.060 A 
ATOM     10  C   UNL A   1      44.043  31.246  38.454  1.00  0.00     0.016 A 
ATOM     11  C   UNL A   1      46.323  31.662  37.867  1.00  0.00     0.016 A 
ATOM     12  C   UNL A   1      43.842  30.574  37.253  1.00  0.00     0.010 A 
ATOM     13  C   UNL A   1      46.091  31.102  36.607  1.00  0.00     0.010 A 
ATOM     14  C   UNL A   1      44.860  30.496  36.308  1.00  0.00    -0.014 A 
BRANCH  14  15
ATOM     15  C   UNL A   1      44.672  29.691  35.072  1.00  0.00     0.031 A 
ATOM     16  C   UNL A   1      44.020  30.339  33.881  1.00  0.00     0.074 A 
ATOM     17  C   UNL A   1      45.109  28.419  34.985  1.00  0.00     0.049 A 
ATOM     18  N   UNL A   1      43.593  29.804  32.769  1.00  0.00    -0.248 NA
ATOM     19  C   UNL A   1      43.815  31.793  33.969  1.00  0.00     0.031 C 
ATOM     20  C   UNL A   1      45.843  27.698  36.027  1.00  0.00     0.029 A 
ATOM     21  N   UNL A   1      44.986  27.494  33.978  1.00  0.00    -0.354 N 
ATOM     22  C   UNL A   1      43.055  30.855  32.034  1.00  0.00     0.074 A 
ATOM     23  C   UNL A   1      43.125  32.033  32.869  1.00  0.00     0.031 C 
ATOM     24  C   UNL A   1      46.078  26.443  35.618  1.00  0.00     0.029 A 
ATOM     25  C   UNL A   1      45.443  26.245  34.326  1.00  0.00     0.049 A 
ATOM     26  H   UNL A   1      44.608  27.704  33.093  1.00  0.00     0.167 HD
ATOM     27  C   UNL A   1      42.587  30.851  30.760  1.00  0.00     0.034 A 
ATOM     28  C   UNL A   1      45.316  25.057  33.708  1.00  0.00     0.034 A 
ATOM     29  C   UNL A   1      42.547  29.668  29.939  1.00  0.00     0.049 A 
ATOM     30  C   UNL A   1      44.662  25.025  32.361  1.00  0.00     0.074 A 
ATOM     31  C   UNL A   1      42.100  29.526  28.639  1.00  0.00     0.029 A 
ATOM     32  N   UNL A   1      42.980  28.412  30.350  1.00  0.00    -0.354 N 
ATOM     33  N   UNL A   1      44.111  26.014  31.695  1.00  0.00    -0.248 NA
ATOM     34  C   UNL A   1      44.637  23.733  31.670  1.00  0.00     0.031 C 
ATOM     35  C   UNL A   1      42.217  28.176  28.282  1.00  0.00     0.029 A 
ATOM     36  C   UNL A   1      42.792  27.485  29.338  1.00  0.00     0.049 A 
ATOM     37  H   UNL A   1      43.366  28.210  31.234  1.00  0.00     0.167 HD
ATOM     38  C   UNL A   1      43.725  25.474  30.475  1.00  0.00     0.074 A 
ATOM     39  C   UNL A   1      44.086  24.069  30.513  1.00  0.00     0.031 C 
ATOM     40  C   UNL A   1      43.150  26.089  29.410  1.00  0.00     0.034 A 
BRANCH  27  41
ATOM     41  C   UNL A   1      42.060  32.165  30.235  1.00  0.00     0.023 A 
ATOM     42  C   UNL A   1      42.878  33.039  29.494  1.00  0.00     0.031 A 
ATOM     43  C   UNL A   1      40.777  32.612  30.591  1.00  0.00     0.131 A 
ATOM     44  C   UNL A   1      42.458  34.354  29.251  1.00  0.00     0.055 A 
ATOM     45  C   UNL A   1      40.325  33.890  30.255  1.00  0.00     0.041 A 
ATOM     46  F   UNL A   1      39.957  31.832  31.314  1.00  0.00    -0.206 F 
ATOM     47  C   UNL A   1      41.177  34.780  29.606  1.00  0.00     0.022 A 
BRANCH  44  48
ATOM     48  S   UNL A   1      43.685  35.556  28.663  1.00  0.00     0.124 S 
ATOM     49  O   UNL A   1      44.888  34.731  28.580  1.00  0.00    -0.237 OA
ATOM     50  O   UNL A   1      43.119  35.986  27.388  1.00  0.00    -0.237 OA
ATOM     51  O   UNL A   1      43.705  36.571  29.712  1.00  0.00    -0.744 OA
ENDBRANCH  44  48
ENDBRANCH  27  41
BRANCH  28  52
ATOM     52  C   UNL A   1      45.768  23.810  34.383  1.00  0.00     0.023 A 
ATOM     53  C   UNL A   1      47.119  23.433  34.389  1.00  0.00     0.031 A 
ATOM     54  C   UNL A   1      44.837  22.970  35.024  1.00  0.00     0.131 A 
ATOM     55  C   UNL A   1      47.502  22.227  34.994  1.00  0.00     0.055 A 
ATOM     56  C   UNL A   1      45.232  21.793  35.664  1.00  0.00     0.041 A 
ATOM     57  F   UNL A   1      43.529  23.286  35.038  1.00  0.00    -0.206 F 
ATOM     58  C   UNL A   1      46.571  21.411  35.643  1.00  0.00     0.022 A 
BRANCH  55  59
ATOM     59  S   UNL A   1      49.234  21.707  34.864  1.00  0.00     0.124 S 
ATOM     60  O   UNL A   1      49.119  20.258  34.986  1.00  0.00    -0.237 OA
ATOM     61  O   UNL A   1      49.600  22.212  33.544  1.00  0.00    -0.237 OA
ATOM     62  O   UNL A   1      49.878  22.380  35.990  1.00  0.00    -0.744 OA
ENDBRANCH  55  59
ENDBRANCH  28  52
BRANCH  40  63
ATOM     63  C   UNL A   1      42.948  25.239  28.186  1.00  0.00     0.023 A 
ATOM     64  C   UNL A   1      41.838  24.389  28.057  1.00  0.00     0.031 A 
ATOM     65  C   UNL A   1      43.912  25.242  27.164  1.00  0.00     0.131 A 
ATOM     66  C   UNL A   1      41.755  23.523  26.957  1.00  0.00     0.055 A 
ATOM     67  C   UNL A   1      43.791  24.424  26.041  1.00  0.00     0.041 A 
ATOM     68  F   UNL A   1      44.995  26.033  27.249  1.00  0.00    -0.206 F 
ATOM     69  C   UNL A   1      42.714  23.547  25.942  1.00  0.00     0.022 A 
BRANCH  66  70
ATOM     70  S   UNL A   1      40.427  22.289  26.934  1.00  0.00     0.124 S 
ATOM     71  O   UNL A   1      40.661  21.574  28.184  1.00  0.00    -0.237 OA
ATOM     72  O   UNL A   1      39.229  23.120  26.890  1.00  0.00    -0.237 OA
ATOM     73  O   UNL A   1      40.697  21.522  25.719  1.00  0.00    -0.744 OA
ENDBRANCH  66  70
ENDBRANCH  40  63
ENDBRANCH  14  15
ENDBRANCH   7   9
ENDBRANCH   6   7
ENDBRANCH   5   6
ENDBRANCH   4   5
ENDBRANCH   3   4
ENDBRANCH   2   3
ENDBRANCH   1   2
BRANCH   1  74
ATOM     74  O   UNL A   1      42.533  36.204  37.266  1.00  0.00    -0.376 OA
BRANCH  74  75
ATOM     75  C   UNL A   1      43.096  36.277  35.960  1.00  0.00     0.202 C 
BRANCH  75  76
ATOM     76  C   UNL A   1      42.152  36.551  34.780  1.00  0.00     0.261 C 
BRANCH  76  77
ATOM     77  O   UNL A   1      41.237  35.495  34.451  1.00  0.00    -0.461 OA
BRANCH  77  78
ATOM     78  C   UNL A   1      40.087  35.518  35.182  1.00  0.00     0.338 C 
ATOM     79  O   UNL A   1      39.620  36.527  35.710  1.00  0.00    -0.249 OA
BRANCH  78  80
ATOM     80  C   UNL A   1      39.400  34.155  35.312  1.00  0.00     0.263 C 
ATOM     81  O   UNL A   1      38.377  33.771  34.373  1.00  0.00    -0.322 OA
ATOM     82  C   UNL A   1      40.391  32.994  35.429  1.00  0.00     0.186 C 
ATOM     83  C   UNL A   1      37.515  32.784  34.977  1.00  0.00     0.340 C 
ATOM     84  C   UNL A   1      39.634  31.880  36.154  1.00  0.00     0.181 C 
ATOM     85  C   UNL A   1      38.309  31.553  35.475  1.00  0.00     0.214 C 
BRANCH  82  86
ATOM     86  O   UNL A   1      41.557  33.308  36.188  1.00  0.00    -0.387 OA
ATOM     87  H   UNL A   1      42.315  32.819  35.833  1.00  0.00     0.211 HD
ENDBRANCH  82  86
BRANCH  83  88
ATOM     88  O   UNL A   1      36.353  32.359  34.227  1.00  0.00    -0.454 OA
BRANCH  88  89
ATOM     89  C   UNL A   1      35.920  33.023  33.097  1.00  0.00     0.214 A 
ATOM     90  C   UNL A   1      35.898  32.487  31.855  1.00  0.00     0.181 A 
ATOM     91  C   UNL A   1      35.124  34.281  33.311  1.00  0.00     0.239 A 
ATOM     92  O   UNL A   1      35.333  33.088  30.746  1.00  0.00    -0.452 OA
ATOM     93  C   UNL A   1      34.322  34.778  32.161  1.00  0.00     0.111 A 
ATOM     94  O   UNL A   1      35.128  34.838  34.404  1.00  0.00    -0.285 OA
ATOM     95  C   UNL A   1      34.500  34.154  30.929  1.00  0.00     0.146 A 
ATOM     96  C   UNL A   1      33.417  35.848  32.238  1.00  0.00     0.134 A 
ATOM     97  C   UNL A   1      33.829  34.598  29.785  1.00  0.00     0.094 A 
ATOM     98  C   UNL A   1      32.748  36.310  31.094  1.00  0.00     0.093 A 
ATOM     99  C   UNL A   1      32.974  35.685  29.874  1.00  0.00     0.123 A 
BRANCH  90 100
ATOM    100  C   UNL A   1      36.538  31.211  31.482  1.00  0.00     0.029 A 
ATOM    101  C   UNL A   1      37.025  31.078  30.169  1.00  0.00     0.062 A 
ATOM    102  C   UNL A   1      36.727  30.158  32.385  1.00  0.00     0.062 A 
ATOM    103  C   UNL A   1      37.784  29.973  29.802  1.00  0.00     0.162 A 
ATOM    104  C   UNL A   1      37.476  29.049  31.993  1.00  0.00     0.162 A 
ATOM    105  C   UNL A   1      38.046  28.977  30.723  1.00  0.00     0.200 A 
BRANCH 103 106
ATOM    106  O   UNL A   1      38.299  29.955  28.546  1.00  0.00    -0.504 OA
ATOM    107  H   UNL A   1      38.955  29.326  28.317  1.00  0.00     0.293 HD
ENDBRANCH 103 106
BRANCH 104 108
ATOM    108  O   UNL A   1      37.721  28.054  32.897  1.00  0.00    -0.504 OA
ATOM    109  H   UNL A   1      37.933  27.191  32.600  1.00  0.00     0.293 HD
ENDBRANCH 104 108
BRANCH 105 110
ATOM    110  O   UNL A   1      38.920  27.960  30.455  1.00  0.00    -0.502 OA
ATOM    111  H   UNL A   1      38.928  27.194  30.995  1.00  0.00     0.293 HD
ENDBRANCH 105 110
ENDBRANCH  90 100
BRANCH  96 112
ATOM    112  O   UNL A   1      33.136  36.453  33.433  1.00  0.00    -0.507 OA
ATOM    113  H   UNL A   1      32.595  36.018  34.062  1.00  0.00     0.293 HD
ENDBRANCH  96 112
BRANCH  99 114
ATOM    114  O   UNL A   1      32.363  36.108  28.730  1.00  0.00    -0.508 OA
ATOM    115  H   UNL A   1      32.158  35.493  28.053  1.00  0.00     0.293 HD
ENDBRANCH  99 114
ENDBRANCH  88  89
ENDBRANCH  83  88
BRANCH  84 116
ATOM    116  O   UNL A   1      40.443  30.700  36.261  1.00  0.00    -0.387 OA
ATOM    117  H   UNL A   1      40.242  30.245  37.094  1.00  0.00     0.211 HD
ENDBRANCH  84 116
BRANCH  85 118
ATOM    118  O   UNL A   1      37.522  30.786  36.394  1.00  0.00    -0.384 OA
ATOM    119  H   UNL A   1      36.682  30.542  35.975  1.00  0.00     0.211 HD
ENDBRANCH  85 118
ENDBRANCH  78  80
ENDBRANCH  77  78
ENDBRANCH  76  77
ENDBRANCH  75  76
ENDBRANCH  74  75
ENDBRANCH   1  74
TORSDOF 31
ENDMDL
MODEL 2
REMARK VINA RESULT:      -8.4      1.966      2.274
REMARK SMILES O=C(OCCOCCOCCOC(=O)[C@H]1O[C@@H](Oc2c(-c3cc(O)c(O)c(O)c3)oc3cc(O)cc(O)c3c2=O)[C@H](O)[C@@H](O)[C@@H]1O)c1ccc(-c2c3nc(c(-c4cc(S(=O)(=O)[O-])ccc4F)c4ccc([nH]4)c(-c4cc(S(=O)(=O)[O-])ccc4F)c4nc(c(-c5cc(S(=O)(=O)[O-])ccc5F)c5ccc2[nH]5)C=C4)C=C3)cc1
REMARK SMILES IDX 8 1 7 2 6 3 5 4 4 5 3 6 2 7 1 8 47 9 48 10 109 11 49 12
REMARK SMILES IDX 108 13 50 14 51 15 52 16 102 17 53 18 107 19 101 20 103 21
REMARK SMILES IDX 54 22 106 23 100 24 99 25 55 27 87 28 67 29 86 30 68 31
REMARK SMILES IDX 71 32 85 33 104 34 69 35 70 36 84 38 105 39 72 40 56 41
REMARK SMILES IDX 57 42 65 43 58 44 64 45 66 46 63 47 59 48 60 49 61 50 62 51
REMARK SMILES IDX 88 52 89 53 97 54 90 55 96 56 98 57 95 58 91 59 92 60 93 61
REMARK SMILES IDX 94 62 73 63 74 64 82 65 75 66 81 67 83 68 80 69 76 70 77 71
REMARK SMILES IDX 78 72 79 73 9 74 10 75 11 76 12 77 13 78 14 79 15 80 16 81
REMARK SMILES IDX 45 82 17 83 43 84 41 85 46 86 18 88 19 89 20 90 39 91 30 92
REMARK SMILES IDX 38 93 40 94 31 95 36 96 32 97 35 98 33 99 21 100 22 101
REMARK SMILES IDX 29 102 23 103 27 104 25 105 24 106 28 108 26 110 37 112
REMARK SMILES IDX 34 114 44 116 42 118
REMARK H PARENT 103 26 71 37 46 87 24 107 28 109 26 111 37 113 34 115 44 117
REMARK H PARENT 42 119
REMARK Flexibility Score: inf
ROOT
ATOM      1  C   UNL A   1      44.181  37.019  38.749  1.00  0.00     0.188 C 
ENDROOT
BRANCH   1   2
ATOM      2  C   UNL A   1      43.087  37.328  39.774  1.00  0.00     0.188 C 
BRANCH   2   3
ATOM      3  O   UNL A   1      43.544  37.123  41.117  1.00  0.00    -0.376 OA
BRANCH   3   4
ATOM      4  C   UNL A   1      44.181  35.859  41.329  1.00  0.00     0.202 C 
BRANCH   4   5
ATOM      5  C   UNL A   1      43.238  34.711  41.711  1.00  0.00     0.261 C 
BRANCH   5   6
ATOM      6  O   UNL A   1      43.007  33.807  40.618  1.00  0.00    -0.460 OA
BRANCH   6   7
ATOM      7  C   UNL A   1      43.863  32.860  40.153  1.00  0.00     0.338 C 
ATOM      8  O   UNL A   1      44.695  32.384  40.923  1.00  0.00    -0.246 OA
BRANCH   7   9
ATOM      9  C   UNL A   1      43.790  32.323  38.762  1.00  0.00     0.060 A 
ATOM     10  C   UNL A   1      42.625  31.865  38.150  1.00  0.00     0.016 A 
ATOM     11  C   UNL A   1      44.974  32.293  38.017  1.00  0.00     0.016 A 
ATOM     12  C   UNL A   1      42.660  31.212  36.922  1.00  0.00     0.010 A 
ATOM     13  C   UNL A   1      44.989  31.754  36.726  1.00  0.00     0.010 A 
ATOM     14  C   UNL A   1      43.840  31.152  36.188  1.00  0.00    -0.014 A 
BRANCH  14  15
ATOM     15  C   UNL A   1      43.895  30.368  34.925  1.00  0.00     0.031 A 
ATOM     16  C   UNL A   1      43.491  31.040  33.641  1.00  0.00     0.074 A 
ATOM     17  C   UNL A   1      44.337  29.095  34.904  1.00  0.00     0.049 A 
ATOM     18  N   UNL A   1      43.287  30.525  32.458  1.00  0.00    -0.248 NA
ATOM     19  C   UNL A   1      43.276  32.493  33.712  1.00  0.00     0.031 C 
ATOM     20  C   UNL A   1      44.851  28.353  36.057  1.00  0.00     0.029 A 
ATOM     21  N   UNL A   1      44.411  28.188  33.876  1.00  0.00    -0.354 N 
ATOM     22  C   UNL A   1      42.906  31.591  31.650  1.00  0.00     0.074 A 
ATOM     23  C   UNL A   1      42.815  32.755  32.503  1.00  0.00     0.031 C 
ATOM     24  C   UNL A   1      45.158  27.103  35.680  1.00  0.00     0.029 A 
ATOM     25  C   UNL A   1      44.787  26.930  34.286  1.00  0.00     0.049 A 
ATOM     26  H   UNL A   1      44.213  28.414  32.938  1.00  0.00     0.167 HD
ATOM     27  C   UNL A   1      42.696  31.610  30.310  1.00  0.00     0.034 A 
ATOM     28  C   UNL A   1      44.780  25.753  33.635  1.00  0.00     0.034 A 
ATOM     29  C   UNL A   1      42.814  30.441  29.477  1.00  0.00     0.049 A 
ATOM     30  C   UNL A   1      44.402  25.747  32.185  1.00  0.00     0.074 A 
ATOM     31  C   UNL A   1      42.629  30.322  28.112  1.00  0.00     0.029 A 
ATOM     32  N   UNL A   1      43.155  29.176  29.943  1.00  0.00    -0.354 N 
ATOM     33  N   UNL A   1      43.994  26.749  31.442  1.00  0.00    -0.248 NA
ATOM     34  C   UNL A   1      44.509  24.466  31.481  1.00  0.00     0.031 C 
ATOM     35  C   UNL A   1      42.810  28.978  27.762  1.00  0.00     0.029 A 
ATOM     36  C   UNL A   1      43.166  28.266  28.898  1.00  0.00     0.049 A 
ATOM     37  H   UNL A   1      43.360  28.957  30.881  1.00  0.00     0.167 HD
ATOM     38  C   UNL A   1      43.853  26.232  30.161  1.00  0.00     0.074 A 
ATOM     39  C   UNL A   1      44.196  24.824  30.245  1.00  0.00     0.031 C 
ATOM     40  C   UNL A   1      43.499  26.867  29.015  1.00  0.00     0.034 A 
BRANCH  27  41
ATOM     41  C   UNL A   1      42.286  32.936  29.714  1.00  0.00     0.023 A 
ATOM     42  C   UNL A   1      43.223  33.780  29.090  1.00  0.00     0.031 A 
ATOM     43  C   UNL A   1      40.980  33.422  29.889  1.00  0.00     0.131 A 
ATOM     44  C   UNL A   1      42.880  35.106  28.789  1.00  0.00     0.055 A 
ATOM     45  C   UNL A   1      40.617  34.711  29.492  1.00  0.00     0.041 A 
ATOM     46  F   UNL A   1      40.046  32.671  30.494  1.00  0.00    -0.206 F 
ATOM     47  C   UNL A   1      41.576  35.571  28.963  1.00  0.00     0.022 A 
BRANCH  44  48
ATOM     48  S   UNL A   1      44.212  36.268  28.372  1.00  0.00     0.124 S 
ATOM     49  O   UNL A   1      44.562  36.797  29.688  1.00  0.00    -0.237 OA
ATOM     50  O   UNL A   1      45.205  35.398  27.750  1.00  0.00    -0.237 OA
ATOM     51  O   UNL A   1      43.567  37.223  27.475  1.00  0.00    -0.744 OA
ENDBRANCH  44  48
ENDBRANCH  27  41
BRANCH  28  52
ATOM     52  C   UNL A   1      45.088  24.493  34.364  1.00  0.00     0.023 A 
ATOM     53  C   UNL A   1      46.404  24.022  34.481  1.00  0.00     0.031 A 
ATOM     54  C   UNL A   1      44.053  23.735  34.945  1.00  0.00     0.131 A 
ATOM     55  C   UNL A   1      46.652  22.805  35.135  1.00  0.00     0.055 A 
ATOM     56  C   UNL A   1      44.311  22.548  35.633  1.00  0.00     0.041 A 
ATOM     57  F   UNL A   1      42.774  24.143  34.852  1.00  0.00    -0.206 F 
ATOM     58  C   UNL A   1      45.617  22.072  35.722  1.00  0.00     0.022 A 
BRANCH  55  59
ATOM     59  S   UNL A   1      48.347  22.161  35.149  1.00  0.00     0.124 S 
ATOM     60  O   UNL A   1      49.085  23.255  34.528  1.00  0.00    -0.237 OA
ATOM     61  O   UNL A   1      48.579  21.960  36.576  1.00  0.00    -0.237 OA
ATOM     62  O   UNL A   1      48.253  20.938  34.354  1.00  0.00    -0.744 OA
ENDBRANCH  55  59
ENDBRANCH  28  52
BRANCH  40  63
ATOM     63  C   UNL A   1      43.538  26.038  27.761  1.00  0.00     0.023 A 
ATOM     64  C   UNL A   1      44.749  25.727  27.122  1.00  0.00     0.031 A 
ATOM     65  C   UNL A   1      42.338  25.603  27.171  1.00  0.00     0.131 A 
ATOM     66  C   UNL A   1      44.729  25.060  25.890  1.00  0.00     0.055 A 
ATOM     67  C   UNL A   1      42.330  24.883  25.977  1.00  0.00     0.041 A 
ATOM     68  F   UNL A   1      41.156  25.884  27.742  1.00  0.00    -0.206 F 
ATOM     69  C   UNL A   1      43.530  24.621  25.322  1.00  0.00     0.022 A 
BRANCH  66  70
ATOM     70  S   UNL A   1      46.291  24.870  24.990  1.00  0.00     0.124 S 
ATOM     71  O   UNL A   1      45.976  23.784  24.068  1.00  0.00    -0.237 OA
ATOM     72  O   UNL A   1      46.465  26.187  24.386  1.00  0.00    -0.237 OA
ATOM     73  O   UNL A   1      47.252  24.536  26.040  1.00  0.00    -0.744 OA
ENDBRANCH  66  70
ENDBRANCH  40  63
ENDBRANCH  14  15
ENDBRANCH   7   9
ENDBRANCH   6   7
ENDBRANCH   5   6
ENDBRANCH   4   5
ENDBRANCH   3   4
ENDBRANCH   2   3
ENDBRANCH   1   2
BRANCH   1  74
ATOM     74  O   UNL A   1      43.930  37.459  37.411  1.00  0.00    -0.376 OA
BRANCH  74  75
ATOM     75  C   UNL A   1      43.962  36.475  36.383  1.00  0.00     0.202 C 
BRANCH  75  76
ATOM     76  C   UNL A   1      42.625  35.908  35.883  1.00  0.00     0.261 C 
BRANCH  76  77
ATOM     77  O   UNL A   1      41.653  35.609  36.897  1.00  0.00    -0.461 OA
BRANCH  77  78
ATOM     78  C   UNL A   1      40.366  35.819  36.502  1.00  0.00     0.338 C 
ATOM     79  O   UNL A   1      39.974  36.830  35.920  1.00  0.00    -0.249 OA
BRANCH  78  80
ATOM     80  C   UNL A   1      39.410  34.674  36.851  1.00  0.00     0.263 C 
ATOM     81  O   UNL A   1      38.961  33.770  35.822  1.00  0.00    -0.322 OA
ATOM     82  C   UNL A   1      39.891  33.833  38.038  1.00  0.00     0.186 C 
ATOM     83  C   UNL A   1      37.706  33.178  36.217  1.00  0.00     0.340 C 
ATOM     84  C   UNL A   1      38.629  33.206  38.632  1.00  0.00     0.181 C 
ATOM     85  C   UNL A   1      37.810  32.463  37.584  1.00  0.00     0.214 C 
BRANCH  82  86
ATOM     86  O   UNL A   1      40.533  34.595  39.058  1.00  0.00    -0.387 OA
ATOM     87  H   UNL A   1      39.865  34.965  39.655  1.00  0.00     0.211 HD
ENDBRANCH  82  86
BRANCH  83  88
ATOM     88  O   UNL A   1      37.035  32.328  35.257  1.00  0.00    -0.454 OA
BRANCH  88  89
ATOM     89  C   UNL A   1      36.778  32.734  33.964  1.00  0.00     0.214 A 
ATOM     90  C   UNL A   1      37.209  32.085  32.857  1.00  0.00     0.181 A 
ATOM     91  C   UNL A   1      35.689  33.754  33.775  1.00  0.00     0.239 A 
ATOM     92  O   UNL A   1      36.837  32.397  31.564  1.00  0.00    -0.452 OA
ATOM     93  C   UNL A   1      35.130  33.902  32.404  1.00  0.00     0.111 A 
ATOM     94  O   UNL A   1      35.277  34.404  34.730  1.00  0.00    -0.285 OA
ATOM     95  C   UNL A   1      35.765  33.221  31.369  1.00  0.00     0.146 A 
ATOM     96  C   UNL A   1      34.018  34.699  32.091  1.00  0.00     0.134 A 
ATOM     97  C   UNL A   1      35.339  33.353  30.043  1.00  0.00     0.094 A 
ATOM     98  C   UNL A   1      33.590  34.848  30.763  1.00  0.00     0.093 A 
ATOM     99  C   UNL A   1      34.267  34.180  29.749  1.00  0.00     0.123 A 
BRANCH  90 100
ATOM    100  C   UNL A   1      38.196  30.989  32.860  1.00  0.00     0.029 A 
ATOM    101  C   UNL A   1      38.522  30.393  31.629  1.00  0.00     0.062 A 
ATOM    102  C   UNL A   1      38.857  30.559  34.017  1.00  0.00     0.062 A 
ATOM    103  C   UNL A   1      39.562  29.476  31.536  1.00  0.00     0.162 A 
ATOM    104  C   UNL A   1      39.887  29.624  33.907  1.00  0.00     0.162 A 
ATOM    105  C   UNL A   1      40.273  29.120  32.666  1.00  0.00     0.200 A 
BRANCH 103 106
ATOM    106  O   UNL A   1      39.881  29.011  30.301  1.00  0.00    -0.504 OA
ATOM    107  H   UNL A   1      39.916  29.599  29.572  1.00  0.00     0.293 HD
ENDBRANCH 103 106
BRANCH 104 108
ATOM    108  O   UNL A   1      40.579  29.257  35.027  1.00  0.00    -0.504 OA
ATOM    109  H   UNL A   1      40.911  29.912  35.609  1.00  0.00     0.293 HD
ENDBRANCH 104 108
BRANCH 105 110
ATOM    110  O   UNL A   1      41.403  28.353  32.595  1.00  0.00    -0.502 OA
ATOM    111  H   UNL A   1      41.665  27.980  31.776  1.00  0.00     0.293 HD
ENDBRANCH 105 110
ENDBRANCH  90 100
BRANCH  96 112
ATOM    112  O   UNL A   1      33.301  35.330  33.070  1.00  0.00    -0.507 OA
ATOM    113  H   UNL A   1      33.159  36.255  33.025  1.00  0.00     0.293 HD
ENDBRANCH  96 112
BRANCH  99 114
ATOM    114  O   UNL A   1      33.901  34.307  28.442  1.00  0.00    -0.508 OA
ATOM    115  H   UNL A   1      33.863  35.155  28.045  1.00  0.00     0.293 HD
ENDBRANCH  99 114
ENDBRANCH  88  89
ENDBRANCH  83  88
BRANCH  84 116
ATOM    116  O   UNL A   1      38.959  32.330  39.719  1.00  0.00    -0.387 OA
ATOM    117  H   UNL A   1      38.679  31.427  39.504  1.00  0.00     0.211 HD
ENDBRANCH  84 116
BRANCH  85 118
ATOM    118  O   UNL A   1      36.507  32.228  38.129  1.00  0.00    -0.384 OA
ATOM    119  H   UNL A   1      36.544  32.295  39.096  1.00  0.00     0.211 HD
ENDBRANCH  85 118
ENDBRANCH  78  80
ENDBRANCH  77  78
ENDBRANCH  76  77
ENDBRANCH  75  76
ENDBRANCH  74  75
ENDBRANCH   1  74
TORSDOF 31
ENDMDL
MODEL 3
REMARK VINA RESULT:      -8.2      5.915     12.534
REMARK SMILES O=C(OCCOCCOCCOC(=O)[C@H]1O[C@@H](Oc2c(-c3cc(O)c(O)c(O)c3)oc3cc(O)cc(O)c3c2=O)[C@H](O)[C@@H](O)[C@@H]1O)c1ccc(-c2c3nc(c(-c4cc(S(=O)(=O)[O-])ccc4F)c4ccc([nH]4)c(-c4cc(S(=O)(=O)[O-])ccc4F)c4nc(c(-c5cc(S(=O)(=O)[O-])ccc5F)c5ccc2[nH]5)C=C4)C=C3)cc1
REMARK SMILES IDX 8 1 7 2 6 3 5 4 4 5 3 6 2 7 1 8 47 9 48 10 109 11 49 12
REMARK SMILES IDX 108 13 50 14 51 15 52 16 102 17 53 18 107 19 101 20 103 21
REMARK SMILES IDX 54 22 106 23 100 24 99 25 55 27 87 28 67 29 86 30 68 31
REMARK SMILES IDX 71 32 85 33 104 34 69 35 70 36 84 38 105 39 72 40 56 41
REMARK SMILES IDX 57 42 65 43 58 44 64 45 66 46 63 47 59 48 60 49 61 50 62 51
REMARK SMILES IDX 88 52 89 53 97 54 90 55 96 56 98 57 95 58 91 59 92 60 93 61
REMARK SMILES IDX 94 62 73 63 74 64 82 65 75 66 81 67 83 68 80 69 76 70 77 71
REMARK SMILES IDX 78 72 79 73 9 74 10 75 11 76 12 77 13 78 14 79 15 80 16 81
REMARK SMILES IDX 45 82 17 83 43 84 41 85 46 86 18 88 19 89 20 90 39 91 30 92
REMARK SMILES IDX 38 93 40 94 31 95 36 96 32 97 35 98 33 99 21 100 22 101
REMARK SMILES IDX 29 102 23 103 27 104 25 105 24 106 28 108 26 110 37 112
REMARK SMILES IDX 34 114 44 116 42 118
REMARK H PARENT 103 26 71 37 46 87 24 107 28 109 26 111 37 113 34 115 44 117
REMARK H PARENT 42 119
REMARK Flexibility Score: inf
ROOT
ATOM      1  C   UNL A   1      37.839  23.605  26.597  1.00  0.00     0.188 C 
ENDROOT
BRANCH   1   2
ATOM      2  C   UNL A   1      38.832  22.540  26.128  1.00  0.00     0.188 C 
BRANCH   2   3
ATOM      3  O   UNL A   1      40.152  23.077  25.967  1.00  0.00    -0.376 OA
BRANCH   3   4
ATOM      4  C   UNL A   1      41.155  22.391  26.721  1.00  0.00     0.202 C 
BRANCH   4   5
ATOM      5  C   UNL A   1      42.490  22.187  25.992  1.00  0.00     0.261 C 
BRANCH   5   6
ATOM      6  O   UNL A   1      42.738  23.208  25.012  1.00  0.00    -0.460 OA
BRANCH   6   7
ATOM      7  C   UNL A   1      43.723  24.143  25.043  1.00  0.00     0.338 C 
ATOM      8  O   UNL A   1      44.720  23.976  24.344  1.00  0.00    -0.246 OA
BRANCH   7   9
ATOM      9  C   UNL A   1      43.615  25.400  25.840  1.00  0.00     0.060 A 
ATOM     10  C   UNL A   1      43.115  26.606  25.352  1.00  0.00     0.016 A 
ATOM     11  C   UNL A   1      44.030  25.359  27.175  1.00  0.00     0.016 A 
ATOM     12  C   UNL A   1      43.209  27.781  26.090  1.00  0.00     0.010 A 
ATOM     13  C   UNL A   1      44.005  26.514  27.965  1.00  0.00     0.010 A 
ATOM     14  C   UNL A   1      43.649  27.753  27.409  1.00  0.00    -0.014 A 
BRANCH  14  15
ATOM     15  C   UNL A   1      43.843  29.023  28.159  1.00  0.00     0.031 A 
ATOM     16  C   UNL A   1      42.701  29.558  28.979  1.00  0.00     0.074 A 
ATOM     17  C   UNL A   1      45.024  29.672  28.154  1.00  0.00     0.049 A 
ATOM     18  N   UNL A   1      42.567  30.716  29.569  1.00  0.00    -0.248 NA
ATOM     19  C   UNL A   1      41.547  28.660  29.141  1.00  0.00     0.031 C 
ATOM     20  C   UNL A   1      46.243  29.217  27.483  1.00  0.00     0.029 A 
ATOM     21  N   UNL A   1      45.393  30.868  28.718  1.00  0.00    -0.354 N 
ATOM     22  C   UNL A   1      41.307  30.688  30.158  1.00  0.00     0.074 A 
ATOM     23  C   UNL A   1      40.687  29.440  29.770  1.00  0.00     0.031 C 
ATOM     24  C   UNL A   1      47.211  30.130  27.650  1.00  0.00     0.029 A 
ATOM     25  C   UNL A   1      46.660  31.269  28.364  1.00  0.00     0.049 A 
ATOM     26  H   UNL A   1      44.809  31.389  29.317  1.00  0.00     0.167 HD
ATOM     27  C   UNL A   1      40.735  31.598  30.986  1.00  0.00     0.034 A 
ATOM     28  C   UNL A   1      47.293  32.443  28.540  1.00  0.00     0.034 A 
ATOM     29  C   UNL A   1      41.382  32.825  31.376  1.00  0.00     0.049 A 
ATOM     30  C   UNL A   1      46.601  33.511  29.331  1.00  0.00     0.074 A 
ATOM     31  C   UNL A   1      40.917  33.829  32.205  1.00  0.00     0.029 A 
ATOM     32  N   UNL A   1      42.651  33.211  30.957  1.00  0.00    -0.354 N 
ATOM     33  N   UNL A   1      45.391  33.497  29.841  1.00  0.00    -0.248 NA
ATOM     34  C   UNL A   1      47.362  34.735  29.594  1.00  0.00     0.031 C 
ATOM     35  C   UNL A   1      41.882  34.843  32.246  1.00  0.00     0.029 A 
ATOM     36  C   UNL A   1      42.977  34.447  31.492  1.00  0.00     0.049 A 
ATOM     37  H   UNL A   1      43.234  32.682  30.365  1.00  0.00     0.167 HD
ATOM     38  C   UNL A   1      45.266  34.690  30.541  1.00  0.00     0.074 A 
ATOM     39  C   UNL A   1      46.517  35.405  30.362  1.00  0.00     0.031 C 
ATOM     40  C   UNL A   1      44.225  35.141  31.285  1.00  0.00     0.034 A 
BRANCH  27  41
ATOM     41  C   UNL A   1      39.339  31.283  31.467  1.00  0.00     0.023 A 
ATOM     42  C   UNL A   1      38.219  31.979  30.973  1.00  0.00     0.031 A 
ATOM     43  C   UNL A   1      39.136  30.380  32.524  1.00  0.00     0.131 A 
ATOM     44  C   UNL A   1      36.981  31.862  31.619  1.00  0.00     0.055 A 
ATOM     45  C   UNL A   1      37.876  30.192  33.097  1.00  0.00     0.041 A 
ATOM     46  F   UNL A   1      40.166  29.702  33.052  1.00  0.00    -0.206 F 
ATOM     47  C   UNL A   1      36.794  30.955  32.663  1.00  0.00     0.022 A 
BRANCH  44  48
ATOM     48  S   UNL A   1      35.682  33.065  31.217  1.00  0.00     0.124 S 
ATOM     49  O   UNL A   1      34.498  32.210  31.159  1.00  0.00    -0.237 OA
ATOM     50  O   UNL A   1      35.746  33.988  32.346  1.00  0.00    -0.237 OA
ATOM     51  O   UNL A   1      36.108  33.616  29.934  1.00  0.00    -0.744 OA
ENDBRANCH  44  48
ENDBRANCH  27  41
BRANCH  28  52
ATOM     52  C   UNL A   1      48.622  32.678  27.912  1.00  0.00     0.023 A 
ATOM     53  C   UNL A   1      49.811  32.368  28.587  1.00  0.00     0.031 A 
ATOM     54  C   UNL A   1      48.711  33.234  26.621  1.00  0.00     0.131 A 
ATOM     55  C   UNL A   1      51.047  32.646  27.983  1.00  0.00     0.055 A 
ATOM     56  C   UNL A   1      49.944  33.467  26.008  1.00  0.00     0.041 A 
ATOM     57  F   UNL A   1      47.597  33.555  25.938  1.00  0.00    -0.206 F 
ATOM     58  C   UNL A   1      51.121  33.182  26.694  1.00  0.00     0.022 A 
BRANCH  55  59
ATOM     59  S   UNL A   1      52.561  32.357  28.938  1.00  0.00     0.124 S 
ATOM     60  O   UNL A   1      53.584  32.431  27.902  1.00  0.00    -0.237 OA
ATOM     61  O   UNL A   1      52.531  33.464  29.889  1.00  0.00    -0.237 OA
ATOM     62  O   UNL A   1      52.351  31.032  29.517  1.00  0.00    -0.744 OA
ENDBRANCH  55  59
ENDBRANCH  28  52
BRANCH  40  63
ATOM     63  C   UNL A   1      44.444  36.441  32.008  1.00  0.00     0.023 A 
ATOM     64  C   UNL A   1      44.937  36.478  33.322  1.00  0.00     0.031 A 
ATOM     65  C   UNL A   1      44.099  37.654  31.387  1.00  0.00     0.131 A 
ATOM     66  C   UNL A   1      45.007  37.703  34.000  1.00  0.00     0.055 A 
ATOM     67  C   UNL A   1      44.232  38.876  32.045  1.00  0.00     0.041 A 
ATOM     68  F   UNL A   1      43.616  37.667  30.134  1.00  0.00    -0.206 F 
ATOM     69  C   UNL A   1      44.674  38.902  33.365  1.00  0.00     0.022 A 
BRANCH  66  70
ATOM     70  S   UNL A   1      45.437  37.687  35.761  1.00  0.00     0.124 S 
ATOM     71  O   UNL A   1      46.657  38.488  35.777  1.00  0.00    -0.237 OA
ATOM     72  O   UNL A   1      44.265  38.301  36.374  1.00  0.00    -0.237 OA
ATOM     73  O   UNL A   1      45.622  36.267  36.054  1.00  0.00    -0.744 OA
ENDBRANCH  66  70
ENDBRANCH  40  63
ENDBRANCH  14  15
ENDBRANCH   7   9
ENDBRANCH   6   7
ENDBRANCH   5   6
ENDBRANCH   4   5
ENDBRANCH   3   4
ENDBRANCH   2   3
ENDBRANCH   1   2
BRANCH   1  74
ATOM     74  O   UNL A   1      36.475  23.402  26.216  1.00  0.00    -0.376 OA
BRANCH  74  75
ATOM     75  C   UNL A   1      36.222  22.491  25.152  1.00  0.00     0.202 C 
BRANCH  75  76
ATOM     76  C   UNL A   1      35.507  21.172  25.484  1.00  0.00     0.261 C 
BRANCH  76  77
ATOM     77  O   UNL A   1      34.096  21.270  25.731  1.00  0.00    -0.461 OA
BRANCH  77  78
ATOM     78  C   UNL A   1      33.393  21.805  24.693  1.00  0.00     0.338 C 
ATOM     79  O   UNL A   1      33.359  21.328  23.559  1.00  0.00    -0.249 OA
BRANCH  78  80
ATOM     80  C   UNL A   1      32.630  23.084  25.048  1.00  0.00     0.263 C 
ATOM     81  O   UNL A   1      32.501  24.141  24.076  1.00  0.00    -0.322 OA
ATOM     82  C   UNL A   1      31.241  22.810  25.632  1.00  0.00     0.186 C 
ATOM     83  C   UNL A   1      32.277  25.394  24.755  1.00  0.00     0.340 C 
ATOM     84  C   UNL A   1      30.902  24.039  26.476  1.00  0.00     0.181 C 
ATOM     85  C   UNL A   1      31.043  25.334  25.685  1.00  0.00     0.214 C 
BRANCH  82  86
ATOM     86  O   UNL A   1      31.189  21.661  26.476  1.00  0.00    -0.387 OA
ATOM     87  H   UNL A   1      31.603  21.868  27.328  1.00  0.00     0.211 HD
ENDBRANCH  82  86
BRANCH  83  88
ATOM     88  O   UNL A   1      32.239  26.595  23.949  1.00  0.00    -0.454 OA
BRANCH  88  89
ATOM     89  C   UNL A   1      32.427  27.852  24.487  1.00  0.00     0.214 A 
ATOM     90  C   UNL A   1      31.456  28.787  24.606  1.00  0.00     0.181 A 
ATOM     91  C   UNL A   1      33.685  28.070  25.282  1.00  0.00     0.239 A 
ATOM     92  O   UNL A   1      31.595  29.989  25.273  1.00  0.00    -0.452 OA
ATOM     93  C   UNL A   1      33.717  29.250  26.186  1.00  0.00     0.111 A 
ATOM     94  O   UNL A   1      34.618  27.279  25.193  1.00  0.00    -0.285 OA
ATOM     95  C   UNL A   1      32.665  30.158  26.104  1.00  0.00     0.146 A 
ATOM     96  C   UNL A   1      34.751  29.512  27.099  1.00  0.00     0.134 A 
ATOM     97  C   UNL A   1      32.649  31.324  26.878  1.00  0.00     0.094 A 
ATOM     98  C   UNL A   1      34.750  30.684  27.870  1.00  0.00     0.093 A 
ATOM     99  C   UNL A   1      33.701  31.587  27.739  1.00  0.00     0.123 A 
BRANCH  90 100
ATOM    100  C   UNL A   1      30.123  28.695  23.980  1.00  0.00     0.029 A 
ATOM    101  C   UNL A   1      29.446  27.465  24.051  1.00  0.00     0.062 A 
ATOM    102  C   UNL A   1      29.487  29.785  23.373  1.00  0.00     0.062 A 
ATOM    103  C   UNL A   1      28.125  27.355  23.633  1.00  0.00     0.162 A 
ATOM    104  C   UNL A   1      28.166  29.651  22.943  1.00  0.00     0.162 A 
ATOM    105  C   UNL A   1      27.470  28.456  23.117  1.00  0.00     0.200 A 
BRANCH 103 106
ATOM    106  O   UNL A   1      27.506  26.161  23.816  1.00  0.00    -0.504 OA
ATOM    107  H   UNL A   1      26.874  25.860  23.192  1.00  0.00     0.293 HD
ENDBRANCH 103 106
BRANCH 104 108
ATOM    108  O   UNL A   1      27.523  30.735  22.415  1.00  0.00    -0.504 OA
ATOM    109  H   UNL A   1      26.656  30.951  22.700  1.00  0.00     0.293 HD
ENDBRANCH 104 108
BRANCH 105 110
ATOM    110  O   UNL A   1      26.129  28.437  22.849  1.00  0.00    -0.502 OA
ATOM    111  H   UNL A   1      25.765  29.041  22.232  1.00  0.00     0.293 HD
ENDBRANCH 105 110
ENDBRANCH  90 100
BRANCH  96 112
ATOM    112  O   UNL A   1      35.772  28.622  27.287  1.00  0.00    -0.507 OA
ATOM    113  H   UNL A   1      36.561  28.701  26.787  1.00  0.00     0.293 HD
ENDBRANCH  96 112
BRANCH  99 114
ATOM    114  O   UNL A   1      33.665  32.748  28.453  1.00  0.00    -0.508 OA
ATOM    115  H   UNL A   1      32.880  33.260  28.476  1.00  0.00     0.293 HD
ENDBRANCH  99 114
ENDBRANCH  88  89
ENDBRANCH  83  88
BRANCH  84 116
ATOM    116  O   UNL A   1      29.580  23.932  27.024  1.00  0.00    -0.387 OA
ATOM    117  H   UNL A   1      29.047  23.338  26.472  1.00  0.00     0.211 HD
ENDBRANCH  84 116
BRANCH  85 118
ATOM    118  O   UNL A   1      31.064  26.420  26.618  1.00  0.00    -0.384 OA
ATOM    119  H   UNL A   1      31.523  27.178  26.223  1.00  0.00     0.211 HD
ENDBRANCH  85 118
ENDBRANCH  78  80
ENDBRANCH  77  78
ENDBRANCH  76  77
ENDBRANCH  75  76
ENDBRANCH  74  75
ENDBRANCH   1  74
TORSDOF 31
ENDMDL
