MODEL 1
REMARK VINA RESULT:     -10.0      0.000      0.000
REMARK SMILES C#CCN(CC(=O)OCCOCCOCCOC(=O)c1ccc(-c2c3nc(c(-c4cc(S(=O)(=O)[O-])ccc4F)c4ccc([nH]4)c(-c4cc(S(=O)(=O)[O-])ccc4F)c4nc(c(-c5cc(S(=O)(=O)[O-])ccc5F)c5ccc2[nH]5)C=C4)C=C3)cc1)c1nnc(C)c2ccccc12
REMARK SMILES IDX 12 1 11 2 10 3 9 4 8 5 6 6 7 7 5 8 4 9 3 10 2 11 1 12 83 13
REMARK SMILES IDX 84 14 93 15 85 16 88 17 92 18 86 19 89 20 91 21 87 22 90 23
REMARK SMILES IDX 13 24 14 25 15 26 16 27 17 28 18 29 19 30 20 31 21 32 82 33
REMARK SMILES IDX 22 34 81 35 23 36 24 37 25 38 75 39 26 40 80 41 74 42 76 43
REMARK SMILES IDX 27 44 79 45 73 46 72 47 28 49 60 50 40 51 59 52 41 53 44 54
REMARK SMILES IDX 58 55 77 56 42 57 43 58 57 60 78 61 45 62 29 63 30 64 38 65
REMARK SMILES IDX 31 66 37 67 39 68 36 69 32 70 33 71 34 72 35 73 61 74 62 75
REMARK SMILES IDX 70 76 63 77 69 78 71 79 68 80 64 81 65 82 66 83 67 84 46 85
REMARK SMILES IDX 47 86 55 87 48 88 54 89 56 90 53 91 49 92 50 93 51 94 52 95
REMARK H PARENT 76 48 44 59
REMARK Flexibility Score: inf
ROOT
ATOM      1  C   UNL A   1      32.895  27.033  22.017  1.00  0.00     0.188 C 
ENDROOT
BRANCH   1   2
ATOM      2  O   UNL A   1      31.917  26.011  21.987  1.00  0.00    -0.376 OA
BRANCH   2   3
ATOM      3  C   UNL A   1      30.645  26.404  22.469  1.00  0.00     0.202 C 
BRANCH   3   4
ATOM      4  C   UNL A   1      30.238  25.810  23.835  1.00  0.00     0.261 C 
BRANCH   4   5
ATOM      5  O   UNL A   1      30.984  24.613  24.229  1.00  0.00    -0.462 OA
BRANCH   5   6
ATOM      6  C   UNL A   1      31.101  24.353  25.561  1.00  0.00     0.325 C 
ATOM      7  O   UNL A   1      30.502  25.016  26.408  1.00  0.00    -0.250 OA
BRANCH   6   8
ATOM      8  C   UNL A   1      31.841  23.050  25.964  1.00  0.00     0.241 C 
BRANCH   8   9
ATOM      9  N   UNL A   1      33.264  22.728  25.460  1.00  0.00    -0.332 N 
BRANCH   9  10
ATOM     10  C   UNL A   1      34.195  23.809  26.310  1.00  0.00     0.208 C 
BRANCH  10  11
ATOM     11  C   UNL A   1      35.597  23.828  25.723  1.00  0.00    -0.085 C 
ATOM     12  C   UNL A   1      36.800  23.845  25.220  1.00  0.00     0.006 C 
ENDBRANCH  10  11
ENDBRANCH   9  10
BRANCH   9  13
ATOM     13  C   UNL A   1      33.343  21.235  25.464  1.00  0.00     0.160 A 
ATOM     14  N   UNL A   1      32.200  20.560  25.556  1.00  0.00    -0.132 NA
ATOM     15  C   UNL A   1      34.421  20.258  25.035  1.00  0.00     0.028 A 
ATOM     16  N   UNL A   1      31.948  19.282  24.816  1.00  0.00    -0.153 NA
ATOM     17  C   UNL A   1      33.994  18.919  24.525  1.00  0.00     0.009 A 
ATOM     18  C   UNL A   1      35.863  20.284  24.988  1.00  0.00     0.013 A 
ATOM     19  C   UNL A   1      32.749  18.678  23.840  1.00  0.00     0.068 A 
ATOM     20  C   UNL A   1      34.735  17.783  24.897  1.00  0.00     0.011 A 
ATOM     21  C   UNL A   1      36.665  19.095  24.832  1.00  0.00     0.001 A 
ATOM     22  C   UNL A   1      32.204  18.269  21.828  1.00  0.00     0.069 C 
ATOM     23  C   UNL A   1      36.100  17.836  24.923  1.00  0.00     0.001 A 
ENDBRANCH   9  13
ENDBRANCH   8   9
ENDBRANCH   6   8
ENDBRANCH   5   6
ENDBRANCH   4   5
ENDBRANCH   3   4
ENDBRANCH   2   3
ENDBRANCH   1   2
BRANCH   1  24
ATOM     24  C   UNL A   1      32.789  28.099  23.135  1.00  0.00     0.188 C 
BRANCH  24  25
ATOM     25  O   UNL A   1      33.406  27.665  24.340  1.00  0.00    -0.376 OA
BRANCH  25  26
ATOM     26  C   UNL A   1      32.704  28.017  25.518  1.00  0.00     0.202 C 
BRANCH  26  27
ATOM     27  C   UNL A   1      32.268  29.491  25.568  1.00  0.00     0.261 C 
BRANCH  27  28
ATOM     28  O   UNL A   1      31.981  29.991  26.898  1.00  0.00    -0.460 OA
BRANCH  28  29
ATOM     29  C   UNL A   1      32.380  31.258  27.103  1.00  0.00     0.338 C 
ATOM     30  O   UNL A   1      31.676  32.216  26.814  1.00  0.00    -0.246 OA
BRANCH  29  31
ATOM     31  C   UNL A   1      33.787  31.451  27.578  1.00  0.00     0.060 A 
ATOM     32  C   UNL A   1      34.926  32.866  27.840  1.00  0.00     0.016 A 
ATOM     33  C   UNL A   1      34.355  29.790  27.990  1.00  0.00     0.016 A 
ATOM     34  C   UNL A   1      36.643  32.575  28.517  1.00  0.00     0.010 A 
ATOM     35  C   UNL A   1      36.007  29.504  28.588  1.00  0.00     0.010 A 
ATOM     36  C   UNL A   1      37.203  30.848  28.843  1.00  0.00    -0.014 A 
BRANCH  36  37
ATOM     37  C   UNL A   1      38.447  30.423  29.609  1.00  0.00     0.031 A 
ATOM     38  C   UNL A   1      39.470  29.415  29.037  1.00  0.00     0.074 A 
ATOM     39  C   UNL A   1      38.577  30.765  30.905  1.00  0.00     0.049 A 
ATOM     40  N   UNL A   1      40.396  28.706  29.649  1.00  0.00    -0.248 NA
ATOM     41  C   UNL A   1      39.372  29.069  27.615  1.00  0.00     0.031 C 
ATOM     42  C   UNL A   1      37.637  31.565  31.679  1.00  0.00     0.029 A 
ATOM     43  N   UNL A   1      39.563  30.476  31.816  1.00  0.00    -0.354 N 
ATOM     44  C   UNL A   1      40.885  27.795  28.701  1.00  0.00     0.074 A 
ATOM     45  C   UNL A   1      40.049  27.935  27.539  1.00  0.00     0.031 C 
ATOM     46  C   UNL A   1      38.154  31.847  32.876  1.00  0.00     0.029 A 
ATOM     47  C   UNL A   1      39.393  31.110  33.024  1.00  0.00     0.049 A 
ATOM     48  H   UNL A   1      40.318  29.874  31.622  1.00  0.00     0.167 HD
ATOM     49  C   UNL A   1      41.970  26.973  28.743  1.00  0.00     0.034 A 
ATOM     50  C   UNL A   1      40.125  31.091  34.151  1.00  0.00     0.034 A 
ATOM     51  C   UNL A   1      42.865  26.933  29.873  1.00  0.00     0.049 A 
ATOM     52  C   UNL A   1      41.351  30.233  34.183  1.00  0.00     0.074 A 
ATOM     53  C   UNL A   1      44.050  26.236  30.024  1.00  0.00     0.029 A 
ATOM     54  N   UNL A   1      42.672  27.649  31.048  1.00  0.00    -0.354 N 
ATOM     55  N   UNL A   1      41.811  29.414  33.266  1.00  0.00    -0.248 NA
ATOM     56  C   UNL A   1      42.159  30.306  35.401  1.00  0.00     0.031 C 
ATOM     57  C   UNL A   1      44.534  26.472  31.316  1.00  0.00     0.029 A 
ATOM     58  C   UNL A   1      43.702  27.392  31.936  1.00  0.00     0.049 A 
ATOM     59  H   UNL A   1      41.915  28.252  31.223  1.00  0.00     0.167 HD
ATOM     60  C   UNL A   1      42.993  28.900  33.783  1.00  0.00     0.074 A 
ATOM     61  C   UNL A   1      43.173  29.514  35.086  1.00  0.00     0.031 C 
ATOM     62  C   UNL A   1      43.853  28.006  33.233  1.00  0.00     0.034 A 
BRANCH  49  63
ATOM     63  C   UNL A   1      42.257  26.078  27.537  1.00  0.00     0.023 A 
ATOM     64  C   UNL A   1      41.727  24.777  27.420  1.00  0.00     0.031 A 
ATOM     65  C   UNL A   1      43.108  26.512  26.501  1.00  0.00     0.131 A 
ATOM     66  C   UNL A   1      42.144  23.927  26.380  1.00  0.00     0.055 A 
ATOM     67  C   UNL A   1      43.429  25.699  25.407  1.00  0.00     0.041 A 
ATOM     68  F   UNL A   1      43.665  27.733  26.539  1.00  0.00    -0.206 F 
ATOM     69  C   UNL A   1      42.968  24.388  25.356  1.00  0.00     0.022 A 
BRANCH  66  70
ATOM     70  S   UNL A   1      41.760  22.155  26.504  1.00  0.00     0.124 S 
ATOM     71  O   UNL A   1      42.777  21.572  25.630  1.00  0.00    -0.237 OA
ATOM     72  O   UNL A   1      41.917  21.896  27.930  1.00  0.00    -0.237 OA
ATOM     73  O   UNL A   1      40.391  22.063  25.998  1.00  0.00    -0.744 OA
ENDBRANCH  66  70
ENDBRANCH  49  63
BRANCH  50  74
ATOM     74  C   UNL A   1      39.736  31.963  35.295  1.00  0.00     0.023 A 
ATOM     75  C   UNL A   1      38.881  31.472  36.292  1.00  0.00     0.031 A 
ATOM     76  C   UNL A   1      40.255  33.261  35.449  1.00  0.00     0.131 A 
ATOM     77  C   UNL A   1      38.546  32.281  37.386  1.00  0.00     0.055 A 
ATOM     78  C   UNL A   1      39.969  34.039  36.573  1.00  0.00     0.041 A 
ATOM     79  F   UNL A   1      41.099  33.769  34.537  1.00  0.00    -0.206 F 
ATOM     80  C   UNL A   1      39.101  33.552  37.545  1.00  0.00     0.022 A 
BRANCH  77  81
ATOM     81  S   UNL A   1      37.317  31.667  38.567  1.00  0.00     0.124 S 
ATOM     82  O   UNL A   1      37.046  30.331  38.049  1.00  0.00    -0.237 OA
ATOM     83  O   UNL A   1      38.047  31.730  39.828  1.00  0.00    -0.237 OA
ATOM     84  O   UNL A   1      36.216  32.621  38.438  1.00  0.00    -0.744 OA
ENDBRANCH  77  81
ENDBRANCH  50  74
BRANCH  62  85
ATOM     85  C   UNL A   1      45.096  27.697  34.025  1.00  0.00     0.023 A 
ATOM     86  C   UNL A   1      46.279  28.433  33.855  1.00  0.00     0.031 A 
ATOM     87  C   UNL A   1      45.104  26.617  34.925  1.00  0.00     0.131 A 
ATOM     88  C   UNL A   1      47.448  28.024  34.507  1.00  0.00     0.055 A 
ATOM     89  C   UNL A   1      46.250  26.268  35.635  1.00  0.00     0.041 A 
ATOM     90  F   UNL A   1      44.000  25.879  35.120  1.00  0.00    -0.206 F 
ATOM     91  C   UNL A   1      47.437  26.960  35.412  1.00  0.00     0.022 A 
BRANCH  88  92
ATOM     92  S   UNL A   1      49.013  28.810  34.040  1.00  0.00     0.124 S 
ATOM     93  O   UNL A   1      48.807  29.070  32.619  1.00  0.00    -0.237 OA
ATOM     94  O   UNL A   1      49.043  29.985  34.905  1.00  0.00    -0.237 OA
ATOM     95  O   UNL A   1      50.013  27.788  34.346  1.00  0.00    -0.744 OA
ENDBRANCH  88  92
ENDBRANCH  62  85
ENDBRANCH  36  37
ENDBRANCH  29  31
ENDBRANCH  28  29
ENDBRANCH  27  28
ENDBRANCH  26  27
ENDBRANCH  25  26
ENDBRANCH  24  25
ENDBRANCH   1  24
TORSDOF 24
ENDMDL
MODEL 2
REMARK VINA RESULT:     -10.0      2.016      2.852
REMARK SMILES C#CCN(CC(=O)OCCOCCOCCOC(=O)c1ccc(-c2c3nc(c(-c4cc(S(=O)(=O)[O-])ccc4F)c4ccc([nH]4)c(-c4cc(S(=O)(=O)[O-])ccc4F)c4nc(c(-c5cc(S(=O)(=O)[O-])ccc5F)c5ccc2[nH]5)C=C4)C=C3)cc1)c1nnc(C)c2ccccc12
REMARK SMILES IDX 12 1 11 2 10 3 9 4 8 5 6 6 7 7 5 8 4 9 3 10 2 11 1 12 83 13
REMARK SMILES IDX 84 14 93 15 85 16 88 17 92 18 86 19 89 20 91 21 87 22 90 23
REMARK SMILES IDX 13 24 14 25 15 26 16 27 17 28 18 29 19 30 20 31 21 32 82 33
REMARK SMILES IDX 22 34 81 35 23 36 24 37 25 38 75 39 26 40 80 41 74 42 76 43
REMARK SMILES IDX 27 44 79 45 73 46 72 47 28 49 60 50 40 51 59 52 41 53 44 54
REMARK SMILES IDX 58 55 77 56 42 57 43 58 57 60 78 61 45 62 29 63 30 64 38 65
REMARK SMILES IDX 31 66 37 67 39 68 36 69 32 70 33 71 34 72 35 73 61 74 62 75
REMARK SMILES IDX 70 76 63 77 69 78 71 79 68 80 64 81 65 82 66 83 67 84 46 85
REMARK SMILES IDX 47 86 55 87 48 88 54 89 56 90 53 91 49 92 50 93 51 94 52 95
REMARK H PARENT 76 48 44 59
REMARK Flexibility Score: inf
ROOT
ATOM      1  C   UNL A   1      33.426  26.914  21.984  1.00  0.00     0.188 C 
ENDROOT
BRANCH   1   2
ATOM      2  O   UNL A   1      32.229  26.164  22.053  1.00  0.00    -0.376 OA
BRANCH   2   3
ATOM      3  C   UNL A   1      31.069  26.935  22.309  1.00  0.00     0.202 C 
BRANCH   3   4
ATOM      4  C   UNL A   1      30.176  26.431  23.464  1.00  0.00     0.261 C 
BRANCH   4   5
ATOM      5  O   UNL A   1      30.214  24.984  23.681  1.00  0.00    -0.462 OA
BRANCH   5   6
ATOM      6  C   UNL A   1      31.018  24.516  24.677  1.00  0.00     0.325 C 
ATOM      7  O   UNL A   1      30.737  24.669  25.865  1.00  0.00    -0.250 OA
BRANCH   6   8
ATOM      8  C   UNL A   1      32.190  23.587  24.261  1.00  0.00     0.241 C 
BRANCH   8   9
ATOM      9  N   UNL A   1      32.923  22.689  25.279  1.00  0.00    -0.332 N 
BRANCH   9  10
ATOM     10  C   UNL A   1      31.858  21.430  25.474  1.00  0.00     0.208 C 
BRANCH  10  11
ATOM     11  C   UNL A   1      32.075  20.416  24.363  1.00  0.00    -0.085 C 
ATOM     12  C   UNL A   1      32.261  19.547  23.409  1.00  0.00     0.006 C 
ENDBRANCH  10  11
ENDBRANCH   9  10
BRANCH   9  13
ATOM     13  C   UNL A   1      34.337  22.639  24.798  1.00  0.00     0.160 A 
ATOM     14  N   UNL A   1      34.882  23.777  24.375  1.00  0.00    -0.132 NA
ATOM     15  C   UNL A   1      35.458  21.637  24.993  1.00  0.00     0.028 A 
ATOM     16  N   UNL A   1      36.314  24.137  24.628  1.00  0.00    -0.153 NA
ATOM     17  C   UNL A   1      36.864  22.145  24.993  1.00  0.00     0.009 A 
ATOM     18  C   UNL A   1      35.529  20.209  25.193  1.00  0.00     0.013 A 
ATOM     19  C   UNL A   1      37.243  23.465  25.431  1.00  0.00     0.068 A 
ATOM     20  C   UNL A   1      37.860  21.388  24.349  1.00  0.00     0.011 A 
ATOM     21  C   UNL A   1      36.748  19.454  25.034  1.00  0.00     0.001 A 
ATOM     22  C   UNL A   1      38.246  24.245  27.133  1.00  0.00     0.069 C 
ATOM     23  C   UNL A   1      37.877  20.029  24.481  1.00  0.00     0.001 A 
ENDBRANCH   9  13
ENDBRANCH   8   9
ENDBRANCH   6   8
ENDBRANCH   5   6
ENDBRANCH   4   5
ENDBRANCH   3   4
ENDBRANCH   2   3
ENDBRANCH   1   2
BRANCH   1  24
ATOM     24  C   UNL A   1      33.376  28.395  22.436  1.00  0.00     0.188 C 
BRANCH  24  25
ATOM     25  O   UNL A   1      33.906  28.568  23.744  1.00  0.00    -0.376 OA
BRANCH  25  26
ATOM     26  C   UNL A   1      32.959  28.416  24.785  1.00  0.00     0.202 C 
BRANCH  26  27
ATOM     27  C   UNL A   1      32.169  29.697  25.102  1.00  0.00     0.261 C 
BRANCH  27  28
ATOM     28  O   UNL A   1      31.946  29.936  26.514  1.00  0.00    -0.460 OA
BRANCH  28  29
ATOM     29  C   UNL A   1      32.219  31.192  26.905  1.00  0.00     0.338 C 
ATOM     30  O   UNL A   1      31.434  32.114  26.727  1.00  0.00    -0.246 OA
BRANCH  29  31
ATOM     31  C   UNL A   1      33.592  31.444  27.450  1.00  0.00     0.060 A 
ATOM     32  C   UNL A   1      34.625  32.908  27.843  1.00  0.00     0.016 A 
ATOM     33  C   UNL A   1      34.251  29.799  27.787  1.00  0.00     0.016 A 
ATOM     34  C   UNL A   1      36.330  32.684  28.574  1.00  0.00     0.010 A 
ATOM     35  C   UNL A   1      35.894  29.581  28.436  1.00  0.00     0.010 A 
ATOM     36  C   UNL A   1      36.988  30.979  28.820  1.00  0.00    -0.014 A 
BRANCH  36  37
ATOM     37  C   UNL A   1      38.227  30.587  29.612  1.00  0.00     0.031 A 
ATOM     38  C   UNL A   1      39.294  29.616  29.056  1.00  0.00     0.074 A 
ATOM     39  C   UNL A   1      38.317  30.922  30.913  1.00  0.00     0.049 A 
ATOM     40  N   UNL A   1      40.226  28.930  29.684  1.00  0.00    -0.248 NA
ATOM     41  C   UNL A   1      39.239  29.278  27.630  1.00  0.00     0.031 C 
ATOM     42  C   UNL A   1      37.336  31.687  31.671  1.00  0.00     0.029 A 
ATOM     43  N   UNL A   1      39.291  30.656  31.844  1.00  0.00    -0.354 N 
ATOM     44  C   UNL A   1      40.766  28.042  28.742  1.00  0.00     0.074 A 
ATOM     45  C   UNL A   1      39.953  28.166  27.561  1.00  0.00     0.031 C 
ATOM     46  C   UNL A   1      37.816  31.975  32.882  1.00  0.00     0.029 A 
ATOM     47  C   UNL A   1      39.073  31.275  33.053  1.00  0.00     0.049 A 
ATOM     48  H   UNL A   1      40.067  30.079  31.663  1.00  0.00     0.167 HD
ATOM     49  C   UNL A   1      41.874  27.253  28.803  1.00  0.00     0.034 A 
ATOM     50  C   UNL A   1      39.780  31.270  34.196  1.00  0.00     0.034 A 
ATOM     51  C   UNL A   1      42.744  27.232  29.953  1.00  0.00     0.049 A 
ATOM     52  C   UNL A   1      41.030  30.450  34.251  1.00  0.00     0.074 A 
ATOM     53  C   UNL A   1      43.946  26.571  30.125  1.00  0.00     0.029 A 
ATOM     54  N   UNL A   1      42.502  27.932  31.128  1.00  0.00    -0.354 N 
ATOM     55  N   UNL A   1      41.536  29.653  33.338  1.00  0.00    -0.248 NA
ATOM     56  C   UNL A   1      41.808  30.538  35.487  1.00  0.00     0.031 C 
ATOM     57  C   UNL A   1      44.392  26.811  31.430  1.00  0.00     0.029 A 
ATOM     58  C   UNL A   1      43.519  27.700  32.038  1.00  0.00     0.049 A 
ATOM     59  H   UNL A   1      41.723  28.511  31.290  1.00  0.00     0.167 HD
ATOM     60  C   UNL A   1      42.721  29.171  33.879  1.00  0.00     0.074 A 
ATOM     61  C   UNL A   1      42.853  29.780  35.190  1.00  0.00     0.031 C 
ATOM     62  C   UNL A   1      43.621  28.308  33.342  1.00  0.00     0.034 A 
BRANCH  49  63
ATOM     63  C   UNL A   1      42.216  26.377  27.597  1.00  0.00     0.023 A 
ATOM     64  C   UNL A   1      41.898  25.005  27.548  1.00  0.00     0.031 A 
ATOM     65  C   UNL A   1      42.909  26.908  26.491  1.00  0.00     0.131 A 
ATOM     66  C   UNL A   1      42.372  24.199  26.497  1.00  0.00     0.055 A 
ATOM     67  C   UNL A   1      43.279  26.122  25.393  1.00  0.00     0.041 A 
ATOM     68  F   UNL A   1      43.260  28.203  26.461  1.00  0.00    -0.206 F 
ATOM     69  C   UNL A   1      43.035  24.753  25.404  1.00  0.00     0.022 A 
BRANCH  66  70
ATOM     70  S   UNL A   1      42.292  22.394  26.686  1.00  0.00     0.124 S 
ATOM     71  O   UNL A   1      43.696  22.019  26.534  1.00  0.00    -0.237 OA
ATOM     72  O   UNL A   1      41.730  22.241  28.023  1.00  0.00    -0.237 OA
ATOM     73  O   UNL A   1      41.422  21.971  25.590  1.00  0.00    -0.744 OA
ENDBRANCH  66  70
ENDBRANCH  49  63
BRANCH  50  74
ATOM     74  C   UNL A   1      39.338  32.120  35.337  1.00  0.00     0.023 A 
ATOM     75  C   UNL A   1      39.793  33.443  35.443  1.00  0.00     0.031 A 
ATOM     76  C   UNL A   1      38.414  31.660  36.293  1.00  0.00     0.131 A 
ATOM     77  C   UNL A   1      39.348  34.252  36.497  1.00  0.00     0.055 A 
ATOM     78  C   UNL A   1      37.925  32.491  37.302  1.00  0.00     0.041 A 
ATOM     79  F   UNL A   1      37.927  30.411  36.221  1.00  0.00    -0.206 F 
ATOM     80  C   UNL A   1      38.400  33.794  37.414  1.00  0.00     0.022 A 
BRANCH  77  81
ATOM     81  S   UNL A   1      40.080  35.899  36.687  1.00  0.00     0.124 S 
ATOM     82  O   UNL A   1      39.364  36.411  37.850  1.00  0.00    -0.237 OA
ATOM     83  O   UNL A   1      41.490  35.585  36.888  1.00  0.00    -0.237 OA
ATOM     84  O   UNL A   1      39.764  36.558  35.420  1.00  0.00    -0.744 OA
ENDBRANCH  77  81
ENDBRANCH  50  74
BRANCH  62  85
ATOM     85  C   UNL A   1      44.854  28.031  34.160  1.00  0.00     0.023 A 
ATOM     86  C   UNL A   1      44.876  27.025  35.140  1.00  0.00     0.031 A 
ATOM     87  C   UNL A   1      46.004  28.821  33.988  1.00  0.00     0.131 A 
ATOM     88  C   UNL A   1      45.994  26.896  35.973  1.00  0.00     0.055 A 
ATOM     89  C   UNL A   1      47.145  28.630  34.764  1.00  0.00     0.041 A 
ATOM     90  F   UNL A   1      46.032  29.799  33.068  1.00  0.00    -0.206 F 
ATOM     91  C   UNL A   1      47.137  27.676  35.777  1.00  0.00     0.022 A 
BRANCH  88  92
ATOM     92  S   UNL A   1      45.874  25.794  37.407  1.00  0.00     0.124 S 
ATOM     93  O   UNL A   1      47.185  25.961  38.025  1.00  0.00    -0.237 OA
ATOM     94  O   UNL A   1      44.747  26.359  38.141  1.00  0.00    -0.237 OA
ATOM     95  O   UNL A   1      45.631  24.482  36.810  1.00  0.00    -0.744 OA
ENDBRANCH  88  92
ENDBRANCH  62  85
ENDBRANCH  36  37
ENDBRANCH  29  31
ENDBRANCH  28  29
ENDBRANCH  27  28
ENDBRANCH  26  27
ENDBRANCH  25  26
ENDBRANCH  24  25
ENDBRANCH   1  24
TORSDOF 24
ENDMDL
MODEL 3
REMARK VINA RESULT:      -9.5      5.047      8.535
REMARK SMILES C#CCN(CC(=O)OCCOCCOCCOC(=O)c1ccc(-c2c3nc(c(-c4cc(S(=O)(=O)[O-])ccc4F)c4ccc([nH]4)c(-c4cc(S(=O)(=O)[O-])ccc4F)c4nc(c(-c5cc(S(=O)(=O)[O-])ccc5F)c5ccc2[nH]5)C=C4)C=C3)cc1)c1nnc(C)c2ccccc12
REMARK SMILES IDX 12 1 11 2 10 3 9 4 8 5 6 6 7 7 5 8 4 9 3 10 2 11 1 12 83 13
REMARK SMILES IDX 84 14 93 15 85 16 88 17 92 18 86 19 89 20 91 21 87 22 90 23
REMARK SMILES IDX 13 24 14 25 15 26 16 27 17 28 18 29 19 30 20 31 21 32 82 33
REMARK SMILES IDX 22 34 81 35 23 36 24 37 25 38 75 39 26 40 80 41 74 42 76 43
REMARK SMILES IDX 27 44 79 45 73 46 72 47 28 49 60 50 40 51 59 52 41 53 44 54
REMARK SMILES IDX 58 55 77 56 42 57 43 58 57 60 78 61 45 62 29 63 30 64 38 65
REMARK SMILES IDX 31 66 37 67 39 68 36 69 32 70 33 71 34 72 35 73 61 74 62 75
REMARK SMILES IDX 70 76 63 77 69 78 71 79 68 80 64 81 65 82 66 83 67 84 46 85
REMARK SMILES IDX 47 86 55 87 48 88 54 89 56 90 53 91 49 92 50 93 51 94 52 95
REMARK H PARENT 76 48 44 59
REMARK Flexibility Score: inf
ROOT
ATOM      1  C   UNL A   1      35.103  20.659  24.860  1.00  0.00     0.188 C 
ENDROOT
BRANCH   1   2
ATOM      2  O   UNL A   1      33.984  20.444  25.700  1.00  0.00    -0.376 OA
BRANCH   2   3
ATOM      3  C   UNL A   1      32.740  20.430  25.024  1.00  0.00     0.202 C 
BRANCH   3   4
ATOM      4  C   UNL A   1      31.810  21.628  25.317  1.00  0.00     0.261 C 
BRANCH   4   5
ATOM      5  O   UNL A   1      32.146  22.382  26.526  1.00  0.00    -0.462 OA
BRANCH   5   6
ATOM      6  C   UNL A   1      33.079  23.369  26.415  1.00  0.00     0.325 C 
ATOM      7  O   UNL A   1      34.060  23.423  27.155  1.00  0.00    -0.250 OA
BRANCH   6   8
ATOM      8  C   UNL A   1      32.980  24.297  25.174  1.00  0.00     0.241 C 
BRANCH   8   9
ATOM      9  N   UNL A   1      34.158  25.186  24.722  1.00  0.00    -0.332 N 
BRANCH   9  10
ATOM     10  C   UNL A   1      34.926  24.221  23.610  1.00  0.00     0.208 C 
BRANCH  10  11
ATOM     11  C   UNL A   1      33.883  23.514  22.759  1.00  0.00    -0.085 C 
ATOM     12  C   UNL A   1      32.989  22.908  22.028  1.00  0.00     0.006 C 
ENDBRANCH  10  11
ENDBRANCH   9  10
BRANCH   9  13
ATOM     13  C   UNL A   1      33.558  26.540  24.514  1.00  0.00     0.160 A 
ATOM     14  N   UNL A   1      33.301  26.912  23.263  1.00  0.00    -0.132 NA
ATOM     15  C   UNL A   1      32.833  27.499  25.437  1.00  0.00     0.028 A 
ATOM     16  N   UNL A   1      32.092  27.711  22.883  1.00  0.00    -0.153 NA
ATOM     17  C   UNL A   1      31.798  28.400  24.843  1.00  0.00     0.009 A 
ATOM     18  C   UNL A   1      32.884  27.794  26.849  1.00  0.00     0.013 A 
ATOM     19  C   UNL A   1      31.003  28.063  23.689  1.00  0.00     0.068 A 
ATOM     20  C   UNL A   1      31.718  29.731  25.292  1.00  0.00     0.011 A 
ATOM     21  C   UNL A   1      32.304  28.983  27.424  1.00  0.00     0.001 A 
ATOM     22  C   UNL A   1      28.971  27.528  23.377  1.00  0.00     0.069 C 
ATOM     23  C   UNL A   1      31.843  30.011  26.623  1.00  0.00     0.001 A 
ENDBRANCH   9  13
ENDBRANCH   8   9
ENDBRANCH   6   8
ENDBRANCH   5   6
ENDBRANCH   4   5
ENDBRANCH   3   4
ENDBRANCH   2   3
ENDBRANCH   1   2
BRANCH   1  24
ATOM     24  C   UNL A   1      36.305  21.438  25.447  1.00  0.00     0.188 C 
BRANCH  24  25
ATOM     25  O   UNL A   1      37.541  20.790  25.175  1.00  0.00    -0.376 OA
BRANCH  25  26
ATOM     26  C   UNL A   1      38.671  21.416  25.753  1.00  0.00     0.202 C 
BRANCH  26  27
ATOM     27  C   UNL A   1      39.951  20.564  25.704  1.00  0.00     0.261 C 
BRANCH  27  28
ATOM     28  O   UNL A   1      41.143  21.238  26.175  1.00  0.00    -0.460 OA
BRANCH  28  29
ATOM     29  C   UNL A   1      41.281  21.233  27.512  1.00  0.00     0.338 C 
ATOM     30  O   UNL A   1      40.884  20.304  28.203  1.00  0.00    -0.246 OA
BRANCH  29  31
ATOM     31  C   UNL A   1      41.822  22.482  28.138  1.00  0.00     0.060 A 
ATOM     32  C   UNL A   1      43.192  22.920  29.277  1.00  0.00     0.016 A 
ATOM     33  C   UNL A   1      40.781  23.801  27.481  1.00  0.00     0.016 A 
ATOM     34  C   UNL A   1      43.489  24.705  29.744  1.00  0.00     0.010 A 
ATOM     35  C   UNL A   1      41.030  25.496  27.963  1.00  0.00     0.010 A 
ATOM     36  C   UNL A   1      42.344  26.005  29.111  1.00  0.00    -0.014 A 
BRANCH  36  37
ATOM     37  C   UNL A   1      42.552  27.511  29.173  1.00  0.00     0.031 A 
ATOM     38  C   UNL A   1      43.932  28.168  28.940  1.00  0.00     0.074 A 
ATOM     39  C   UNL A   1      41.566  28.298  29.641  1.00  0.00     0.049 A 
ATOM     40  N   UNL A   1      44.363  29.371  29.256  1.00  0.00    -0.248 NA
ATOM     41  C   UNL A   1      45.005  27.335  28.385  1.00  0.00     0.031 C 
ATOM     42  C   UNL A   1      40.248  27.855  30.077  1.00  0.00     0.029 A 
ATOM     43  N   UNL A   1      41.516  29.657  29.835  1.00  0.00    -0.354 N 
ATOM     44  C   UNL A   1      45.746  29.369  29.024  1.00  0.00     0.074 A 
ATOM     45  C   UNL A   1      46.097  28.013  28.698  1.00  0.00     0.031 C 
ATOM     46  C   UNL A   1      39.469  28.909  30.325  1.00  0.00     0.029 A 
ATOM     47  C   UNL A   1      40.277  30.107  30.227  1.00  0.00     0.049 A 
ATOM     48  H   UNL A   1      42.292  30.249  29.707  1.00  0.00     0.167 HD
ATOM     49  C   UNL A   1      46.640  30.396  28.998  1.00  0.00     0.034 A 
ATOM     50  C   UNL A   1      39.826  31.342  30.509  1.00  0.00     0.034 A 
ATOM     51  C   UNL A   1      46.247  31.767  29.211  1.00  0.00     0.049 A 
ATOM     52  C   UNL A   1      40.791  32.483  30.427  1.00  0.00     0.074 A 
ATOM     53  C   UNL A   1      47.008  32.918  29.117  1.00  0.00     0.029 A 
ATOM     54  N   UNL A   1      44.959  32.168  29.543  1.00  0.00    -0.354 N 
ATOM     55  N   UNL A   1      42.078  32.459  30.169  1.00  0.00    -0.248 NA
ATOM     56  C   UNL A   1      40.237  33.816  30.665  1.00  0.00     0.031 C 
ATOM     57  C   UNL A   1      46.199  34.006  29.466  1.00  0.00     0.029 A 
ATOM     58  C   UNL A   1      44.910  33.545  29.681  1.00  0.00     0.049 A 
ATOM     59  H   UNL A   1      44.193  31.562  29.661  1.00  0.00     0.167 HD
ATOM     60  C   UNL A   1      42.484  33.788  30.176  1.00  0.00     0.074 A 
ATOM     61  C   UNL A   1      41.298  34.579  30.450  1.00  0.00     0.031 C 
ATOM     62  C   UNL A   1      43.720  34.308  29.968  1.00  0.00     0.034 A 
BRANCH  49  63
ATOM     63  C   UNL A   1      48.109  30.081  28.711  1.00  0.00     0.023 A 
ATOM     64  C   UNL A   1      48.569  29.739  27.424  1.00  0.00     0.031 A 
ATOM     65  C   UNL A   1      49.064  30.084  29.747  1.00  0.00     0.131 A 
ATOM     66  C   UNL A   1      49.891  29.298  27.232  1.00  0.00     0.055 A 
ATOM     67  C   UNL A   1      50.407  29.755  29.526  1.00  0.00     0.041 A 
ATOM     68  F   UNL A   1      48.709  30.389  31.005  1.00  0.00    -0.206 F 
ATOM     69  C   UNL A   1      50.822  29.333  28.268  1.00  0.00     0.022 A 
BRANCH  66  70
ATOM     70  S   UNL A   1      50.314  28.487  25.662  1.00  0.00     0.124 S 
ATOM     71  O   UNL A   1      50.957  27.260  26.129  1.00  0.00    -0.237 OA
ATOM     72  O   UNL A   1      49.011  28.324  25.030  1.00  0.00    -0.237 OA
ATOM     73  O   UNL A   1      51.211  29.441  25.012  1.00  0.00    -0.744 OA
ENDBRANCH  66  70
ENDBRANCH  49  63
BRANCH  50  74
ATOM     74  C   UNL A   1      38.384  31.542  30.828  1.00  0.00     0.023 A 
ATOM     75  C   UNL A   1      37.484  31.890  29.811  1.00  0.00     0.031 A 
ATOM     76  C   UNL A   1      37.872  31.329  32.121  1.00  0.00     0.131 A 
ATOM     77  C   UNL A   1      36.122  32.042  30.106  1.00  0.00     0.055 A 
ATOM     78  C   UNL A   1      36.506  31.419  32.395  1.00  0.00     0.041 A 
ATOM     79  F   UNL A   1      38.689  30.969  33.125  1.00  0.00    -0.206 F 
ATOM     80  C   UNL A   1      35.624  31.788  31.385  1.00  0.00     0.022 A 
BRANCH  77  81
ATOM     81  S   UNL A   1      35.020  32.644  28.799  1.00  0.00     0.124 S 
ATOM     82  O   UNL A   1      33.851  33.062  29.565  1.00  0.00    -0.237 OA
ATOM     83  O   UNL A   1      35.811  33.714  28.201  1.00  0.00    -0.237 OA
ATOM     84  O   UNL A   1      34.823  31.468  27.953  1.00  0.00    -0.744 OA
ENDBRANCH  77  81
ENDBRANCH  50  74
BRANCH  62  85
ATOM     85  C   UNL A   1      43.824  35.810  29.973  1.00  0.00     0.023 A 
ATOM     86  C   UNL A   1      43.720  36.559  28.790  1.00  0.00     0.031 A 
ATOM     87  C   UNL A   1      44.082  36.492  31.175  1.00  0.00     0.131 A 
ATOM     88  C   UNL A   1      43.962  37.937  28.820  1.00  0.00     0.055 A 
ATOM     89  C   UNL A   1      44.238  37.876  31.210  1.00  0.00     0.041 A 
ATOM     90  F   UNL A   1      44.195  35.822  32.333  1.00  0.00    -0.206 F 
ATOM     91  C   UNL A   1      44.199  38.604  30.025  1.00  0.00     0.022 A 
BRANCH  88  92
ATOM     92  S   UNL A   1      44.110  38.818  27.243  1.00  0.00     0.124 S 
ATOM     93  O   UNL A   1      45.268  38.167  26.641  1.00  0.00    -0.237 OA
ATOM     94  O   UNL A   1      42.824  38.544  26.611  1.00  0.00    -0.237 OA
ATOM     95  O   UNL A   1      44.319  40.208  27.647  1.00  0.00    -0.744 OA
ENDBRANCH  88  92
ENDBRANCH  62  85
ENDBRANCH  36  37
ENDBRANCH  29  31
ENDBRANCH  28  29
ENDBRANCH  27  28
ENDBRANCH  26  27
ENDBRANCH  25  26
ENDBRANCH  24  25
ENDBRANCH   1  24
TORSDOF 24
ENDMDL
