MODEL 1
REMARK VINA RESULT:     -10.1      0.000      0.000
REMARK SMILES Cc1c(CC(=O)OCCOCCOCCOC(=O)c2ccc(-c3c4nc(c(-c5cc(S(=O)(=O)[O-])ccc5F)c5ccc([nH]5)c(-c5cc(S(=O)(=O)[O-])ccc5F)c5nc(c(-c6cc(S(=O)(=O)[O-])ccc6F)c6ccc3[nH]6)C=C5)C=C4)cc2)c(O)oc2cc(=O)cc(O)c1-2
REMARK SMILES IDX 12 1 11 2 10 3 9 4 8 5 7 6 5 7 6 8 4 9 3 10 1 11 2 12 92 13
REMARK SMILES IDX 82 14 85 15 90 16 84 17 86 18 89 19 87 20 88 21 83 22 91 24
REMARK SMILES IDX 13 26 14 27 15 28 16 29 17 30 18 31 19 32 20 33 81 34 21 35
REMARK SMILES IDX 80 36 22 37 23 38 24 39 74 40 25 41 79 42 73 43 75 44 26 45
REMARK SMILES IDX 78 46 72 47 71 48 27 50 59 51 39 52 58 53 40 54 43 55 57 56
REMARK SMILES IDX 76 57 41 58 42 59 56 61 77 62 44 63 28 64 29 65 37 66 30 67
REMARK SMILES IDX 36 68 38 69 35 70 31 71 32 72 33 73 34 74 60 75 61 76 69 77
REMARK SMILES IDX 62 78 68 79 70 80 67 81 63 82 64 83 65 84 66 85 45 86 46 87
REMARK SMILES IDX 54 88 47 89 53 90 55 91 52 92 48 93 49 94 50 95 51 96
REMARK H PARENT 83 23 91 25 75 49 43 60
REMARK Flexibility Score: inf
ROOT
ATOM      1  C   UNL A   1      34.450  32.046  28.045  1.00  0.00     0.188 C 
ENDROOT
BRANCH   1   2
ATOM      2  C   UNL A   1      33.250  31.242  27.506  1.00  0.00     0.188 C 
BRANCH   2   3
ATOM      3  O   UNL A   1      33.395  29.846  27.276  1.00  0.00    -0.376 OA
BRANCH   3   4
ATOM      4  C   UNL A   1      32.292  29.131  26.741  1.00  0.00     0.202 C 
BRANCH   4   5
ATOM      5  C   UNL A   1      31.806  27.937  27.562  1.00  0.00     0.261 C 
BRANCH   5   6
ATOM      6  O   UNL A   1      30.799  27.155  26.884  1.00  0.00    -0.463 OA
BRANCH   6   7
ATOM      7  C   UNL A   1      31.220  25.977  26.362  1.00  0.00     0.310 C 
ATOM      8  O   UNL A   1      31.761  25.092  27.020  1.00  0.00    -0.252 OA
BRANCH   7   9
ATOM      9  C   UNL A   1      31.025  25.810  24.855  1.00  0.00     0.166 C 
BRANCH   9  10
ATOM     10  C   UNL A   1      30.705  26.997  23.953  1.00  0.00     0.048 A 
ATOM     11  C   UNL A   1      28.215  26.325  23.854  1.00  0.00     0.046 C 
ATOM     12  C   UNL A   1      29.302  27.338  23.600  1.00  0.00    -0.026 A 
ATOM     13  C   UNL A   1      29.019  28.526  22.991  1.00  0.00     0.063 A 
ATOM     14  C   UNL A   1      31.691  27.765  23.433  1.00  0.00     0.286 A 
ATOM     15  C   UNL A   1      30.134  29.298  22.427  1.00  0.00     0.146 A 
ATOM     16  C   UNL A   1      27.661  29.092  22.828  1.00  0.00     0.130 A 
ATOM     17  O   UNL A   1      31.431  28.877  22.655  1.00  0.00    -0.425 OA
ATOM     18  C   UNL A   1      29.920  30.344  21.620  1.00  0.00     0.100 A 
ATOM     19  C   UNL A   1      27.434  30.152  22.038  1.00  0.00     0.099 A 
ATOM     20  C   UNL A   1      28.551  30.811  21.328  1.00  0.00     0.186 A 
ATOM     21  O   UNL A   1      28.354  31.748  20.564  1.00  0.00    -0.290 OA
BRANCH  14  22
ATOM     22  O   UNL A   1      33.029  27.510  23.640  1.00  0.00    -0.480 OA
ATOM     23  H   UNL A   1      33.338  27.297  24.499  1.00  0.00     0.297 HD
ENDBRANCH  14  22
BRANCH  16  24
ATOM     24  O   UNL A   1      26.661  28.572  23.623  1.00  0.00    -0.507 OA
ATOM     25  H   UNL A   1      26.446  28.984  24.437  1.00  0.00     0.293 HD
ENDBRANCH  16  24
ENDBRANCH   9  10
ENDBRANCH   7   9
ENDBRANCH   6   7
ENDBRANCH   5   6
ENDBRANCH   4   5
ENDBRANCH   3   4
ENDBRANCH   2   3
ENDBRANCH   1   2
BRANCH   1  26
ATOM     26  O   UNL A   1      34.566  33.416  27.685  1.00  0.00    -0.376 OA
BRANCH  26  27
ATOM     27  C   UNL A   1      34.613  34.365  28.742  1.00  0.00     0.202 C 
BRANCH  27  28
ATOM     28  C   UNL A   1      33.245  34.795  29.267  1.00  0.00     0.261 C 
BRANCH  28  29
ATOM     29  O   UNL A   1      33.358  35.952  30.119  1.00  0.00    -0.460 OA
BRANCH  29  30
ATOM     30  C   UNL A   1      32.835  35.804  31.358  1.00  0.00     0.338 C 
ATOM     31  O   UNL A   1      31.703  36.074  31.725  1.00  0.00    -0.246 OA
BRANCH  30  32
ATOM     32  C   UNL A   1      33.815  35.169  32.253  1.00  0.00     0.060 A 
ATOM     33  C   UNL A   1      35.090  35.720  32.336  1.00  0.00     0.016 A 
ATOM     34  C   UNL A   1      33.554  33.924  32.814  1.00  0.00     0.016 A 
ATOM     35  C   UNL A   1      36.146  34.986  32.870  1.00  0.00     0.010 A 
ATOM     36  C   UNL A   1      34.597  33.218  33.426  1.00  0.00     0.010 A 
ATOM     37  C   UNL A   1      35.916  33.716  33.410  1.00  0.00    -0.014 A 
BRANCH  37  38
ATOM     38  C   UNL A   1      37.051  32.857  33.846  1.00  0.00     0.031 A 
ATOM     39  C   UNL A   1      37.700  33.114  35.182  1.00  0.00     0.074 A 
ATOM     40  C   UNL A   1      37.482  31.827  33.092  1.00  0.00     0.049 A 
ATOM     41  N   UNL A   1      38.836  32.673  35.654  1.00  0.00    -0.248 NA
ATOM     42  C   UNL A   1      36.969  33.998  36.103  1.00  0.00     0.031 C 
ATOM     43  C   UNL A   1      36.874  31.378  31.838  1.00  0.00     0.029 A 
ATOM     44  N   UNL A   1      38.534  30.964  33.276  1.00  0.00    -0.354 N 
ATOM     45  C   UNL A   1      38.986  33.270  36.901  1.00  0.00     0.074 A 
ATOM     46  C   UNL A   1      37.823  34.107  37.111  1.00  0.00     0.031 C 
ATOM     47  C   UNL A   1      37.544  30.308  31.384  1.00  0.00     0.029 A 
ATOM     48  C   UNL A   1      38.690  30.059  32.252  1.00  0.00     0.049 A 
ATOM     49  H   UNL A   1      39.122  30.991  34.066  1.00  0.00     0.167 HD
ATOM     50  C   UNL A   1      40.006  33.135  37.785  1.00  0.00     0.034 A 
ATOM     51  C   UNL A   1      39.673  29.171  32.005  1.00  0.00     0.034 A 
ATOM     52  C   UNL A   1      41.136  32.265  37.573  1.00  0.00     0.049 A 
ATOM     53  C   UNL A   1      40.851  29.109  32.938  1.00  0.00     0.074 A 
ATOM     54  C   UNL A   1      42.240  32.070  38.385  1.00  0.00     0.029 A 
ATOM     55  N   UNL A   1      41.300  31.432  36.475  1.00  0.00    -0.354 N 
ATOM     56  N   UNL A   1      41.060  29.783  34.045  1.00  0.00    -0.248 NA
ATOM     57  C   UNL A   1      41.940  28.193  32.573  1.00  0.00     0.031 C 
ATOM     58  C   UNL A   1      43.096  31.163  37.751  1.00  0.00     0.029 A 
ATOM     59  C   UNL A   1      42.496  30.740  36.574  1.00  0.00     0.049 A 
ATOM     60  H   UNL A   1      40.660  31.345  35.732  1.00  0.00     0.167 HD
ATOM     61  C   UNL A   1      42.304  29.370  34.512  1.00  0.00     0.074 A 
ATOM     62  C   UNL A   1      42.792  28.379  33.572  1.00  0.00     0.031 C 
ATOM     63  C   UNL A   1      42.979  29.774  35.617  1.00  0.00     0.034 A 
BRANCH  50  64
ATOM     64  C   UNL A   1      39.979  34.007  39.015  1.00  0.00     0.023 A 
ATOM     65  C   UNL A   1      39.158  33.721  40.119  1.00  0.00     0.031 A 
ATOM     66  C   UNL A   1      40.775  35.167  39.067  1.00  0.00     0.131 A 
ATOM     67  C   UNL A   1      39.106  34.614  41.200  1.00  0.00     0.055 A 
ATOM     68  C   UNL A   1      40.771  36.015  40.177  1.00  0.00     0.041 A 
ATOM     69  F   UNL A   1      41.561  35.503  38.032  1.00  0.00    -0.206 F 
ATOM     70  C   UNL A   1      39.923  35.747  41.246  1.00  0.00     0.022 A 
BRANCH  67  71
ATOM     71  S   UNL A   1      37.864  34.342  42.494  1.00  0.00     0.124 S 
ATOM     72  O   UNL A   1      38.096  35.489  43.369  1.00  0.00    -0.237 OA
ATOM     73  O   UNL A   1      36.615  34.355  41.742  1.00  0.00    -0.237 OA
ATOM     74  O   UNL A   1      38.238  33.048  43.061  1.00  0.00    -0.744 OA
ENDBRANCH  67  71
ENDBRANCH  50  64
BRANCH  51  75
ATOM     75  C   UNL A   1      39.619  28.334  30.773  1.00  0.00     0.023 A 
ATOM     76  C   UNL A   1      40.300  28.716  29.608  1.00  0.00     0.031 A 
ATOM     77  C   UNL A   1      38.906  27.121  30.759  1.00  0.00     0.131 A 
ATOM     78  C   UNL A   1      40.254  27.890  28.474  1.00  0.00     0.055 A 
ATOM     79  C   UNL A   1      38.896  26.286  29.642  1.00  0.00     0.041 A 
ATOM     80  F   UNL A   1      38.240  26.712  31.851  1.00  0.00    -0.206 F 
ATOM     81  C   UNL A   1      39.572  26.670  28.489  1.00  0.00     0.022 A 
BRANCH  78  82
ATOM     82  S   UNL A   1      41.104  28.430  26.965  1.00  0.00     0.124 S 
ATOM     83  O   UNL A   1      41.364  27.158  26.302  1.00  0.00    -0.237 OA
ATOM     84  O   UNL A   1      40.104  29.288  26.338  1.00  0.00    -0.237 OA
ATOM     85  O   UNL A   1      42.286  29.125  27.470  1.00  0.00    -0.744 OA
ENDBRANCH  78  82
ENDBRANCH  51  75
BRANCH  63  86
ATOM     86  C   UNL A   1      44.313  29.129  35.884  1.00  0.00     0.023 A 
ATOM     87  C   UNL A   1      44.417  27.933  36.614  1.00  0.00     0.031 A 
ATOM     88  C   UNL A   1      45.490  29.701  35.370  1.00  0.00     0.131 A 
ATOM     89  C   UNL A   1      45.678  27.360  36.834  1.00  0.00     0.055 A 
ATOM     90  C   UNL A   1      46.737  29.101  35.553  1.00  0.00     0.041 A 
ATOM     91  F   UNL A   1      45.442  30.842  34.665  1.00  0.00    -0.206 F 
ATOM     92  C   UNL A   1      46.836  27.927  36.294  1.00  0.00     0.022 A 
BRANCH  89  93
ATOM     93  S   UNL A   1      45.792  25.877  37.872  1.00  0.00     0.124 S 
ATOM     94  O   UNL A   1      46.056  24.836  36.883  1.00  0.00    -0.237 OA
ATOM     95  O   UNL A   1      46.897  26.202  38.768  1.00  0.00    -0.237 OA
ATOM     96  O   UNL A   1      44.479  25.804  38.511  1.00  0.00    -0.744 OA
ENDBRANCH  89  93
ENDBRANCH  63  86
ENDBRANCH  37  38
ENDBRANCH  30  32
ENDBRANCH  29  30
ENDBRANCH  28  29
ENDBRANCH  27  28
ENDBRANCH  26  27
ENDBRANCH   1  26
TORSDOF 23
ENDMDL
MODEL 2
REMARK VINA RESULT:      -9.8      1.338      2.857
REMARK SMILES Cc1c(CC(=O)OCCOCCOCCOC(=O)c2ccc(-c3c4nc(c(-c5cc(S(=O)(=O)[O-])ccc5F)c5ccc([nH]5)c(-c5cc(S(=O)(=O)[O-])ccc5F)c5nc(c(-c6cc(S(=O)(=O)[O-])ccc6F)c6ccc3[nH]6)C=C5)C=C4)cc2)c(O)oc2cc(=O)cc(O)c1-2
REMARK SMILES IDX 12 1 11 2 10 3 9 4 8 5 7 6 5 7 6 8 4 9 3 10 1 11 2 12 92 13
REMARK SMILES IDX 82 14 85 15 90 16 84 17 86 18 89 19 87 20 88 21 83 22 91 24
REMARK SMILES IDX 13 26 14 27 15 28 16 29 17 30 18 31 19 32 20 33 81 34 21 35
REMARK SMILES IDX 80 36 22 37 23 38 24 39 74 40 25 41 79 42 73 43 75 44 26 45
REMARK SMILES IDX 78 46 72 47 71 48 27 50 59 51 39 52 58 53 40 54 43 55 57 56
REMARK SMILES IDX 76 57 41 58 42 59 56 61 77 62 44 63 28 64 29 65 37 66 30 67
REMARK SMILES IDX 36 68 38 69 35 70 31 71 32 72 33 73 34 74 60 75 61 76 69 77
REMARK SMILES IDX 62 78 68 79 70 80 67 81 63 82 64 83 65 84 66 85 45 86 46 87
REMARK SMILES IDX 54 88 47 89 53 90 55 91 52 92 48 93 49 94 50 95 51 96
REMARK H PARENT 83 23 91 25 75 49 43 60
REMARK Flexibility Score: inf
ROOT
ATOM      1  C   UNL A   1      34.865  31.946  28.288  1.00  0.00     0.188 C 
ENDROOT
BRANCH   1   2
ATOM      2  C   UNL A   1      34.190  30.669  27.749  1.00  0.00     0.188 C 
BRANCH   2   3
ATOM      3  O   UNL A   1      33.561  30.700  26.474  1.00  0.00    -0.376 OA
BRANCH   3   4
ATOM      4  C   UNL A   1      32.164  30.462  26.404  1.00  0.00     0.202 C 
BRANCH   4   5
ATOM      5  C   UNL A   1      31.744  29.049  26.001  1.00  0.00     0.261 C 
BRANCH   5   6
ATOM      6  O   UNL A   1      31.718  28.852  24.570  1.00  0.00    -0.463 OA
BRANCH   6   7
ATOM      7  C   UNL A   1      30.505  28.979  23.979  1.00  0.00     0.310 C 
ATOM      8  O   UNL A   1      29.930  30.053  23.823  1.00  0.00    -0.252 OA
BRANCH   7   9
ATOM      9  C   UNL A   1      29.839  27.675  23.539  1.00  0.00     0.166 C 
BRANCH   9  10
ATOM     10  C   UNL A   1      30.616  26.365  23.467  1.00  0.00     0.048 A 
ATOM     11  C   UNL A   1      30.104  25.857  25.945  1.00  0.00     0.046 C 
ATOM     12  C   UNL A   1      30.606  25.401  24.598  1.00  0.00    -0.026 A 
ATOM     13  C   UNL A   1      31.108  24.143  24.430  1.00  0.00     0.063 A 
ATOM     14  C   UNL A   1      31.354  26.049  22.376  1.00  0.00     0.286 A 
ATOM     15  C   UNL A   1      31.920  23.876  23.236  1.00  0.00     0.146 A 
ATOM     16  C   UNL A   1      30.922  23.023  25.379  1.00  0.00     0.130 A 
ATOM     17  O   UNL A   1      32.027  24.849  22.259  1.00  0.00    -0.425 OA
ATOM     18  C   UNL A   1      32.634  22.750  23.116  1.00  0.00     0.100 A 
ATOM     19  C   UNL A   1      31.615  21.881  25.260  1.00  0.00     0.099 A 
ATOM     20  C   UNL A   1      32.570  21.696  24.148  1.00  0.00     0.186 A 
ATOM     21  O   UNL A   1      33.249  20.681  24.053  1.00  0.00    -0.290 OA
BRANCH  14  22
ATOM     22  O   UNL A   1      31.488  26.890  21.292  1.00  0.00    -0.480 OA
ATOM     23  H   UNL A   1      32.219  27.474  21.240  1.00  0.00     0.297 HD
ENDBRANCH  14  22
BRANCH  16  24
ATOM     24  O   UNL A   1      29.911  23.146  26.310  1.00  0.00    -0.507 OA
ATOM     25  H   UNL A   1      29.541  22.380  26.706  1.00  0.00     0.293 HD
ENDBRANCH  16  24
ENDBRANCH   9  10
ENDBRANCH   7   9
ENDBRANCH   6   7
ENDBRANCH   5   6
ENDBRANCH   4   5
ENDBRANCH   3   4
ENDBRANCH   2   3
ENDBRANCH   1   2
BRANCH   1  26
ATOM     26  O   UNL A   1      34.575  33.186  27.656  1.00  0.00    -0.376 OA
BRANCH  26  27
ATOM     27  C   UNL A   1      34.635  34.356  28.461  1.00  0.00     0.202 C 
BRANCH  27  28
ATOM     28  C   UNL A   1      33.321  34.717  29.151  1.00  0.00     0.261 C 
BRANCH  28  29
ATOM     29  O   UNL A   1      33.490  35.853  30.022  1.00  0.00    -0.460 OA
BRANCH  29  30
ATOM     30  C   UNL A   1      32.970  35.706  31.262  1.00  0.00     0.338 C 
ATOM     31  O   UNL A   1      31.843  35.988  31.635  1.00  0.00    -0.246 OA
BRANCH  30  32
ATOM     32  C   UNL A   1      33.946  35.057  32.150  1.00  0.00     0.060 A 
ATOM     33  C   UNL A   1      35.184  35.666  32.333  1.00  0.00     0.016 A 
ATOM     34  C   UNL A   1      33.733  33.759  32.604  1.00  0.00     0.016 A 
ATOM     35  C   UNL A   1      36.257  34.949  32.857  1.00  0.00     0.010 A 
ATOM     36  C   UNL A   1      34.788  33.064  33.207  1.00  0.00     0.010 A 
ATOM     37  C   UNL A   1      36.076  33.631  33.289  1.00  0.00    -0.014 A 
BRANCH  37  38
ATOM     38  C   UNL A   1      37.238  32.801  33.710  1.00  0.00     0.031 A 
ATOM     39  C   UNL A   1      37.846  33.021  35.072  1.00  0.00     0.074 A 
ATOM     40  C   UNL A   1      37.732  31.830  32.918  1.00  0.00     0.049 A 
ATOM     41  N   UNL A   1      38.989  32.607  35.550  1.00  0.00    -0.248 NA
ATOM     42  C   UNL A   1      37.056  33.825  36.017  1.00  0.00     0.031 C 
ATOM     43  C   UNL A   1      37.172  31.418  31.629  1.00  0.00     0.029 A 
ATOM     44  N   UNL A   1      38.817  31.005  33.086  1.00  0.00    -0.354 N 
ATOM     45  C   UNL A   1      39.085  33.147  36.828  1.00  0.00     0.074 A 
ATOM     46  C   UNL A   1      37.881  33.921  37.049  1.00  0.00     0.031 C 
ATOM     47  C   UNL A   1      37.899  30.402  31.140  1.00  0.00     0.029 A 
ATOM     48  C   UNL A   1      39.035  30.160  32.023  1.00  0.00     0.049 A 
ATOM     49  H   UNL A   1      39.386  31.019  33.890  1.00  0.00     0.167 HD
ATOM     50  C   UNL A   1      40.091  33.014  37.728  1.00  0.00     0.034 A 
ATOM     51  C   UNL A   1      40.063  29.329  31.757  1.00  0.00     0.034 A 
ATOM     52  C   UNL A   1      41.263  32.205  37.502  1.00  0.00     0.049 A 
ATOM     53  C   UNL A   1      41.221  29.272  32.715  1.00  0.00     0.074 A 
ATOM     54  C   UNL A   1      42.356  32.018  38.330  1.00  0.00     0.029 A 
ATOM     55  N   UNL A   1      41.488  31.435  36.369  1.00  0.00    -0.354 N 
ATOM     56  N   UNL A   1      41.376  29.900  33.857  1.00  0.00    -0.248 NA
ATOM     57  C   UNL A   1      42.358  28.424  32.332  1.00  0.00     0.031 C 
ATOM     58  C   UNL A   1      43.266  31.182  37.674  1.00  0.00     0.029 A 
ATOM     59  C   UNL A   1      42.712  30.793  36.464  1.00  0.00     0.049 A 
ATOM     60  H   UNL A   1      40.869  31.358  35.608  1.00  0.00     0.167 HD
ATOM     61  C   UNL A   1      42.627  29.519  34.334  1.00  0.00     0.074 A 
ATOM     62  C   UNL A   1      43.179  28.598  33.359  1.00  0.00     0.031 C 
ATOM     63  C   UNL A   1      43.258  29.896  35.473  1.00  0.00     0.034 A 
BRANCH  50  64
ATOM     64  C   UNL A   1      39.998  33.822  38.998  1.00  0.00     0.023 A 
ATOM     65  C   UNL A   1      39.266  33.382  40.114  1.00  0.00     0.031 A 
ATOM     66  C   UNL A   1      40.635  35.074  39.078  1.00  0.00     0.131 A 
ATOM     67  C   UNL A   1      39.139  34.215  41.238  1.00  0.00     0.055 A 
ATOM     68  C   UNL A   1      40.563  35.867  40.226  1.00  0.00     0.041 A 
ATOM     69  F   UNL A   1      41.328  35.556  38.034  1.00  0.00    -0.206 F 
ATOM     70  C   UNL A   1      39.801  35.443  41.309  1.00  0.00     0.022 A 
BRANCH  67  71
ATOM     71  S   UNL A   1      37.996  33.725  42.558  1.00  0.00     0.124 S 
ATOM     72  O   UNL A   1      38.756  34.087  43.753  1.00  0.00    -0.237 OA
ATOM     73  O   UNL A   1      36.820  34.539  42.278  1.00  0.00    -0.237 OA
ATOM     74  O   UNL A   1      37.825  32.289  42.348  1.00  0.00    -0.744 OA
ENDBRANCH  67  71
ENDBRANCH  50  64
BRANCH  51  75
ATOM     75  C   UNL A   1      40.073  28.552  30.486  1.00  0.00     0.023 A 
ATOM     76  C   UNL A   1      40.909  28.918  29.421  1.00  0.00     0.031 A 
ATOM     77  C   UNL A   1      39.264  27.411  30.333  1.00  0.00     0.131 A 
ATOM     78  C   UNL A   1      40.919  28.148  28.247  1.00  0.00     0.055 A 
ATOM     79  C   UNL A   1      39.306  26.628  29.180  1.00  0.00     0.041 A 
ATOM     80  F   UNL A   1      38.449  27.020  31.326  1.00  0.00    -0.206 F 
ATOM     81  C   UNL A   1      40.136  26.996  28.127  1.00  0.00     0.022 A 
BRANCH  78  82
ATOM     82  S   UNL A   1      41.973  28.670  26.867  1.00  0.00     0.124 S 
ATOM     83  O   UNL A   1      42.690  29.797  27.453  1.00  0.00    -0.237 OA
ATOM     84  O   UNL A   1      42.763  27.470  26.611  1.00  0.00    -0.237 OA
ATOM     85  O   UNL A   1      41.016  29.015  25.819  1.00  0.00    -0.744 OA
ENDBRANCH  78  82
ENDBRANCH  51  75
BRANCH  63  86
ATOM     86  C   UNL A   1      44.613  29.298  35.741  1.00  0.00     0.023 A 
ATOM     87  C   UNL A   1      44.755  28.082  36.429  1.00  0.00     0.031 A 
ATOM     88  C   UNL A   1      45.774  29.936  35.269  1.00  0.00     0.131 A 
ATOM     89  C   UNL A   1      46.035  27.553  36.652  1.00  0.00     0.055 A 
ATOM     90  C   UNL A   1      47.041  29.383  35.453  1.00  0.00     0.041 A 
ATOM     91  F   UNL A   1      45.690  31.100  34.605  1.00  0.00    -0.206 F 
ATOM     92  C   UNL A   1      47.177  28.187  36.153  1.00  0.00     0.022 A 
BRANCH  89  93
ATOM     93  S   UNL A   1      46.195  26.039  37.637  1.00  0.00     0.124 S 
ATOM     94  O   UNL A   1      46.179  25.005  36.608  1.00  0.00    -0.237 OA
ATOM     95  O   UNL A   1      47.468  26.240  38.321  1.00  0.00    -0.237 OA
ATOM     96  O   UNL A   1      45.017  26.069  38.503  1.00  0.00    -0.744 OA
ENDBRANCH  89  93
ENDBRANCH  63  86
ENDBRANCH  37  38
ENDBRANCH  30  32
ENDBRANCH  29  30
ENDBRANCH  28  29
ENDBRANCH  27  28
ENDBRANCH  26  27
ENDBRANCH   1  26
TORSDOF 23
ENDMDL
MODEL 3
REMARK VINA RESULT:      -9.6      7.468     13.315
REMARK SMILES Cc1c(CC(=O)OCCOCCOCCOC(=O)c2ccc(-c3c4nc(c(-c5cc(S(=O)(=O)[O-])ccc5F)c5ccc([nH]5)c(-c5cc(S(=O)(=O)[O-])ccc5F)c5nc(c(-c6cc(S(=O)(=O)[O-])ccc6F)c6ccc3[nH]6)C=C5)C=C4)cc2)c(O)oc2cc(=O)cc(O)c1-2
REMARK SMILES IDX 12 1 11 2 10 3 9 4 8 5 7 6 5 7 6 8 4 9 3 10 1 11 2 12 92 13
REMARK SMILES IDX 82 14 85 15 90 16 84 17 86 18 89 19 87 20 88 21 83 22 91 24
REMARK SMILES IDX 13 26 14 27 15 28 16 29 17 30 18 31 19 32 20 33 81 34 21 35
REMARK SMILES IDX 80 36 22 37 23 38 24 39 74 40 25 41 79 42 73 43 75 44 26 45
REMARK SMILES IDX 78 46 72 47 71 48 27 50 59 51 39 52 58 53 40 54 43 55 57 56
REMARK SMILES IDX 76 57 41 58 42 59 56 61 77 62 44 63 28 64 29 65 37 66 30 67
REMARK SMILES IDX 36 68 38 69 35 70 31 71 32 72 33 73 34 74 60 75 61 76 69 77
REMARK SMILES IDX 62 78 68 79 70 80 67 81 63 82 64 83 65 84 66 85 45 86 46 87
REMARK SMILES IDX 54 88 47 89 53 90 55 91 52 92 48 93 49 94 50 95 51 96
REMARK H PARENT 83 23 91 25 75 49 43 60
REMARK Flexibility Score: inf
ROOT
ATOM      1  C   UNL A   1      40.020  21.083  26.249  1.00  0.00     0.188 C 
ENDROOT
BRANCH   1   2
ATOM      2  C   UNL A   1      41.214  20.151  26.539  1.00  0.00     0.188 C 
BRANCH   2   3
ATOM      3  O   UNL A   1      41.962  19.620  25.452  1.00  0.00    -0.376 OA
BRANCH   3   4
ATOM      4  C   UNL A   1      42.977  18.669  25.732  1.00  0.00     0.202 C 
BRANCH   4   5
ATOM      5  C   UNL A   1      44.226  18.745  24.855  1.00  0.00     0.261 C 
BRANCH   5   6
ATOM      6  O   UNL A   1      45.400  19.181  25.576  1.00  0.00    -0.463 OA
BRANCH   6   7
ATOM      7  C   UNL A   1      45.859  20.417  25.263  1.00  0.00     0.310 C 
ATOM      8  O   UNL A   1      46.876  20.622  24.605  1.00  0.00    -0.252 OA
BRANCH   7   9
ATOM      9  C   UNL A   1      45.050  21.589  25.821  1.00  0.00     0.166 C 
BRANCH   9  10
ATOM     10  C   UNL A   1      45.530  23.029  25.681  1.00  0.00     0.048 A 
ATOM     11  C   UNL A   1      45.207  23.444  28.208  1.00  0.00     0.046 C 
ATOM     12  C   UNL A   1      45.761  23.883  26.876  1.00  0.00    -0.026 A 
ATOM     13  C   UNL A   1      46.406  25.078  26.749  1.00  0.00     0.063 A 
ATOM     14  C   UNL A   1      45.744  23.579  24.463  1.00  0.00     0.286 A 
ATOM     15  C   UNL A   1      46.582  25.630  25.399  1.00  0.00     0.146 A 
ATOM     16  C   UNL A   1      46.923  25.886  27.877  1.00  0.00     0.130 A 
ATOM     17  O   UNL A   1      46.227  24.864  24.305  1.00  0.00    -0.425 OA
ATOM     18  C   UNL A   1      46.991  26.890  25.208  1.00  0.00     0.100 A 
ATOM     19  C   UNL A   1      47.353  27.144  27.698  1.00  0.00     0.099 A 
ATOM     20  C   UNL A   1      47.355  27.752  26.351  1.00  0.00     0.186 A 
ATOM     21  O   UNL A   1      47.697  28.915  26.178  1.00  0.00    -0.290 OA
BRANCH  14  22
ATOM     22  O   UNL A   1      45.507  22.907  23.283  1.00  0.00    -0.480 OA
ATOM     23  H   UNL A   1      46.171  22.355  22.917  1.00  0.00     0.297 HD
ENDBRANCH  14  22
BRANCH  16  24
ATOM     24  O   UNL A   1      47.070  25.251  29.092  1.00  0.00    -0.507 OA
ATOM     25  H   UNL A   1      47.664  24.531  29.177  1.00  0.00     0.293 HD
ENDBRANCH  16  24
ENDBRANCH   9  10
ENDBRANCH   7   9
ENDBRANCH   6   7
ENDBRANCH   5   6
ENDBRANCH   4   5
ENDBRANCH   3   4
ENDBRANCH   2   3
ENDBRANCH   1   2
BRANCH   1  26
ATOM     26  O   UNL A   1      40.003  22.371  26.849  1.00  0.00    -0.376 OA
BRANCH  26  27
ATOM     27  C   UNL A   1      41.013  22.657  27.807  1.00  0.00     0.202 C 
BRANCH  27  28
ATOM     28  C   UNL A   1      41.220  24.144  28.085  1.00  0.00     0.261 C 
BRANCH  28  29
ATOM     29  O   UNL A   1      40.927  24.935  26.917  1.00  0.00    -0.460 OA
BRANCH  29  30
ATOM     30  C   UNL A   1      41.998  25.246  26.152  1.00  0.00     0.338 C 
ATOM     31  O   UNL A   1      42.510  24.568  25.276  1.00  0.00    -0.246 OA
BRANCH  30  32
ATOM     32  C   UNL A   1      42.463  26.608  26.456  1.00  0.00     0.060 A 
ATOM     33  C   UNL A   1      43.445  26.773  27.429  1.00  0.00     0.016 A 
ATOM     34  C   UNL A   1      41.778  27.714  25.962  1.00  0.00     0.016 A 
ATOM     35  C   UNL A   1      43.669  28.019  28.007  1.00  0.00     0.010 A 
ATOM     36  C   UNL A   1      42.061  28.982  26.484  1.00  0.00     0.010 A 
ATOM     37  C   UNL A   1      42.969  29.140  27.551  1.00  0.00    -0.014 A 
BRANCH  37  38
ATOM     38  C   UNL A   1      43.083  30.448  28.254  1.00  0.00     0.031 A 
ATOM     39  C   UNL A   1      44.199  31.390  27.882  1.00  0.00     0.074 A 
ATOM     40  C   UNL A   1      42.185  30.826  29.185  1.00  0.00     0.049 A 
ATOM     41  N   UNL A   1      44.642  32.446  28.512  1.00  0.00    -0.248 NA
ATOM     42  C   UNL A   1      44.917  31.091  26.633  1.00  0.00     0.031 C 
ATOM     43  C   UNL A   1      40.984  30.077  29.561  1.00  0.00     0.029 A 
ATOM     44  N   UNL A   1      42.142  31.943  29.983  1.00  0.00    -0.354 N 
ATOM     45  C   UNL A   1      45.725  32.904  27.770  1.00  0.00     0.074 A 
ATOM     46  C   UNL A   1      45.873  32.008  26.642  1.00  0.00     0.031 C 
ATOM     47  C   UNL A   1      40.310  30.769  30.492  1.00  0.00     0.029 A 
ATOM     48  C   UNL A   1      41.079  31.954  30.857  1.00  0.00     0.049 A 
ATOM     49  H   UNL A   1      42.809  32.666  29.935  1.00  0.00     0.167 HD
ATOM     50  C   UNL A   1      46.526  33.971  28.015  1.00  0.00     0.034 A 
ATOM     51  C   UNL A   1      40.788  32.786  31.876  1.00  0.00     0.034 A 
ATOM     52  C   UNL A   1      46.336  34.875  29.123  1.00  0.00     0.049 A 
ATOM     53  C   UNL A   1      41.743  33.902  32.202  1.00  0.00     0.074 A 
ATOM     54  C   UNL A   1      47.100  35.971  29.485  1.00  0.00     0.029 A 
ATOM     55  N   UNL A   1      45.297  34.795  30.041  1.00  0.00    -0.354 N 
ATOM     56  N   UNL A   1      42.850  34.244  31.585  1.00  0.00    -0.248 NA
ATOM     57  C   UNL A   1      41.429  34.721  33.380  1.00  0.00     0.031 C 
ATOM     58  C   UNL A   1      46.556  36.519  30.652  1.00  0.00     0.029 A 
ATOM     59  C   UNL A   1      45.414  35.805  30.982  1.00  0.00     0.049 A 
ATOM     60  H   UNL A   1      44.582  34.119  30.026  1.00  0.00     0.167 HD
ATOM     61  C   UNL A   1      43.363  35.323  32.298  1.00  0.00     0.074 A 
ATOM     62  C   UNL A   1      42.438  35.581  33.385  1.00  0.00     0.031 C 
ATOM     63  C   UNL A   1      44.496  36.034  32.073  1.00  0.00     0.034 A 
BRANCH  50  64
ATOM     64  C   UNL A   1      47.720  34.164  27.115  1.00  0.00     0.023 A 
ATOM     65  C   UNL A   1      48.982  33.624  27.417  1.00  0.00     0.031 A 
ATOM     66  C   UNL A   1      47.594  34.932  25.942  1.00  0.00     0.131 A 
ATOM     67  C   UNL A   1      50.080  33.910  26.590  1.00  0.00     0.055 A 
ATOM     68  C   UNL A   1      48.675  35.154  25.086  1.00  0.00     0.041 A 
ATOM     69  F   UNL A   1      46.419  35.492  25.616  1.00  0.00    -0.206 F 
ATOM     70  C   UNL A   1      49.929  34.652  25.415  1.00  0.00     0.022 A 
BRANCH  67  71
ATOM     71  S   UNL A   1      51.734  33.401  27.133  1.00  0.00     0.124 S 
ATOM     72  O   UNL A   1      52.585  34.315  26.374  1.00  0.00    -0.237 OA
ATOM     73  O   UNL A   1      51.678  33.627  28.572  1.00  0.00    -0.237 OA
ATOM     74  O   UNL A   1      51.813  32.001  26.723  1.00  0.00    -0.744 OA
ENDBRANCH  67  71
ENDBRANCH  50  64
BRANCH  51  75
ATOM     75  C   UNL A   1      39.579  32.535  32.711  1.00  0.00     0.023 A 
ATOM     76  C   UNL A   1      38.375  33.208  32.461  1.00  0.00     0.031 A 
ATOM     77  C   UNL A   1      39.609  31.590  33.753  1.00  0.00     0.131 A 
ATOM     78  C   UNL A   1      37.245  32.927  33.246  1.00  0.00     0.055 A 
ATOM     79  C   UNL A   1      38.474  31.287  34.505  1.00  0.00     0.041 A 
ATOM     80  F   UNL A   1      40.739  30.918  34.028  1.00  0.00    -0.206 F 
ATOM     81  C   UNL A   1      37.282  31.959  34.253  1.00  0.00     0.022 A 
BRANCH  78  82
ATOM     82  S   UNL A   1      35.713  33.846  32.934  1.00  0.00     0.124 S 
ATOM     83  O   UNL A   1      35.518  33.619  31.507  1.00  0.00    -0.237 OA
ATOM     84  O   UNL A   1      34.768  33.183  33.826  1.00  0.00    -0.237 OA
ATOM     85  O   UNL A   1      36.057  35.217  33.308  1.00  0.00    -0.744 OA
ENDBRANCH  78  82
ENDBRANCH  51  75
BRANCH  63  86
ATOM     86  C   UNL A   1      44.791  37.176  33.008  1.00  0.00     0.023 A 
ATOM     87  C   UNL A   1      44.176  38.429  32.853  1.00  0.00     0.031 A 
ATOM     88  C   UNL A   1      45.672  36.995  34.089  1.00  0.00     0.131 A 
ATOM     89  C   UNL A   1      44.471  39.465  33.751  1.00  0.00     0.055 A 
ATOM     90  C   UNL A   1      45.926  38.015  35.006  1.00  0.00     0.041 A 
ATOM     91  F   UNL A   1      46.283  35.815  34.280  1.00  0.00    -0.206 F 
ATOM     92  C   UNL A   1      45.329  39.261  34.836  1.00  0.00     0.022 A 
BRANCH  89  93
ATOM     93  S   UNL A   1      43.747  41.103  33.463  1.00  0.00     0.124 S 
ATOM     94  O   UNL A   1      42.441  40.762  32.907  1.00  0.00    -0.237 OA
ATOM     95  O   UNL A   1      43.739  41.686  34.801  1.00  0.00    -0.237 OA
ATOM     96  O   UNL A   1      44.676  41.727  32.522  1.00  0.00    -0.744 OA
ENDBRANCH  89  93
ENDBRANCH  63  86
ENDBRANCH  37  38
ENDBRANCH  30  32
ENDBRANCH  29  30
ENDBRANCH  28  29
ENDBRANCH  27  28
ENDBRANCH  26  27
ENDBRANCH   1  26
TORSDOF 23
ENDMDL
