MODEL 1
REMARK VINA RESULT:      -9.9      0.000      0.000
REMARK SMILES CC[NH2+][C@@]1(C(=O)OCCOCCOCCOC(=O)c2ccc(-c3c4nc(c(-c5cc(S(=O)(=O)[O-])ccc5F)c5ccc([nH]5)c(-c5cc(S(=O)(=O)[O-])ccc5F)c5nc(c(-c6cc(S(=O)(=O)[O-])ccc6F)c6ccc3[nH]6)C=C5)C=C4)cc2)CC[C@H]([NH+]2CCC(C[NH+](C)C)CC2)C1
REMARK SMILES IDX 11 1 10 2 9 3 8 4 7 5 5 6 6 7 4 8 82 9 95 10 83 11 84 12
REMARK SMILES IDX 3 13 2 16 1 17 85 18 86 19 94 20 87 22 93 23 88 24 89 25
REMARK SMILES IDX 90 26 91 27 92 28 12 30 13 31 14 32 15 33 16 34 17 35 18 36
REMARK SMILES IDX 19 37 20 38 81 39 21 40 80 41 22 42 23 43 24 44 74 45 25 46
REMARK SMILES IDX 79 47 73 48 75 49 26 50 78 51 72 52 71 53 27 55 59 56 39 57
REMARK SMILES IDX 58 58 40 59 43 60 57 61 76 62 41 63 42 64 56 66 77 67 44 68
REMARK SMILES IDX 28 69 29 70 37 71 30 72 36 73 38 74 35 75 31 76 32 77 33 78
REMARK SMILES IDX 34 79 60 80 61 81 69 82 62 83 68 84 70 85 67 86 63 87 64 88
REMARK SMILES IDX 65 89 66 90 45 91 46 92 54 93 47 94 53 95 55 96 52 97 48 98
REMARK SMILES IDX 49 99 50 100 51 101
REMARK H PARENT 3 14 3 15 85 21 90 29 75 54 43 65
REMARK Flexibility Score: inf
ROOT
ATOM      1  C   UNL A   1      40.112  21.568  26.386  1.00  0.00     0.188 C 
ENDROOT
BRANCH   1   2
ATOM      2  O   UNL A   1      39.119  21.574  25.368  1.00  0.00    -0.376 OA
BRANCH   2   3
ATOM      3  C   UNL A   1      37.783  21.824  25.810  1.00  0.00     0.202 C 
BRANCH   3   4
ATOM      4  C   UNL A   1      36.718  20.913  25.190  1.00  0.00     0.261 C 
BRANCH   4   5
ATOM      5  O   UNL A   1      35.765  21.650  24.395  1.00  0.00    -0.459 OA
BRANCH   5   6
ATOM      6  C   UNL A   1      34.555  21.843  24.997  1.00  0.00     0.368 C 
ATOM      7  O   UNL A   1      34.375  21.671  26.200  1.00  0.00    -0.245 OA
BRANCH   6   8
ATOM      8  C   UNL A   1      33.443  22.353  24.007  1.00  0.00     0.200 C 
ATOM      9  C   UNL A   1      34.134  23.289  22.997  1.00  0.00     0.087 C 
ATOM     10  C   UNL A   1      32.402  23.290  24.657  1.00  0.00     0.146 C 
ATOM     11  C   UNL A   1      34.298  24.585  23.785  1.00  0.00     0.072 C 
ATOM     12  C   UNL A   1      33.001  24.719  24.602  1.00  0.00     0.191 C 
BRANCH   8  13
ATOM     13  N   UNL A   1      32.808  21.138  23.445  1.00  0.00    -0.332 N 
ATOM     14  H   UNL A   1      31.926  21.419  23.017  1.00  0.00     0.347 HD
ATOM     15  H   UNL A   1      33.491  20.753  22.793  1.00  0.00     0.347 HD
BRANCH  13  16
ATOM     16  C   UNL A   1      32.521  20.059  24.385  1.00  0.00     0.257 C 
ATOM     17  C   UNL A   1      32.494  18.722  23.655  1.00  0.00     0.071 C 
ENDBRANCH  13  16
ENDBRANCH   8  13
BRANCH  12  18
ATOM     18  N   UNL A   1      32.994  25.485  25.855  1.00  0.00    -0.332 N 
ATOM     19  C   UNL A   1      31.688  25.669  26.481  1.00  0.00     0.262 C 
ATOM     20  C   UNL A   1      33.742  26.734  25.930  1.00  0.00     0.262 C 
ATOM     21  H   UNL A   1      33.541  24.816  26.398  1.00  0.00     0.348 HD
ATOM     22  C   UNL A   1      30.840  26.791  25.877  1.00  0.00     0.071 C 
ATOM     23  C   UNL A   1      33.071  27.881  25.200  1.00  0.00     0.071 C 
ATOM     24  C   UNL A   1      31.583  28.101  25.545  1.00  0.00     0.055 C 
BRANCH  24  25
ATOM     25  C   UNL A   1      30.969  28.868  24.336  1.00  0.00     0.265 C 
BRANCH  25  26
ATOM     26  N   UNL A   1      30.110  28.164  23.367  1.00  0.00    -0.340 N 
ATOM     27  C   UNL A   1      29.242  29.165  22.721  1.00  0.00     0.332 C 
ATOM     28  C   UNL A   1      30.857  27.461  22.327  1.00  0.00     0.332 C 
ATOM     29  H   UNL A   1      29.582  27.458  23.880  1.00  0.00     0.347 HD
ENDBRANCH  25  26
ENDBRANCH  24  25
ENDBRANCH  12  18
ENDBRANCH   6   8
ENDBRANCH   5   6
ENDBRANCH   4   5
ENDBRANCH   3   4
ENDBRANCH   2   3
ENDBRANCH   1   2
BRANCH   1  30
ATOM     30  C   UNL A   1      41.444  22.217  26.007  1.00  0.00     0.188 C 
BRANCH  30  31
ATOM     31  O   UNL A   1      42.462  21.359  25.504  1.00  0.00    -0.376 OA
BRANCH  31  32
ATOM     32  C   UNL A   1      43.777  21.927  25.482  1.00  0.00     0.202 C 
BRANCH  32  33
ATOM     33  C   UNL A   1      44.070  22.893  24.316  1.00  0.00     0.261 C 
BRANCH  33  34
ATOM     34  O   UNL A   1      43.908  24.292  24.619  1.00  0.00    -0.460 OA
BRANCH  34  35
ATOM     35  C   UNL A   1      44.978  24.965  25.109  1.00  0.00     0.338 C 
ATOM     36  O   UNL A   1      46.076  25.050  24.585  1.00  0.00    -0.246 OA
BRANCH  35  37
ATOM     37  C   UNL A   1      44.492  25.835  26.218  1.00  0.00     0.060 A 
ATOM     38  C   UNL A   1      43.811  25.237  27.292  1.00  0.00     0.016 A 
ATOM     39  C   UNL A   1      44.829  27.192  26.282  1.00  0.00     0.016 A 
ATOM     40  C   UNL A   1      43.445  25.996  28.411  1.00  0.00     0.010 A 
ATOM     41  C   UNL A   1      44.454  27.952  27.391  1.00  0.00     0.010 A 
ATOM     42  C   UNL A   1      43.732  27.366  28.447  1.00  0.00    -0.014 A 
BRANCH  42  43
ATOM     43  C   UNL A   1      43.037  28.273  29.397  1.00  0.00     0.031 A 
ATOM     44  C   UNL A   1      43.703  28.486  30.729  1.00  0.00     0.074 A 
ATOM     45  C   UNL A   1      41.842  28.834  29.137  1.00  0.00     0.049 A 
ATOM     46  N   UNL A   1      43.235  29.026  31.823  1.00  0.00    -0.248 NA
ATOM     47  C   UNL A   1      45.088  27.999  30.840  1.00  0.00     0.031 C 
ATOM     48  C   UNL A   1      41.126  28.767  27.867  1.00  0.00     0.029 A 
ATOM     49  N   UNL A   1      41.007  29.558  29.955  1.00  0.00    -0.354 N 
ATOM     50  C   UNL A   1      44.261  28.927  32.755  1.00  0.00     0.074 A 
ATOM     51  C   UNL A   1      45.363  28.252  32.107  1.00  0.00     0.031 C 
ATOM     52  C   UNL A   1      39.947  29.404  27.997  1.00  0.00     0.029 A 
ATOM     53  C   UNL A   1      39.798  29.874  29.375  1.00  0.00     0.049 A 
ATOM     54  H   UNL A   1      41.250  29.826  30.871  1.00  0.00     0.167 HD
ATOM     55  C   UNL A   1      44.283  29.356  34.040  1.00  0.00     0.034 A 
ATOM     56  C   UNL A   1      38.691  30.432  29.912  1.00  0.00     0.034 A 
ATOM     57  C   UNL A   1      43.167  29.995  34.684  1.00  0.00     0.049 A 
ATOM     58  C   UNL A   1      38.691  30.796  31.385  1.00  0.00     0.074 A 
ATOM     59  C   UNL A   1      43.063  30.439  35.990  1.00  0.00     0.029 A 
ATOM     60  N   UNL A   1      41.954  30.270  34.069  1.00  0.00    -0.354 N 
ATOM     61  N   UNL A   1      39.652  30.666  32.272  1.00  0.00    -0.248 NA
ATOM     62  C   UNL A   1      37.453  31.374  31.932  1.00  0.00     0.031 C 
ATOM     63  C   UNL A   1      41.766  30.925  36.182  1.00  0.00     0.029 A 
ATOM     64  C   UNL A   1      41.089  30.860  34.974  1.00  0.00     0.049 A 
ATOM     65  H   UNL A   1      41.740  30.076  33.128  1.00  0.00     0.167 HD
ATOM     66  C   UNL A   1      39.150  31.192  33.462  1.00  0.00     0.074 A 
ATOM     67  C   UNL A   1      37.800  31.633  33.185  1.00  0.00     0.031 C 
ATOM     68  C   UNL A   1      39.753  31.314  34.671  1.00  0.00     0.034 A 
BRANCH  55  69
ATOM     69  C   UNL A   1      45.535  29.075  34.831  1.00  0.00     0.023 A 
ATOM     70  C   UNL A   1      45.667  27.910  35.609  1.00  0.00     0.031 A 
ATOM     71  C   UNL A   1      46.582  30.012  34.861  1.00  0.00     0.131 A 
ATOM     72  C   UNL A   1      46.781  27.753  36.445  1.00  0.00     0.055 A 
ATOM     73  C   UNL A   1      47.729  29.807  35.629  1.00  0.00     0.041 A 
ATOM     74  F   UNL A   1      46.496  31.155  34.163  1.00  0.00    -0.206 F 
ATOM     75  C   UNL A   1      47.826  28.680  36.439  1.00  0.00     0.022 A 
BRANCH  72  76
ATOM     76  S   UNL A   1      46.769  26.402  37.653  1.00  0.00     0.124 S 
ATOM     77  O   UNL A   1      46.955  25.236  36.793  1.00  0.00    -0.237 OA
ATOM     78  O   UNL A   1      47.891  26.741  38.520  1.00  0.00    -0.237 OA
ATOM     79  O   UNL A   1      45.448  26.506  38.272  1.00  0.00    -0.744 OA
ENDBRANCH  72  76
ENDBRANCH  55  69
BRANCH  56  80
ATOM     80  C   UNL A   1      37.456  30.634  29.096  1.00  0.00     0.023 A 
ATOM     81  C   UNL A   1      36.871  31.905  28.966  1.00  0.00     0.031 A 
ATOM     82  C   UNL A   1      36.790  29.544  28.506  1.00  0.00     0.131 A 
ATOM     83  C   UNL A   1      35.635  32.046  28.315  1.00  0.00     0.055 A 
ATOM     84  C   UNL A   1      35.591  29.699  27.806  1.00  0.00     0.041 A 
ATOM     85  F   UNL A   1      37.294  28.303  28.606  1.00  0.00    -0.206 F 
ATOM     86  C   UNL A   1      34.998  30.955  27.722  1.00  0.00     0.022 A 
BRANCH  83  87
ATOM     87  S   UNL A   1      34.814  33.666  28.348  1.00  0.00     0.124 S 
ATOM     88  O   UNL A   1      33.408  33.283  28.360  1.00  0.00    -0.237 OA
ATOM     89  O   UNL A   1      35.334  34.243  29.583  1.00  0.00    -0.237 OA
ATOM     90  O   UNL A   1      35.277  34.307  27.119  1.00  0.00    -0.744 OA
ENDBRANCH  83  87
ENDBRANCH  56  80
BRANCH  68  91
ATOM     91  C   UNL A   1      39.003  32.036  35.764  1.00  0.00     0.023 A 
ATOM     92  C   UNL A   1      38.365  31.355  36.814  1.00  0.00     0.031 A 
ATOM     93  C   UNL A   1      38.982  33.443  35.773  1.00  0.00     0.131 A 
ATOM     94  C   UNL A   1      37.709  32.086  37.817  1.00  0.00     0.055 A 
ATOM     95  C   UNL A   1      38.370  34.163  36.798  1.00  0.00     0.041 A 
ATOM     96  F   UNL A   1      39.580  34.141  34.794  1.00  0.00    -0.206 F 
ATOM     97  C   UNL A   1      37.723  33.484  37.826  1.00  0.00     0.022 A 
BRANCH  94  98
ATOM     98  S   UNL A   1      36.796  31.187  39.103  1.00  0.00     0.124 S 
ATOM     99  O   UNL A   1      36.713  29.845  38.535  1.00  0.00    -0.237 OA
ATOM    100  O   UNL A   1      37.665  31.334  40.266  1.00  0.00    -0.237 OA
ATOM    101  O   UNL A   1      35.525  31.904  39.188  1.00  0.00    -0.744 OA
ENDBRANCH  94  98
ENDBRANCH  68  91
ENDBRANCH  42  43
ENDBRANCH  35  37
ENDBRANCH  34  35
ENDBRANCH  33  34
ENDBRANCH  32  33
ENDBRANCH  31  32
ENDBRANCH  30  31
ENDBRANCH   1  30
TORSDOF 25
ENDMDL
MODEL 2
REMARK VINA RESULT:      -9.5      2.465      8.748
REMARK SMILES CC[NH2+][C@@]1(C(=O)OCCOCCOCCOC(=O)c2ccc(-c3c4nc(c(-c5cc(S(=O)(=O)[O-])ccc5F)c5ccc([nH]5)c(-c5cc(S(=O)(=O)[O-])ccc5F)c5nc(c(-c6cc(S(=O)(=O)[O-])ccc6F)c6ccc3[nH]6)C=C5)C=C4)cc2)CC[C@H]([NH+]2CCC(C[NH+](C)C)CC2)C1
REMARK SMILES IDX 11 1 10 2 9 3 8 4 7 5 5 6 6 7 4 8 82 9 95 10 83 11 84 12
REMARK SMILES IDX 3 13 2 16 1 17 85 18 86 19 94 20 87 22 93 23 88 24 89 25
REMARK SMILES IDX 90 26 91 27 92 28 12 30 13 31 14 32 15 33 16 34 17 35 18 36
REMARK SMILES IDX 19 37 20 38 81 39 21 40 80 41 22 42 23 43 24 44 74 45 25 46
REMARK SMILES IDX 79 47 73 48 75 49 26 50 78 51 72 52 71 53 27 55 59 56 39 57
REMARK SMILES IDX 58 58 40 59 43 60 57 61 76 62 41 63 42 64 56 66 77 67 44 68
REMARK SMILES IDX 28 69 29 70 37 71 30 72 36 73 38 74 35 75 31 76 32 77 33 78
REMARK SMILES IDX 34 79 60 80 61 81 69 82 62 83 68 84 70 85 67 86 63 87 64 88
REMARK SMILES IDX 65 89 66 90 45 91 46 92 54 93 47 94 53 95 55 96 52 97 48 98
REMARK SMILES IDX 49 99 50 100 51 101
REMARK H PARENT 3 14 3 15 85 21 90 29 75 54 43 65
REMARK Flexibility Score: inf
ROOT
ATOM      1  C   UNL A   1      34.044  25.781  24.725  1.00  0.00     0.188 C 
ENDROOT
BRANCH   1   2
ATOM      2  O   UNL A   1      33.593  25.316  23.460  1.00  0.00    -0.376 OA
BRANCH   2   3
ATOM      3  C   UNL A   1      33.995  23.990  23.110  1.00  0.00     0.202 C 
BRANCH   3   4
ATOM      4  C   UNL A   1      32.867  22.953  23.114  1.00  0.00     0.261 C 
BRANCH   4   5
ATOM      5  O   UNL A   1      33.213  21.775  23.874  1.00  0.00    -0.459 OA
BRANCH   5   6
ATOM      6  C   UNL A   1      32.603  21.688  25.092  1.00  0.00     0.368 C 
ATOM      7  O   UNL A   1      31.478  22.133  25.307  1.00  0.00    -0.245 OA
BRANCH   6   8
ATOM      8  C   UNL A   1      33.463  20.920  26.164  1.00  0.00     0.200 C 
ATOM      9  C   UNL A   1      33.501  21.801  27.426  1.00  0.00     0.087 C 
ATOM     10  C   UNL A   1      34.960  20.805  25.805  1.00  0.00     0.146 C 
ATOM     11  C   UNL A   1      34.538  22.864  27.075  1.00  0.00     0.072 C 
ATOM     12  C   UNL A   1      35.636  22.107  26.306  1.00  0.00     0.191 C 
BRANCH   8  13
ATOM     13  N   UNL A   1      32.833  19.588  26.314  1.00  0.00    -0.332 N 
ATOM     14  H   UNL A   1      33.314  19.101  27.070  1.00  0.00     0.347 HD
ATOM     15  H   UNL A   1      31.846  19.774  26.490  1.00  0.00     0.347 HD
BRANCH  13  16
ATOM     16  C   UNL A   1      32.858  18.719  25.141  1.00  0.00     0.257 C 
ATOM     17  C   UNL A   1      32.739  17.261  25.566  1.00  0.00     0.071 C 
ENDBRANCH  13  16
ENDBRANCH   8  13
BRANCH  12  18
ATOM     18  N   UNL A   1      36.489  22.819  25.345  1.00  0.00    -0.332 N 
ATOM     19  C   UNL A   1      37.410  21.989  24.576  1.00  0.00     0.262 C 
ATOM     20  C   UNL A   1      37.174  24.034  25.768  1.00  0.00     0.262 C 
ATOM     21  H   UNL A   1      35.733  23.139  24.740  1.00  0.00     0.348 HD
ATOM     22  C   UNL A   1      38.693  21.601  25.316  1.00  0.00     0.071 C 
ATOM     23  C   UNL A   1      38.368  23.770  26.664  1.00  0.00     0.071 C 
ATOM     24  C   UNL A   1      39.368  22.719  26.138  1.00  0.00     0.055 C 
BRANCH  24  25
ATOM     25  C   UNL A   1      40.134  22.189  27.387  1.00  0.00     0.265 C 
BRANCH  25  26
ATOM     26  N   UNL A   1      41.607  22.113  27.379  1.00  0.00    -0.340 N 
ATOM     27  C   UNL A   1      41.986  20.696  27.524  1.00  0.00     0.332 C 
ATOM     28  C   UNL A   1      42.211  22.631  26.154  1.00  0.00     0.332 C 
ATOM     29  H   UNL A   1      41.949  22.693  28.145  1.00  0.00     0.347 HD
ENDBRANCH  25  26
ENDBRANCH  24  25
ENDBRANCH  12  18
ENDBRANCH   6   8
ENDBRANCH   5   6
ENDBRANCH   4   5
ENDBRANCH   3   4
ENDBRANCH   2   3
ENDBRANCH   1   2
BRANCH   1  30
ATOM     30  C   UNL A   1      33.030  26.607  25.520  1.00  0.00     0.188 C 
BRANCH  30  31
ATOM     31  O   UNL A   1      32.603  27.836  24.942  1.00  0.00    -0.376 OA
BRANCH  31  32
ATOM     32  C   UNL A   1      32.235  28.852  25.884  1.00  0.00     0.202 C 
BRANCH  32  33
ATOM     33  C   UNL A   1      33.309  29.922  26.169  1.00  0.00     0.261 C 
BRANCH  33  34
ATOM     34  O   UNL A   1      33.420  30.331  27.545  1.00  0.00    -0.460 OA
BRANCH  34  35
ATOM     35  C   UNL A   1      34.077  31.486  27.815  1.00  0.00     0.338 C 
ATOM     36  O   UNL A   1      33.583  32.599  27.871  1.00  0.00    -0.246 OA
BRANCH  35  37
ATOM     37  C   UNL A   1      35.425  31.124  28.341  1.00  0.00     0.060 A 
ATOM     38  C   UNL A   1      35.683  29.779  28.659  1.00  0.00     0.016 A 
ATOM     39  C   UNL A   1      36.467  32.057  28.379  1.00  0.00     0.016 A 
ATOM     40  C   UNL A   1      36.969  29.375  29.039  1.00  0.00     0.010 A 
ATOM     41  C   UNL A   1      37.747  31.656  28.770  1.00  0.00     0.010 A 
ATOM     42  C   UNL A   1      37.997  30.321  29.133  1.00  0.00    -0.014 A 
BRANCH  42  43
ATOM     43  C   UNL A   1      39.242  30.032  29.892  1.00  0.00     0.031 A 
ATOM     44  C   UNL A   1      39.349  30.647  31.262  1.00  0.00     0.074 A 
ATOM     45  C   UNL A   1      40.264  29.319  29.385  1.00  0.00     0.049 A 
ATOM     46  N   UNL A   1      40.385  30.761  32.049  1.00  0.00    -0.248 NA
ATOM     47  C   UNL A   1      38.111  31.232  31.801  1.00  0.00     0.031 C 
ATOM     48  C   UNL A   1      40.260  28.613  28.107  1.00  0.00     0.029 A 
ATOM     49  N   UNL A   1      41.524  29.097  29.888  1.00  0.00    -0.354 N 
ATOM     50  C   UNL A   1      39.927  31.446  33.169  1.00  0.00     0.074 A 
ATOM     51  C   UNL A   1      38.530  31.744  32.945  1.00  0.00     0.031 C 
ATOM     52  C   UNL A   1      41.471  28.055  27.915  1.00  0.00     0.029 A 
ATOM     53  C   UNL A   1      42.352  28.411  29.028  1.00  0.00     0.049 A 
ATOM     54  H   UNL A   1      41.808  29.400  30.781  1.00  0.00     0.167 HD
ATOM     55  C   UNL A   1      40.610  31.799  34.284  1.00  0.00     0.034 A 
ATOM     56  C   UNL A   1      43.675  28.148  29.113  1.00  0.00     0.034 A 
ATOM     57  C   UNL A   1      42.009  31.527  34.479  1.00  0.00     0.049 A 
ATOM     58  C   UNL A   1      44.451  28.657  30.313  1.00  0.00     0.074 A 
ATOM     59  C   UNL A   1      42.813  31.870  35.552  1.00  0.00     0.029 A 
ATOM     60  N   UNL A   1      42.815  30.855  33.572  1.00  0.00    -0.354 N 
ATOM     61  N   UNL A   1      44.020  29.337  31.352  1.00  0.00    -0.248 NA
ATOM     62  C   UNL A   1      45.894  28.371  30.348  1.00  0.00     0.031 C 
ATOM     63  C   UNL A   1      44.118  31.459  35.265  1.00  0.00     0.029 A 
ATOM     64  C   UNL A   1      44.111  30.789  34.051  1.00  0.00     0.049 A 
ATOM     65  H   UNL A   1      42.510  30.479  32.715  1.00  0.00     0.167 HD
ATOM     66  C   UNL A   1      45.127  29.512  32.182  1.00  0.00     0.074 A 
ATOM     67  C   UNL A   1      46.247  28.877  31.521  1.00  0.00     0.031 C 
ATOM     68  C   UNL A   1      45.210  30.130  33.387  1.00  0.00     0.034 A 
BRANCH  55  69
ATOM     69  C   UNL A   1      39.852  32.577  35.330  1.00  0.00     0.023 A 
ATOM     70  C   UNL A   1      39.237  31.936  36.420  1.00  0.00     0.031 A 
ATOM     71  C   UNL A   1      39.687  33.966  35.200  1.00  0.00     0.131 A 
ATOM     72  C   UNL A   1      38.421  32.671  37.291  1.00  0.00     0.055 A 
ATOM     73  C   UNL A   1      38.944  34.706  36.120  1.00  0.00     0.041 A 
ATOM     74  F   UNL A   1      40.225  34.625  34.161  1.00  0.00    -0.206 F 
ATOM     75  C   UNL A   1      38.292  34.057  37.164  1.00  0.00     0.022 A 
BRANCH  72  76
ATOM     76  S   UNL A   1      37.405  31.768  38.490  1.00  0.00     0.124 S 
ATOM     77  O   UNL A   1      38.230  31.848  39.693  1.00  0.00    -0.237 OA
ATOM     78  O   UNL A   1      36.171  32.545  38.510  1.00  0.00    -0.237 OA
ATOM     79  O   UNL A   1      37.294  30.432  37.908  1.00  0.00    -0.744 OA
ENDBRANCH  72  76
ENDBRANCH  55  69
BRANCH  56  80
ATOM     80  C   UNL A   1      44.389  27.424  28.018  1.00  0.00     0.023 A 
ATOM     81  C   UNL A   1      45.332  28.080  27.209  1.00  0.00     0.031 A 
ATOM     82  C   UNL A   1      44.075  26.088  27.707  1.00  0.00     0.131 A 
ATOM     83  C   UNL A   1      45.884  27.420  26.097  1.00  0.00     0.055 A 
ATOM     84  C   UNL A   1      44.672  25.417  26.637  1.00  0.00     0.041 A 
ATOM     85  F   UNL A   1      43.173  25.414  28.437  1.00  0.00    -0.206 F 
ATOM     86  C   UNL A   1      45.571  26.089  25.815  1.00  0.00     0.022 A 
BRANCH  83  87
ATOM     87  S   UNL A   1      46.937  28.365  24.960  1.00  0.00     0.124 S 
ATOM     88  O   UNL A   1      46.285  29.669  24.969  1.00  0.00    -0.237 OA
ATOM     89  O   UNL A   1      48.237  28.292  25.619  1.00  0.00    -0.237 OA
ATOM     90  O   UNL A   1      46.833  27.624  23.705  1.00  0.00    -0.744 OA
ENDBRANCH  83  87
ENDBRANCH  56  80
BRANCH  68  91
ATOM     91  C   UNL A   1      46.527  30.069  34.122  1.00  0.00     0.023 A 
ATOM     92  C   UNL A   1      46.828  29.051  35.043  1.00  0.00     0.031 A 
ATOM     93  C   UNL A   1      47.517  31.029  33.844  1.00  0.00     0.131 A 
ATOM     94  C   UNL A   1      48.083  29.034  35.672  1.00  0.00     0.055 A 
ATOM     95  C   UNL A   1      48.778  30.979  34.437  1.00  0.00     0.041 A 
ATOM     96  F   UNL A   1      47.280  32.020  32.970  1.00  0.00    -0.206 F 
ATOM     97  C   UNL A   1      49.065  29.980  35.362  1.00  0.00     0.022 A 
BRANCH  94  98
ATOM     98  S   UNL A   1      48.411  27.777  36.940  1.00  0.00     0.124 S 
ATOM     99  O   UNL A   1      47.067  27.470  37.419  1.00  0.00    -0.237 OA
ATOM    100  O   UNL A   1      49.071  26.724  36.175  1.00  0.00    -0.237 OA
ATOM    101  O   UNL A   1      49.268  28.472  37.899  1.00  0.00    -0.744 OA
ENDBRANCH  94  98
ENDBRANCH  68  91
ENDBRANCH  42  43
ENDBRANCH  35  37
ENDBRANCH  34  35
ENDBRANCH  33  34
ENDBRANCH  32  33
ENDBRANCH  31  32
ENDBRANCH  30  31
ENDBRANCH   1  30
TORSDOF 25
ENDMDL
MODEL 3
REMARK VINA RESULT:      -9.5      2.855      9.006
REMARK SMILES CC[NH2+][C@@]1(C(=O)OCCOCCOCCOC(=O)c2ccc(-c3c4nc(c(-c5cc(S(=O)(=O)[O-])ccc5F)c5ccc([nH]5)c(-c5cc(S(=O)(=O)[O-])ccc5F)c5nc(c(-c6cc(S(=O)(=O)[O-])ccc6F)c6ccc3[nH]6)C=C5)C=C4)cc2)CC[C@H]([NH+]2CCC(C[NH+](C)C)CC2)C1
REMARK SMILES IDX 11 1 10 2 9 3 8 4 7 5 5 6 6 7 4 8 82 9 95 10 83 11 84 12
REMARK SMILES IDX 3 13 2 16 1 17 85 18 86 19 94 20 87 22 93 23 88 24 89 25
REMARK SMILES IDX 90 26 91 27 92 28 12 30 13 31 14 32 15 33 16 34 17 35 18 36
REMARK SMILES IDX 19 37 20 38 81 39 21 40 80 41 22 42 23 43 24 44 74 45 25 46
REMARK SMILES IDX 79 47 73 48 75 49 26 50 78 51 72 52 71 53 27 55 59 56 39 57
REMARK SMILES IDX 58 58 40 59 43 60 57 61 76 62 41 63 42 64 56 66 77 67 44 68
REMARK SMILES IDX 28 69 29 70 37 71 30 72 36 73 38 74 35 75 31 76 32 77 33 78
REMARK SMILES IDX 34 79 60 80 61 81 69 82 62 83 68 84 70 85 67 86 63 87 64 88
REMARK SMILES IDX 65 89 66 90 45 91 46 92 54 93 47 94 53 95 55 96 52 97 48 98
REMARK SMILES IDX 49 99 50 100 51 101
REMARK H PARENT 3 14 3 15 85 21 90 29 75 54 43 65
REMARK Flexibility Score: inf
ROOT
ATOM      1  C   UNL A   1      33.608  26.137  24.394  1.00  0.00     0.188 C 
ENDROOT
BRANCH   1   2
ATOM      2  O   UNL A   1      32.954  25.565  23.269  1.00  0.00    -0.376 OA
BRANCH   2   3
ATOM      3  C   UNL A   1      33.271  24.197  23.000  1.00  0.00     0.202 C 
BRANCH   3   4
ATOM      4  C   UNL A   1      32.125  23.210  23.242  1.00  0.00     0.261 C 
BRANCH   4   5
ATOM      5  O   UNL A   1      32.583  21.977  23.837  1.00  0.00    -0.459 OA
BRANCH   5   6
ATOM      6  C   UNL A   1      32.170  21.781  25.123  1.00  0.00     0.368 C 
ATOM      7  O   UNL A   1      31.144  22.282  25.576  1.00  0.00    -0.245 OA
BRANCH   6   8
ATOM      8  C   UNL A   1      33.108  20.814  25.936  1.00  0.00     0.200 C 
ATOM      9  C   UNL A   1      33.343  21.466  27.312  1.00  0.00     0.087 C 
ATOM     10  C   UNL A   1      34.544  20.711  25.377  1.00  0.00     0.146 C 
ATOM     11  C   UNL A   1      34.387  22.538  27.012  1.00  0.00     0.072 C 
ATOM     12  C   UNL A   1      35.343  21.887  25.997  1.00  0.00     0.191 C 
BRANCH   8  13
ATOM     13  N   UNL A   1      32.429  19.497  25.943  1.00  0.00    -0.332 N 
ATOM     14  H   UNL A   1      32.243  19.250  26.915  1.00  0.00     0.347 HD
ATOM     15  H   UNL A   1      31.596  19.620  25.370  1.00  0.00     0.347 HD
BRANCH  13  16
ATOM     16  C   UNL A   1      33.156  18.386  25.335  1.00  0.00     0.257 C 
ATOM     17  C   UNL A   1      32.419  17.893  24.097  1.00  0.00     0.071 C 
ENDBRANCH  13  16
ENDBRANCH   8  13
BRANCH  12  18
ATOM     18  N   UNL A   1      36.113  22.723  25.067  1.00  0.00    -0.332 N 
ATOM     19  C   UNL A   1      37.192  22.049  24.351  1.00  0.00     0.262 C 
ATOM     20  C   UNL A   1      36.572  24.035  25.504  1.00  0.00     0.262 C 
ATOM     21  H   UNL A   1      35.344  22.912  24.424  1.00  0.00     0.348 HD
ATOM     22  C   UNL A   1      38.485  21.880  25.153  1.00  0.00     0.071 C 
ATOM     23  C   UNL A   1      37.750  23.973  26.457  1.00  0.00     0.071 C 
ATOM     24  C   UNL A   1      38.931  23.097  25.990  1.00  0.00     0.055 C 
BRANCH  24  25
ATOM     25  C   UNL A   1      39.714  22.705  27.279  1.00  0.00     0.265 C 
BRANCH  25  26
ATOM     26  N   UNL A   1      41.157  22.983  27.385  1.00  0.00    -0.340 N 
ATOM     27  C   UNL A   1      41.317  24.359  27.889  1.00  0.00     0.332 C 
ATOM     28  C   UNL A   1      41.861  22.076  28.288  1.00  0.00     0.332 C 
ATOM     29  H   UNL A   1      41.565  22.853  26.459  1.00  0.00     0.347 HD
ENDBRANCH  25  26
ENDBRANCH  24  25
ENDBRANCH  12  18
ENDBRANCH   6   8
ENDBRANCH   5   6
ENDBRANCH   4   5
ENDBRANCH   3   4
ENDBRANCH   2   3
ENDBRANCH   1   2
BRANCH   1  30
ATOM     30  C   UNL A   1      32.696  26.868  25.381  1.00  0.00     0.188 C 
BRANCH  30  31
ATOM     31  O   UNL A   1      32.045  28.043  24.911  1.00  0.00    -0.376 OA
BRANCH  31  32
ATOM     32  C   UNL A   1      31.756  29.020  25.920  1.00  0.00     0.202 C 
BRANCH  32  33
ATOM     33  C   UNL A   1      32.803  30.140  26.088  1.00  0.00     0.261 C 
BRANCH  33  34
ATOM     34  O   UNL A   1      33.161  30.448  27.448  1.00  0.00    -0.460 OA
BRANCH  34  35
ATOM     35  C   UNL A   1      33.838  31.599  27.683  1.00  0.00     0.338 C 
ATOM     36  O   UNL A   1      33.356  32.717  27.744  1.00  0.00    -0.246 OA
BRANCH  35  37
ATOM     37  C   UNL A   1      35.200  31.229  28.166  1.00  0.00     0.060 A 
ATOM     38  C   UNL A   1      35.476  29.875  28.424  1.00  0.00     0.016 A 
ATOM     39  C   UNL A   1      36.234  32.170  28.221  1.00  0.00     0.016 A 
ATOM     40  C   UNL A   1      36.774  29.469  28.760  1.00  0.00     0.010 A 
ATOM     41  C   UNL A   1      37.525  31.767  28.569  1.00  0.00     0.010 A 
ATOM     42  C   UNL A   1      37.795  30.420  28.872  1.00  0.00    -0.014 A 
BRANCH  42  43
ATOM     43  C   UNL A   1      39.058  30.113  29.593  1.00  0.00     0.031 A 
ATOM     44  C   UNL A   1      39.217  30.727  30.958  1.00  0.00     0.074 A 
ATOM     45  C   UNL A   1      40.053  29.384  29.056  1.00  0.00     0.049 A 
ATOM     46  N   UNL A   1      40.277  30.826  31.713  1.00  0.00    -0.248 NA
ATOM     47  C   UNL A   1      38.005  31.332  31.534  1.00  0.00     0.031 C 
ATOM     48  C   UNL A   1      39.999  28.677  27.779  1.00  0.00     0.029 A 
ATOM     49  N   UNL A   1      41.324  29.143  29.520  1.00  0.00    -0.354 N 
ATOM     50  C   UNL A   1      39.864  31.519  32.845  1.00  0.00     0.074 A 
ATOM     51  C   UNL A   1      38.466  31.838  32.664  1.00  0.00     0.031 C 
ATOM     52  C   UNL A   1      41.194  28.100  27.551  1.00  0.00     0.029 A 
ATOM     53  C   UNL A   1      42.115  28.444  28.636  1.00  0.00     0.049 A 
ATOM     54  H   UNL A   1      41.640  29.443  30.403  1.00  0.00     0.167 HD
ATOM     55  C   UNL A   1      40.586  31.863  33.939  1.00  0.00     0.034 A 
ATOM     56  C   UNL A   1      43.436  28.161  28.681  1.00  0.00     0.034 A 
ATOM     57  C   UNL A   1      41.986  31.570  34.091  1.00  0.00     0.049 A 
ATOM     58  C   UNL A   1      44.256  28.659  29.856  1.00  0.00     0.074 A 
ATOM     59  C   UNL A   1      42.828  31.901  35.138  1.00  0.00     0.029 A 
ATOM     60  N   UNL A   1      42.754  30.884  33.161  1.00  0.00    -0.354 N 
ATOM     61  N   UNL A   1      43.867  29.346  30.906  1.00  0.00    -0.248 NA
ATOM     62  C   UNL A   1      45.695  28.351  29.847  1.00  0.00     0.031 C 
ATOM     63  C   UNL A   1      44.118  31.470  34.812  1.00  0.00     0.029 A 
ATOM     64  C   UNL A   1      44.064  30.799  33.600  1.00  0.00     0.049 A 
ATOM     65  H   UNL A   1      42.418  30.513  32.314  1.00  0.00     0.167 HD
ATOM     66  C   UNL A   1      45.002  29.505  31.702  1.00  0.00     0.074 A 
ATOM     67  C   UNL A   1      46.091  28.853  31.008  1.00  0.00     0.031 C 
ATOM     68  C   UNL A   1      45.131  30.122  32.903  1.00  0.00     0.034 A 
BRANCH  55  69
ATOM     69  C   UNL A   1      39.873  32.653  35.006  1.00  0.00     0.023 A 
ATOM     70  C   UNL A   1      39.316  32.026  36.135  1.00  0.00     0.031 A 
ATOM     71  C   UNL A   1      39.691  34.039  34.861  1.00  0.00     0.131 A 
ATOM     72  C   UNL A   1      38.536  32.770  37.031  1.00  0.00     0.055 A 
ATOM     73  C   UNL A   1      38.987  34.789  35.803  1.00  0.00     0.041 A 
ATOM     74  F   UNL A   1      40.174  34.684  33.787  1.00  0.00    -0.206 F 
ATOM     75  C   UNL A   1      38.390  34.152  36.888  1.00  0.00     0.022 A 
BRANCH  72  76
ATOM     76  S   UNL A   1      37.586  31.881  38.292  1.00  0.00     0.124 S 
ATOM     77  O   UNL A   1      38.500  31.918  39.431  1.00  0.00    -0.237 OA
ATOM     78  O   UNL A   1      36.381  32.694  38.414  1.00  0.00    -0.237 OA
ATOM     79  O   UNL A   1      37.389  30.557  37.704  1.00  0.00    -0.744 OA
ENDBRANCH  72  76
ENDBRANCH  55  69
BRANCH  56  80
ATOM     80  C   UNL A   1      44.105  27.425  27.565  1.00  0.00     0.023 A 
ATOM     81  C   UNL A   1      44.289  26.033  27.622  1.00  0.00     0.031 A 
ATOM     82  C   UNL A   1      44.650  28.113  26.466  1.00  0.00     0.131 A 
ATOM     83  C   UNL A   1      45.045  25.384  26.632  1.00  0.00     0.055 A 
ATOM     84  C   UNL A   1      45.350  27.453  25.452  1.00  0.00     0.041 A 
ATOM     85  F   UNL A   1      44.517  29.445  26.363  1.00  0.00    -0.206 F 
ATOM     86  C   UNL A   1      45.564  26.082  25.541  1.00  0.00     0.022 A 
BRANCH  83  87
ATOM     87  S   UNL A   1      45.434  23.623  26.849  1.00  0.00     0.124 S 
ATOM     88  O   UNL A   1      45.454  23.503  28.302  1.00  0.00    -0.237 OA
ATOM     89  O   UNL A   1      44.316  22.979  26.167  1.00  0.00    -0.237 OA
ATOM     90  O   UNL A   1      46.731  23.477  26.192  1.00  0.00    -0.744 OA
ENDBRANCH  83  87
ENDBRANCH  56  80
BRANCH  68  91
ATOM     91  C   UNL A   1      46.469  30.042  33.598  1.00  0.00     0.023 A 
ATOM     92  C   UNL A   1      47.450  31.037  33.459  1.00  0.00     0.031 A 
ATOM     93  C   UNL A   1      46.733  28.962  34.461  1.00  0.00     0.131 A 
ATOM     94  C   UNL A   1      48.663  30.918  34.156  1.00  0.00     0.055 A 
ATOM     95  C   UNL A   1      47.920  28.874  35.188  1.00  0.00     0.041 A 
ATOM     96  F   UNL A   1      45.826  27.986  34.632  1.00  0.00    -0.206 F 
ATOM     97  C   UNL A   1      48.896  29.853  35.033  1.00  0.00     0.022 A 
BRANCH  94  98
ATOM     98  S   UNL A   1      49.961  32.156  33.877  1.00  0.00     0.124 S 
ATOM     99  O   UNL A   1      51.154  31.323  33.758  1.00  0.00    -0.237 OA
ATOM    100  O   UNL A   1      49.514  32.808  32.650  1.00  0.00    -0.237 OA
ATOM    101  O   UNL A   1      49.903  32.991  35.075  1.00  0.00    -0.744 OA
ENDBRANCH  94  98
ENDBRANCH  68  91
ENDBRANCH  42  43
ENDBRANCH  35  37
ENDBRANCH  34  35
ENDBRANCH  33  34
ENDBRANCH  32  33
ENDBRANCH  31  32
ENDBRANCH  30  31
ENDBRANCH   1  30
TORSDOF 25
ENDMDL
