MODEL 1
REMARK VINA RESULT:     -10.8      0.000      0.000
REMARK SMILES C[C@H](C(=O)OCCOCCOCCOC(=O)c1ccc(-c2c3nc(c(-c4cc(S(=O)(=O)[O-])ccc4F)c4ccc([nH]4)c(-c4cc(S(=O)(=O)[O-])ccc4F)c4nc(c(-c5cc(S(=O)(=O)[O-])ccc5F)c5ccc2[nH]5)C=C4)C=C3)cc1)[C@@H](C(=O)c1ccccc1)c1ccc(F)cc1
REMARK SMILES IDX 9 1 8 2 7 3 6 4 5 5 3 6 4 7 2 8 1 9 80 10 81 11 82 12 83 13
REMARK SMILES IDX 84 14 88 15 85 16 87 17 86 18 89 19 90 20 95 21 91 22 94 23
REMARK SMILES IDX 92 24 93 25 10 26 11 27 12 28 13 29 14 30 15 31 16 32 17 33
REMARK SMILES IDX 18 34 79 35 19 36 78 37 20 38 21 39 22 40 72 41 23 42 77 43
REMARK SMILES IDX 71 44 73 45 24 46 76 47 70 48 69 49 25 51 57 52 37 53 56 54
REMARK SMILES IDX 38 55 41 56 55 57 74 58 39 59 40 60 54 62 75 63 42 64 26 65
REMARK SMILES IDX 27 66 35 67 28 68 34 69 36 70 33 71 29 72 30 73 31 74 32 75
REMARK SMILES IDX 58 76 59 77 67 78 60 79 66 80 68 81 65 82 61 83 62 84 63 85
REMARK SMILES IDX 64 86 43 87 44 88 52 89 45 90 51 91 53 92 50 93 46 94 47 95
REMARK SMILES IDX 48 96 49 97
REMARK H PARENT 73 50 41 61
REMARK Flexibility Score: inf
ROOT
ATOM      1  C   UNL A   1      35.135  22.875  23.987  1.00  0.00     0.188 C 
ENDROOT
BRANCH   1   2
ATOM      2  O   UNL A   1      33.741  23.058  24.001  1.00  0.00    -0.376 OA
BRANCH   2   3
ATOM      3  C   UNL A   1      33.154  23.721  22.901  1.00  0.00     0.202 C 
BRANCH   3   4
ATOM      4  C   UNL A   1      32.877  25.237  22.850  1.00  0.00     0.261 C 
BRANCH   4   5
ATOM      5  O   UNL A   1      31.626  25.761  23.341  1.00  0.00    -0.463 OA
BRANCH   5   6
ATOM      6  C   UNL A   1      30.938  26.619  22.543  1.00  0.00     0.309 C 
ATOM      7  O   UNL A   1      31.134  26.737  21.339  1.00  0.00    -0.252 OA
BRANCH   6   8
ATOM      8  C   UNL A   1      29.829  27.380  23.278  1.00  0.00     0.111 C 
ATOM      9  C   UNL A   1      29.240  26.404  24.317  1.00  0.00     0.021 C 
BRANCH   8  10
ATOM     10  C   UNL A   1      30.188  28.807  23.831  1.00  0.00     0.105 C 
BRANCH  10  11
ATOM     11  C   UNL A   1      31.732  29.057  23.828  1.00  0.00     0.171 C 
ATOM     12  O   UNL A   1      32.404  29.243  22.813  1.00  0.00    -0.293 OA
BRANCH  11  13
ATOM     13  C   UNL A   1      32.491  29.109  25.099  1.00  0.00     0.018 A 
ATOM     14  C   UNL A   1      32.193  30.050  26.089  1.00  0.00     0.012 A 
ATOM     15  C   UNL A   1      33.587  28.253  25.250  1.00  0.00     0.012 A 
ATOM     16  C   UNL A   1      32.960  30.079  27.262  1.00  0.00     0.001 A 
ATOM     17  C   UNL A   1      34.320  28.258  26.437  1.00  0.00     0.001 A 
ATOM     18  C   UNL A   1      34.004  29.169  27.445  1.00  0.00     0.000 A 
ENDBRANCH  11  13
ENDBRANCH  10  11
BRANCH  10  19
ATOM     19  C   UNL A   1      29.470  29.994  23.098  1.00  0.00    -0.036 A 
ATOM     20  C   UNL A   1      29.097  29.859  21.744  1.00  0.00     0.007 A 
ATOM     21  C   UNL A   1      29.155  31.224  23.709  1.00  0.00     0.007 A 
ATOM     22  C   UNL A   1      28.448  30.894  21.052  1.00  0.00     0.039 A 
ATOM     23  C   UNL A   1      28.568  32.283  23.005  1.00  0.00     0.039 A 
ATOM     24  C   UNL A   1      28.208  32.104  21.683  1.00  0.00     0.123 A 
ATOM     25  F   UNL A   1      27.608  33.101  21.018  1.00  0.00    -0.207 F 
ENDBRANCH  10  19
ENDBRANCH   8  10
ENDBRANCH   6   8
ENDBRANCH   5   6
ENDBRANCH   4   5
ENDBRANCH   3   4
ENDBRANCH   2   3
ENDBRANCH   1   2
BRANCH   1  26
ATOM     26  C   UNL A   1      35.604  21.634  24.783  1.00  0.00     0.188 C 
BRANCH  26  27
ATOM     27  O   UNL A   1      36.917  21.129  24.585  1.00  0.00    -0.376 OA
BRANCH  27  28
ATOM     28  C   UNL A   1      37.190  19.780  24.934  1.00  0.00     0.202 C 
BRANCH  28  29
ATOM     29  C   UNL A   1      38.608  19.343  25.350  1.00  0.00     0.261 C 
BRANCH  29  30
ATOM     30  O   UNL A   1      39.598  20.382  25.454  1.00  0.00    -0.460 OA
BRANCH  30  31
ATOM     31  C   UNL A   1      40.379  20.351  26.565  1.00  0.00     0.338 C 
ATOM     32  O   UNL A   1      40.979  19.380  27.002  1.00  0.00    -0.246 OA
BRANCH  31  33
ATOM     33  C   UNL A   1      40.599  21.729  27.069  1.00  0.00     0.060 A 
ATOM     34  C   UNL A   1      39.832  22.774  26.528  1.00  0.00     0.016 A 
ATOM     35  C   UNL A   1      41.556  22.002  28.048  1.00  0.00     0.016 A 
ATOM     36  C   UNL A   1      40.037  24.092  26.940  1.00  0.00     0.010 A 
ATOM     37  C   UNL A   1      41.783  23.330  28.437  1.00  0.00     0.010 A 
ATOM     38  C   UNL A   1      41.049  24.386  27.863  1.00  0.00    -0.014 A 
BRANCH  38  39
ATOM     39  C   UNL A   1      41.493  25.794  28.054  1.00  0.00     0.031 A 
ATOM     40  C   UNL A   1      42.852  26.182  27.531  1.00  0.00     0.074 A 
ATOM     41  C   UNL A   1      40.717  26.716  28.653  1.00  0.00     0.049 A 
ATOM     42  N   UNL A   1      43.501  27.312  27.648  1.00  0.00    -0.248 NA
ATOM     43  C   UNL A   1      43.574  25.147  26.777  1.00  0.00     0.031 C 
ATOM     44  C   UNL A   1      39.358  26.494  29.138  1.00  0.00     0.029 A 
ATOM     45  N   UNL A   1      40.972  28.031  28.963  1.00  0.00    -0.354 N 
ATOM     46  C   UNL A   1      44.714  27.120  26.994  1.00  0.00     0.074 A 
ATOM     47  C   UNL A   1      44.719  25.756  26.511  1.00  0.00     0.031 C 
ATOM     48  C   UNL A   1      38.902  27.631  29.695  1.00  0.00     0.029 A 
ATOM     49  C   UNL A   1      39.953  28.649  29.651  1.00  0.00     0.049 A 
ATOM     50  H   UNL A   1      41.809  28.489  28.716  1.00  0.00     0.167 HD
ATOM     51  C   UNL A   1      45.730  27.999  26.813  1.00  0.00     0.034 A 
ATOM     52  C   UNL A   1      39.889  29.877  30.209  1.00  0.00     0.034 A 
ATOM     53  C   UNL A   1      45.722  29.352  27.314  1.00  0.00     0.049 A 
ATOM     54  C   UNL A   1      41.082  30.803  30.094  1.00  0.00     0.074 A 
ATOM     55  C   UNL A   1      46.696  30.325  27.179  1.00  0.00     0.029 A 
ATOM     56  N   UNL A   1      44.697  29.919  28.061  1.00  0.00    -0.354 N 
ATOM     57  N   UNL A   1      42.226  30.610  29.479  1.00  0.00    -0.248 NA
ATOM     58  C   UNL A   1      40.972  32.114  30.750  1.00  0.00     0.031 C 
ATOM     59  C   UNL A   1      46.301  31.447  27.915  1.00  0.00     0.029 A 
ATOM     60  C   UNL A   1      45.036  31.213  28.428  1.00  0.00     0.049 A 
ATOM     61  H   UNL A   1      43.854  29.468  28.294  1.00  0.00     0.167 HD
ATOM     62  C   UNL A   1      42.952  31.791  29.641  1.00  0.00     0.074 A 
ATOM     63  C   UNL A   1      42.112  32.691  30.402  1.00  0.00     0.031 C 
ATOM     64  C   UNL A   1      44.196  32.104  29.193  1.00  0.00     0.034 A 
BRANCH  51  65
ATOM     65  C   UNL A   1      46.963  27.495  26.101  1.00  0.00     0.023 A 
ATOM     66  C   UNL A   1      48.066  26.973  26.798  1.00  0.00     0.031 A 
ATOM     67  C   UNL A   1      47.047  27.571  24.699  1.00  0.00     0.131 A 
ATOM     68  C   UNL A   1      49.231  26.620  26.100  1.00  0.00     0.055 A 
ATOM     69  C   UNL A   1      48.177  27.136  24.003  1.00  0.00     0.041 A 
ATOM     70  F   UNL A   1      46.037  28.085  23.980  1.00  0.00    -0.206 F 
ATOM     71  C   UNL A   1      49.284  26.671  24.705  1.00  0.00     0.022 A 
BRANCH  68  72
ATOM     72  S   UNL A   1      50.729  26.239  27.050  1.00  0.00     0.124 S 
ATOM     73  O   UNL A   1      50.676  24.780  27.110  1.00  0.00    -0.237 OA
ATOM     74  O   UNL A   1      51.783  26.806  26.217  1.00  0.00    -0.237 OA
ATOM     75  O   UNL A   1      50.506  26.916  28.326  1.00  0.00    -0.744 OA
ENDBRANCH  68  72
ENDBRANCH  51  65
BRANCH  52  76
ATOM     76  C   UNL A   1      38.681  30.306  30.978  1.00  0.00     0.023 A 
ATOM     77  C   UNL A   1      37.699  31.123  30.395  1.00  0.00     0.031 A 
ATOM     78  C   UNL A   1      38.534  29.973  32.338  1.00  0.00     0.131 A 
ATOM     79  C   UNL A   1      36.644  31.620  31.177  1.00  0.00     0.055 A 
ATOM     80  C   UNL A   1      37.449  30.420  33.095  1.00  0.00     0.041 A 
ATOM     81  F   UNL A   1      39.448  29.207  32.952  1.00  0.00    -0.206 F 
ATOM     82  C   UNL A   1      36.504  31.261  32.519  1.00  0.00     0.022 A 
BRANCH  79  83
ATOM     83  S   UNL A   1      35.510  32.831  30.442  1.00  0.00     0.124 S 
ATOM     84  O   UNL A   1      36.211  34.084  30.696  1.00  0.00    -0.237 OA
ATOM     85  O   UNL A   1      35.459  32.392  29.052  1.00  0.00    -0.237 OA
ATOM     86  O   UNL A   1      34.274  32.642  31.199  1.00  0.00    -0.744 OA
ENDBRANCH  79  83
ENDBRANCH  52  76
BRANCH  64  87
ATOM     87  C   UNL A   1      44.702  33.504  29.463  1.00  0.00     0.023 A 
ATOM     88  C   UNL A   1      44.223  34.622  28.759  1.00  0.00     0.031 A 
ATOM     89  C   UNL A   1      45.685  33.718  30.448  1.00  0.00     0.131 A 
ATOM     90  C   UNL A   1      44.765  35.893  29.010  1.00  0.00     0.055 A 
ATOM     91  C   UNL A   1      46.171  34.994  30.739  1.00  0.00     0.041 A 
ATOM     92  F   UNL A   1      46.185  32.689  31.150  1.00  0.00    -0.206 F 
ATOM     93  C   UNL A   1      45.722  36.088  30.009  1.00  0.00     0.022 A 
BRANCH  90  94
ATOM     94  S   UNL A   1      44.276  37.277  27.943  1.00  0.00     0.124 S 
ATOM     95  O   UNL A   1      43.798  36.587  26.750  1.00  0.00    -0.237 OA
ATOM     96  O   UNL A   1      43.256  37.945  28.746  1.00  0.00    -0.237 OA
ATOM     97  O   UNL A   1      45.516  38.031  27.767  1.00  0.00    -0.744 OA
ENDBRANCH  90  94
ENDBRANCH  64  87
ENDBRANCH  38  39
ENDBRANCH  31  33
ENDBRANCH  30  31
ENDBRANCH  29  30
ENDBRANCH  28  29
ENDBRANCH  27  28
ENDBRANCH  26  27
ENDBRANCH   1  26
TORSDOF 24
ENDMDL
MODEL 2
REMARK VINA RESULT:     -10.8      1.968      2.434
REMARK SMILES C[C@H](C(=O)OCCOCCOCCOC(=O)c1ccc(-c2c3nc(c(-c4cc(S(=O)(=O)[O-])ccc4F)c4ccc([nH]4)c(-c4cc(S(=O)(=O)[O-])ccc4F)c4nc(c(-c5cc(S(=O)(=O)[O-])ccc5F)c5ccc2[nH]5)C=C4)C=C3)cc1)[C@@H](C(=O)c1ccccc1)c1ccc(F)cc1
REMARK SMILES IDX 9 1 8 2 7 3 6 4 5 5 3 6 4 7 2 8 1 9 80 10 81 11 82 12 83 13
REMARK SMILES IDX 84 14 88 15 85 16 87 17 86 18 89 19 90 20 95 21 91 22 94 23
REMARK SMILES IDX 92 24 93 25 10 26 11 27 12 28 13 29 14 30 15 31 16 32 17 33
REMARK SMILES IDX 18 34 79 35 19 36 78 37 20 38 21 39 22 40 72 41 23 42 77 43
REMARK SMILES IDX 71 44 73 45 24 46 76 47 70 48 69 49 25 51 57 52 37 53 56 54
REMARK SMILES IDX 38 55 41 56 55 57 74 58 39 59 40 60 54 62 75 63 42 64 26 65
REMARK SMILES IDX 27 66 35 67 28 68 34 69 36 70 33 71 29 72 30 73 31 74 32 75
REMARK SMILES IDX 58 76 59 77 67 78 60 79 66 80 68 81 65 82 61 83 62 84 63 85
REMARK SMILES IDX 64 86 43 87 44 88 52 89 45 90 51 91 53 92 50 93 46 94 47 95
REMARK SMILES IDX 48 96 49 97
REMARK H PARENT 73 50 41 61
REMARK Flexibility Score: inf
ROOT
ATOM      1  C   UNL A   1      35.713  22.565  24.295  1.00  0.00     0.188 C 
ENDROOT
BRANCH   1   2
ATOM      2  O   UNL A   1      34.686  23.213  25.003  1.00  0.00    -0.376 OA
BRANCH   2   3
ATOM      3  C   UNL A   1      33.507  23.541  24.298  1.00  0.00     0.202 C 
BRANCH   3   4
ATOM      4  C   UNL A   1      33.438  23.730  22.769  1.00  0.00     0.261 C 
BRANCH   4   5
ATOM      5  O   UNL A   1      33.851  24.978  22.174  1.00  0.00    -0.463 OA
BRANCH   5   6
ATOM      6  C   UNL A   1      32.891  25.896  21.887  1.00  0.00     0.309 C 
ATOM      7  O   UNL A   1      32.239  25.900  20.850  1.00  0.00    -0.252 OA
BRANCH   6   8
ATOM      8  C   UNL A   1      32.640  26.893  23.024  1.00  0.00     0.111 C 
ATOM      9  C   UNL A   1      33.159  28.260  22.532  1.00  0.00     0.021 C 
BRANCH   8  10
ATOM     10  C   UNL A   1      31.200  26.912  23.653  1.00  0.00     0.105 C 
BRANCH  10  11
ATOM     11  C   UNL A   1      31.251  27.027  25.212  1.00  0.00     0.171 C 
ATOM     12  O   UNL A   1      30.615  26.309  25.983  1.00  0.00    -0.293 OA
BRANCH  11  13
ATOM     13  C   UNL A   1      32.122  28.031  25.866  1.00  0.00     0.018 A 
ATOM     14  C   UNL A   1      33.409  27.706  26.305  1.00  0.00     0.012 A 
ATOM     15  C   UNL A   1      31.589  29.297  26.129  1.00  0.00     0.012 A 
ATOM     16  C   UNL A   1      34.183  28.682  26.947  1.00  0.00     0.001 A 
ATOM     17  C   UNL A   1      32.379  30.278  26.731  1.00  0.00     0.001 A 
ATOM     18  C   UNL A   1      33.678  29.972  27.136  1.00  0.00     0.000 A 
ENDBRANCH  11  13
ENDBRANCH  10  11
BRANCH  10  19
ATOM     19  C   UNL A   1      30.250  28.022  23.083  1.00  0.00    -0.036 A 
ATOM     20  C   UNL A   1      28.868  27.975  23.368  1.00  0.00     0.007 A 
ATOM     21  C   UNL A   1      30.684  29.100  22.286  1.00  0.00     0.007 A 
ATOM     22  C   UNL A   1      27.983  28.952  22.881  1.00  0.00     0.039 A 
ATOM     23  C   UNL A   1      29.795  30.037  21.744  1.00  0.00     0.039 A 
ATOM     24  C   UNL A   1      28.452  29.962  22.057  1.00  0.00     0.123 A 
ATOM     25  F   UNL A   1      27.605  30.881  21.575  1.00  0.00    -0.207 F 
ENDBRANCH  10  19
ENDBRANCH   8  10
ENDBRANCH   6   8
ENDBRANCH   5   6
ENDBRANCH   4   5
ENDBRANCH   3   4
ENDBRANCH   2   3
ENDBRANCH   1   2
BRANCH   1  26
ATOM     26  C   UNL A   1      36.667  21.747  25.200  1.00  0.00     0.188 C 
BRANCH  26  27
ATOM     27  O   UNL A   1      37.674  20.940  24.607  1.00  0.00    -0.376 OA
BRANCH  27  28
ATOM     28  C   UNL A   1      37.905  19.641  25.132  1.00  0.00     0.202 C 
BRANCH  28  29
ATOM     29  C   UNL A   1      39.314  19.212  25.587  1.00  0.00     0.261 C 
BRANCH  29  30
ATOM     30  O   UNL A   1      40.285  20.260  25.749  1.00  0.00    -0.460 OA
BRANCH  30  31
ATOM     31  C   UNL A   1      40.879  20.338  26.969  1.00  0.00     0.338 C 
ATOM     32  O   UNL A   1      41.406  19.418  27.578  1.00  0.00    -0.246 OA
BRANCH  31  33
ATOM     33  C   UNL A   1      41.011  21.757  27.380  1.00  0.00     0.060 A 
ATOM     34  C   UNL A   1      40.286  22.731  26.674  1.00  0.00     0.016 A 
ATOM     35  C   UNL A   1      41.845  22.136  28.432  1.00  0.00     0.016 A 
ATOM     36  C   UNL A   1      40.414  24.084  26.998  1.00  0.00     0.010 A 
ATOM     37  C   UNL A   1      41.998  23.497  28.734  1.00  0.00     0.010 A 
ATOM     38  C   UNL A   1      41.309  24.481  27.999  1.00  0.00    -0.014 A 
BRANCH  38  39
ATOM     39  C   UNL A   1      41.697  25.913  28.122  1.00  0.00     0.031 A 
ATOM     40  C   UNL A   1      43.011  26.342  27.520  1.00  0.00     0.074 A 
ATOM     41  C   UNL A   1      40.910  26.821  28.728  1.00  0.00     0.049 A 
ATOM     42  N   UNL A   1      43.613  27.502  27.569  1.00  0.00    -0.248 NA
ATOM     43  C   UNL A   1      43.743  25.313  26.766  1.00  0.00     0.031 C 
ATOM     44  C   UNL A   1      39.587  26.556  29.286  1.00  0.00     0.029 A 
ATOM     45  N   UNL A   1      41.120  28.156  28.983  1.00  0.00    -0.354 N 
ATOM     46  C   UNL A   1      44.801  27.341  26.863  1.00  0.00     0.074 A 
ATOM     47  C   UNL A   1      44.845  25.962  26.425  1.00  0.00     0.031 C 
ATOM     48  C   UNL A   1      39.107  27.691  29.827  1.00  0.00     0.029 A 
ATOM     49  C   UNL A   1      40.108  28.751  29.699  1.00  0.00     0.049 A 
ATOM     50  H   UNL A   1      41.922  28.641  28.679  1.00  0.00     0.167 HD
ATOM     51  C   UNL A   1      45.767  28.257  26.604  1.00  0.00     0.034 A 
ATOM     52  C   UNL A   1      40.015  29.994  30.219  1.00  0.00     0.034 A 
ATOM     53  C   UNL A   1      45.720  29.625  27.060  1.00  0.00     0.049 A 
ATOM     54  C   UNL A   1      41.157  30.967  30.015  1.00  0.00     0.074 A 
ATOM     55  C   UNL A   1      46.643  30.634  26.845  1.00  0.00     0.029 A 
ATOM     56  N   UNL A   1      44.708  30.171  27.837  1.00  0.00    -0.354 N 
ATOM     57  N   UNL A   1      42.279  30.803  29.352  1.00  0.00    -0.248 NA
ATOM     58  C   UNL A   1      41.019  32.294  30.633  1.00  0.00     0.031 C 
ATOM     59  C   UNL A   1      46.232  31.762  27.563  1.00  0.00     0.029 A 
ATOM     60  C   UNL A   1      45.005  31.491  28.146  1.00  0.00     0.049 A 
ATOM     61  H   UNL A   1      43.898  29.693  28.126  1.00  0.00     0.167 HD
ATOM     62  C   UNL A   1      42.957  32.019  29.440  1.00  0.00     0.074 A 
ATOM     63  C   UNL A   1      42.114  32.908  30.211  1.00  0.00     0.031 C 
ATOM     64  C   UNL A   1      44.162  32.371  28.922  1.00  0.00     0.034 A 
BRANCH  51  65
ATOM     65  C   UNL A   1      46.985  27.783  25.848  1.00  0.00     0.023 A 
ATOM     66  C   UNL A   1      47.175  28.068  24.484  1.00  0.00     0.031 A 
ATOM     67  C   UNL A   1      47.958  27.001  26.497  1.00  0.00     0.131 A 
ATOM     68  C   UNL A   1      48.267  27.513  23.799  1.00  0.00     0.055 A 
ATOM     69  C   UNL A   1      49.087  26.524  25.830  1.00  0.00     0.041 A 
ATOM     70  F   UNL A   1      47.818  26.672  27.792  1.00  0.00    -0.206 F 
ATOM     71  C   UNL A   1      49.239  26.767  24.468  1.00  0.00     0.022 A 
BRANCH  68  72
ATOM     72  S   UNL A   1      48.316  27.651  21.991  1.00  0.00     0.124 S 
ATOM     73  O   UNL A   1      49.455  28.544  21.795  1.00  0.00    -0.237 OA
ATOM     74  O   UNL A   1      48.509  26.267  21.574  1.00  0.00    -0.237 OA
ATOM     75  O   UNL A   1      47.016  28.229  21.656  1.00  0.00    -0.744 OA
ENDBRANCH  68  72
ENDBRANCH  51  65
BRANCH  52  76
ATOM     76  C   UNL A   1      38.826  30.397  31.032  1.00  0.00     0.023 A 
ATOM     77  C   UNL A   1      37.767  31.121  30.464  1.00  0.00     0.031 A 
ATOM     78  C   UNL A   1      38.773  30.133  32.414  1.00  0.00     0.131 A 
ATOM     79  C   UNL A   1      36.727  31.601  31.277  1.00  0.00     0.055 A 
ATOM     80  C   UNL A   1      37.706  30.560  33.207  1.00  0.00     0.041 A 
ATOM     81  F   UNL A   1      39.764  29.457  33.015  1.00  0.00    -0.206 F 
ATOM     82  C   UNL A   1      36.682  31.311  32.642  1.00  0.00     0.022 A 
BRANCH  79  83
ATOM     83  S   UNL A   1      35.484  32.701  30.545  1.00  0.00     0.124 S 
ATOM     84  O   UNL A   1      35.398  32.185  29.184  1.00  0.00    -0.237 OA
ATOM     85  O   UNL A   1      34.326  32.459  31.399  1.00  0.00    -0.237 OA
ATOM     86  O   UNL A   1      36.085  34.027  30.674  1.00  0.00    -0.744 OA
ENDBRANCH  79  83
ENDBRANCH  52  76
BRANCH  64  87
ATOM     87  C   UNL A   1      44.618  33.800  29.121  1.00  0.00     0.023 A 
ATOM     88  C   UNL A   1      45.415  34.186  30.213  1.00  0.00     0.031 A 
ATOM     89  C   UNL A   1      44.245  34.792  28.196  1.00  0.00     0.131 A 
ATOM     90  C   UNL A   1      45.766  35.535  30.381  1.00  0.00     0.055 A 
ATOM     91  C   UNL A   1      44.654  36.120  28.333  1.00  0.00     0.041 A 
ATOM     92  F   UNL A   1      43.480  34.486  27.135  1.00  0.00    -0.206 F 
ATOM     93  C   UNL A   1      45.407  36.501  29.438  1.00  0.00     0.022 A 
BRANCH  90  94
ATOM     94  S   UNL A   1      46.616  36.033  31.905  1.00  0.00     0.124 S 
ATOM     95  O   UNL A   1      46.244  37.439  32.016  1.00  0.00    -0.237 OA
ATOM     96  O   UNL A   1      46.028  35.138  32.897  1.00  0.00    -0.237 OA
ATOM     97  O   UNL A   1      48.026  35.786  31.609  1.00  0.00    -0.744 OA
ENDBRANCH  90  94
ENDBRANCH  64  87
ENDBRANCH  38  39
ENDBRANCH  31  33
ENDBRANCH  30  31
ENDBRANCH  29  30
ENDBRANCH  28  29
ENDBRANCH  27  28
ENDBRANCH  26  27
ENDBRANCH   1  26
TORSDOF 24
ENDMDL
MODEL 3
REMARK VINA RESULT:     -10.5      5.525      9.821
REMARK SMILES C[C@H](C(=O)OCCOCCOCCOC(=O)c1ccc(-c2c3nc(c(-c4cc(S(=O)(=O)[O-])ccc4F)c4ccc([nH]4)c(-c4cc(S(=O)(=O)[O-])ccc4F)c4nc(c(-c5cc(S(=O)(=O)[O-])ccc5F)c5ccc2[nH]5)C=C4)C=C3)cc1)[C@@H](C(=O)c1ccccc1)c1ccc(F)cc1
REMARK SMILES IDX 9 1 8 2 7 3 6 4 5 5 3 6 4 7 2 8 1 9 80 10 81 11 82 12 83 13
REMARK SMILES IDX 84 14 88 15 85 16 87 17 86 18 89 19 90 20 95 21 91 22 94 23
REMARK SMILES IDX 92 24 93 25 10 26 11 27 12 28 13 29 14 30 15 31 16 32 17 33
REMARK SMILES IDX 18 34 79 35 19 36 78 37 20 38 21 39 22 40 72 41 23 42 77 43
REMARK SMILES IDX 71 44 73 45 24 46 76 47 70 48 69 49 25 51 57 52 37 53 56 54
REMARK SMILES IDX 38 55 41 56 55 57 74 58 39 59 40 60 54 62 75 63 42 64 26 65
REMARK SMILES IDX 27 66 35 67 28 68 34 69 36 70 33 71 29 72 30 73 31 74 32 75
REMARK SMILES IDX 58 76 59 77 67 78 60 79 66 80 68 81 65 82 61 83 62 84 63 85
REMARK SMILES IDX 64 86 43 87 44 88 52 89 45 90 51 91 53 92 50 93 46 94 47 95
REMARK SMILES IDX 48 96 49 97
REMARK H PARENT 73 50 41 61
REMARK Flexibility Score: inf
ROOT
ATOM      1  C   UNL A   1      34.080  28.306  26.391  1.00  0.00     0.188 C 
ENDROOT
BRANCH   1   2
ATOM      2  O   UNL A   1      33.372  28.166  25.185  1.00  0.00    -0.376 OA
BRANCH   2   3
ATOM      3  C   UNL A   1      33.623  27.016  24.404  1.00  0.00     0.202 C 
BRANCH   3   4
ATOM      4  C   UNL A   1      32.773  25.730  24.460  1.00  0.00     0.261 C 
BRANCH   4   5
ATOM      5  O   UNL A   1      32.834  24.776  23.380  1.00  0.00    -0.463 OA
BRANCH   5   6
ATOM      6  C   UNL A   1      32.431  23.502  23.632  1.00  0.00     0.309 C 
ATOM      7  O   UNL A   1      31.258  23.152  23.667  1.00  0.00    -0.252 OA
BRANCH   6   8
ATOM      8  C   UNL A   1      33.593  22.516  23.793  1.00  0.00     0.111 C 
ATOM      9  C   UNL A   1      34.712  22.996  22.845  1.00  0.00     0.021 C 
BRANCH   8  10
ATOM     10  C   UNL A   1      34.054  22.189  25.260  1.00  0.00     0.105 C 
BRANCH  10  11
ATOM     11  C   UNL A   1      33.650  20.739  25.684  1.00  0.00     0.171 C 
ATOM     12  O   UNL A   1      33.437  20.389  26.844  1.00  0.00    -0.293 OA
BRANCH  11  13
ATOM     13  C   UNL A   1      33.471  19.677  24.667  1.00  0.00     0.018 A 
ATOM     14  C   UNL A   1      32.426  19.722  23.739  1.00  0.00     0.012 A 
ATOM     15  C   UNL A   1      34.319  18.566  24.716  1.00  0.00     0.012 A 
ATOM     16  C   UNL A   1      32.281  18.678  22.816  1.00  0.00     0.001 A 
ATOM     17  C   UNL A   1      34.196  17.549  23.768  1.00  0.00     0.001 A 
ATOM     18  C   UNL A   1      33.179  17.607  22.816  1.00  0.00     0.000 A 
ENDBRANCH  11  13
ENDBRANCH  10  11
BRANCH  10  19
ATOM     19  C   UNL A   1      35.585  22.399  25.527  1.00  0.00    -0.036 A 
ATOM     20  C   UNL A   1      36.058  23.662  25.943  1.00  0.00     0.007 A 
ATOM     21  C   UNL A   1      36.558  21.388  25.385  1.00  0.00     0.007 A 
ATOM     22  C   UNL A   1      37.420  23.891  26.199  1.00  0.00     0.039 A 
ATOM     23  C   UNL A   1      37.924  21.631  25.574  1.00  0.00     0.039 A 
ATOM     24  C   UNL A   1      38.343  22.879  25.992  1.00  0.00     0.123 A 
ATOM     25  F   UNL A   1      39.645  23.103  26.215  1.00  0.00    -0.207 F 
ENDBRANCH  10  19
ENDBRANCH   8  10
ENDBRANCH   6   8
ENDBRANCH   5   6
ENDBRANCH   4   5
ENDBRANCH   3   4
ENDBRANCH   2   3
ENDBRANCH   1   2
BRANCH   1  26
ATOM     26  C   UNL A   1      33.902  29.692  27.056  1.00  0.00     0.188 C 
BRANCH  26  27
ATOM     27  O   UNL A   1      32.602  30.129  27.427  1.00  0.00    -0.376 OA
BRANCH  27  28
ATOM     28  C   UNL A   1      32.011  31.202  26.709  1.00  0.00     0.202 C 
BRANCH  28  29
ATOM     29  C   UNL A   1      32.108  32.649  27.230  1.00  0.00     0.261 C 
BRANCH  29  30
ATOM     30  O   UNL A   1      33.416  33.111  27.610  1.00  0.00    -0.460 OA
BRANCH  30  31
ATOM     31  C   UNL A   1      33.451  34.086  28.556  1.00  0.00     0.338 C 
ATOM     32  O   UNL A   1      32.596  34.937  28.752  1.00  0.00    -0.246 OA
BRANCH  31  33
ATOM     33  C   UNL A   1      34.577  33.845  29.491  1.00  0.00     0.060 A 
ATOM     34  C   UNL A   1      35.873  34.212  29.092  1.00  0.00     0.016 A 
ATOM     35  C   UNL A   1      34.375  33.254  30.738  1.00  0.00     0.016 A 
ATOM     36  C   UNL A   1      36.969  33.963  29.921  1.00  0.00     0.010 A 
ATOM     37  C   UNL A   1      35.479  32.975  31.556  1.00  0.00     0.010 A 
ATOM     38  C   UNL A   1      36.785  33.298  31.140  1.00  0.00    -0.014 A 
BRANCH  38  39
ATOM     39  C   UNL A   1      37.959  32.738  31.864  1.00  0.00     0.031 A 
ATOM     40  C   UNL A   1      38.709  31.600  31.219  1.00  0.00     0.074 A 
ATOM     41  C   UNL A   1      38.372  33.226  33.049  1.00  0.00     0.049 A 
ATOM     42  N   UNL A   1      39.702  30.886  31.681  1.00  0.00    -0.248 NA
ATOM     43  C   UNL A   1      38.269  31.220  29.868  1.00  0.00     0.031 C 
ATOM     44  C   UNL A   1      37.784  34.367  33.745  1.00  0.00     0.029 A 
ATOM     45  N   UNL A   1      39.385  32.811  33.880  1.00  0.00    -0.354 N 
ATOM     46  C   UNL A   1      39.998  29.961  30.684  1.00  0.00     0.074 A 
ATOM     47  C   UNL A   1      39.058  30.189  29.608  1.00  0.00     0.031 C 
ATOM     48  C   UNL A   1      38.440  34.554  34.906  1.00  0.00     0.029 A 
ATOM     49  C   UNL A   1      39.462  33.517  35.058  1.00  0.00     0.049 A 
ATOM     50  H   UNL A   1      39.999  32.074  33.653  1.00  0.00     0.167 HD
ATOM     51  C   UNL A   1      40.964  29.010  30.667  1.00  0.00     0.034 A 
ATOM     52  C   UNL A   1      40.242  33.329  36.145  1.00  0.00     0.034 A 
ATOM     53  C   UNL A   1      41.886  28.781  31.753  1.00  0.00     0.049 A 
ATOM     54  C   UNL A   1      41.237  32.187  36.150  1.00  0.00     0.074 A 
ATOM     55  C   UNL A   1      42.906  27.849  31.832  1.00  0.00     0.029 A 
ATOM     56  N   UNL A   1      41.890  29.476  32.955  1.00  0.00    -0.354 N 
ATOM     57  N   UNL A   1      41.504  31.315  35.205  1.00  0.00    -0.248 NA
ATOM     58  C   UNL A   1      42.035  32.006  37.372  1.00  0.00     0.031 C 
ATOM     59  C   UNL A   1      43.468  27.922  33.111  1.00  0.00     0.029 A 
ATOM     60  C   UNL A   1      42.867  28.965  33.797  1.00  0.00     0.049 A 
ATOM     61  H   UNL A   1      41.288  30.223  33.176  1.00  0.00     0.167 HD
ATOM     62  C   UNL A   1      42.529  30.511  35.706  1.00  0.00     0.074 A 
ATOM     63  C   UNL A   1      42.836  31.008  37.030  1.00  0.00     0.031 C 
ATOM     64  C   UNL A   1      43.164  29.462  35.120  1.00  0.00     0.034 A 
BRANCH  51  65
ATOM     65  C   UNL A   1      41.022  28.104  29.460  1.00  0.00     0.023 A 
ATOM     66  C   UNL A   1      42.007  28.247  28.467  1.00  0.00     0.031 A 
ATOM     67  C   UNL A   1      40.051  27.102  29.284  1.00  0.00     0.131 A 
ATOM     68  C   UNL A   1      41.954  27.453  27.311  1.00  0.00     0.055 A 
ATOM     69  C   UNL A   1      40.055  26.258  28.172  1.00  0.00     0.041 A 
ATOM     70  F   UNL A   1      39.069  26.936  30.184  1.00  0.00    -0.206 F 
ATOM     71  C   UNL A   1      41.002  26.441  27.169  1.00  0.00     0.022 A 
BRANCH  68  72
ATOM     72  S   UNL A   1      43.050  27.865  25.925  1.00  0.00     0.124 S 
ATOM     73  O   UNL A   1      43.698  29.080  26.415  1.00  0.00    -0.237 OA
ATOM     74  O   UNL A   1      43.898  26.683  25.831  1.00  0.00    -0.237 OA
ATOM     75  O   UNL A   1      42.129  28.067  24.809  1.00  0.00    -0.744 OA
ENDBRANCH  68  72
ENDBRANCH  51  65
BRANCH  52  76
ATOM     76  C   UNL A   1      40.095  34.198  37.352  1.00  0.00     0.023 A 
ATOM     77  C   UNL A   1      39.413  33.749  38.495  1.00  0.00     0.031 A 
ATOM     78  C   UNL A   1      40.564  35.525  37.348  1.00  0.00     0.131 A 
ATOM     79  C   UNL A   1      39.175  34.629  39.562  1.00  0.00     0.055 A 
ATOM     80  C   UNL A   1      40.378  36.378  38.438  1.00  0.00     0.041 A 
ATOM     81  F   UNL A   1      41.210  36.014  36.278  1.00  0.00    -0.206 F 
ATOM     82  C   UNL A   1      39.666  35.936  39.548  1.00  0.00     0.022 A 
BRANCH  79  83
ATOM     83  S   UNL A   1      38.120  34.075  40.930  1.00  0.00     0.124 S 
ATOM     84  O   UNL A   1      37.602  35.342  41.435  1.00  0.00    -0.237 OA
ATOM     85  O   UNL A   1      37.161  33.216  40.244  1.00  0.00    -0.237 OA
ATOM     86  O   UNL A   1      39.050  33.382  41.819  1.00  0.00    -0.744 OA
ENDBRANCH  79  83
ENDBRANCH  52  76
BRANCH  64  87
ATOM     87  C   UNL A   1      44.299  28.817  35.885  1.00  0.00     0.023 A 
ATOM     88  C   UNL A   1      44.101  27.704  36.721  1.00  0.00     0.031 A 
ATOM     89  C   UNL A   1      45.604  29.330  35.771  1.00  0.00     0.131 A 
ATOM     90  C   UNL A   1      45.178  27.176  37.451  1.00  0.00     0.055 A 
ATOM     91  C   UNL A   1      46.683  28.758  36.447  1.00  0.00     0.041 A 
ATOM     92  F   UNL A   1      45.855  30.394  34.992  1.00  0.00    -0.206 F 
ATOM     93  C   UNL A   1      46.471  27.684  37.304  1.00  0.00     0.022 A 
BRANCH  90  94
ATOM     94  S   UNL A   1      44.850  25.877  38.675  1.00  0.00     0.124 S 
ATOM     95  O   UNL A   1      44.196  24.855  37.865  1.00  0.00    -0.237 OA
ATOM     96  O   UNL A   1      46.191  25.552  39.152  1.00  0.00    -0.237 OA
ATOM     97  O   UNL A   1      43.989  26.537  39.654  1.00  0.00    -0.744 OA
ENDBRANCH  90  94
ENDBRANCH  64  87
ENDBRANCH  38  39
ENDBRANCH  31  33
ENDBRANCH  30  31
ENDBRANCH  29  30
ENDBRANCH  28  29
ENDBRANCH  27  28
ENDBRANCH  26  27
ENDBRANCH   1  26
TORSDOF 24
ENDMDL
