MODEL 1
REMARK VINA RESULT:     -10.0      0.000      0.000
REMARK SMILES Cc1c(NC(=S)NC(=O)CSc2ccc(Cl)cc2)cccc1C(=O)OCCOCCOCCOC(=O)c1ccc(-c2c3nc(c(-c4cc(S(=O)(=O)[O-])ccc4F)c4ccc([nH]4)c(-c4cc(S(=O)(=O)[O-])ccc4F)c4nc(c(-c5cc(S(=O)(=O)[O-])ccc5F)c5ccc2[nH]5)C=C4)C=C3)cc1
REMARK SMILES IDX 28 1 27 2 26 3 25 4 23 5 24 6 22 7 1 8 2 9 3 10 19 11 21 12
REMARK SMILES IDX 20 13 4 14 5 16 6 17 7 18 8 19 9 21 10 22 11 23 12 24 13 25
REMARK SMILES IDX 18 26 14 27 17 28 15 29 16 30 29 31 30 32 31 33 32 34 33 35
REMARK SMILES IDX 34 36 35 37 36 38 37 39 38 40 99 41 39 42 98 43 40 44 41 45
REMARK SMILES IDX 42 46 92 47 43 48 97 49 91 50 93 51 44 52 96 53 90 54 89 55
REMARK SMILES IDX 45 57 77 58 57 59 76 60 58 61 61 62 75 63 94 64 59 65 60 66
REMARK SMILES IDX 74 68 95 69 62 70 46 71 47 72 55 73 48 74 54 75 56 76 53 77
REMARK SMILES IDX 49 78 50 79 51 80 52 81 78 82 79 83 87 84 80 85 86 86 88 87
REMARK SMILES IDX 85 88 81 89 82 90 83 91 84 92 63 93 64 94 72 95 65 96 71 97
REMARK SMILES IDX 73 98 70 99 66 100 67 101 68 102 69 103
REMARK H PARENT 4 15 7 20 93 56 61 67
REMARK Flexibility Score: inf
ROOT
ATOM      1  O   UNL A   1      31.408  26.069  26.606  1.00  0.00    -0.376 OA
ENDROOT
BRANCH   1   2
ATOM      2  C   UNL A   1      31.749  24.668  26.648  1.00  0.00     0.202 C 
BRANCH   2   3
ATOM      3  C   UNL A   1      30.712  23.359  26.294  1.00  0.00     0.261 C 
BRANCH   3   4
ATOM      4  O   UNL A   1      31.117  21.757  25.790  1.00  0.00    -0.460 OA
BRANCH   4   5
ATOM      5  C   UNL A   1      32.209  21.058  25.149  1.00  0.00     0.338 C 
ATOM      6  O   UNL A   1      32.346  19.872  24.842  1.00  0.00    -0.246 OA
BRANCH   5   7
ATOM      7  C   UNL A   1      33.439  21.687  24.650  1.00  0.00     0.065 A 
ATOM      8  C   UNL A   1      32.166  22.157  22.581  1.00  0.00     0.047 C 
ATOM      9  C   UNL A   1      33.306  22.456  23.510  1.00  0.00    -0.013 A 
ATOM     10  C   UNL A   1      34.081  23.635  23.457  1.00  0.00     0.044 A 
ATOM     11  C   UNL A   1      35.223  23.800  24.247  1.00  0.00     0.026 A 
ATOM     12  C   UNL A   1      34.397  22.088  25.629  1.00  0.00     0.016 A 
ATOM     13  C   UNL A   1      35.380  23.024  25.374  1.00  0.00     0.003 A 
BRANCH  10  14
ATOM     14  N   UNL A   1      33.567  24.689  22.698  1.00  0.00    -0.332 N 
ATOM     15  H   UNL A   1      33.846  24.654  21.755  1.00  0.00     0.169 HD
BRANCH  14  16
ATOM     16  C   UNL A   1      32.780  25.738  22.967  1.00  0.00     0.177 C 
ATOM     17  S   UNL A   1      33.414  27.250  22.599  1.00  0.00    -0.040 S 
BRANCH  16  18
ATOM     18  N   UNL A   1      31.538  25.716  23.538  1.00  0.00    -0.302 N 
ATOM     19  C   UNL A   1      30.237  26.198  23.476  1.00  0.00     0.236 C 
ATOM     20  H   UNL A   1      31.585  25.108  24.311  1.00  0.00     0.172 HD
ATOM     21  O   UNL A   1      29.368  25.412  23.893  1.00  0.00    -0.274 OA
BRANCH  19  22
ATOM     22  C   UNL A   1      29.803  27.562  22.973  1.00  0.00     0.175 C 
BRANCH  22  23
ATOM     23  S   UNL A   1      30.304  28.991  23.956  1.00  0.00    -0.116 SA
BRANCH  23  24
ATOM     24  C   UNL A   1      29.422  30.253  23.040  1.00  0.00     0.008 A 
ATOM     25  C   UNL A   1      29.163  31.527  23.561  1.00  0.00     0.016 A 
ATOM     26  C   UNL A   1      29.028  29.951  21.732  1.00  0.00     0.016 A 
ATOM     27  C   UNL A   1      28.533  32.497  22.765  1.00  0.00     0.021 A 
ATOM     28  C   UNL A   1      28.404  30.915  20.941  1.00  0.00     0.021 A 
ATOM     29  C   UNL A   1      28.162  32.186  21.458  1.00  0.00     0.041 A 
ATOM     30  Cl  UNL A   1      27.408  33.358  20.452  1.00  0.00    -0.084 Cl
ENDBRANCH  23  24
ENDBRANCH  22  23
ENDBRANCH  19  22
ENDBRANCH  16  18
ENDBRANCH  14  16
ENDBRANCH  10  14
ENDBRANCH   5   7
ENDBRANCH   4   5
ENDBRANCH   3   4
ENDBRANCH   2   3
ENDBRANCH   1   2
BRANCH   1  31
ATOM     31  C   UNL A   1      32.151  27.181  27.161  1.00  0.00     0.188 C 
BRANCH  31  32
ATOM     32  C   UNL A   1      33.338  27.866  26.495  1.00  0.00     0.188 C 
BRANCH  32  33
ATOM     33  O   UNL A   1      32.908  28.975  25.734  1.00  0.00    -0.376 OA
BRANCH  33  34
ATOM     34  C   UNL A   1      32.839  30.211  26.411  1.00  0.00     0.202 C 
BRANCH  34  35
ATOM     35  C   UNL A   1      34.024  30.528  27.350  1.00  0.00     0.261 C 
BRANCH  35  36
ATOM     36  O   UNL A   1      34.644  31.828  27.133  1.00  0.00    -0.460 OA
BRANCH  36  37
ATOM     37  C   UNL A   1      34.965  32.607  28.231  1.00  0.00     0.338 C 
ATOM     38  O   UNL A   1      34.128  33.256  28.847  1.00  0.00    -0.246 OA
BRANCH  37  39
ATOM     39  C   UNL A   1      36.363  32.359  28.705  1.00  0.00     0.060 A 
ATOM     40  C   UNL A   1      36.945  31.253  29.344  1.00  0.00     0.016 A 
ATOM     41  C   UNL A   1      37.166  33.429  28.604  1.00  0.00     0.016 A 
ATOM     42  C   UNL A   1      38.279  31.323  29.986  1.00  0.00     0.010 A 
ATOM     43  C   UNL A   1      38.238  33.489  29.480  1.00  0.00     0.010 A 
ATOM     44  C   UNL A   1      39.021  32.502  30.093  1.00  0.00    -0.014 A 
BRANCH  44  45
ATOM     45  C   UNL A   1      40.432  32.813  30.897  1.00  0.00     0.031 A 
ATOM     46  C   UNL A   1      42.052  32.219  30.799  1.00  0.00     0.074 A 
ATOM     47  C   UNL A   1      40.279  33.786  31.820  1.00  0.00     0.049 A 
ATOM     48  N   UNL A   1      42.878  32.111  31.821  1.00  0.00    -0.248 NA
ATOM     49  C   UNL A   1      42.857  31.639  29.611  1.00  0.00     0.031 C 
ATOM     50  C   UNL A   1      41.274  34.527  32.581  1.00  0.00     0.029 A 
ATOM     51  N   UNL A   1      39.067  34.242  32.347  1.00  0.00    -0.354 N 
ATOM     52  C   UNL A   1      44.115  31.664  31.305  1.00  0.00     0.074 A 
ATOM     53  C   UNL A   1      43.836  30.937  30.150  1.00  0.00     0.031 C 
ATOM     54  C   UNL A   1      40.670  35.054  33.665  1.00  0.00     0.029 A 
ATOM     55  C   UNL A   1      39.308  34.538  33.687  1.00  0.00     0.049 A 
ATOM     56  H   UNL A   1      38.214  34.337  31.866  1.00  0.00     0.167 HD
ATOM     57  C   UNL A   1      45.329  32.196  31.625  1.00  0.00     0.034 A 
ATOM     58  C   UNL A   1      38.735  33.732  34.623  1.00  0.00     0.034 A 
ATOM     59  C   UNL A   1      45.166  32.867  32.882  1.00  0.00     0.049 A 
ATOM     60  C   UNL A   1      39.829  33.015  35.391  1.00  0.00     0.074 A 
ATOM     61  C   UNL A   1      44.953  34.173  33.263  1.00  0.00     0.029 A 
ATOM     62  N   UNL A   1      44.691  32.067  33.899  1.00  0.00    -0.354 N 
ATOM     63  N   UNL A   1      41.053  32.839  34.948  1.00  0.00    -0.248 NA
ATOM     64  C   UNL A   1      39.670  32.577  36.768  1.00  0.00     0.031 C 
ATOM     65  C   UNL A   1      44.133  34.114  34.441  1.00  0.00     0.029 A 
ATOM     66  C   UNL A   1      43.921  32.783  34.782  1.00  0.00     0.049 A 
ATOM     67  H   UNL A   1      44.881  31.104  33.982  1.00  0.00     0.167 HD
ATOM     68  C   UNL A   1      41.842  32.325  35.940  1.00  0.00     0.074 A 
ATOM     69  C   UNL A   1      40.924  32.194  37.063  1.00  0.00     0.031 C 
ATOM     70  C   UNL A   1      43.178  32.043  35.797  1.00  0.00     0.034 A 
BRANCH  57  71
ATOM     71  C   UNL A   1      46.606  32.171  30.759  1.00  0.00     0.023 A 
ATOM     72  C   UNL A   1      46.708  33.079  29.685  1.00  0.00     0.031 A 
ATOM     73  C   UNL A   1      47.700  31.257  30.842  1.00  0.00     0.131 A 
ATOM     74  C   UNL A   1      47.822  33.075  28.807  1.00  0.00     0.055 A 
ATOM     75  C   UNL A   1      48.840  31.310  30.021  1.00  0.00     0.041 A 
ATOM     76  F   UNL A   1      47.716  30.194  31.654  1.00  0.00    -0.206 F 
ATOM     77  C   UNL A   1      48.905  32.220  28.990  1.00  0.00     0.022 A 
BRANCH  74  78
ATOM     78  S   UNL A   1      47.814  34.159  27.352  1.00  0.00     0.124 S 
ATOM     79  O   UNL A   1      49.174  34.688  27.362  1.00  0.00    -0.237 OA
ATOM     80  O   UNL A   1      47.483  33.231  26.277  1.00  0.00    -0.237 OA
ATOM     81  O   UNL A   1      46.774  35.140  27.661  1.00  0.00    -0.744 OA
ENDBRANCH  74  78
ENDBRANCH  57  71
BRANCH  58  82
ATOM     82  C   UNL A   1      37.337  33.280  34.248  1.00  0.00     0.023 A 
ATOM     83  C   UNL A   1      36.333  34.290  34.147  1.00  0.00     0.031 A 
ATOM     84  C   UNL A   1      37.018  32.037  33.686  1.00  0.00     0.131 A 
ATOM     85  C   UNL A   1      35.170  34.108  33.375  1.00  0.00     0.055 A 
ATOM     86  C   UNL A   1      35.808  31.829  32.983  1.00  0.00     0.041 A 
ATOM     87  F   UNL A   1      37.919  31.044  33.664  1.00  0.00    -0.206 F 
ATOM     88  C   UNL A   1      34.899  32.874  32.792  1.00  0.00     0.022 A 
BRANCH  85  89
ATOM     89  S   UNL A   1      34.160  35.553  32.901  1.00  0.00     0.124 S 
ATOM     90  O   UNL A   1      34.786  35.966  31.649  1.00  0.00    -0.237 OA
ATOM     91  O   UNL A   1      32.809  35.006  32.787  1.00  0.00    -0.237 OA
ATOM     92  O   UNL A   1      34.333  36.469  34.026  1.00  0.00    -0.744 OA
ENDBRANCH  85  89
ENDBRANCH  58  82
BRANCH  70  93
ATOM     93  C   UNL A   1      43.888  30.978  36.627  1.00  0.00     0.023 A 
ATOM     94  C   UNL A   1      43.827  29.630  36.277  1.00  0.00     0.031 A 
ATOM     95  C   UNL A   1      44.728  31.262  37.735  1.00  0.00     0.131 A 
ATOM     96  C   UNL A   1      44.387  28.633  37.081  1.00  0.00     0.055 A 
ATOM     97  C   UNL A   1      45.434  30.277  38.436  1.00  0.00     0.041 A 
ATOM     98  F   UNL A   1      44.924  32.504  38.197  1.00  0.00    -0.206 F 
ATOM     99  C   UNL A   1      45.228  28.942  38.140  1.00  0.00     0.022 A 
BRANCH  96 100
ATOM    100  S   UNL A   1      43.795  26.950  36.803  1.00  0.00     0.124 S 
ATOM    101  O   UNL A   1      44.557  26.204  37.805  1.00  0.00    -0.237 OA
ATOM    102  O   UNL A   1      42.366  27.071  37.071  1.00  0.00    -0.237 OA
ATOM    103  O   UNL A   1      44.166  26.681  35.418  1.00  0.00    -0.744 OA
ENDBRANCH  96 100
ENDBRANCH  70  93
ENDBRANCH  44  45
ENDBRANCH  37  39
ENDBRANCH  36  37
ENDBRANCH  35  36
ENDBRANCH  34  35
ENDBRANCH  33  34
ENDBRANCH  32  33
ENDBRANCH  31  32
ENDBRANCH   1  31
TORSDOF 26
ENDMDL
MODEL 2
REMARK VINA RESULT:      -9.6      3.374      5.515
REMARK SMILES Cc1c(NC(=S)NC(=O)CSc2ccc(Cl)cc2)cccc1C(=O)OCCOCCOCCOC(=O)c1ccc(-c2c3nc(c(-c4cc(S(=O)(=O)[O-])ccc4F)c4ccc([nH]4)c(-c4cc(S(=O)(=O)[O-])ccc4F)c4nc(c(-c5cc(S(=O)(=O)[O-])ccc5F)c5ccc2[nH]5)C=C4)C=C3)cc1
REMARK SMILES IDX 28 1 27 2 26 3 25 4 23 5 24 6 22 7 1 8 2 9 3 10 19 11 21 12
REMARK SMILES IDX 20 13 4 14 5 16 6 17 7 18 8 19 9 21 10 22 11 23 12 24 13 25
REMARK SMILES IDX 18 26 14 27 17 28 15 29 16 30 29 31 30 32 31 33 32 34 33 35
REMARK SMILES IDX 34 36 35 37 36 38 37 39 38 40 99 41 39 42 98 43 40 44 41 45
REMARK SMILES IDX 42 46 92 47 43 48 97 49 91 50 93 51 44 52 96 53 90 54 89 55
REMARK SMILES IDX 45 57 77 58 57 59 76 60 58 61 61 62 75 63 94 64 59 65 60 66
REMARK SMILES IDX 74 68 95 69 62 70 46 71 47 72 55 73 48 74 54 75 56 76 53 77
REMARK SMILES IDX 49 78 50 79 51 80 52 81 78 82 79 83 87 84 80 85 86 86 88 87
REMARK SMILES IDX 85 88 81 89 82 90 83 91 84 92 63 93 64 94 72 95 65 96 71 97
REMARK SMILES IDX 73 98 70 99 66 100 67 101 68 102 69 103
REMARK H PARENT 4 15 7 20 93 56 61 67
REMARK Flexibility Score: inf
ROOT
ATOM      1  O   UNL A   1      31.557  26.316  26.596  1.00  0.00    -0.376 OA
ENDROOT
BRANCH   1   2
ATOM      2  C   UNL A   1      31.814  24.898  26.544  1.00  0.00     0.202 C 
BRANCH   2   3
ATOM      3  C   UNL A   1      30.672  23.671  26.222  1.00  0.00     0.261 C 
BRANCH   3   4
ATOM      4  O   UNL A   1      30.937  22.059  25.660  1.00  0.00    -0.460 OA
BRANCH   4   5
ATOM      5  C   UNL A   1      32.021  21.242  25.161  1.00  0.00     0.338 C 
ATOM      6  O   UNL A   1      32.087  20.033  24.928  1.00  0.00    -0.246 OA
BRANCH   5   7
ATOM      7  C   UNL A   1      33.339  21.744  24.750  1.00  0.00     0.065 A 
ATOM      8  C   UNL A   1      32.306  22.174  22.543  1.00  0.00     0.047 C 
ATOM      9  C   UNL A   1      33.375  22.447  23.561  1.00  0.00    -0.013 A 
ATOM     10  C   UNL A   1      34.244  23.559  23.517  1.00  0.00     0.044 A 
ATOM     11  C   UNL A   1      35.317  23.688  24.404  1.00  0.00     0.026 A 
ATOM     12  C   UNL A   1      34.230  22.134  25.794  1.00  0.00     0.016 A 
ATOM     13  C   UNL A   1      35.305  22.976  25.584  1.00  0.00     0.003 A 
BRANCH  10  14
ATOM     14  N   UNL A   1      33.889  24.597  22.653  1.00  0.00    -0.332 N 
ATOM     15  H   UNL A   1      34.353  24.551  21.787  1.00  0.00     0.169 HD
BRANCH  14  16
ATOM     16  C   UNL A   1      33.058  25.643  22.741  1.00  0.00     0.177 C 
ATOM     17  S   UNL A   1      33.645  27.102  22.147  1.00  0.00    -0.040 S 
BRANCH  16  18
ATOM     18  N   UNL A   1      31.806  25.663  23.288  1.00  0.00    -0.302 N 
ATOM     19  C   UNL A   1      30.537  26.225  23.233  1.00  0.00     0.236 C 
ATOM     20  H   UNL A   1      31.802  25.010  24.025  1.00  0.00     0.172 HD
ATOM     21  O   UNL A   1      29.615  25.469  23.588  1.00  0.00    -0.274 OA
BRANCH  19  22
ATOM     22  C   UNL A   1      30.194  27.639  22.804  1.00  0.00     0.175 C 
BRANCH  22  23
ATOM     23  S   UNL A   1      29.906  28.842  24.118  1.00  0.00    -0.116 SA
BRANCH  23  24
ATOM     24  C   UNL A   1      29.147  30.127  23.126  1.00  0.00     0.008 A 
ATOM     25  C   UNL A   1      28.963  31.435  23.591  1.00  0.00     0.016 A 
ATOM     26  C   UNL A   1      28.777  29.803  21.816  1.00  0.00     0.016 A 
ATOM     27  C   UNL A   1      28.431  32.415  22.738  1.00  0.00     0.021 A 
ATOM     28  C   UNL A   1      28.250  30.778  20.969  1.00  0.00     0.021 A 
ATOM     29  C   UNL A   1      28.083  32.081  21.430  1.00  0.00     0.041 A 
ATOM     30  Cl  UNL A   1      27.448  33.264  20.357  1.00  0.00    -0.084 Cl
ENDBRANCH  23  24
ENDBRANCH  22  23
ENDBRANCH  19  22
ENDBRANCH  16  18
ENDBRANCH  14  16
ENDBRANCH  10  14
ENDBRANCH   5   7
ENDBRANCH   4   5
ENDBRANCH   3   4
ENDBRANCH   2   3
ENDBRANCH   1   2
BRANCH   1  31
ATOM     31  C   UNL A   1      32.476  27.371  26.971  1.00  0.00     0.188 C 
BRANCH  31  32
ATOM     32  C   UNL A   1      33.166  28.323  26.001  1.00  0.00     0.188 C 
BRANCH  32  33
ATOM     33  O   UNL A   1      32.329  29.423  25.707  1.00  0.00    -0.376 OA
BRANCH  33  34
ATOM     34  C   UNL A   1      32.344  30.487  26.634  1.00  0.00     0.202 C 
BRANCH  34  35
ATOM     35  C   UNL A   1      33.563  30.534  27.582  1.00  0.00     0.261 C 
BRANCH  35  36
ATOM     36  O   UNL A   1      34.329  31.771  27.530  1.00  0.00    -0.460 OA
BRANCH  36  37
ATOM     37  C   UNL A   1      34.693  32.383  28.717  1.00  0.00     0.338 C 
ATOM     38  O   UNL A   1      33.900  32.569  29.633  1.00  0.00    -0.246 OA
BRANCH  37  39
ATOM     39  C   UNL A   1      36.177  32.544  28.832  1.00  0.00     0.060 A 
ATOM     40  C   UNL A   1      37.184  31.636  29.193  1.00  0.00     0.016 A 
ATOM     41  C   UNL A   1      36.597  33.809  28.677  1.00  0.00     0.016 A 
ATOM     42  C   UNL A   1      38.561  32.074  29.523  1.00  0.00     0.010 A 
ATOM     43  C   UNL A   1      37.791  34.149  29.290  1.00  0.00     0.010 A 
ATOM     44  C   UNL A   1      38.946  33.416  29.594  1.00  0.00    -0.014 A 
BRANCH  44  45
ATOM     45  C   UNL A   1      40.367  34.100  30.091  1.00  0.00     0.031 A 
ATOM     46  C   UNL A   1      41.522  35.173  29.381  1.00  0.00     0.074 A 
ATOM     47  C   UNL A   1      40.668  33.763  31.363  1.00  0.00     0.049 A 
ATOM     48  N   UNL A   1      42.816  35.158  29.630  1.00  0.00    -0.248 NA
ATOM     49  C   UNL A   1      41.366  36.277  28.307  1.00  0.00     0.031 C 
ATOM     50  C   UNL A   1      41.673  34.302  32.267  1.00  0.00     0.029 A 
ATOM     51  N   UNL A   1      40.121  32.701  32.088  1.00  0.00    -0.354 N 
ATOM     52  C   UNL A   1      43.385  36.235  28.916  1.00  0.00     0.074 A 
ATOM     53  C   UNL A   1      42.573  36.466  27.808  1.00  0.00     0.031 C 
ATOM     54  C   UNL A   1      41.903  33.391  33.234  1.00  0.00     0.029 A 
ATOM     55  C   UNL A   1      41.149  32.196  32.880  1.00  0.00     0.049 A 
ATOM     56  H   UNL A   1      39.193  32.375  32.047  1.00  0.00     0.167 HD
ATOM     57  C   UNL A   1      44.279  37.126  29.434  1.00  0.00     0.034 A 
ATOM     58  C   UNL A   1      41.636  30.962  32.571  1.00  0.00     0.034 A 
ATOM     59  C   UNL A   1      44.885  36.490  30.567  1.00  0.00     0.049 A 
ATOM     60  C   UNL A   1      43.083  31.098  32.142  1.00  0.00     0.074 A 
ATOM     61  C   UNL A   1      44.680  36.532  31.928  1.00  0.00     0.029 A 
ATOM     62  N   UNL A   1      45.492  35.284  30.288  1.00  0.00    -0.354 N 
ATOM     63  N   UNL A   1      43.626  32.211  31.704  1.00  0.00    -0.248 NA
ATOM     64  C   UNL A   1      44.061  30.035  32.312  1.00  0.00     0.031 C 
ATOM     65  C   UNL A   1      44.982  35.215  32.416  1.00  0.00     0.029 A 
ATOM     66  C   UNL A   1      45.422  34.427  31.358  1.00  0.00     0.049 A 
ATOM     67  H   UNL A   1      45.922  35.065  29.429  1.00  0.00     0.167 HD
ATOM     68  C   UNL A   1      44.979  32.055  31.575  1.00  0.00     0.074 A 
ATOM     69  C   UNL A   1      45.197  30.674  31.984  1.00  0.00     0.031 C 
ATOM     70  C   UNL A   1      45.834  33.043  31.155  1.00  0.00     0.034 A 
BRANCH  57  71
ATOM     71  C   UNL A   1      44.520  38.575  28.960  1.00  0.00     0.023 A 
ATOM     72  C   UNL A   1      45.407  38.791  27.885  1.00  0.00     0.031 A 
ATOM     73  C   UNL A   1      44.022  39.780  29.542  1.00  0.00     0.131 A 
ATOM     74  C   UNL A   1      45.728  40.097  27.432  1.00  0.00     0.055 A 
ATOM     75  C   UNL A   1      44.278  41.067  29.038  1.00  0.00     0.041 A 
ATOM     76  F   UNL A   1      43.329  39.818  30.685  1.00  0.00    -0.206 F 
ATOM     77  C   UNL A   1      45.141  41.233  27.979  1.00  0.00     0.022 A 
BRANCH  74  78
ATOM     78  S   UNL A   1      46.998  40.310  26.154  1.00  0.00     0.124 S 
ATOM     79  O   UNL A   1      47.912  39.212  26.450  1.00  0.00    -0.237 OA
ATOM     80  O   UNL A   1      46.222  40.200  24.925  1.00  0.00    -0.237 OA
ATOM     81  O   UNL A   1      47.536  41.643  26.425  1.00  0.00    -0.744 OA
ENDBRANCH  74  78
ENDBRANCH  57  71
BRANCH  58  82
ATOM     82  C   UNL A   1      40.562  29.992  32.118  1.00  0.00     0.023 A 
ATOM     83  C   UNL A   1      40.583  29.593  30.747  1.00  0.00     0.031 A 
ATOM     84  C   UNL A   1      39.769  29.214  32.972  1.00  0.00     0.131 A 
ATOM     85  C   UNL A   1      39.991  28.392  30.311  1.00  0.00     0.055 A 
ATOM     86  C   UNL A   1      39.103  28.053  32.514  1.00  0.00     0.041 A 
ATOM     87  F   UNL A   1      39.738  29.459  34.289  1.00  0.00    -0.206 F 
ATOM     88  C   UNL A   1      39.244  27.617  31.192  1.00  0.00     0.022 A 
BRANCH  85  89
ATOM     89  S   UNL A   1      40.431  27.703  28.679  1.00  0.00     0.124 S 
ATOM     90  O   UNL A   1      40.250  26.271  28.893  1.00  0.00    -0.237 OA
ATOM     91  O   UNL A   1      39.478  28.337  27.770  1.00  0.00    -0.237 OA
ATOM     92  O   UNL A   1      41.811  28.143  28.488  1.00  0.00    -0.744 OA
ENDBRANCH  85  89
ENDBRANCH  58  82
BRANCH  70  93
ATOM     93  C   UNL A   1      47.161  32.744  30.464  1.00  0.00     0.023 A 
ATOM     94  C   UNL A   1      47.203  32.259  29.157  1.00  0.00     0.031 A 
ATOM     95  C   UNL A   1      48.434  33.015  31.032  1.00  0.00     0.131 A 
ATOM     96  C   UNL A   1      48.403  31.886  28.546  1.00  0.00     0.055 A 
ATOM     97  C   UNL A   1      49.638  32.808  30.352  1.00  0.00     0.041 A 
ATOM     98  F   UNL A   1      48.584  33.507  32.268  1.00  0.00    -0.206 F 
ATOM     99  C   UNL A   1      49.632  32.191  29.113  1.00  0.00     0.022 A 
BRANCH  96 100
ATOM    100  S   UNL A   1      48.270  30.809  27.103  1.00  0.00     0.124 S 
ATOM    101  O   UNL A   1      49.659  30.761  26.646  1.00  0.00    -0.237 OA
ATOM    102  O   UNL A   1      47.762  29.570  27.681  1.00  0.00    -0.237 OA
ATOM    103  O   UNL A   1      47.353  31.527  26.223  1.00  0.00    -0.744 OA
ENDBRANCH  96 100
ENDBRANCH  70  93
ENDBRANCH  44  45
ENDBRANCH  37  39
ENDBRANCH  36  37
ENDBRANCH  35  36
ENDBRANCH  34  35
ENDBRANCH  33  34
ENDBRANCH  32  33
ENDBRANCH  31  32
ENDBRANCH   1  31
TORSDOF 26
ENDMDL
MODEL 3
REMARK VINA RESULT:      -9.6      2.762      3.866
REMARK SMILES Cc1c(NC(=S)NC(=O)CSc2ccc(Cl)cc2)cccc1C(=O)OCCOCCOCCOC(=O)c1ccc(-c2c3nc(c(-c4cc(S(=O)(=O)[O-])ccc4F)c4ccc([nH]4)c(-c4cc(S(=O)(=O)[O-])ccc4F)c4nc(c(-c5cc(S(=O)(=O)[O-])ccc5F)c5ccc2[nH]5)C=C4)C=C3)cc1
REMARK SMILES IDX 28 1 27 2 26 3 25 4 23 5 24 6 22 7 1 8 2 9 3 10 19 11 21 12
REMARK SMILES IDX 20 13 4 14 5 16 6 17 7 18 8 19 9 21 10 22 11 23 12 24 13 25
REMARK SMILES IDX 18 26 14 27 17 28 15 29 16 30 29 31 30 32 31 33 32 34 33 35
REMARK SMILES IDX 34 36 35 37 36 38 37 39 38 40 99 41 39 42 98 43 40 44 41 45
REMARK SMILES IDX 42 46 92 47 43 48 97 49 91 50 93 51 44 52 96 53 90 54 89 55
REMARK SMILES IDX 45 57 77 58 57 59 76 60 58 61 61 62 75 63 94 64 59 65 60 66
REMARK SMILES IDX 74 68 95 69 62 70 46 71 47 72 55 73 48 74 54 75 56 76 53 77
REMARK SMILES IDX 49 78 50 79 51 80 52 81 78 82 79 83 87 84 80 85 86 86 88 87
REMARK SMILES IDX 85 88 81 89 82 90 83 91 84 92 63 93 64 94 72 95 65 96 71 97
REMARK SMILES IDX 73 98 70 99 66 100 67 101 68 102 69 103
REMARK H PARENT 4 15 7 20 93 56 61 67
REMARK Flexibility Score: inf
ROOT
ATOM      1  O   UNL A   1      32.787  26.224  26.129  1.00  0.00    -0.376 OA
ENDROOT
BRANCH   1   2
ATOM      2  C   UNL A   1      33.255  24.861  26.165  1.00  0.00     0.202 C 
BRANCH   2   3
ATOM      3  C   UNL A   1      32.499  23.549  26.953  1.00  0.00     0.261 C 
BRANCH   3   4
ATOM      4  O   UNL A   1      32.722  21.854  26.702  1.00  0.00    -0.460 OA
BRANCH   4   5
ATOM      5  C   UNL A   1      33.379  20.966  25.767  1.00  0.00     0.338 C 
ATOM      6  O   UNL A   1      33.474  19.738  25.743  1.00  0.00    -0.246 OA
BRANCH   5   7
ATOM      7  C   UNL A   1      34.065  21.390  24.539  1.00  0.00     0.065 A 
ATOM      8  C   UNL A   1      31.858  21.203  23.436  1.00  0.00     0.047 C 
ATOM      9  C   UNL A   1      33.250  21.764  23.488  1.00  0.00    -0.013 A 
ATOM     10  C   UNL A   1      33.692  22.855  22.710  1.00  0.00     0.044 A 
ATOM     11  C   UNL A   1      35.035  23.243  22.686  1.00  0.00     0.026 A 
ATOM     12  C   UNL A   1      35.312  22.064  24.701  1.00  0.00     0.016 A 
ATOM     13  C   UNL A   1      35.866  22.859  23.716  1.00  0.00     0.003 A 
BRANCH  10  14
ATOM     14  N   UNL A   1      32.704  23.624  22.090  1.00  0.00    -0.332 N 
ATOM     15  H   UNL A   1      32.182  23.116  21.429  1.00  0.00     0.169 HD
BRANCH  14  16
ATOM     16  C   UNL A   1      32.310  24.899  22.194  1.00  0.00     0.177 C 
ATOM     17  S   UNL A   1      32.935  25.959  21.049  1.00  0.00    -0.040 S 
BRANCH  16  18
ATOM     18  N   UNL A   1      31.488  25.437  23.144  1.00  0.00    -0.302 N 
ATOM     19  C   UNL A   1      30.719  26.534  23.508  1.00  0.00     0.236 C 
ATOM     20  H   UNL A   1      31.407  24.773  23.866  1.00  0.00     0.172 HD
ATOM     21  O   UNL A   1      29.721  26.266  24.201  1.00  0.00    -0.274 OA
BRANCH  19  22
ATOM     22  C   UNL A   1      30.991  27.984  23.157  1.00  0.00     0.175 C 
BRANCH  22  23
ATOM     23  S   UNL A   1      30.576  29.218  24.408  1.00  0.00    -0.116 SA
BRANCH  23  24
ATOM     24  C   UNL A   1      29.620  30.322  23.370  1.00  0.00     0.008 A 
ATOM     25  C   UNL A   1      29.230  31.603  23.782  1.00  0.00     0.016 A 
ATOM     26  C   UNL A   1      29.304  29.889  22.078  1.00  0.00     0.016 A 
ATOM     27  C   UNL A   1      28.546  32.448  22.895  1.00  0.00     0.021 A 
ATOM     28  C   UNL A   1      28.627  30.730  21.195  1.00  0.00     0.021 A 
ATOM     29  C   UNL A   1      28.254  32.008  21.604  1.00  0.00     0.041 A 
ATOM     30  Cl  UNL A   1      27.437  33.028  20.488  1.00  0.00    -0.084 Cl
ENDBRANCH  23  24
ENDBRANCH  22  23
ENDBRANCH  19  22
ENDBRANCH  16  18
ENDBRANCH  14  16
ENDBRANCH  10  14
ENDBRANCH   5   7
ENDBRANCH   4   5
ENDBRANCH   3   4
ENDBRANCH   2   3
ENDBRANCH   1   2
BRANCH   1  31
ATOM     31  C   UNL A   1      33.582  27.435  26.109  1.00  0.00     0.188 C 
BRANCH  31  32
ATOM     32  C   UNL A   1      33.259  28.712  26.875  1.00  0.00     0.188 C 
BRANCH  32  33
ATOM     33  O   UNL A   1      34.347  29.089  27.693  1.00  0.00    -0.376 OA
BRANCH  33  34
ATOM     34  C   UNL A   1      34.874  30.380  27.481  1.00  0.00     0.202 C 
BRANCH  34  35
ATOM     35  C   UNL A   1      34.275  31.502  28.357  1.00  0.00     0.261 C 
BRANCH  35  36
ATOM     36  O   UNL A   1      35.067  31.850  29.528  1.00  0.00    -0.460 OA
BRANCH  36  37
ATOM     37  C   UNL A   1      35.619  33.117  29.610  1.00  0.00     0.338 C 
ATOM     38  O   UNL A   1      34.955  34.110  29.882  1.00  0.00    -0.246 OA
BRANCH  37  39
ATOM     39  C   UNL A   1      37.115  33.079  29.581  1.00  0.00     0.060 A 
ATOM     40  C   UNL A   1      38.026  32.080  29.955  1.00  0.00     0.016 A 
ATOM     41  C   UNL A   1      37.679  34.250  29.249  1.00  0.00     0.016 A 
ATOM     42  C   UNL A   1      39.475  32.351  30.116  1.00  0.00     0.010 A 
ATOM     43  C   UNL A   1      38.963  34.479  29.716  1.00  0.00     0.010 A 
ATOM     44  C   UNL A   1      40.036  33.626  30.003  1.00  0.00    -0.014 A 
BRANCH  44  45
ATOM     45  C   UNL A   1      41.577  34.149  30.297  1.00  0.00     0.031 A 
ATOM     46  C   UNL A   1      43.018  34.299  29.356  1.00  0.00     0.074 A 
ATOM     47  C   UNL A   1      41.721  34.597  31.563  1.00  0.00     0.049 A 
ATOM     48  N   UNL A   1      44.242  34.164  29.826  1.00  0.00    -0.248 NA
ATOM     49  C   UNL A   1      43.230  34.531  27.840  1.00  0.00     0.031 C 
ATOM     50  C   UNL A   1      42.807  35.344  32.179  1.00  0.00     0.029 A 
ATOM     51  N   UNL A   1      40.862  34.336  32.634  1.00  0.00    -0.354 N 
ATOM     52  C   UNL A   1      45.126  34.438  28.759  1.00  0.00     0.074 A 
ATOM     53  C   UNL A   1      44.456  34.117  27.581  1.00  0.00     0.031 C 
ATOM     54  C   UNL A   1      42.726  35.180  33.515  1.00  0.00     0.029 A 
ATOM     55  C   UNL A   1      41.670  34.209  33.762  1.00  0.00     0.049 A 
ATOM     56  H   UNL A   1      39.882  34.258  32.599  1.00  0.00     0.167 HD
ATOM     57  C   UNL A   1      46.222  35.246  28.845  1.00  0.00     0.034 A 
ATOM     58  C   UNL A   1      41.785  32.971  34.319  1.00  0.00     0.034 A 
ATOM     59  C   UNL A   1      46.576  35.314  30.233  1.00  0.00     0.049 A 
ATOM     60  C   UNL A   1      43.224  32.509  34.195  1.00  0.00     0.074 A 
ATOM     61  C   UNL A   1      46.343  36.213  31.250  1.00  0.00     0.029 A 
ATOM     62  N   UNL A   1      46.814  34.091  30.823  1.00  0.00    -0.354 N 
ATOM     63  N   UNL A   1      44.083  32.984  33.323  1.00  0.00    -0.248 NA
ATOM     64  C   UNL A   1      43.842  31.589  35.136  1.00  0.00     0.031 C 
ATOM     65  C   UNL A   1      46.231  35.433  32.451  1.00  0.00     0.029 A 
ATOM     66  C   UNL A   1      46.459  34.095  32.149  1.00  0.00     0.049 A 
ATOM     67  H   UNL A   1      47.192  33.312  30.352  1.00  0.00     0.167 HD
ATOM     68  C   UNL A   1      45.335  32.499  33.584  1.00  0.00     0.074 A 
ATOM     69  C   UNL A   1      45.126  31.640  34.742  1.00  0.00     0.031 C 
ATOM     70  C   UNL A   1      46.456  32.822  32.861  1.00  0.00     0.034 A 
BRANCH  57  71
ATOM     71  C   UNL A   1      46.892  36.020  27.691  1.00  0.00     0.023 A 
ATOM     72  C   UNL A   1      46.454  37.332  27.416  1.00  0.00     0.031 A 
ATOM     73  C   UNL A   1      47.868  35.538  26.766  1.00  0.00     0.131 A 
ATOM     74  C   UNL A   1      46.978  38.083  26.333  1.00  0.00     0.055 A 
ATOM     75  C   UNL A   1      48.443  36.314  25.745  1.00  0.00     0.041 A 
ATOM     76  F   UNL A   1      48.276  34.264  26.717  1.00  0.00    -0.206 F 
ATOM     77  C   UNL A   1      47.994  37.596  25.518  1.00  0.00     0.022 A 
BRANCH  74  78
ATOM     78  S   UNL A   1      46.255  39.700  25.938  1.00  0.00     0.124 S 
ATOM     79  O   UNL A   1      46.889  40.564  26.927  1.00  0.00    -0.237 OA
ATOM     80  O   UNL A   1      46.661  39.890  24.550  1.00  0.00    -0.237 OA
ATOM     81  O   UNL A   1      44.821  39.492  26.137  1.00  0.00    -0.744 OA
ENDBRANCH  74  78
ENDBRANCH  57  71
BRANCH  58  82
ATOM     82  C   UNL A   1      40.492  32.180  34.294  1.00  0.00     0.023 A 
ATOM     83  C   UNL A   1      39.330  32.819  34.823  1.00  0.00     0.031 A 
ATOM     84  C   UNL A   1      40.265  31.034  33.520  1.00  0.00     0.131 A 
ATOM     85  C   UNL A   1      38.030  32.431  34.446  1.00  0.00     0.055 A 
ATOM     86  C   UNL A   1      38.956  30.594  33.212  1.00  0.00     0.041 A 
ATOM     87  F   UNL A   1      41.282  30.403  32.917  1.00  0.00    -0.206 F 
ATOM     88  C   UNL A   1      37.836  31.313  33.641  1.00  0.00     0.022 A 
BRANCH  85  89
ATOM     89  S   UNL A   1      36.619  33.544  34.771  1.00  0.00     0.124 S 
ATOM     90  O   UNL A   1      36.489  33.455  36.222  1.00  0.00    -0.237 OA
ATOM     91  O   UNL A   1      37.071  34.832  34.249  1.00  0.00    -0.237 OA
ATOM     92  O   UNL A   1      35.532  32.943  34.001  1.00  0.00    -0.744 OA
ENDBRANCH  85  89
ENDBRANCH  58  82
BRANCH  70  93
ATOM     93  C   UNL A   1      47.662  31.893  32.752  1.00  0.00     0.023 A 
ATOM     94  C   UNL A   1      47.785  30.990  31.696  1.00  0.00     0.031 A 
ATOM     95  C   UNL A   1      48.777  31.930  33.629  1.00  0.00     0.131 A 
ATOM     96  C   UNL A   1      48.831  30.064  31.636  1.00  0.00     0.055 A 
ATOM     97  C   UNL A   1      49.909  31.124  33.466  1.00  0.00     0.041 A 
ATOM     98  F   UNL A   1      48.841  32.753  34.683  1.00  0.00    -0.206 F 
ATOM     99  C   UNL A   1      49.921  30.144  32.490  1.00  0.00     0.022 A 
BRANCH  96 100
ATOM    100  S   UNL A   1      48.588  28.648  30.544  1.00  0.00     0.124 S 
ATOM    101  O   UNL A   1      49.699  28.809  29.606  1.00  0.00    -0.237 OA
ATOM    102  O   UNL A   1      48.706  27.519  31.460  1.00  0.00    -0.237 OA
ATOM    103  O   UNL A   1      47.262  28.875  29.977  1.00  0.00    -0.744 OA
ENDBRANCH  96 100
ENDBRANCH  70  93
ENDBRANCH  44  45
ENDBRANCH  37  39
ENDBRANCH  36  37
ENDBRANCH  35  36
ENDBRANCH  34  35
ENDBRANCH  33  34
ENDBRANCH  32  33
ENDBRANCH  31  32
ENDBRANCH   1  31
TORSDOF 26
ENDMDL
