MODEL 1
REMARK VINA RESULT:      -8.9      0.000      0.000
REMARK SMILES COc1cc(/C=C/C(=O)OCCOCCOCCOC(=O)c2ccc(-c3c4nc(c(-c5cc(S(=O)(=O)[O-])ccc5F)c5ccc([nH]5)c(-c5cc(S(=O)(=O)[O-])ccc5F)c5nc(c(-c6cc(S(=O)(=O)[O-])ccc6F)c6ccc3[nH]6)C=C5)C=C4)cc2)cc(S(=O)(=O)Nc2ccc3c(c2)OCCO3)c1OC
REMARK SMILES IDX 14 1 13 2 12 3 11 4 10 5 8 6 9 7 7 8 6 9 5 10 3 11 4 12
REMARK SMILES IDX 101 13 86 14 85 15 2 16 1 17 102 18 103 19 87 20 88 21 89 22
REMARK SMILES IDX 90 23 91 25 92 26 96 27 93 28 95 29 94 30 97 31 100 32 98 33
REMARK SMILES IDX 99 34 15 35 16 36 17 37 18 38 19 39 20 40 21 41 22 42 23 43
REMARK SMILES IDX 84 44 24 45 83 46 25 47 26 48 27 49 77 50 28 51 82 52 76 53
REMARK SMILES IDX 78 54 29 55 81 56 75 57 74 58 30 60 62 61 42 62 61 63 43 64
REMARK SMILES IDX 46 65 60 66 79 67 44 68 45 69 59 71 80 72 47 73 31 74 32 75
REMARK SMILES IDX 40 76 33 77 39 78 41 79 38 80 34 81 35 82 36 83 37 84 63 85
REMARK SMILES IDX 64 86 72 87 65 88 71 89 73 90 70 91 66 92 67 93 68 94 69 95
REMARK SMILES IDX 48 96 49 97 57 98 50 99 56 100 58 101 55 102 51 103 52 104
REMARK SMILES IDX 53 105 54 106
REMARK H PARENT 90 24 78 59 46 70
REMARK Flexibility Score: inf
ROOT
ATOM      1  C   UNL A   1      43.516  24.752  25.046  1.00  0.00     0.188 C 
ENDROOT
BRANCH   1   2
ATOM      2  O   UNL A   1      42.494  23.923  25.566  1.00  0.00    -0.376 OA
BRANCH   2   3
ATOM      3  C   UNL A   1      42.200  23.909  26.955  1.00  0.00     0.202 C 
BRANCH   3   4
ATOM      4  C   UNL A   1      40.949  23.268  27.602  1.00  0.00     0.261 C 
BRANCH   4   5
ATOM      5  O   UNL A   1      39.706  23.322  26.895  1.00  0.00    -0.460 OA
BRANCH   5   6
ATOM      6  C   UNL A   1      39.358  22.194  26.238  1.00  0.00     0.330 C 
ATOM      7  O   UNL A   1      40.084  21.236  26.022  1.00  0.00    -0.247 OA
BRANCH   6   8
ATOM      8  C   UNL A   1      37.918  22.164  25.895  1.00  0.00     0.094 C 
ATOM      9  C   UNL A   1      37.341  21.700  24.770  1.00  0.00     0.016 C 
BRANCH   9  10
ATOM     10  C   UNL A   1      35.876  21.729  24.557  1.00  0.00    -0.020 A 
ATOM     11  C   UNL A   1      33.694  20.552  24.681  1.00  0.00     0.162 A 
ATOM     12  C   UNL A   1      35.048  20.727  25.057  1.00  0.00     0.058 A 
ATOM     13  C   UNL A   1      33.111  21.492  23.813  1.00  0.00     0.181 A 
ATOM     14  C   UNL A   1      33.883  22.638  23.478  1.00  0.00     0.134 A 
ATOM     15  C   UNL A   1      35.256  22.734  23.829  1.00  0.00     0.034 A 
BRANCH  11  16
ATOM     16  O   UNL A   1      33.326  19.358  25.215  1.00  0.00    -0.493 OA
ATOM     17  C   UNL A   1      32.935  18.157  24.596  1.00  0.00     0.278 C 
ENDBRANCH  11  16
BRANCH  13  18
ATOM     18  O   UNL A   1      31.939  21.439  23.130  1.00  0.00    -0.492 OA
ATOM     19  C   UNL A   1      31.783  20.710  21.937  1.00  0.00     0.278 C 
ENDBRANCH  13  18
BRANCH  14  20
ATOM     20  S   UNL A   1      33.300  24.038  22.500  1.00  0.00     0.265 S 
ATOM     21  O   UNL A   1      33.926  25.215  23.076  1.00  0.00    -0.201 OA
ATOM     22  O   UNL A   1      33.562  23.697  21.114  1.00  0.00    -0.201 OA
BRANCH  20  23
ATOM     23  N   UNL A   1      31.626  24.283  22.588  1.00  0.00    -0.279 N 
ATOM     24  H   UNL A   1      31.048  23.900  21.890  1.00  0.00     0.180 HD
BRANCH  23  25
ATOM     25  C   UNL A   1      31.035  25.029  23.646  1.00  0.00     0.053 A 
ATOM     26  C   UNL A   1      30.770  24.351  24.845  1.00  0.00     0.031 A 
ATOM     27  C   UNL A   1      30.876  26.405  23.566  1.00  0.00     0.077 A 
ATOM     28  C   UNL A   1      30.667  25.072  26.032  1.00  0.00     0.052 A 
ATOM     29  C   UNL A   1      30.852  27.121  24.750  1.00  0.00     0.163 A 
ATOM     30  C   UNL A   1      30.842  26.448  25.976  1.00  0.00     0.161 A 
ATOM     31  O   UNL A   1      31.030  28.474  24.638  1.00  0.00    -0.486 OA
ATOM     32  O   UNL A   1      31.201  27.095  27.132  1.00  0.00    -0.486 OA
ATOM     33  C   UNL A   1      31.637  29.066  25.797  1.00  0.00     0.271 C 
ATOM     34  C   UNL A   1      32.219  28.041  26.759  1.00  0.00     0.271 C 
ENDBRANCH  23  25
ENDBRANCH  20  23
ENDBRANCH  14  20
ENDBRANCH   9  10
ENDBRANCH   6   8
ENDBRANCH   5   6
ENDBRANCH   4   5
ENDBRANCH   3   4
ENDBRANCH   2   3
ENDBRANCH   1   2
BRANCH   1  35
ATOM     35  C   UNL A   1      44.916  24.141  24.877  1.00  0.00     0.188 C 
BRANCH  35  36
ATOM     36  O   UNL A   1      45.920  25.125  24.693  1.00  0.00    -0.376 OA
BRANCH  36  37
ATOM     37  C   UNL A   1      46.200  25.932  25.829  1.00  0.00     0.202 C 
BRANCH  37  38
ATOM     38  C   UNL A   1      47.003  25.315  26.994  1.00  0.00     0.261 C 
BRANCH  38  39
ATOM     39  O   UNL A   1      47.279  26.156  28.129  1.00  0.00    -0.460 OA
BRANCH  39  40
ATOM     40  C   UNL A   1      46.290  26.345  29.030  1.00  0.00     0.338 C 
ATOM     41  O   UNL A   1      45.698  25.473  29.651  1.00  0.00    -0.246 OA
BRANCH  40  42
ATOM     42  C   UNL A   1      46.174  27.798  29.293  1.00  0.00     0.060 A 
ATOM     43  C   UNL A   1      46.978  28.375  30.285  1.00  0.00     0.016 A 
ATOM     44  C   UNL A   1      45.283  28.592  28.566  1.00  0.00     0.016 A 
ATOM     45  C   UNL A   1      46.872  29.740  30.567  1.00  0.00     0.010 A 
ATOM     46  C   UNL A   1      45.170  29.958  28.860  1.00  0.00     0.010 A 
ATOM     47  C   UNL A   1      45.943  30.538  29.882  1.00  0.00    -0.014 A 
BRANCH  47  48
ATOM     48  C   UNL A   1      45.702  31.935  30.339  1.00  0.00     0.031 A 
ATOM     49  C   UNL A   1      46.420  33.068  29.649  1.00  0.00     0.074 A 
ATOM     50  C   UNL A   1      44.812  32.205  31.311  1.00  0.00     0.049 A 
ATOM     51  N   UNL A   1      46.319  34.359  29.842  1.00  0.00    -0.248 NA
ATOM     52  C   UNL A   1      47.379  32.688  28.603  1.00  0.00     0.031 C 
ATOM     53  C   UNL A   1      44.034  31.205  32.040  1.00  0.00     0.029 A 
ATOM     54  N   UNL A   1      44.406  33.403  31.848  1.00  0.00    -0.354 N 
ATOM     55  C   UNL A   1      47.198  34.948  28.938  1.00  0.00     0.074 A 
ATOM     56  C   UNL A   1      47.859  33.866  28.236  1.00  0.00     0.031 C 
ATOM     57  C   UNL A   1      43.233  31.832  32.920  1.00  0.00     0.029 A 
ATOM     58  C   UNL A   1      43.464  33.274  32.843  1.00  0.00     0.049 A 
ATOM     59  H   UNL A   1      44.754  34.273  31.547  1.00  0.00     0.167 HD
ATOM     60  C   UNL A   1      47.423  36.266  28.703  1.00  0.00     0.034 A 
ATOM     61  C   UNL A   1      42.866  34.207  33.613  1.00  0.00     0.034 A 
ATOM     62  C   UNL A   1      46.777  37.336  29.427  1.00  0.00     0.049 A 
ATOM     63  C   UNL A   1      43.196  35.664  33.394  1.00  0.00     0.074 A 
ATOM     64  C   UNL A   1      46.923  38.703  29.258  1.00  0.00     0.029 A 
ATOM     65  N   UNL A   1      45.879  37.165  30.474  1.00  0.00    -0.354 N 
ATOM     66  N   UNL A   1      44.005  36.209  32.514  1.00  0.00    -0.248 NA
ATOM     67  C   UNL A   1      42.514  36.632  34.262  1.00  0.00     0.031 C 
ATOM     68  C   UNL A   1      46.184  39.352  30.254  1.00  0.00     0.029 A 
ATOM     69  C   UNL A   1      45.495  38.397  30.983  1.00  0.00     0.049 A 
ATOM     70  H   UNL A   1      45.560  36.294  30.806  1.00  0.00     0.167 HD
ATOM     71  C   UNL A   1      43.903  37.586  32.705  1.00  0.00     0.074 A 
ATOM     72  C   UNL A   1      42.938  37.785  33.765  1.00  0.00     0.031 C 
ATOM     73  C   UNL A   1      44.548  38.594  32.058  1.00  0.00     0.034 A 
BRANCH  60  74
ATOM     74  C   UNL A   1      48.453  36.615  27.651  1.00  0.00     0.023 A 
ATOM     75  C   UNL A   1      49.798  36.861  27.984  1.00  0.00     0.031 A 
ATOM     76  C   UNL A   1      48.080  36.740  26.301  1.00  0.00     0.131 A 
ATOM     77  C   UNL A   1      50.696  37.301  26.999  1.00  0.00     0.055 A 
ATOM     78  C   UNL A   1      49.000  37.089  25.311  1.00  0.00     0.041 A 
ATOM     79  F   UNL A   1      46.808  36.542  25.923  1.00  0.00    -0.206 F 
ATOM     80  C   UNL A   1      50.313  37.391  25.659  1.00  0.00     0.022 A 
BRANCH  77  81
ATOM     81  S   UNL A   1      52.320  37.919  27.522  1.00  0.00     0.124 S 
ATOM     82  O   UNL A   1      52.588  38.935  26.507  1.00  0.00    -0.237 OA
ATOM     83  O   UNL A   1      52.049  38.415  28.866  1.00  0.00    -0.237 OA
ATOM     84  O   UNL A   1      53.175  36.736  27.451  1.00  0.00    -0.744 OA
ENDBRANCH  77  81
ENDBRANCH  60  74
BRANCH  61  85
ATOM     85  C   UNL A   1      41.904  33.801  34.680  1.00  0.00     0.023 A 
ATOM     86  C   UNL A   1      40.551  33.563  34.390  1.00  0.00     0.031 A 
ATOM     87  C   UNL A   1      42.318  33.695  36.021  1.00  0.00     0.131 A 
ATOM     88  C   UNL A   1      39.652  33.271  35.428  1.00  0.00     0.055 A 
ATOM     89  C   UNL A   1      41.432  33.349  37.042  1.00  0.00     0.041 A 
ATOM     90  F   UNL A   1      43.599  33.920  36.354  1.00  0.00    -0.206 F 
ATOM     91  C   UNL A   1      40.088  33.146  36.750  1.00  0.00     0.022 A 
BRANCH  88  92
ATOM     92  S   UNL A   1      37.886  33.132  35.038  1.00  0.00     0.124 S 
ATOM     93  O   UNL A   1      37.433  32.179  36.045  1.00  0.00    -0.237 OA
ATOM     94  O   UNL A   1      37.430  34.507  35.206  1.00  0.00    -0.237 OA
ATOM     95  O   UNL A   1      37.880  32.639  33.662  1.00  0.00    -0.744 OA
ENDBRANCH  88  92
ENDBRANCH  61  85
BRANCH  73  96
ATOM     96  C   UNL A   1      44.185  40.009  32.456  1.00  0.00     0.023 A 
ATOM     97  C   UNL A   1      44.781  40.648  33.558  1.00  0.00     0.031 A 
ATOM     98  C   UNL A   1      43.196  40.716  31.748  1.00  0.00     0.131 A 
ATOM     99  C   UNL A   1      44.324  41.910  33.971  1.00  0.00     0.055 A 
ATOM    100  C   UNL A   1      42.803  42.004  32.112  1.00  0.00     0.041 A 
ATOM    101  F   UNL A   1      42.585  40.160  30.689  1.00  0.00    -0.206 F 
ATOM    102  C   UNL A   1      43.354  42.602  33.242  1.00  0.00     0.022 A 
BRANCH  99 103
ATOM    103  S   UNL A   1      44.910  42.572  35.555  1.00  0.00     0.124 S 
ATOM    104  O   UNL A   1      43.717  42.460  36.388  1.00  0.00    -0.237 OA
ATOM    105  O   UNL A   1      46.006  41.667  35.885  1.00  0.00    -0.237 OA
ATOM    106  O   UNL A   1      45.311  43.939  35.228  1.00  0.00    -0.744 OA
ENDBRANCH  99 103
ENDBRANCH  73  96
ENDBRANCH  47  48
ENDBRANCH  40  42
ENDBRANCH  39  40
ENDBRANCH  38  39
ENDBRANCH  37  38
ENDBRANCH  36  37
ENDBRANCH  35  36
ENDBRANCH   1  35
TORSDOF 26
ENDMDL
MODEL 2
REMARK VINA RESULT:      -8.1      1.613      1.922
REMARK SMILES COc1cc(/C=C/C(=O)OCCOCCOCCOC(=O)c2ccc(-c3c4nc(c(-c5cc(S(=O)(=O)[O-])ccc5F)c5ccc([nH]5)c(-c5cc(S(=O)(=O)[O-])ccc5F)c5nc(c(-c6cc(S(=O)(=O)[O-])ccc6F)c6ccc3[nH]6)C=C5)C=C4)cc2)cc(S(=O)(=O)Nc2ccc3c(c2)OCCO3)c1OC
REMARK SMILES IDX 14 1 13 2 12 3 11 4 10 5 8 6 9 7 7 8 6 9 5 10 3 11 4 12
REMARK SMILES IDX 101 13 86 14 85 15 2 16 1 17 102 18 103 19 87 20 88 21 89 22
REMARK SMILES IDX 90 23 91 25 92 26 96 27 93 28 95 29 94 30 97 31 100 32 98 33
REMARK SMILES IDX 99 34 15 35 16 36 17 37 18 38 19 39 20 40 21 41 22 42 23 43
REMARK SMILES IDX 84 44 24 45 83 46 25 47 26 48 27 49 77 50 28 51 82 52 76 53
REMARK SMILES IDX 78 54 29 55 81 56 75 57 74 58 30 60 62 61 42 62 61 63 43 64
REMARK SMILES IDX 46 65 60 66 79 67 44 68 45 69 59 71 80 72 47 73 31 74 32 75
REMARK SMILES IDX 40 76 33 77 39 78 41 79 38 80 34 81 35 82 36 83 37 84 63 85
REMARK SMILES IDX 64 86 72 87 65 88 71 89 73 90 70 91 66 92 67 93 68 94 69 95
REMARK SMILES IDX 48 96 49 97 57 98 50 99 56 100 58 101 55 102 51 103 52 104
REMARK SMILES IDX 53 105 54 106
REMARK H PARENT 90 24 78 59 46 70
REMARK Flexibility Score: inf
ROOT
ATOM      1  C   UNL A   1      43.545  24.967  25.692  1.00  0.00     0.188 C 
ENDROOT
BRANCH   1   2
ATOM      2  O   UNL A   1      42.479  24.225  26.254  1.00  0.00    -0.376 OA
BRANCH   2   3
ATOM      3  C   UNL A   1      41.718  24.744  27.334  1.00  0.00     0.202 C 
BRANCH   3   4
ATOM      4  C   UNL A   1      40.291  24.292  27.727  1.00  0.00     0.261 C 
BRANCH   4   5
ATOM      5  O   UNL A   1      39.297  24.191  26.702  1.00  0.00    -0.460 OA
BRANCH   5   6
ATOM      6  C   UNL A   1      38.994  22.937  26.302  1.00  0.00     0.330 C 
ATOM      7  O   UNL A   1      39.727  21.962  26.381  1.00  0.00    -0.247 OA
BRANCH   6   8
ATOM      8  C   UNL A   1      37.588  22.811  25.857  1.00  0.00     0.094 C 
ATOM      9  C   UNL A   1      37.050  21.870  25.057  1.00  0.00     0.016 C 
BRANCH   9  10
ATOM     10  C   UNL A   1      35.616  21.863  24.691  1.00  0.00    -0.020 A 
ATOM     11  C   UNL A   1      33.461  20.635  24.592  1.00  0.00     0.162 A 
ATOM     12  C   UNL A   1      34.764  20.844  25.107  1.00  0.00     0.058 A 
ATOM     13  C   UNL A   1      32.951  21.557  23.660  1.00  0.00     0.181 A 
ATOM     14  C   UNL A   1      33.727  22.720  23.401  1.00  0.00     0.134 A 
ATOM     15  C   UNL A   1      35.054  22.850  23.893  1.00  0.00     0.034 A 
BRANCH  11  16
ATOM     16  O   UNL A   1      33.066  19.435  25.092  1.00  0.00    -0.493 OA
ATOM     17  C   UNL A   1      33.238  18.132  24.594  1.00  0.00     0.278 C 
ENDBRANCH  11  16
BRANCH  13  18
ATOM     18  O   UNL A   1      31.860  21.473  22.858  1.00  0.00    -0.492 OA
ATOM     19  C   UNL A   1      31.805  20.636  21.728  1.00  0.00     0.278 C 
ENDBRANCH  13  18
BRANCH  14  20
ATOM     20  S   UNL A   1      33.219  24.101  22.357  1.00  0.00     0.265 S 
ATOM     21  O   UNL A   1      33.917  25.267  22.870  1.00  0.00    -0.201 OA
ATOM     22  O   UNL A   1      33.449  23.676  20.988  1.00  0.00    -0.201 OA
BRANCH  20  23
ATOM     23  N   UNL A   1      31.563  24.447  22.441  1.00  0.00    -0.279 N 
ATOM     24  H   UNL A   1      30.975  24.158  21.707  1.00  0.00     0.180 HD
BRANCH  23  25
ATOM     25  C   UNL A   1      31.001  25.144  23.546  1.00  0.00     0.053 A 
ATOM     26  C   UNL A   1      30.723  24.403  24.704  1.00  0.00     0.031 A 
ATOM     27  C   UNL A   1      30.883  26.527  23.551  1.00  0.00     0.077 A 
ATOM     28  C   UNL A   1      30.648  25.054  25.933  1.00  0.00     0.052 A 
ATOM     29  C   UNL A   1      30.887  27.171  24.776  1.00  0.00     0.163 A 
ATOM     30  C   UNL A   1      30.865  26.425  25.959  1.00  0.00     0.161 A 
ATOM     31  O   UNL A   1      31.105  28.521  24.744  1.00  0.00    -0.486 OA
ATOM     32  O   UNL A   1      31.250  26.989  27.149  1.00  0.00    -0.486 OA
ATOM     33  C   UNL A   1      31.737  29.024  25.933  1.00  0.00     0.271 C 
ATOM     34  C   UNL A   1      32.293  27.926  26.826  1.00  0.00     0.271 C 
ENDBRANCH  23  25
ENDBRANCH  20  23
ENDBRANCH  14  20
ENDBRANCH   9  10
ENDBRANCH   6   8
ENDBRANCH   5   6
ENDBRANCH   4   5
ENDBRANCH   3   4
ENDBRANCH   2   3
ENDBRANCH   1   2
BRANCH   1  35
ATOM     35  C   UNL A   1      44.964  24.388  25.817  1.00  0.00     0.188 C 
BRANCH  35  36
ATOM     36  O   UNL A   1      45.934  25.384  26.095  1.00  0.00    -0.376 OA
BRANCH  36  37
ATOM     37  C   UNL A   1      45.941  25.875  27.428  1.00  0.00     0.202 C 
BRANCH  37  38
ATOM     38  C   UNL A   1      46.589  25.012  28.530  1.00  0.00     0.261 C 
BRANCH  38  39
ATOM     39  O   UNL A   1      46.880  25.649  29.788  1.00  0.00    -0.460 OA
BRANCH  39  40
ATOM     40  C   UNL A   1      45.851  25.883  30.631  1.00  0.00     0.338 C 
ATOM     41  O   UNL A   1      45.166  25.038  31.192  1.00  0.00    -0.246 OA
BRANCH  40  42
ATOM     42  C   UNL A   1      45.813  27.333  30.924  1.00  0.00     0.060 A 
ATOM     43  C   UNL A   1      46.330  27.795  32.142  1.00  0.00     0.016 A 
ATOM     44  C   UNL A   1      45.274  28.240  30.007  1.00  0.00     0.016 A 
ATOM     45  C   UNL A   1      46.286  29.157  32.453  1.00  0.00     0.010 A 
ATOM     46  C   UNL A   1      45.220  29.604  30.327  1.00  0.00     0.010 A 
ATOM     47  C   UNL A   1      45.699  30.070  31.563  1.00  0.00    -0.014 A 
BRANCH  47  48
ATOM     48  C   UNL A   1      45.478  31.477  32.002  1.00  0.00     0.031 A 
ATOM     49  C   UNL A   1      46.482  32.533  31.616  1.00  0.00     0.074 A 
ATOM     50  C   UNL A   1      44.369  31.828  32.679  1.00  0.00     0.049 A 
ATOM     51  N   UNL A   1      46.461  33.823  31.839  1.00  0.00    -0.248 NA
ATOM     52  C   UNL A   1      47.666  32.067  30.883  1.00  0.00     0.031 C 
ATOM     53  C   UNL A   1      43.309  30.908  33.091  1.00  0.00     0.029 A 
ATOM     54  N   UNL A   1      43.945  33.053  33.133  1.00  0.00    -0.354 N 
ATOM     55  C   UNL A   1      47.627  34.325  31.268  1.00  0.00     0.074 A 
ATOM     56  C   UNL A   1      48.353  33.190  30.738  1.00  0.00     0.031 C 
ATOM     57  C   UNL A   1      42.350  31.605  33.725  1.00  0.00     0.029 A 
ATOM     58  C   UNL A   1      42.740  33.013  33.796  1.00  0.00     0.049 A 
ATOM     59  H   UNL A   1      44.456  33.884  32.996  1.00  0.00     0.167 HD
ATOM     60  C   UNL A   1      48.047  35.614  31.180  1.00  0.00     0.034 A 
ATOM     61  C   UNL A   1      42.038  33.993  34.402  1.00  0.00     0.034 A 
ATOM     62  C   UNL A   1      47.326  36.737  31.735  1.00  0.00     0.049 A 
ATOM     63  C   UNL A   1      42.567  35.407  34.367  1.00  0.00     0.074 A 
ATOM     64  C   UNL A   1      47.656  38.081  31.690  1.00  0.00     0.029 A 
ATOM     65  N   UNL A   1      46.143  36.648  32.458  1.00  0.00    -0.354 N 
ATOM     66  N   UNL A   1      43.655  35.873  33.797  1.00  0.00    -0.248 NA
ATOM     67  C   UNL A   1      41.759  36.429  35.044  1.00  0.00     0.031 C 
ATOM     68  C   UNL A   1      46.724  38.791  32.454  1.00  0.00     0.029 A 
ATOM     69  C   UNL A   1      45.752  37.906  32.895  1.00  0.00     0.049 A 
ATOM     70  H   UNL A   1      45.651  35.813  32.634  1.00  0.00     0.167 HD
ATOM     71  C   UNL A   1      43.642  37.249  34.022  1.00  0.00     0.074 A 
ATOM     72  C   UNL A   1      42.428  37.535  34.757  1.00  0.00     0.031 C 
ATOM     73  C   UNL A   1      44.551  38.189  33.649  1.00  0.00     0.034 A 
BRANCH  60  74
ATOM     74  C   UNL A   1      49.376  35.863  30.501  1.00  0.00     0.023 A 
ATOM     75  C   UNL A   1      50.585  35.871  31.220  1.00  0.00     0.031 A 
ATOM     76  C   UNL A   1      49.432  36.134  29.123  1.00  0.00     0.131 A 
ATOM     77  C   UNL A   1      51.781  36.227  30.577  1.00  0.00     0.055 A 
ATOM     78  C   UNL A   1      50.639  36.397  28.471  1.00  0.00     0.041 A 
ATOM     79  F   UNL A   1      48.311  36.165  28.385  1.00  0.00    -0.206 F 
ATOM     80  C   UNL A   1      51.821  36.464  29.202  1.00  0.00     0.022 A 
BRANCH  77  81
ATOM     81  S   UNL A   1      53.249  36.545  31.596  1.00  0.00     0.124 S 
ATOM     82  O   UNL A   1      53.783  37.753  30.972  1.00  0.00    -0.237 OA
ATOM     83  O   UNL A   1      52.678  36.713  32.927  1.00  0.00    -0.237 OA
ATOM     84  O   UNL A   1      54.061  35.345  31.410  1.00  0.00    -0.744 OA
ENDBRANCH  77  81
ENDBRANCH  60  74
BRANCH  61  85
ATOM     85  C   UNL A   1      40.763  33.679  35.113  1.00  0.00     0.023 A 
ATOM     86  C   UNL A   1      39.529  33.710  34.445  1.00  0.00     0.031 A 
ATOM     87  C   UNL A   1      40.759  33.392  36.490  1.00  0.00     0.131 A 
ATOM     88  C   UNL A   1      38.339  33.498  35.159  1.00  0.00     0.055 A 
ATOM     89  C   UNL A   1      39.578  33.126  37.185  1.00  0.00     0.041 A 
ATOM     90  F   UNL A   1      41.910  33.356  37.179  1.00  0.00    -0.206 F 
ATOM     91  C   UNL A   1      38.357  33.190  36.522  1.00  0.00     0.022 A 
BRANCH  88  92
ATOM     92  S   UNL A   1      36.757  33.708  34.297  1.00  0.00     0.124 S 
ATOM     93  O   UNL A   1      36.835  32.669  33.277  1.00  0.00    -0.237 OA
ATOM     94  O   UNL A   1      35.795  33.481  35.371  1.00  0.00    -0.237 OA
ATOM     95  O   UNL A   1      36.819  35.081  33.800  1.00  0.00    -0.744 OA
ENDBRANCH  88  92
ENDBRANCH  61  85
BRANCH  73  96
ATOM     96  C   UNL A   1      44.234  39.628  33.996  1.00  0.00     0.023 A 
ATOM     97  C   UNL A   1      44.712  40.233  35.172  1.00  0.00     0.031 A 
ATOM     98  C   UNL A   1      43.404  40.395  33.157  1.00  0.00     0.131 A 
ATOM     99  C   UNL A   1      44.288  41.527  35.519  1.00  0.00     0.055 A 
ATOM    100  C   UNL A   1      43.052  41.710  33.466  1.00  0.00     0.041 A 
ATOM    101  F   UNL A   1      42.910  39.874  32.022  1.00  0.00    -0.206 F 
ATOM    102  C   UNL A   1      43.478  42.277  34.663  1.00  0.00     0.022 A 
BRANCH  99 103
ATOM    103  S   UNL A   1      44.690  42.159  37.171  1.00  0.00     0.124 S 
ATOM    104  O   UNL A   1      45.503  43.330  36.856  1.00  0.00    -0.237 OA
ATOM    105  O   UNL A   1      43.371  42.431  37.731  1.00  0.00    -0.237 OA
ATOM    106  O   UNL A   1      45.413  41.053  37.795  1.00  0.00    -0.744 OA
ENDBRANCH  99 103
ENDBRANCH  73  96
ENDBRANCH  47  48
ENDBRANCH  40  42
ENDBRANCH  39  40
ENDBRANCH  38  39
ENDBRANCH  37  38
ENDBRANCH  36  37
ENDBRANCH  35  36
ENDBRANCH   1  35
TORSDOF 26
ENDMDL
MODEL 3
REMARK VINA RESULT:      -7.7      1.877      2.270
REMARK SMILES COc1cc(/C=C/C(=O)OCCOCCOCCOC(=O)c2ccc(-c3c4nc(c(-c5cc(S(=O)(=O)[O-])ccc5F)c5ccc([nH]5)c(-c5cc(S(=O)(=O)[O-])ccc5F)c5nc(c(-c6cc(S(=O)(=O)[O-])ccc6F)c6ccc3[nH]6)C=C5)C=C4)cc2)cc(S(=O)(=O)Nc2ccc3c(c2)OCCO3)c1OC
REMARK SMILES IDX 14 1 13 2 12 3 11 4 10 5 8 6 9 7 7 8 6 9 5 10 3 11 4 12
REMARK SMILES IDX 101 13 86 14 85 15 2 16 1 17 102 18 103 19 87 20 88 21 89 22
REMARK SMILES IDX 90 23 91 25 92 26 96 27 93 28 95 29 94 30 97 31 100 32 98 33
REMARK SMILES IDX 99 34 15 35 16 36 17 37 18 38 19 39 20 40 21 41 22 42 23 43
REMARK SMILES IDX 84 44 24 45 83 46 25 47 26 48 27 49 77 50 28 51 82 52 76 53
REMARK SMILES IDX 78 54 29 55 81 56 75 57 74 58 30 60 62 61 42 62 61 63 43 64
REMARK SMILES IDX 46 65 60 66 79 67 44 68 45 69 59 71 80 72 47 73 31 74 32 75
REMARK SMILES IDX 40 76 33 77 39 78 41 79 38 80 34 81 35 82 36 83 37 84 63 85
REMARK SMILES IDX 64 86 72 87 65 88 71 89 73 90 70 91 66 92 67 93 68 94 69 95
REMARK SMILES IDX 48 96 49 97 57 98 50 99 56 100 58 101 55 102 51 103 52 104
REMARK SMILES IDX 53 105 54 106
REMARK H PARENT 90 24 78 59 46 70
REMARK Flexibility Score: inf
ROOT
ATOM      1  C   UNL A   1      43.539  25.088  25.842  1.00  0.00     0.188 C 
ENDROOT
BRANCH   1   2
ATOM      2  O   UNL A   1      42.459  24.492  26.536  1.00  0.00    -0.376 OA
BRANCH   2   3
ATOM      3  C   UNL A   1      41.833  25.158  27.622  1.00  0.00     0.202 C 
BRANCH   3   4
ATOM      4  C   UNL A   1      40.374  24.940  28.089  1.00  0.00     0.261 C 
BRANCH   4   5
ATOM      5  O   UNL A   1      39.323  25.038  27.122  1.00  0.00    -0.460 OA
BRANCH   5   6
ATOM      6  C   UNL A   1      38.908  23.869  26.588  1.00  0.00     0.330 C 
ATOM      7  O   UNL A   1      39.537  22.821  26.579  1.00  0.00    -0.247 OA
BRANCH   6   8
ATOM      8  C   UNL A   1      37.511  23.935  26.103  1.00  0.00     0.094 C 
ATOM      9  C   UNL A   1      36.928  23.188  25.146  1.00  0.00     0.016 C 
BRANCH   9  10
ATOM     10  C   UNL A   1      35.509  23.359  24.758  1.00  0.00    -0.020 A 
ATOM     11  C   UNL A   1      33.254  22.360  24.476  1.00  0.00     0.162 A 
ATOM     12  C   UNL A   1      34.556  22.382  25.034  1.00  0.00     0.058 A 
ATOM     13  C   UNL A   1      32.857  23.430  23.654  1.00  0.00     0.181 A 
ATOM     14  C   UNL A   1      33.743  24.537  23.550  1.00  0.00     0.134 A 
ATOM     15  C   UNL A   1      35.061  24.482  24.077  1.00  0.00     0.034 A 
BRANCH  11  16
ATOM     16  O   UNL A   1      32.738  21.151  24.820  1.00  0.00    -0.493 OA
ATOM     17  C   UNL A   1      33.297  20.090  25.555  1.00  0.00     0.278 C 
ENDBRANCH  11  16
BRANCH  13  18
ATOM     18  O   UNL A   1      31.785  23.545  22.830  1.00  0.00    -0.492 OA
ATOM     19  C   UNL A   1      30.457  23.517  23.295  1.00  0.00     0.278 C 
ENDBRANCH  13  18
BRANCH  14  20
ATOM     20  S   UNL A   1      33.392  26.074  22.673  1.00  0.00     0.265 S 
ATOM     21  O   UNL A   1      34.266  27.076  23.258  1.00  0.00    -0.201 OA
ATOM     22  O   UNL A   1      33.506  25.765  21.260  1.00  0.00    -0.201 OA
BRANCH  20  23
ATOM     23  N   UNL A   1      31.805  26.630  22.878  1.00  0.00    -0.279 N 
ATOM     24  H   UNL A   1      31.162  26.527  22.141  1.00  0.00     0.180 HD
BRANCH  23  25
ATOM     25  C   UNL A   1      31.379  27.243  24.090  1.00  0.00     0.053 A 
ATOM     26  C   UNL A   1      31.254  26.421  25.220  1.00  0.00     0.031 A 
ATOM     27  C   UNL A   1      31.251  28.619  24.203  1.00  0.00     0.077 A 
ATOM     28  C   UNL A   1      31.328  26.987  26.490  1.00  0.00     0.052 A 
ATOM     29  C   UNL A   1      31.402  29.180  25.459  1.00  0.00     0.163 A 
ATOM     30  C   UNL A   1      31.534  28.357  26.582  1.00  0.00     0.161 A 
ATOM     31  O   UNL A   1      31.603  30.534  25.493  1.00  0.00    -0.486 OA
ATOM     32  O   UNL A   1      32.059  28.848  27.752  1.00  0.00    -0.486 OA
ATOM     33  C   UNL A   1      32.373  30.966  26.626  1.00  0.00     0.271 C 
ATOM     34  C   UNL A   1      33.046  29.821  27.367  1.00  0.00     0.271 C 
ENDBRANCH  23  25
ENDBRANCH  20  23
ENDBRANCH  14  20
ENDBRANCH   9  10
ENDBRANCH   6   8
ENDBRANCH   5   6
ENDBRANCH   4   5
ENDBRANCH   3   4
ENDBRANCH   2   3
ENDBRANCH   1   2
BRANCH   1  35
ATOM     35  C   UNL A   1      44.925  24.436  25.980  1.00  0.00     0.188 C 
BRANCH  35  36
ATOM     36  O   UNL A   1      45.959  25.390  26.155  1.00  0.00    -0.376 OA
BRANCH  36  37
ATOM     37  C   UNL A   1      46.069  25.938  27.462  1.00  0.00     0.202 C 
BRANCH  37  38
ATOM     38  C   UNL A   1      46.794  25.117  28.549  1.00  0.00     0.261 C 
BRANCH  38  39
ATOM     39  O   UNL A   1      47.122  25.788  29.779  1.00  0.00    -0.460 OA
BRANCH  39  40
ATOM     40  C   UNL A   1      46.130  25.986  30.675  1.00  0.00     0.338 C 
ATOM     41  O   UNL A   1      45.507  25.118  31.271  1.00  0.00    -0.246 OA
BRANCH  40  42
ATOM     42  C   UNL A   1      46.054  27.435  30.970  1.00  0.00     0.060 A 
ATOM     43  C   UNL A   1      46.608  27.916  32.164  1.00  0.00     0.016 A 
ATOM     44  C   UNL A   1      45.446  28.321  30.076  1.00  0.00     0.016 A 
ATOM     45  C   UNL A   1      46.530  29.276  32.476  1.00  0.00     0.010 A 
ATOM     46  C   UNL A   1      45.358  29.683  30.398  1.00  0.00     0.010 A 
ATOM     47  C   UNL A   1      45.873  30.167  31.613  1.00  0.00    -0.014 A 
BRANCH  47  48
ATOM     48  C   UNL A   1      45.623  31.566  32.060  1.00  0.00     0.031 A 
ATOM     49  C   UNL A   1      46.583  32.653  31.647  1.00  0.00     0.074 A 
ATOM     50  C   UNL A   1      44.524  31.882  32.770  1.00  0.00     0.049 A 
ATOM     51  N   UNL A   1      46.529  33.941  31.872  1.00  0.00    -0.248 NA
ATOM     52  C   UNL A   1      47.759  32.223  30.879  1.00  0.00     0.031 C 
ATOM     53  C   UNL A   1      43.506  30.931  33.211  1.00  0.00     0.029 A 
ATOM     54  N   UNL A   1      44.077  33.094  33.239  1.00  0.00    -0.354 N 
ATOM     55  C   UNL A   1      47.662  34.479  31.269  1.00  0.00     0.074 A 
ATOM     56  C   UNL A   1      48.407  33.367  30.715  1.00  0.00     0.031 C 
ATOM     57  C   UNL A   1      42.545  31.598  33.874  1.00  0.00     0.029 A 
ATOM     58  C   UNL A   1      42.894  33.016  33.937  1.00  0.00     0.049 A 
ATOM     59  H   UNL A   1      44.558  33.940  33.088  1.00  0.00     0.167 HD
ATOM     60  C   UNL A   1      48.040  35.780  31.171  1.00  0.00     0.034 A 
ATOM     61  C   UNL A   1      42.181  33.974  34.565  1.00  0.00     0.034 A 
ATOM     62  C   UNL A   1      47.303  36.880  31.749  1.00  0.00     0.049 A 
ATOM     63  C   UNL A   1      42.665  35.403  34.518  1.00  0.00     0.074 A 
ATOM     64  C   UNL A   1      47.590  38.233  31.697  1.00  0.00     0.029 A 
ATOM     65  N   UNL A   1      46.144  36.755  32.506  1.00  0.00    -0.354 N 
ATOM     66  N   UNL A   1      43.721  35.903  33.916  1.00  0.00    -0.248 NA
ATOM     67  C   UNL A   1      41.847  36.400  35.220  1.00  0.00     0.031 C 
ATOM     68  C   UNL A   1      46.660  38.914  32.489  1.00  0.00     0.029 A 
ATOM     69  C   UNL A   1      45.729  38.000  32.957  1.00  0.00     0.049 A 
ATOM     70  H   UNL A   1      45.683  35.905  32.696  1.00  0.00     0.167 HD
ATOM     71  C   UNL A   1      43.674  37.277  34.144  1.00  0.00     0.074 A 
ATOM     72  C   UNL A   1      42.474  37.527  34.915  1.00  0.00     0.031 C 
ATOM     73  C   UNL A   1      44.543  38.245  33.747  1.00  0.00     0.034 A 
BRANCH  60  74
ATOM     74  C   UNL A   1      49.340  36.070  30.454  1.00  0.00     0.023 A 
ATOM     75  C   UNL A   1      49.383  36.320  29.070  1.00  0.00     0.031 A 
ATOM     76  C   UNL A   1      50.559  36.059  31.155  1.00  0.00     0.131 A 
ATOM     77  C   UNL A   1      50.620  36.461  28.421  1.00  0.00     0.055 A 
ATOM     78  C   UNL A   1      51.779  36.294  30.517  1.00  0.00     0.041 A 
ATOM     79  F   UNL A   1      50.588  35.804  32.472  1.00  0.00    -0.206 F 
ATOM     80  C   UNL A   1      51.817  36.478  29.139  1.00  0.00     0.022 A 
BRANCH  77  81
ATOM     81  S   UNL A   1      50.650  36.452  26.606  1.00  0.00     0.124 S 
ATOM     82  O   UNL A   1      49.828  35.281  26.305  1.00  0.00    -0.237 OA
ATOM     83  O   UNL A   1      50.063  37.745  26.275  1.00  0.00    -0.237 OA
ATOM     84  O   UNL A   1      52.068  36.308  26.288  1.00  0.00    -0.744 OA
ENDBRANCH  77  81
ENDBRANCH  60  74
BRANCH  61  85
ATOM     85  C   UNL A   1      40.938  33.621  35.312  1.00  0.00     0.023 A 
ATOM     86  C   UNL A   1      39.683  33.621  34.682  1.00  0.00     0.031 A 
ATOM     87  C   UNL A   1      40.983  33.327  36.688  1.00  0.00     0.131 A 
ATOM     88  C   UNL A   1      38.522  33.372  35.432  1.00  0.00     0.055 A 
ATOM     89  C   UNL A   1      39.832  33.025  37.416  1.00  0.00     0.041 A 
ATOM     90  F   UNL A   1      42.155  33.321  37.341  1.00  0.00    -0.206 F 
ATOM     91  C   UNL A   1      38.590  33.058  36.792  1.00  0.00     0.022 A 
BRANCH  88  92
ATOM     92  S   UNL A   1      36.909  33.541  34.619  1.00  0.00     0.124 S 
ATOM     93  O   UNL A   1      36.939  32.438  33.666  1.00  0.00    -0.237 OA
ATOM     94  O   UNL A   1      35.987  33.392  35.741  1.00  0.00    -0.237 OA
ATOM     95  O   UNL A   1      36.962  34.878  34.032  1.00  0.00    -0.744 OA
ENDBRANCH  88  92
ENDBRANCH  61  85
BRANCH  73  96
ATOM     96  C   UNL A   1      44.192  39.674  34.105  1.00  0.00     0.023 A 
ATOM     97  C   UNL A   1      44.653  40.279  35.288  1.00  0.00     0.031 A 
ATOM     98  C   UNL A   1      43.347  40.429  33.271  1.00  0.00     0.131 A 
ATOM     99  C   UNL A   1      44.200  41.559  35.646  1.00  0.00     0.055 A 
ATOM    100  C   UNL A   1      42.965  41.733  33.591  1.00  0.00     0.041 A 
ATOM    101  F   UNL A   1      42.868  39.908  32.130  1.00  0.00    -0.206 F 
ATOM    102  C   UNL A   1      43.375  42.299  34.794  1.00  0.00     0.022 A 
BRANCH  99 103
ATOM    103  S   UNL A   1      44.583  42.186  37.304  1.00  0.00     0.124 S 
ATOM    104  O   UNL A   1      45.357  43.386  37.002  1.00  0.00    -0.237 OA
ATOM    105  O   UNL A   1      43.257  42.408  37.869  1.00  0.00    -0.237 OA
ATOM    106  O   UNL A   1      45.343  41.096  37.915  1.00  0.00    -0.744 OA
ENDBRANCH  99 103
ENDBRANCH  73  96
ENDBRANCH  47  48
ENDBRANCH  40  42
ENDBRANCH  39  40
ENDBRANCH  38  39
ENDBRANCH  37  38
ENDBRANCH  36  37
ENDBRANCH  35  36
ENDBRANCH   1  35
TORSDOF 26
ENDMDL
