MODEL 1
REMARK VINA RESULT:     -10.4      0.000      0.000
REMARK SMILES O=C(OCCOCCOCCOC(=O)[C@@H]1[C@@H](C(=O)Nc2cccc([N+](=O)[O-])c2)[C@@H]2C=C[C@H]1O2)c1ccc(-c2c3nc(c(-c4cc(S(=O)(=O)[O-])ccc4F)c4ccc([nH]4)c(-c4cc(S(=O)(=O)[O-])ccc4F)c4nc(c(-c5cc(S(=O)(=O)[O-])ccc5F)c5ccc2[nH]5)C=C4)C=C3)cc1
REMARK SMILES IDX 7 1 6 2 5 3 4 4 3 5 2 6 1 7 34 8 35 9 96 10 36 11 95 12
REMARK SMILES IDX 37 13 38 14 39 15 89 16 40 17 94 18 88 19 90 20 41 21 93 22
REMARK SMILES IDX 87 23 86 24 42 26 74 27 54 28 73 29 55 30 58 31 72 32 91 33
REMARK SMILES IDX 56 34 57 35 71 37 92 38 59 39 43 40 44 41 52 42 45 43 51 44
REMARK SMILES IDX 53 45 50 46 46 47 47 48 48 49 49 50 75 51 76 52 84 53 77 54
REMARK SMILES IDX 83 55 85 56 82 57 78 58 79 59 80 60 81 61 60 62 61 63 69 64
REMARK SMILES IDX 62 65 68 66 70 67 67 68 63 69 64 70 65 71 66 72 8 73 9 74
REMARK SMILES IDX 10 75 11 76 12 77 13 78 14 79 15 80 16 81 32 82 29 83 31 84
REMARK SMILES IDX 33 85 30 86 17 87 18 88 19 89 20 91 21 92 28 93 22 94 24 95
REMARK SMILES IDX 23 96 25 97 26 98 27 99
REMARK H PARENT 90 25 58 36 19 90
REMARK Flexibility Score: inf
ROOT
ATOM      1  C   UNL A   1      33.718  21.269  25.651  1.00  0.00     0.188 C 
ENDROOT
BRANCH   1   2
ATOM      2  O   UNL A   1      34.866  21.594  24.862  1.00  0.00    -0.376 OA
BRANCH   2   3
ATOM      3  C   UNL A   1      35.921  20.630  24.994  1.00  0.00     0.202 C 
BRANCH   3   4
ATOM      4  C   UNL A   1      37.348  21.192  24.867  1.00  0.00     0.261 C 
BRANCH   4   5
ATOM      5  O   UNL A   1      38.301  20.529  25.711  1.00  0.00    -0.460 OA
BRANCH   5   6
ATOM      6  C   UNL A   1      39.509  20.961  26.146  1.00  0.00     0.338 C 
ATOM      7  O   UNL A   1      40.432  20.142  26.157  1.00  0.00    -0.246 OA
BRANCH   6   8
ATOM      8  C   UNL A   1      39.810  22.351  26.630  1.00  0.00     0.060 A 
ATOM      9  C   UNL A   1      39.204  23.536  26.199  1.00  0.00     0.016 A 
ATOM     10  C   UNL A   1      40.781  22.453  27.647  1.00  0.00     0.016 A 
ATOM     11  C   UNL A   1      39.610  24.781  26.680  1.00  0.00     0.010 A 
ATOM     12  C   UNL A   1      41.173  23.693  28.158  1.00  0.00     0.010 A 
ATOM     13  C   UNL A   1      40.623  24.864  27.630  1.00  0.00    -0.014 A 
BRANCH  13  14
ATOM     14  C   UNL A   1      41.265  26.168  27.890  1.00  0.00     0.031 A 
ATOM     15  C   UNL A   1      42.666  26.352  27.419  1.00  0.00     0.074 A 
ATOM     16  C   UNL A   1      40.606  27.167  28.494  1.00  0.00     0.049 A 
ATOM     17  N   UNL A   1      43.464  27.368  27.586  1.00  0.00    -0.248 NA
ATOM     18  C   UNL A   1      43.238  25.237  26.649  1.00  0.00     0.031 C 
ATOM     19  C   UNL A   1      39.215  27.086  28.904  1.00  0.00     0.029 A 
ATOM     20  N   UNL A   1      41.002  28.416  28.892  1.00  0.00    -0.354 N 
ATOM     21  C   UNL A   1      44.639  27.018  26.938  1.00  0.00     0.074 A 
ATOM     22  C   UNL A   1      44.460  25.680  26.417  1.00  0.00     0.031 C 
ATOM     23  C   UNL A   1      38.881  28.215  29.546  1.00  0.00     0.029 A 
ATOM     24  C   UNL A   1      40.041  29.086  29.611  1.00  0.00     0.049 A 
ATOM     25  H   UNL A   1      41.887  28.795  28.683  1.00  0.00     0.167 HD
ATOM     26  C   UNL A   1      45.763  27.759  26.795  1.00  0.00     0.034 A 
ATOM     27  C   UNL A   1      40.094  30.249  30.290  1.00  0.00     0.034 A 
ATOM     28  C   UNL A   1      45.923  29.054  27.406  1.00  0.00     0.049 A 
ATOM     29  C   UNL A   1      41.390  31.002  30.248  1.00  0.00     0.074 A 
ATOM     30  C   UNL A   1      47.031  29.878  27.417  1.00  0.00     0.029 A 
ATOM     31  N   UNL A   1      44.938  29.699  28.155  1.00  0.00    -0.354 N 
ATOM     32  N   UNL A   1      42.508  30.663  29.646  1.00  0.00    -0.248 NA
ATOM     33  C   UNL A   1      41.443  32.283  30.957  1.00  0.00     0.031 C 
ATOM     34  C   UNL A   1      46.741  30.984  28.227  1.00  0.00     0.029 A 
ATOM     35  C   UNL A   1      45.424  30.894  28.657  1.00  0.00     0.049 A 
ATOM     36  H   UNL A   1      44.029  29.354  28.303  1.00  0.00     0.167 HD
ATOM     37  C   UNL A   1      43.394  31.703  29.877  1.00  0.00     0.074 A 
ATOM     38  C   UNL A   1      42.677  32.683  30.675  1.00  0.00     0.031 C 
ATOM     39  C   UNL A   1      44.678  31.843  29.457  1.00  0.00     0.034 A 
BRANCH  26  40
ATOM     40  C   UNL A   1      46.894  27.094  26.051  1.00  0.00     0.023 A 
ATOM     41  C   UNL A   1      47.851  26.312  26.728  1.00  0.00     0.031 A 
ATOM     42  C   UNL A   1      47.128  27.402  24.702  1.00  0.00     0.131 A 
ATOM     43  C   UNL A   1      49.059  25.987  26.092  1.00  0.00     0.055 A 
ATOM     44  C   UNL A   1      48.286  26.983  24.045  1.00  0.00     0.041 A 
ATOM     45  F   UNL A   1      46.268  28.172  24.017  1.00  0.00    -0.206 F 
ATOM     46  C   UNL A   1      49.273  26.297  24.747  1.00  0.00     0.022 A 
BRANCH  43  47
ATOM     47  S   UNL A   1      50.428  25.372  27.117  1.00  0.00     0.124 S 
ATOM     48  O   UNL A   1      49.783  24.266  27.832  1.00  0.00    -0.237 OA
ATOM     49  O   UNL A   1      51.423  25.004  26.137  1.00  0.00    -0.237 OA
ATOM     50  O   UNL A   1      50.765  26.525  27.962  1.00  0.00    -0.744 OA
ENDBRANCH  43  47
ENDBRANCH  26  40
BRANCH  27  51
ATOM     51  C   UNL A   1      38.910  30.715  31.072  1.00  0.00     0.023 A 
ATOM     52  C   UNL A   1      38.002  31.652  30.555  1.00  0.00     0.031 A 
ATOM     53  C   UNL A   1      38.637  30.170  32.343  1.00  0.00     0.131 A 
ATOM     54  C   UNL A   1      36.864  32.011  31.301  1.00  0.00     0.055 A 
ATOM     55  C   UNL A   1      37.484  30.496  33.059  1.00  0.00     0.041 A 
ATOM     56  F   UNL A   1      39.473  29.271  32.885  1.00  0.00    -0.206 F 
ATOM     57  C   UNL A   1      36.591  31.427  32.541  1.00  0.00     0.022 A 
BRANCH  54  58
ATOM     58  S   UNL A   1      35.744  33.275  30.635  1.00  0.00     0.124 S 
ATOM     59  O   UNL A   1      35.786  34.294  31.676  1.00  0.00    -0.237 OA
ATOM     60  O   UNL A   1      36.397  33.618  29.375  1.00  0.00    -0.237 OA
ATOM     61  O   UNL A   1      34.471  32.570  30.502  1.00  0.00    -0.744 OA
ENDBRANCH  54  58
ENDBRANCH  27  51
BRANCH  39  62
ATOM     62  C   UNL A   1      45.361  33.134  29.811  1.00  0.00     0.023 A 
ATOM     63  C   UNL A   1      46.116  33.274  30.987  1.00  0.00     0.031 A 
ATOM     64  C   UNL A   1      45.261  34.234  28.942  1.00  0.00     0.131 A 
ATOM     65  C   UNL A   1      46.710  34.508  31.282  1.00  0.00     0.055 A 
ATOM     66  C   UNL A   1      45.903  35.439  29.212  1.00  0.00     0.041 A 
ATOM     67  F   UNL A   1      44.544  34.145  27.809  1.00  0.00    -0.206 F 
ATOM     68  C   UNL A   1      46.627  35.584  30.393  1.00  0.00     0.022 A 
BRANCH  65  69
ATOM     69  S   UNL A   1      47.548  34.709  32.877  1.00  0.00     0.124 S 
ATOM     70  O   UNL A   1      48.515  35.759  32.575  1.00  0.00    -0.237 OA
ATOM     71  O   UNL A   1      46.452  35.084  33.763  1.00  0.00    -0.237 OA
ATOM     72  O   UNL A   1      48.122  33.388  33.129  1.00  0.00    -0.744 OA
ENDBRANCH  65  69
ENDBRANCH  39  62
ENDBRANCH  13  14
ENDBRANCH   6   8
ENDBRANCH   5   6
ENDBRANCH   4   5
ENDBRANCH   3   4
ENDBRANCH   2   3
ENDBRANCH   1   2
BRANCH   1  73
ATOM     73  C   UNL A   1      33.790  21.651  27.130  1.00  0.00     0.188 C 
BRANCH  73  74
ATOM     74  O   UNL A   1      32.664  22.296  27.700  1.00  0.00    -0.376 OA
BRANCH  74  75
ATOM     75  C   UNL A   1      32.167  23.440  27.020  1.00  0.00     0.202 C 
BRANCH  75  76
ATOM     76  C   UNL A   1      30.936  23.303  26.118  1.00  0.00     0.261 C 
BRANCH  76  77
ATOM     77  O   UNL A   1      30.672  24.354  25.164  1.00  0.00    -0.463 OA
BRANCH  77  78
ATOM     78  C   UNL A   1      31.063  24.095  23.885  1.00  0.00     0.312 C 
ATOM     79  O   UNL A   1      30.342  23.573  23.041  1.00  0.00    -0.252 OA
BRANCH  78  80
ATOM     80  C   UNL A   1      32.495  24.449  23.577  1.00  0.00     0.147 C 
ATOM     81  C   UNL A   1      33.056  25.814  24.024  1.00  0.00     0.129 C 
ATOM     82  C   UNL A   1      32.738  24.474  22.062  1.00  0.00     0.157 C 
ATOM     83  C   UNL A   1      33.641  26.346  22.691  1.00  0.00     0.155 C 
ATOM     84  C   UNL A   1      31.976  25.560  21.361  1.00  0.00     0.004 C 
ATOM     85  O   UNL A   1      34.043  25.102  22.046  1.00  0.00    -0.365 OA
ATOM     86  C   UNL A   1      32.529  26.715  21.753  1.00  0.00     0.004 C 
BRANCH  81  87
ATOM     87  C   UNL A   1      34.201  25.656  25.025  1.00  0.00     0.231 C 
ATOM     88  O   UNL A   1      34.904  24.650  25.077  1.00  0.00    -0.274 OA
ATOM     89  N   UNL A   1      34.535  26.747  25.789  1.00  0.00    -0.325 N 
ATOM     90  H   UNL A   1      35.498  26.905  25.916  1.00  0.00     0.169 HD
BRANCH  89  91
ATOM     91  C   UNL A   1      33.682  27.657  26.409  1.00  0.00     0.048 A 
ATOM     92  C   UNL A   1      32.376  27.269  26.710  1.00  0.00     0.026 A 
ATOM     93  C   UNL A   1      34.079  28.981  26.570  1.00  0.00     0.111 A 
ATOM     94  C   UNL A   1      31.486  28.188  27.271  1.00  0.00     0.009 A 
ATOM     95  C   UNL A   1      33.177  29.903  27.105  1.00  0.00     0.271 A 
ATOM     96  C   UNL A   1      31.884  29.511  27.476  1.00  0.00     0.086 A 
BRANCH  95  97
ATOM     97  N   UNL A   1      33.614  31.282  27.324  1.00  0.00     0.062 N 
ATOM     98  O   UNL A   1      32.737  32.157  27.387  1.00  0.00    -0.258 OA
ATOM     99  O   UNL A   1      34.826  31.488  27.472  1.00  0.00    -0.258 OA
ENDBRANCH  95  97
ENDBRANCH  89  91
ENDBRANCH  81  87
ENDBRANCH  78  80
ENDBRANCH  77  78
ENDBRANCH  76  77
ENDBRANCH  75  76
ENDBRANCH  74  75
ENDBRANCH  73  74
ENDBRANCH   1  73
TORSDOF 23
ENDMDL
MODEL 2
REMARK VINA RESULT:     -10.4      3.942      9.046
REMARK SMILES O=C(OCCOCCOCCOC(=O)[C@@H]1[C@@H](C(=O)Nc2cccc([N+](=O)[O-])c2)[C@@H]2C=C[C@H]1O2)c1ccc(-c2c3nc(c(-c4cc(S(=O)(=O)[O-])ccc4F)c4ccc([nH]4)c(-c4cc(S(=O)(=O)[O-])ccc4F)c4nc(c(-c5cc(S(=O)(=O)[O-])ccc5F)c5ccc2[nH]5)C=C4)C=C3)cc1
REMARK SMILES IDX 7 1 6 2 5 3 4 4 3 5 2 6 1 7 34 8 35 9 96 10 36 11 95 12
REMARK SMILES IDX 37 13 38 14 39 15 89 16 40 17 94 18 88 19 90 20 41 21 93 22
REMARK SMILES IDX 87 23 86 24 42 26 74 27 54 28 73 29 55 30 58 31 72 32 91 33
REMARK SMILES IDX 56 34 57 35 71 37 92 38 59 39 43 40 44 41 52 42 45 43 51 44
REMARK SMILES IDX 53 45 50 46 46 47 47 48 48 49 49 50 75 51 76 52 84 53 77 54
REMARK SMILES IDX 83 55 85 56 82 57 78 58 79 59 80 60 81 61 60 62 61 63 69 64
REMARK SMILES IDX 62 65 68 66 70 67 67 68 63 69 64 70 65 71 66 72 8 73 9 74
REMARK SMILES IDX 10 75 11 76 12 77 13 78 14 79 15 80 16 81 32 82 29 83 31 84
REMARK SMILES IDX 33 85 30 86 17 87 18 88 19 89 20 91 21 92 28 93 22 94 24 95
REMARK SMILES IDX 23 96 25 97 26 98 27 99
REMARK H PARENT 90 25 58 36 19 90
REMARK Flexibility Score: inf
ROOT
ATOM      1  C   UNL A   1      41.306  21.318  26.973  1.00  0.00     0.188 C 
ENDROOT
BRANCH   1   2
ATOM      2  O   UNL A   1      42.359  21.134  26.023  1.00  0.00    -0.376 OA
BRANCH   2   3
ATOM      3  C   UNL A   1      43.193  22.295  25.887  1.00  0.00     0.202 C 
BRANCH   3   4
ATOM      4  C   UNL A   1      43.485  22.732  24.441  1.00  0.00     0.261 C 
BRANCH   4   5
ATOM      5  O   UNL A   1      43.556  24.157  24.277  1.00  0.00    -0.460 OA
BRANCH   5   6
ATOM      6  C   UNL A   1      44.149  25.083  25.068  1.00  0.00     0.338 C 
ATOM      7  O   UNL A   1      45.374  25.195  24.987  1.00  0.00    -0.246 OA
BRANCH   6   8
ATOM      8  C   UNL A   1      43.434  25.971  26.048  1.00  0.00     0.060 A 
ATOM      9  C   UNL A   1      43.757  27.294  26.365  1.00  0.00     0.016 A 
ATOM     10  C   UNL A   1      42.307  25.409  26.681  1.00  0.00     0.016 A 
ATOM     11  C   UNL A   1      43.055  28.003  27.340  1.00  0.00     0.010 A 
ATOM     12  C   UNL A   1      41.578  26.121  27.636  1.00  0.00     0.010 A 
ATOM     13  C   UNL A   1      41.990  27.404  28.006  1.00  0.00    -0.014 A 
BRANCH  13  14
ATOM     14  C   UNL A   1      41.470  28.023  29.241  1.00  0.00     0.031 A 
ATOM     15  C   UNL A   1      40.192  28.783  29.146  1.00  0.00     0.074 A 
ATOM     16  C   UNL A   1      42.099  27.882  30.417  1.00  0.00     0.049 A 
ATOM     17  N   UNL A   1      39.571  29.469  30.063  1.00  0.00    -0.248 NA
ATOM     18  C   UNL A   1      39.523  28.754  27.836  1.00  0.00     0.031 C 
ATOM     19  C   UNL A   1      43.301  27.087  30.599  1.00  0.00     0.029 A 
ATOM     20  N   UNL A   1      41.849  28.404  31.657  1.00  0.00    -0.354 N 
ATOM     21  C   UNL A   1      38.431  29.958  29.443  1.00  0.00     0.074 A 
ATOM     22  C   UNL A   1      38.473  29.524  28.063  1.00  0.00     0.031 C 
ATOM     23  C   UNL A   1      43.722  27.214  31.865  1.00  0.00     0.029 A 
ATOM     24  C   UNL A   1      42.831  28.115  32.575  1.00  0.00     0.049 A 
ATOM     25  H   UNL A   1      41.045  28.932  31.870  1.00  0.00     0.167 HD
ATOM     26  C   UNL A   1      37.440  30.701  29.990  1.00  0.00     0.034 A 
ATOM     27  C   UNL A   1      43.026  28.560  33.832  1.00  0.00     0.034 A 
ATOM     28  C   UNL A   1      37.487  31.180  31.348  1.00  0.00     0.049 A 
ATOM     29  C   UNL A   1      41.998  29.499  34.388  1.00  0.00     0.074 A 
ATOM     30  C   UNL A   1      36.600  32.008  32.007  1.00  0.00     0.029 A 
ATOM     31  N   UNL A   1      38.511  30.893  32.250  1.00  0.00    -0.354 N 
ATOM     32  N   UNL A   1      40.925  29.974  33.795  1.00  0.00    -0.248 NA
ATOM     33  C   UNL A   1      42.187  29.959  35.766  1.00  0.00     0.031 C 
ATOM     34  C   UNL A   1      37.122  32.276  33.280  1.00  0.00     0.029 A 
ATOM     35  C   UNL A   1      38.295  31.552  33.447  1.00  0.00     0.049 A 
ATOM     36  H   UNL A   1      39.277  30.304  32.061  1.00  0.00     0.167 HD
ATOM     37  C   UNL A   1      40.291  30.768  34.737  1.00  0.00     0.074 A 
ATOM     38  C   UNL A   1      41.105  30.707  35.939  1.00  0.00     0.031 C 
ATOM     39  C   UNL A   1      39.135  31.471  34.623  1.00  0.00     0.034 A 
BRANCH  26  40
ATOM     40  C   UNL A   1      36.331  31.103  29.050  1.00  0.00     0.023 A 
ATOM     41  C   UNL A   1      35.861  32.430  29.002  1.00  0.00     0.031 A 
ATOM     42  C   UNL A   1      35.613  30.122  28.347  1.00  0.00     0.131 A 
ATOM     43  C   UNL A   1      34.632  32.710  28.386  1.00  0.00     0.055 A 
ATOM     44  C   UNL A   1      34.446  30.430  27.647  1.00  0.00     0.041 A 
ATOM     45  F   UNL A   1      35.995  28.836  28.385  1.00  0.00    -0.206 F 
ATOM     46  C   UNL A   1      33.932  31.724  27.688  1.00  0.00     0.022 A 
BRANCH  43  47
ATOM     47  S   UNL A   1      33.853  34.318  28.720  1.00  0.00     0.124 S 
ATOM     48  O   UNL A   1      33.754  34.296  30.184  1.00  0.00    -0.237 OA
ATOM     49  O   UNL A   1      34.798  35.256  28.160  1.00  0.00    -0.237 OA
ATOM     50  O   UNL A   1      32.564  34.223  28.023  1.00  0.00    -0.744 OA
ENDBRANCH  43  47
ENDBRANCH  26  40
BRANCH  27  51
ATOM     51  C   UNL A   1      44.243  28.148  34.593  1.00  0.00     0.023 A 
ATOM     52  C   UNL A   1      45.417  28.917  34.587  1.00  0.00     0.031 A 
ATOM     53  C   UNL A   1      44.222  26.991  35.399  1.00  0.00     0.131 A 
ATOM     54  C   UNL A   1      46.517  28.524  35.372  1.00  0.00     0.055 A 
ATOM     55  C   UNL A   1      45.299  26.631  36.210  1.00  0.00     0.041 A 
ATOM     56  F   UNL A   1      43.125  26.219  35.441  1.00  0.00    -0.206 F 
ATOM     57  C   UNL A   1      46.459  27.397  36.196  1.00  0.00     0.022 A 
BRANCH  54  58
ATOM     58  S   UNL A   1      48.044  29.502  35.290  1.00  0.00     0.124 S 
ATOM     59  O   UNL A   1      47.816  30.318  34.104  1.00  0.00    -0.237 OA
ATOM     60  O   UNL A   1      48.017  30.206  36.569  1.00  0.00    -0.237 OA
ATOM     61  O   UNL A   1      49.093  28.492  35.161  1.00  0.00    -0.744 OA
ENDBRANCH  54  58
ENDBRANCH  27  51
BRANCH  39  62
ATOM     62  C   UNL A   1      38.662  32.183  35.859  1.00  0.00     0.023 A 
ATOM     63  C   UNL A   1      38.037  31.499  36.915  1.00  0.00     0.031 A 
ATOM     64  C   UNL A   1      38.857  33.570  35.981  1.00  0.00     0.131 A 
ATOM     65  C   UNL A   1      37.592  32.215  38.034  1.00  0.00     0.055 A 
ATOM     66  C   UNL A   1      38.465  34.266  37.121  1.00  0.00     0.041 A 
ATOM     67  F   UNL A   1      39.445  34.265  34.993  1.00  0.00    -0.206 F 
ATOM     68  C   UNL A   1      37.821  33.590  38.153  1.00  0.00     0.022 A 
BRANCH  65  69
ATOM     69  S   UNL A   1      36.653  31.335  39.310  1.00  0.00     0.124 S 
ATOM     70  O   UNL A   1      37.566  31.397  40.447  1.00  0.00    -0.237 OA
ATOM     71  O   UNL A   1      35.441  32.138  39.420  1.00  0.00    -0.237 OA
ATOM     72  O   UNL A   1      36.463  30.004  38.737  1.00  0.00    -0.744 OA
ENDBRANCH  65  69
ENDBRANCH  39  62
ENDBRANCH  13  14
ENDBRANCH   6   8
ENDBRANCH   5   6
ENDBRANCH   4   5
ENDBRANCH   3   4
ENDBRANCH   2   3
ENDBRANCH   1   2
BRANCH   1  73
ATOM     73  C   UNL A   1      40.597  22.672  26.936  1.00  0.00     0.188 C 
BRANCH  73  74
ATOM     74  O   UNL A   1      39.219  22.686  26.608  1.00  0.00    -0.376 OA
BRANCH  74  75
ATOM     75  C   UNL A   1      38.649  23.947  26.286  1.00  0.00     0.202 C 
BRANCH  75  76
ATOM     76  C   UNL A   1      37.148  24.039  25.983  1.00  0.00     0.261 C 
BRANCH  76  77
ATOM     77  O   UNL A   1      36.707  23.753  24.639  1.00  0.00    -0.463 OA
BRANCH  77  78
ATOM     78  C   UNL A   1      36.113  22.540  24.463  1.00  0.00     0.312 C 
ATOM     79  O   UNL A   1      36.712  21.471  24.516  1.00  0.00    -0.252 OA
BRANCH  78  80
ATOM     80  C   UNL A   1      34.644  22.595  24.136  1.00  0.00     0.147 C 
ATOM     81  C   UNL A   1      33.977  23.956  23.849  1.00  0.00     0.129 C 
ATOM     82  C   UNL A   1      33.803  22.056  25.300  1.00  0.00     0.157 C 
ATOM     83  C   UNL A   1      32.780  23.913  24.832  1.00  0.00     0.155 C 
ATOM     84  C   UNL A   1      33.894  22.905  26.535  1.00  0.00     0.004 C 
ATOM     85  O   UNL A   1      32.492  22.484  24.859  1.00  0.00    -0.365 OA
ATOM     86  C   UNL A   1      33.268  24.052  26.244  1.00  0.00     0.004 C 
BRANCH  81  87
ATOM     87  C   UNL A   1      33.431  24.031  22.424  1.00  0.00     0.231 C 
ATOM     88  O   UNL A   1      33.635  23.155  21.587  1.00  0.00    -0.274 OA
ATOM     89  N   UNL A   1      32.560  25.051  22.127  1.00  0.00    -0.325 N 
ATOM     90  H   UNL A   1      31.789  24.809  21.565  1.00  0.00     0.169 HD
BRANCH  89  91
ATOM     91  C   UNL A   1      32.631  26.385  22.521  1.00  0.00     0.048 A 
ATOM     92  C   UNL A   1      33.779  26.843  23.168  1.00  0.00     0.026 A 
ATOM     93  C   UNL A   1      31.508  27.200  22.418  1.00  0.00     0.111 A 
ATOM     94  C   UNL A   1      33.843  28.160  23.629  1.00  0.00     0.009 A 
ATOM     95  C   UNL A   1      31.567  28.507  22.905  1.00  0.00     0.271 A 
ATOM     96  C   UNL A   1      32.737  29.002  23.496  1.00  0.00     0.086 A 
BRANCH  95  97
ATOM     97  N   UNL A   1      30.402  29.380  22.747  1.00  0.00     0.062 N 
ATOM     98  O   UNL A   1      29.790  29.707  23.774  1.00  0.00    -0.258 OA
ATOM     99  O   UNL A   1      30.122  29.768  21.605  1.00  0.00    -0.258 OA
ENDBRANCH  95  97
ENDBRANCH  89  91
ENDBRANCH  81  87
ENDBRANCH  78  80
ENDBRANCH  77  78
ENDBRANCH  76  77
ENDBRANCH  75  76
ENDBRANCH  74  75
ENDBRANCH  73  74
ENDBRANCH   1  73
TORSDOF 23
ENDMDL
MODEL 3
REMARK VINA RESULT:     -10.3      2.718      3.396
REMARK SMILES O=C(OCCOCCOCCOC(=O)[C@@H]1[C@@H](C(=O)Nc2cccc([N+](=O)[O-])c2)[C@@H]2C=C[C@H]1O2)c1ccc(-c2c3nc(c(-c4cc(S(=O)(=O)[O-])ccc4F)c4ccc([nH]4)c(-c4cc(S(=O)(=O)[O-])ccc4F)c4nc(c(-c5cc(S(=O)(=O)[O-])ccc5F)c5ccc2[nH]5)C=C4)C=C3)cc1
REMARK SMILES IDX 7 1 6 2 5 3 4 4 3 5 2 6 1 7 34 8 35 9 96 10 36 11 95 12
REMARK SMILES IDX 37 13 38 14 39 15 89 16 40 17 94 18 88 19 90 20 41 21 93 22
REMARK SMILES IDX 87 23 86 24 42 26 74 27 54 28 73 29 55 30 58 31 72 32 91 33
REMARK SMILES IDX 56 34 57 35 71 37 92 38 59 39 43 40 44 41 52 42 45 43 51 44
REMARK SMILES IDX 53 45 50 46 46 47 47 48 48 49 49 50 75 51 76 52 84 53 77 54
REMARK SMILES IDX 83 55 85 56 82 57 78 58 79 59 80 60 81 61 60 62 61 63 69 64
REMARK SMILES IDX 62 65 68 66 70 67 67 68 63 69 64 70 65 71 66 72 8 73 9 74
REMARK SMILES IDX 10 75 11 76 12 77 13 78 14 79 15 80 16 81 32 82 29 83 31 84
REMARK SMILES IDX 33 85 30 86 17 87 18 88 19 89 20 91 21 92 28 93 22 94 24 95
REMARK SMILES IDX 23 96 25 97 26 98 27 99
REMARK H PARENT 90 25 58 36 19 90
REMARK Flexibility Score: inf
ROOT
ATOM      1  C   UNL A   1      36.161  20.713  25.083  1.00  0.00     0.188 C 
ENDROOT
BRANCH   1   2
ATOM      2  O   UNL A   1      37.225  21.601  24.733  1.00  0.00    -0.376 OA
BRANCH   2   3
ATOM      3  C   UNL A   1      38.453  21.290  25.408  1.00  0.00     0.202 C 
BRANCH   3   4
ATOM      4  C   UNL A   1      38.906  19.823  25.311  1.00  0.00     0.261 C 
BRANCH   4   5
ATOM      5  O   UNL A   1      39.918  19.472  26.268  1.00  0.00    -0.460 OA
BRANCH   5   6
ATOM      6  C   UNL A   1      41.258  19.659  26.207  1.00  0.00     0.338 C 
ATOM      7  O   UNL A   1      41.949  18.695  25.869  1.00  0.00    -0.246 OA
BRANCH   6   8
ATOM      8  C   UNL A   1      41.969  20.941  26.537  1.00  0.00     0.060 A 
ATOM      9  C   UNL A   1      42.323  21.397  27.811  1.00  0.00     0.016 A 
ATOM     10  C   UNL A   1      42.340  21.741  25.437  1.00  0.00     0.016 A 
ATOM     11  C   UNL A   1      42.930  22.639  28.000  1.00  0.00     0.010 A 
ATOM     12  C   UNL A   1      42.976  22.972  25.613  1.00  0.00     0.010 A 
ATOM     13  C   UNL A   1      43.221  23.446  26.904  1.00  0.00    -0.014 A 
BRANCH  13  14
ATOM     14  C   UNL A   1      43.555  24.868  27.122  1.00  0.00     0.031 A 
ATOM     15  C   UNL A   1      44.973  25.279  26.933  1.00  0.00     0.074 A 
ATOM     16  C   UNL A   1      42.614  25.768  27.443  1.00  0.00     0.049 A 
ATOM     17  N   UNL A   1      45.527  26.442  27.130  1.00  0.00    -0.248 NA
ATOM     18  C   UNL A   1      45.888  24.235  26.449  1.00  0.00     0.031 C 
ATOM     19  C   UNL A   1      41.201  25.453  27.561  1.00  0.00     0.029 A 
ATOM     20  N   UNL A   1      42.689  27.100  27.750  1.00  0.00    -0.354 N 
ATOM     21  C   UNL A   1      46.860  26.274  26.792  1.00  0.00     0.074 A 
ATOM     22  C   UNL A   1      47.036  24.886  26.421  1.00  0.00     0.031 C 
ATOM     23  C   UNL A   1      40.542  26.546  27.970  1.00  0.00     0.029 A 
ATOM     24  C   UNL A   1      41.489  27.630  28.162  1.00  0.00     0.049 A 
ATOM     25  H   UNL A   1      43.520  27.625  27.683  1.00  0.00     0.167 HD
ATOM     26  C   UNL A   1      47.844  27.205  26.792  1.00  0.00     0.034 A 
ATOM     27  C   UNL A   1      41.186  28.836  28.682  1.00  0.00     0.034 A 
ATOM     28  C   UNL A   1      47.636  28.554  27.251  1.00  0.00     0.049 A 
ATOM     29  C   UNL A   1      42.309  29.821  28.814  1.00  0.00     0.074 A 
ATOM     30  C   UNL A   1      48.555  29.576  27.386  1.00  0.00     0.029 A 
ATOM     31  N   UNL A   1      46.411  29.057  27.689  1.00  0.00    -0.354 N 
ATOM     32  N   UNL A   1      43.576  29.655  28.506  1.00  0.00    -0.248 NA
ATOM     33  C   UNL A   1      41.979  31.144  29.347  1.00  0.00     0.031 C 
ATOM     34  C   UNL A   1      47.902  30.671  27.969  1.00  0.00     0.029 A 
ATOM     35  C   UNL A   1      46.557  30.363  28.124  1.00  0.00     0.049 A 
ATOM     36  H   UNL A   1      45.564  28.556  27.688  1.00  0.00     0.167 HD
ATOM     37  C   UNL A   1      44.195  30.864  28.781  1.00  0.00     0.074 A 
ATOM     38  C   UNL A   1      43.157  31.751  29.280  1.00  0.00     0.031 C 
ATOM     39  C   UNL A   1      45.497  31.214  28.622  1.00  0.00     0.034 A 
BRANCH  26  40
ATOM     40  C   UNL A   1      49.211  26.710  26.391  1.00  0.00     0.023 A 
ATOM     41  C   UNL A   1      50.217  26.490  27.352  1.00  0.00     0.031 A 
ATOM     42  C   UNL A   1      49.569  26.649  25.035  1.00  0.00     0.131 A 
ATOM     43  C   UNL A   1      51.553  26.360  26.943  1.00  0.00     0.055 A 
ATOM     44  C   UNL A   1      50.885  26.413  24.634  1.00  0.00     0.041 A 
ATOM     45  F   UNL A   1      48.660  26.884  24.076  1.00  0.00    -0.206 F 
ATOM     46  C   UNL A   1      51.891  26.296  25.590  1.00  0.00     0.022 A 
BRANCH  43  47
ATOM     47  S   UNL A   1      52.853  26.518  28.203  1.00  0.00     0.124 S 
ATOM     48  O   UNL A   1      52.219  25.877  29.360  1.00  0.00    -0.237 OA
ATOM     49  O   UNL A   1      53.964  25.810  27.610  1.00  0.00    -0.237 OA
ATOM     50  O   UNL A   1      53.025  27.971  28.334  1.00  0.00    -0.744 OA
ENDBRANCH  43  47
ENDBRANCH  26  40
BRANCH  27  51
ATOM     51  C   UNL A   1      39.794  29.128  29.134  1.00  0.00     0.023 A 
ATOM     52  C   UNL A   1      39.434  29.106  30.490  1.00  0.00     0.031 A 
ATOM     53  C   UNL A   1      38.806  29.503  28.200  1.00  0.00     0.131 A 
ATOM     54  C   UNL A   1      38.125  29.454  30.874  1.00  0.00     0.055 A 
ATOM     55  C   UNL A   1      37.523  29.890  28.590  1.00  0.00     0.041 A 
ATOM     56  F   UNL A   1      39.095  29.540  26.890  1.00  0.00    -0.206 F 
ATOM     57  C   UNL A   1      37.174  29.862  29.936  1.00  0.00     0.022 A 
BRANCH  54  58
ATOM     58  S   UNL A   1      37.672  29.350  32.629  1.00  0.00     0.124 S 
ATOM     59  O   UNL A   1      36.388  30.039  32.650  1.00  0.00    -0.237 OA
ATOM     60  O   UNL A   1      37.629  27.906  32.841  1.00  0.00    -0.237 OA
ATOM     61  O   UNL A   1      38.764  30.044  33.308  1.00  0.00    -0.744 OA
ENDBRANCH  54  58
ENDBRANCH  27  51
BRANCH  39  62
ATOM     62  C   UNL A   1      45.850  32.640  28.942  1.00  0.00     0.023 A 
ATOM     63  C   UNL A   1      46.184  33.046  30.244  1.00  0.00     0.031 A 
ATOM     64  C   UNL A   1      45.864  33.600  27.915  1.00  0.00     0.131 A 
ATOM     65  C   UNL A   1      46.480  34.393  30.492  1.00  0.00     0.055 A 
ATOM     66  C   UNL A   1      46.216  34.925  28.158  1.00  0.00     0.041 A 
ATOM     67  F   UNL A   1      45.546  33.256  26.656  1.00  0.00    -0.206 F 
ATOM     68  C   UNL A   1      46.519  35.330  29.455  1.00  0.00     0.022 A 
BRANCH  65  69
ATOM     69  S   UNL A   1      46.756  34.920  32.204  1.00  0.00     0.124 S 
ATOM     70  O   UNL A   1      48.156  34.562  32.405  1.00  0.00    -0.237 OA
ATOM     71  O   UNL A   1      46.463  36.348  32.146  1.00  0.00    -0.237 OA
ATOM     72  O   UNL A   1      45.796  34.123  32.965  1.00  0.00    -0.744 OA
ENDBRANCH  65  69
ENDBRANCH  39  62
ENDBRANCH  13  14
ENDBRANCH   6   8
ENDBRANCH   5   6
ENDBRANCH   4   5
ENDBRANCH   3   4
ENDBRANCH   2   3
ENDBRANCH   1   2
BRANCH   1  73
ATOM     73  C   UNL A   1      34.758  21.322  25.106  1.00  0.00     0.188 C 
BRANCH  73  74
ATOM     74  O   UNL A   1      34.227  21.707  26.363  1.00  0.00    -0.376 OA
BRANCH  74  75
ATOM     75  C   UNL A   1      34.006  23.095  26.568  1.00  0.00     0.202 C 
BRANCH  75  76
ATOM     76  C   UNL A   1      32.588  23.660  26.429  1.00  0.00     0.261 C 
BRANCH  76  77
ATOM     77  O   UNL A   1      32.440  25.077  26.199  1.00  0.00    -0.463 OA
BRANCH  77  78
ATOM     78  C   UNL A   1      31.893  25.421  24.999  1.00  0.00     0.312 C 
ATOM     79  O   UNL A   1      30.713  25.248  24.711  1.00  0.00    -0.252 OA
BRANCH  78  80
ATOM     80  C   UNL A   1      32.865  25.992  24.000  1.00  0.00     0.147 C 
ATOM     81  C   UNL A   1      32.336  26.797  22.796  1.00  0.00     0.129 C 
ATOM     82  C   UNL A   1      33.670  24.876  23.321  1.00  0.00     0.157 C 
ATOM     83  C   UNL A   1      33.033  26.067  21.621  1.00  0.00     0.155 C 
ATOM     84  C   UNL A   1      32.824  23.972  22.473  1.00  0.00     0.004 C 
ATOM     85  O   UNL A   1      34.276  25.643  22.253  1.00  0.00    -0.365 OA
ATOM     86  C   UNL A   1      32.426  24.708  21.427  1.00  0.00     0.004 C 
BRANCH  81  87
ATOM     87  C   UNL A   1      32.824  28.245  22.823  1.00  0.00     0.231 C 
ATOM     88  O   UNL A   1      33.955  28.558  23.187  1.00  0.00    -0.274 OA
ATOM     89  N   UNL A   1      32.006  29.204  22.280  1.00  0.00    -0.325 N 
ATOM     90  H   UNL A   1      32.452  29.896  21.739  1.00  0.00     0.169 HD
BRANCH  89  91
ATOM     91  C   UNL A   1      30.623  29.324  22.398  1.00  0.00     0.048 A 
ATOM     92  C   UNL A   1      29.896  28.278  22.969  1.00  0.00     0.026 A 
ATOM     93  C   UNL A   1      29.965  30.396  21.802  1.00  0.00     0.111 A 
ATOM     94  C   UNL A   1      28.503  28.351  23.037  1.00  0.00     0.009 A 
ATOM     95  C   UNL A   1      28.571  30.450  21.847  1.00  0.00     0.271 A 
ATOM     96  C   UNL A   1      27.832  29.441  22.479  1.00  0.00     0.086 A 
BRANCH  95  97
ATOM     97  N   UNL A   1      27.884  31.606  21.268  1.00  0.00     0.062 N 
ATOM     98  O   UNL A   1      27.520  31.520  20.086  1.00  0.00    -0.258 OA
ATOM     99  O   UNL A   1      27.674  32.581  22.001  1.00  0.00    -0.258 OA
ENDBRANCH  95  97
ENDBRANCH  89  91
ENDBRANCH  81  87
ENDBRANCH  78  80
ENDBRANCH  77  78
ENDBRANCH  76  77
ENDBRANCH  75  76
ENDBRANCH  74  75
ENDBRANCH  73  74
ENDBRANCH   1  73
TORSDOF 23
ENDMDL
