MODEL 1
REMARK VINA RESULT:      -9.4      0.000      0.000
REMARK SMILES O=C(OCCOCCOCCOC(=O)c1cc(SC[C@H]2CCOC2)ccn1)c1ccc(-c2c3nc(c(-c4cc(S(=O)(=O)[O-])ccc4F)c4ccc([nH]4)c(-c4cc(S(=O)(=O)[O-])ccc4F)c4nc(c(-c5cc(S(=O)(=O)[O-])ccc5F)c5ccc2[nH]5)C=C4)C=C3)cc1
REMARK SMILES IDX 7 1 6 2 5 3 4 4 3 5 2 6 1 7 28 8 29 9 90 10 30 11 89 12
REMARK SMILES IDX 31 13 32 14 33 15 83 16 34 17 88 18 82 19 84 20 35 21 87 22
REMARK SMILES IDX 81 23 80 24 36 26 68 27 48 28 67 29 49 30 52 31 66 32 85 33
REMARK SMILES IDX 50 34 51 35 65 37 86 38 53 39 37 40 38 41 46 42 39 43 45 44
REMARK SMILES IDX 47 45 44 46 40 47 41 48 42 49 43 50 69 51 70 52 78 53 71 54
REMARK SMILES IDX 77 55 79 56 76 57 72 58 73 59 74 60 75 61 54 62 55 63 63 64
REMARK SMILES IDX 56 65 62 66 64 67 61 68 57 69 58 70 59 71 60 72 8 73 9 74
REMARK SMILES IDX 10 75 11 76 12 77 13 78 14 79 15 80 16 81 27 82 17 83 26 84
REMARK SMILES IDX 25 85 18 86 19 87 20 88 21 89 24 90 22 91 23 92
REMARK H PARENT 84 25 52 36
REMARK Flexibility Score: inf
ROOT
ATOM      1  C   UNL A   1      30.282  28.713  23.207  1.00  0.00     0.188 C 
ENDROOT
BRANCH   1   2
ATOM      2  O   UNL A   1      30.648  29.862  23.983  1.00  0.00    -0.376 OA
BRANCH   2   3
ATOM      3  C   UNL A   1      31.521  29.566  25.078  1.00  0.00     0.202 C 
BRANCH   3   4
ATOM      4  C   UNL A   1      31.823  30.750  26.007  1.00  0.00     0.261 C 
BRANCH   4   5
ATOM      5  O   UNL A   1      32.884  30.452  26.930  1.00  0.00    -0.460 OA
BRANCH   5   6
ATOM      6  C   UNL A   1      33.736  31.330  27.520  1.00  0.00     0.338 C 
ATOM      7  O   UNL A   1      33.373  32.496  27.670  1.00  0.00    -0.246 OA
BRANCH   6   8
ATOM      8  C   UNL A   1      35.075  30.938  28.055  1.00  0.00     0.060 A 
ATOM      9  C   UNL A   1      35.469  29.631  28.344  1.00  0.00     0.016 A 
ATOM     10  C   UNL A   1      36.014  31.967  28.237  1.00  0.00     0.016 A 
ATOM     11  C   UNL A   1      36.692  29.371  28.958  1.00  0.00     0.010 A 
ATOM     12  C   UNL A   1      37.273  31.704  28.788  1.00  0.00     0.010 A 
ATOM     13  C   UNL A   1      37.590  30.409  29.211  1.00  0.00    -0.014 A 
BRANCH  13  14
ATOM     14  C   UNL A   1      38.788  30.123  30.034  1.00  0.00     0.031 A 
ATOM     15  C   UNL A   1      38.805  30.569  31.465  1.00  0.00     0.074 A 
ATOM     16  C   UNL A   1      39.790  29.382  29.531  1.00  0.00     0.049 A 
ATOM     17  N   UNL A   1      39.721  30.388  32.377  1.00  0.00    -0.248 NA
ATOM     18  C   UNL A   1      37.642  31.345  31.919  1.00  0.00     0.031 C 
ATOM     19  C   UNL A   1      39.846  28.902  28.154  1.00  0.00     0.029 A 
ATOM     20  N   UNL A   1      40.922  28.867  30.111  1.00  0.00    -0.354 N 
ATOM     21  C   UNL A   1      39.275  31.077  33.498  1.00  0.00     0.074 A 
ATOM     22  C   UNL A   1      38.005  31.675  33.148  1.00  0.00     0.031 C 
ATOM     23  C   UNL A   1      40.918  28.107  28.019  1.00  0.00     0.029 A 
ATOM     24  C   UNL A   1      41.624  28.016  29.287  1.00  0.00     0.049 A 
ATOM     25  H   UNL A   1      41.205  29.086  31.029  1.00  0.00     0.167 HD
ATOM     26  C   UNL A   1      39.890  31.215  34.699  1.00  0.00     0.034 A 
ATOM     27  C   UNL A   1      42.692  27.231  29.540  1.00  0.00     0.034 A 
ATOM     28  C   UNL A   1      41.159  30.602  35.007  1.00  0.00     0.049 A 
ATOM     29  C   UNL A   1      43.312  27.337  30.910  1.00  0.00     0.074 A 
ATOM     30  C   UNL A   1      41.933  30.727  36.146  1.00  0.00     0.029 A 
ATOM     31  N   UNL A   1      41.841  29.735  34.158  1.00  0.00    -0.354 N 
ATOM     32  N   UNL A   1      42.911  28.043  31.944  1.00  0.00    -0.248 NA
ATOM     33  C   UNL A   1      44.542  26.572  31.137  1.00  0.00     0.031 C 
ATOM     34  C   UNL A   1      43.104  29.977  35.966  1.00  0.00     0.029 A 
ATOM     35  C   UNL A   1      43.031  29.330  34.741  1.00  0.00     0.049 A 
ATOM     36  H   UNL A   1      41.523  29.450  33.272  1.00  0.00     0.167 HD
ATOM     37  C   UNL A   1      43.859  27.826  32.936  1.00  0.00     0.074 A 
ATOM     38  C   UNL A   1      44.806  26.866  32.401  1.00  0.00     0.031 C 
ATOM     39  C   UNL A   1      43.967  28.395  34.163  1.00  0.00     0.034 A 
BRANCH  26  40
ATOM     40  C   UNL A   1      39.241  32.159  35.681  1.00  0.00     0.023 A 
ATOM     41  C   UNL A   1      39.620  33.510  35.781  1.00  0.00     0.031 A 
ATOM     42  C   UNL A   1      38.325  31.662  36.625  1.00  0.00     0.131 A 
ATOM     43  C   UNL A   1      39.174  34.281  36.866  1.00  0.00     0.055 A 
ATOM     44  C   UNL A   1      37.811  32.461  37.648  1.00  0.00     0.041 A 
ATOM     45  F   UNL A   1      37.947  30.373  36.600  1.00  0.00    -0.206 F 
ATOM     46  C   UNL A   1      38.254  33.773  37.787  1.00  0.00     0.022 A 
BRANCH  43  47
ATOM     47  S   UNL A   1      39.967  35.886  37.172  1.00  0.00     0.124 S 
ATOM     48  O   UNL A   1      39.672  36.601  35.933  1.00  0.00    -0.237 OA
ATOM     49  O   UNL A   1      39.272  36.360  38.364  1.00  0.00    -0.237 OA
ATOM     50  O   UNL A   1      41.374  35.542  37.365  1.00  0.00    -0.744 OA
ENDBRANCH  43  47
ENDBRANCH  26  40
BRANCH  27  51
ATOM     51  C   UNL A   1      43.258  26.294  28.517  1.00  0.00     0.023 A 
ATOM     52  C   UNL A   1      44.269  26.715  27.629  1.00  0.00     0.031 A 
ATOM     53  C   UNL A   1      42.765  24.987  28.367  1.00  0.00     0.131 A 
ATOM     54  C   UNL A   1      44.719  25.856  26.611  1.00  0.00     0.055 A 
ATOM     55  C   UNL A   1      43.262  24.114  27.394  1.00  0.00     0.041 A 
ATOM     56  F   UNL A   1      41.793  24.529  29.172  1.00  0.00    -0.206 F 
ATOM     57  C   UNL A   1      44.235  24.551  26.503  1.00  0.00     0.022 A 
BRANCH  54  58
ATOM     58  S   UNL A   1      45.887  26.486  25.365  1.00  0.00     0.124 S 
ATOM     59  O   UNL A   1      47.087  26.701  26.162  1.00  0.00    -0.237 OA
ATOM     60  O   UNL A   1      45.944  25.389  24.405  1.00  0.00    -0.237 OA
ATOM     61  O   UNL A   1      45.232  27.695  24.871  1.00  0.00    -0.744 OA
ENDBRANCH  54  58
ENDBRANCH  27  51
BRANCH  39  62
ATOM     62  C   UNL A   1      45.171  27.996  34.974  1.00  0.00     0.023 A 
ATOM     63  C   UNL A   1      45.118  26.901  35.855  1.00  0.00     0.031 A 
ATOM     64  C   UNL A   1      46.362  28.733  34.897  1.00  0.00     0.131 A 
ATOM     65  C   UNL A   1      46.216  26.615  36.678  1.00  0.00     0.055 A 
ATOM     66  C   UNL A   1      47.474  28.406  35.673  1.00  0.00     0.041 A 
ATOM     67  F   UNL A   1      46.460  29.788  34.072  1.00  0.00    -0.206 F 
ATOM     68  C   UNL A   1      47.400  27.352  36.580  1.00  0.00     0.022 A 
BRANCH  65  69
ATOM     69  S   UNL A   1      46.039  25.331  37.945  1.00  0.00     0.124 S 
ATOM     70  O   UNL A   1      44.683  24.849  37.700  1.00  0.00    -0.237 OA
ATOM     71  O   UNL A   1      47.116  24.406  37.606  1.00  0.00    -0.237 OA
ATOM     72  O   UNL A   1      46.221  26.061  39.198  1.00  0.00    -0.744 OA
ENDBRANCH  65  69
ENDBRANCH  39  62
ENDBRANCH  13  14
ENDBRANCH   6   8
ENDBRANCH   5   6
ENDBRANCH   4   5
ENDBRANCH   3   4
ENDBRANCH   2   3
ENDBRANCH   1   2
BRANCH   1  73
ATOM     73  C   UNL A   1      29.896  27.525  24.091  1.00  0.00     0.188 C 
BRANCH  73  74
ATOM     74  O   UNL A   1      30.292  26.236  23.610  1.00  0.00    -0.376 OA
BRANCH  74  75
ATOM     75  C   UNL A   1      30.128  25.137  24.502  1.00  0.00     0.202 C 
BRANCH  75  76
ATOM     76  C   UNL A   1      30.193  25.443  26.001  1.00  0.00     0.261 C 
BRANCH  76  77
ATOM     77  O   UNL A   1      31.409  25.034  26.636  1.00  0.00    -0.459 OA
BRANCH  77  78
ATOM     78  C   UNL A   1      32.490  25.796  26.344  1.00  0.00     0.357 C 
ATOM     79  O   UNL A   1      32.649  26.989  26.579  1.00  0.00    -0.244 OA
BRANCH  78  80
ATOM     80  C   UNL A   1      33.427  25.018  25.515  1.00  0.00     0.149 A 
ATOM     81  C   UNL A   1      33.941  23.867  26.088  1.00  0.00     0.051 A 
ATOM     82  N   UNL A   1      33.666  25.427  24.243  1.00  0.00    -0.249 NA
ATOM     83  C   UNL A   1      34.798  23.084  25.337  1.00  0.00     0.011 A 
ATOM     84  C   UNL A   1      34.475  24.626  23.519  1.00  0.00     0.113 A 
ATOM     85  C   UNL A   1      35.052  23.464  24.014  1.00  0.00     0.035 A 
BRANCH  83  86
ATOM     86  S   UNL A   1      35.587  21.612  25.951  1.00  0.00    -0.126 SA
BRANCH  86  87
ATOM     87  C   UNL A   1      37.098  21.387  24.931  1.00  0.00     0.081 C 
BRANCH  87  88
ATOM     88  C   UNL A   1      38.430  22.016  25.357  1.00  0.00     0.027 C 
ATOM     89  C   UNL A   1      38.254  23.233  26.256  1.00  0.00     0.035 C 
ATOM     90  C   UNL A   1      39.416  21.214  26.174  1.00  0.00     0.164 C 
ATOM     91  C   UNL A   1      39.599  23.369  26.956  1.00  0.00     0.160 C 
ATOM     92  O   UNL A   1      40.362  22.195  26.622  1.00  0.00    -0.381 OA
ENDBRANCH  87  88
ENDBRANCH  86  87
ENDBRANCH  83  86
ENDBRANCH  78  80
ENDBRANCH  77  78
ENDBRANCH  76  77
ENDBRANCH  75  76
ENDBRANCH  74  75
ENDBRANCH  73  74
ENDBRANCH   1  73
TORSDOF 23
ENDMDL
MODEL 2
REMARK VINA RESULT:      -9.4      1.683      2.146
REMARK SMILES O=C(OCCOCCOCCOC(=O)c1cc(SC[C@H]2CCOC2)ccn1)c1ccc(-c2c3nc(c(-c4cc(S(=O)(=O)[O-])ccc4F)c4ccc([nH]4)c(-c4cc(S(=O)(=O)[O-])ccc4F)c4nc(c(-c5cc(S(=O)(=O)[O-])ccc5F)c5ccc2[nH]5)C=C4)C=C3)cc1
REMARK SMILES IDX 7 1 6 2 5 3 4 4 3 5 2 6 1 7 28 8 29 9 90 10 30 11 89 12
REMARK SMILES IDX 31 13 32 14 33 15 83 16 34 17 88 18 82 19 84 20 35 21 87 22
REMARK SMILES IDX 81 23 80 24 36 26 68 27 48 28 67 29 49 30 52 31 66 32 85 33
REMARK SMILES IDX 50 34 51 35 65 37 86 38 53 39 37 40 38 41 46 42 39 43 45 44
REMARK SMILES IDX 47 45 44 46 40 47 41 48 42 49 43 50 69 51 70 52 78 53 71 54
REMARK SMILES IDX 77 55 79 56 76 57 72 58 73 59 74 60 75 61 54 62 55 63 63 64
REMARK SMILES IDX 56 65 62 66 64 67 61 68 57 69 58 70 59 71 60 72 8 73 9 74
REMARK SMILES IDX 10 75 11 76 12 77 13 78 14 79 15 80 16 81 27 82 17 83 26 84
REMARK SMILES IDX 25 85 18 86 19 87 20 88 21 89 24 90 22 91 23 92
REMARK H PARENT 84 25 52 36
REMARK Flexibility Score: inf
ROOT
ATOM      1  C   UNL A   1      30.086  28.742  23.008  1.00  0.00     0.188 C 
ENDROOT
BRANCH   1   2
ATOM      2  O   UNL A   1      30.433  29.890  23.793  1.00  0.00    -0.376 OA
BRANCH   2   3
ATOM      3  C   UNL A   1      31.240  29.586  24.935  1.00  0.00     0.202 C 
BRANCH   3   4
ATOM      4  C   UNL A   1      31.520  30.773  25.868  1.00  0.00     0.261 C 
BRANCH   4   5
ATOM      5  O   UNL A   1      32.566  30.482  26.810  1.00  0.00    -0.460 OA
BRANCH   5   6
ATOM      6  C   UNL A   1      33.433  31.360  27.379  1.00  0.00     0.338 C 
ATOM      7  O   UNL A   1      33.067  32.521  27.555  1.00  0.00    -0.246 OA
BRANCH   6   8
ATOM      8  C   UNL A   1      34.793  30.972  27.861  1.00  0.00     0.060 A 
ATOM      9  C   UNL A   1      35.222  29.661  28.074  1.00  0.00     0.016 A 
ATOM     10  C   UNL A   1      35.714  32.012  28.072  1.00  0.00     0.016 A 
ATOM     11  C   UNL A   1      36.465  29.398  28.645  1.00  0.00     0.010 A 
ATOM     12  C   UNL A   1      36.991  31.750  28.578  1.00  0.00     0.010 A 
ATOM     13  C   UNL A   1      37.347  30.442  28.928  1.00  0.00    -0.014 A 
BRANCH  13  14
ATOM     14  C   UNL A   1      38.571  30.143  29.707  1.00  0.00     0.031 A 
ATOM     15  C   UNL A   1      38.635  30.566  31.143  1.00  0.00     0.074 A 
ATOM     16  C   UNL A   1      39.555  29.410  29.159  1.00  0.00     0.049 A 
ATOM     17  N   UNL A   1      39.580  30.370  32.022  1.00  0.00    -0.248 NA
ATOM     18  C   UNL A   1      37.489  31.335  31.648  1.00  0.00     0.031 C 
ATOM     19  C   UNL A   1      39.566  28.953  27.773  1.00  0.00     0.029 A 
ATOM     20  N   UNL A   1      40.705  28.886  29.693  1.00  0.00    -0.354 N 
ATOM     21  C   UNL A   1      39.172  31.041  33.168  1.00  0.00     0.074 A 
ATOM     22  C   UNL A   1      37.891  31.645  32.869  1.00  0.00     0.031 C 
ATOM     23  C   UNL A   1      40.632  28.160  27.590  1.00  0.00     0.029 A 
ATOM     24  C   UNL A   1      41.379  28.048  28.832  1.00  0.00     0.049 A 
ATOM     25  H   UNL A   1      41.019  29.090  30.604  1.00  0.00     0.167 HD
ATOM     26  C   UNL A   1      39.827  31.159  34.350  1.00  0.00     0.034 A 
ATOM     27  C   UNL A   1      42.455  27.259  29.038  1.00  0.00     0.034 A 
ATOM     28  C   UNL A   1      41.104  30.541  34.606  1.00  0.00     0.049 A 
ATOM     29  C   UNL A   1      43.119  27.343  30.388  1.00  0.00     0.074 A 
ATOM     30  C   UNL A   1      41.915  30.647  35.721  1.00  0.00     0.029 A 
ATOM     31  N   UNL A   1      41.758  29.687  33.722  1.00  0.00    -0.354 N 
ATOM     32  N   UNL A   1      42.753  28.031  31.446  1.00  0.00    -0.248 NA
ATOM     33  C   UNL A   1      44.356  26.574  30.563  1.00  0.00     0.031 C 
ATOM     34  C   UNL A   1      43.079  29.901  35.491  1.00  0.00     0.029 A 
ATOM     35  C   UNL A   1      42.966  29.273  34.259  1.00  0.00     0.049 A 
ATOM     36  H   UNL A   1      41.411  29.417  32.841  1.00  0.00     0.167 HD
ATOM     37  C   UNL A   1      43.733  27.799  32.403  1.00  0.00     0.074 A 
ATOM     38  C   UNL A   1      44.661  26.847  31.822  1.00  0.00     0.031 C 
ATOM     39  C   UNL A   1      43.881  28.348  33.635  1.00  0.00     0.034 A 
BRANCH  26  40
ATOM     40  C   UNL A   1      39.210  32.087  35.368  1.00  0.00     0.023 A 
ATOM     41  C   UNL A   1      39.578  33.441  35.463  1.00  0.00     0.031 A 
ATOM     42  C   UNL A   1      38.343  31.571  36.347  1.00  0.00     0.131 A 
ATOM     43  C   UNL A   1      39.171  34.199  36.573  1.00  0.00     0.055 A 
ATOM     44  C   UNL A   1      37.866  32.356  37.398  1.00  0.00     0.041 A 
ATOM     45  F   UNL A   1      37.979  30.279  36.327  1.00  0.00    -0.206 F 
ATOM     46  C   UNL A   1      38.299  33.672  37.529  1.00  0.00     0.022 A 
BRANCH  43  47
ATOM     47  S   UNL A   1      39.959  35.810  36.858  1.00  0.00     0.124 S 
ATOM     48  O   UNL A   1      39.289  36.253  38.079  1.00  0.00    -0.237 OA
ATOM     49  O   UNL A   1      41.366  35.454  36.996  1.00  0.00    -0.237 OA
ATOM     50  O   UNL A   1      39.623  36.573  35.659  1.00  0.00    -0.744 OA
ENDBRANCH  43  47
ENDBRANCH  26  40
BRANCH  27  51
ATOM     51  C   UNL A   1      42.986  26.339  27.981  1.00  0.00     0.023 A 
ATOM     52  C   UNL A   1      44.173  26.643  27.284  1.00  0.00     0.031 A 
ATOM     53  C   UNL A   1      42.294  25.173  27.608  1.00  0.00     0.131 A 
ATOM     54  C   UNL A   1      44.604  25.821  26.229  1.00  0.00     0.055 A 
ATOM     55  C   UNL A   1      42.763  24.324  26.602  1.00  0.00     0.041 A 
ATOM     56  F   UNL A   1      41.151  24.834  28.224  1.00  0.00    -0.206 F 
ATOM     57  C   UNL A   1      43.916  24.653  25.898  1.00  0.00     0.022 A 
BRANCH  54  58
ATOM     58  S   UNL A   1      46.032  26.335  25.225  1.00  0.00     0.124 S 
ATOM     59  O   UNL A   1      47.009  26.682  26.249  1.00  0.00    -0.237 OA
ATOM     60  O   UNL A   1      46.320  25.134  24.448  1.00  0.00    -0.237 OA
ATOM     61  O   UNL A   1      45.511  27.456  24.446  1.00  0.00    -0.744 OA
ENDBRANCH  54  58
ENDBRANCH  27  51
BRANCH  39  62
ATOM     62  C   UNL A   1      45.111  27.935  34.399  1.00  0.00     0.023 A 
ATOM     63  C   UNL A   1      45.117  26.767  35.183  1.00  0.00     0.031 A 
ATOM     64  C   UNL A   1      46.267  28.730  34.377  1.00  0.00     0.131 A 
ATOM     65  C   UNL A   1      46.236  26.462  35.969  1.00  0.00     0.055 A 
ATOM     66  C   UNL A   1      47.401  28.388  35.114  1.00  0.00     0.041 A 
ATOM     67  F   UNL A   1      46.309  29.855  33.646  1.00  0.00    -0.206 F 
ATOM     68  C   UNL A   1      47.384  27.257  35.927  1.00  0.00     0.022 A 
BRANCH  65  69
ATOM     69  S   UNL A   1      46.131  25.066  37.121  1.00  0.00     0.124 S 
ATOM     70  O   UNL A   1      44.692  24.963  37.342  1.00  0.00    -0.237 OA
ATOM     71  O   UNL A   1      46.738  23.982  36.356  1.00  0.00    -0.237 OA
ATOM     72  O   UNL A   1      46.904  25.518  38.276  1.00  0.00    -0.744 OA
ENDBRANCH  65  69
ENDBRANCH  39  62
ENDBRANCH  13  14
ENDBRANCH   6   8
ENDBRANCH   5   6
ENDBRANCH   4   5
ENDBRANCH   3   4
ENDBRANCH   2   3
ENDBRANCH   1   2
BRANCH   1  73
ATOM     73  C   UNL A   1      29.656  27.561  23.880  1.00  0.00     0.188 C 
BRANCH  73  74
ATOM     74  O   UNL A   1      30.143  26.277  23.474  1.00  0.00    -0.376 OA
BRANCH  74  75
ATOM     75  C   UNL A   1      30.334  25.307  24.500  1.00  0.00     0.202 C 
BRANCH  75  76
ATOM     76  C   UNL A   1      30.745  25.827  25.880  1.00  0.00     0.261 C 
BRANCH  76  77
ATOM     77  O   UNL A   1      32.044  25.404  26.310  1.00  0.00    -0.459 OA
BRANCH  77  78
ATOM     78  C   UNL A   1      33.057  25.734  25.473  1.00  0.00     0.357 C 
ATOM     79  O   UNL A   1      33.332  26.845  25.035  1.00  0.00    -0.244 OA
BRANCH  78  80
ATOM     80  C   UNL A   1      33.715  24.506  24.995  1.00  0.00     0.149 A 
ATOM     81  C   UNL A   1      33.462  23.354  25.721  1.00  0.00     0.051 A 
ATOM     82  N   UNL A   1      34.453  24.562  23.857  1.00  0.00    -0.249 NA
ATOM     83  C   UNL A   1      34.030  22.168  25.291  1.00  0.00     0.011 A 
ATOM     84  C   UNL A   1      34.963  23.385  23.438  1.00  0.00     0.113 A 
ATOM     85  C   UNL A   1      34.780  22.184  24.110  1.00  0.00     0.035 A 
BRANCH  83  86
ATOM     86  S   UNL A   1      33.850  20.618  26.147  1.00  0.00    -0.126 SA
BRANCH  86  87
ATOM     87  C   UNL A   1      32.471  19.739  25.312  1.00  0.00     0.081 C 
BRANCH  87  88
ATOM     88  C   UNL A   1      32.718  18.415  24.580  1.00  0.00     0.027 C 
ATOM     89  C   UNL A   1      34.174  18.217  24.179  1.00  0.00     0.035 C 
ATOM     90  C   UNL A   1      32.447  17.103  25.280  1.00  0.00     0.164 C 
ATOM     91  C   UNL A   1      34.295  16.714  23.967  1.00  0.00     0.160 C 
ATOM     92  O   UNL A   1      33.062  16.130  24.424  1.00  0.00    -0.381 OA
ENDBRANCH  87  88
ENDBRANCH  86  87
ENDBRANCH  83  86
ENDBRANCH  78  80
ENDBRANCH  77  78
ENDBRANCH  76  77
ENDBRANCH  75  76
ENDBRANCH  74  75
ENDBRANCH  73  74
ENDBRANCH   1  73
TORSDOF 23
ENDMDL
MODEL 3
REMARK VINA RESULT:      -9.1      2.476      8.108
REMARK SMILES O=C(OCCOCCOCCOC(=O)c1cc(SC[C@H]2CCOC2)ccn1)c1ccc(-c2c3nc(c(-c4cc(S(=O)(=O)[O-])ccc4F)c4ccc([nH]4)c(-c4cc(S(=O)(=O)[O-])ccc4F)c4nc(c(-c5cc(S(=O)(=O)[O-])ccc5F)c5ccc2[nH]5)C=C4)C=C3)cc1
REMARK SMILES IDX 7 1 6 2 5 3 4 4 3 5 2 6 1 7 28 8 29 9 90 10 30 11 89 12
REMARK SMILES IDX 31 13 32 14 33 15 83 16 34 17 88 18 82 19 84 20 35 21 87 22
REMARK SMILES IDX 81 23 80 24 36 26 68 27 48 28 67 29 49 30 52 31 66 32 85 33
REMARK SMILES IDX 50 34 51 35 65 37 86 38 53 39 37 40 38 41 46 42 39 43 45 44
REMARK SMILES IDX 47 45 44 46 40 47 41 48 42 49 43 50 69 51 70 52 78 53 71 54
REMARK SMILES IDX 77 55 79 56 76 57 72 58 73 59 74 60 75 61 54 62 55 63 63 64
REMARK SMILES IDX 56 65 62 66 64 67 61 68 57 69 58 70 59 71 60 72 8 73 9 74
REMARK SMILES IDX 10 75 11 76 12 77 13 78 14 79 15 80 16 81 27 82 17 83 26 84
REMARK SMILES IDX 25 85 18 86 19 87 20 88 21 89 24 90 22 91 23 92
REMARK H PARENT 84 25 52 36
REMARK Flexibility Score: inf
ROOT
ATOM      1  C   UNL A   1      30.282  27.175  24.133  1.00  0.00     0.188 C 
ENDROOT
BRANCH   1   2
ATOM      2  O   UNL A   1      30.884  28.468  24.282  1.00  0.00    -0.376 OA
BRANCH   2   3
ATOM      3  C   UNL A   1      31.641  28.618  25.487  1.00  0.00     0.202 C 
BRANCH   3   4
ATOM      4  C   UNL A   1      32.603  29.815  25.506  1.00  0.00     0.261 C 
BRANCH   4   5
ATOM      5  O   UNL A   1      32.448  30.610  26.693  1.00  0.00    -0.460 OA
BRANCH   5   6
ATOM      6  C   UNL A   1      33.367  31.434  27.261  1.00  0.00     0.338 C 
ATOM      7  O   UNL A   1      33.081  32.621  27.414  1.00  0.00    -0.246 OA
BRANCH   6   8
ATOM      8  C   UNL A   1      34.690  30.959  27.768  1.00  0.00     0.060 A 
ATOM      9  C   UNL A   1      35.064  29.621  27.895  1.00  0.00     0.016 A 
ATOM     10  C   UNL A   1      35.635  31.944  28.101  1.00  0.00     0.016 A 
ATOM     11  C   UNL A   1      36.270  29.268  28.496  1.00  0.00     0.010 A 
ATOM     12  C   UNL A   1      36.878  31.596  28.639  1.00  0.00     0.010 A 
ATOM     13  C   UNL A   1      37.173  30.253  28.898  1.00  0.00    -0.014 A 
BRANCH  13  14
ATOM     14  C   UNL A   1      38.350  29.849  29.703  1.00  0.00     0.031 A 
ATOM     15  C   UNL A   1      39.435  29.052  29.044  1.00  0.00     0.074 A 
ATOM     16  C   UNL A   1      38.483  30.284  30.967  1.00  0.00     0.049 A 
ATOM     17  N   UNL A   1      40.568  28.632  29.538  1.00  0.00    -0.248 NA
ATOM     18  C   UNL A   1      39.199  28.657  27.648  1.00  0.00     0.031 C 
ATOM     19  C   UNL A   1      37.478  31.069  31.677  1.00  0.00     0.029 A 
ATOM     20  N   UNL A   1      39.516  30.174  31.863  1.00  0.00    -0.354 N 
ATOM     21  C   UNL A   1      41.156  27.872  28.534  1.00  0.00     0.074 A 
ATOM     22  C   UNL A   1      40.252  27.895  27.404  1.00  0.00     0.031 C 
ATOM     23  C   UNL A   1      37.975  31.426  32.870  1.00  0.00     0.029 A 
ATOM     24  C   UNL A   1      39.325  30.904  33.015  1.00  0.00     0.049 A 
ATOM     25  H   UNL A   1      40.317  29.625  31.699  1.00  0.00     0.167 HD
ATOM     26  C   UNL A   1      42.332  27.198  28.571  1.00  0.00     0.034 A 
ATOM     27  C   UNL A   1      40.158  31.147  34.049  1.00  0.00     0.034 A 
ATOM     28  C   UNL A   1      43.204  27.199  29.720  1.00  0.00     0.049 A 
ATOM     29  C   UNL A   1      41.495  30.453  34.030  1.00  0.00     0.074 A 
ATOM     30  C   UNL A   1      44.376  26.496  29.925  1.00  0.00     0.029 A 
ATOM     31  N   UNL A   1      42.992  27.958  30.868  1.00  0.00    -0.354 N 
ATOM     32  N   UNL A   1      42.013  29.686  33.097  1.00  0.00    -0.248 NA
ATOM     33  C   UNL A   1      42.344  30.627  35.214  1.00  0.00     0.031 C 
ATOM     34  C   UNL A   1      44.845  26.789  31.213  1.00  0.00     0.029 A 
ATOM     35  C   UNL A   1      44.001  27.728  31.788  1.00  0.00     0.049 A 
ATOM     36  H   UNL A   1      42.233  28.570  31.005  1.00  0.00     0.167 HD
ATOM     37  C   UNL A   1      43.239  29.263  33.596  1.00  0.00     0.074 A 
ATOM     38  C   UNL A   1      43.414  29.923  34.877  1.00  0.00     0.031 C 
ATOM     39  C   UNL A   1      44.125  28.381  33.070  1.00  0.00     0.034 A 
BRANCH  26  40
ATOM     40  C   UNL A   1      42.640  26.322  27.381  1.00  0.00     0.023 A 
ATOM     41  C   UNL A   1      42.202  24.988  27.302  1.00  0.00     0.031 A 
ATOM     42  C   UNL A   1      43.504  26.791  26.376  1.00  0.00     0.131 A 
ATOM     43  C   UNL A   1      42.718  24.142  26.306  1.00  0.00     0.055 A 
ATOM     44  C   UNL A   1      43.940  25.970  25.334  1.00  0.00     0.041 A 
ATOM     45  F   UNL A   1      43.980  28.046  26.413  1.00  0.00    -0.206 F 
ATOM     46  C   UNL A   1      43.565  24.630  25.309  1.00  0.00     0.022 A 
BRANCH  43  47
ATOM     47  S   UNL A   1      42.428  22.355  26.453  1.00  0.00     0.124 S 
ATOM     48  O   UNL A   1      43.463  21.817  25.573  1.00  0.00    -0.237 OA
ATOM     49  O   UNL A   1      42.618  22.121  27.880  1.00  0.00    -0.237 OA
ATOM     50  O   UNL A   1      41.060  22.188  25.969  1.00  0.00    -0.744 OA
ENDBRANCH  43  47
ENDBRANCH  26  40
BRANCH  27  51
ATOM     51  C   UNL A   1      39.786  32.058  35.179  1.00  0.00     0.023 A 
ATOM     52  C   UNL A   1      39.005  31.593  36.258  1.00  0.00     0.031 A 
ATOM     53  C   UNL A   1      40.150  33.415  35.179  1.00  0.00     0.131 A 
ATOM     54  C   UNL A   1      38.583  32.484  37.260  1.00  0.00     0.055 A 
ATOM     55  C   UNL A   1      39.782  34.282  36.211  1.00  0.00     0.041 A 
ATOM     56  F   UNL A   1      40.882  33.922  34.174  1.00  0.00    -0.206 F 
ATOM     57  C   UNL A   1      38.984  33.821  37.253  1.00  0.00     0.022 A 
BRANCH  54  58
ATOM     58  S   UNL A   1      37.424  31.903  38.538  1.00  0.00     0.124 S 
ATOM     59  O   UNL A   1      37.258  30.501  38.175  1.00  0.00    -0.237 OA
ATOM     60  O   UNL A   1      38.160  32.162  39.771  1.00  0.00    -0.237 OA
ATOM     61  O   UNL A   1      36.250  32.749  38.339  1.00  0.00    -0.744 OA
ENDBRANCH  54  58
ENDBRANCH  27  51
BRANCH  39  62
ATOM     62  C   UNL A   1      45.337  28.078  33.911  1.00  0.00     0.023 A 
ATOM     63  C   UNL A   1      45.352  26.979  34.787  1.00  0.00     0.031 A 
ATOM     64  C   UNL A   1      46.464  28.913  33.868  1.00  0.00     0.131 A 
ATOM     65  C   UNL A   1      46.448  26.781  35.638  1.00  0.00     0.055 A 
ATOM     66  C   UNL A   1      47.578  28.676  34.673  1.00  0.00     0.041 A 
ATOM     67  F   UNL A   1      46.495  29.977  33.049  1.00  0.00    -0.206 F 
ATOM     68  C   UNL A   1      47.568  27.614  35.574  1.00  0.00     0.022 A 
BRANCH  65  69
ATOM     69  S   UNL A   1      46.346  25.480  36.896  1.00  0.00     0.124 S 
ATOM     70  O   UNL A   1      47.413  25.861  37.815  1.00  0.00    -0.237 OA
ATOM     71  O   UNL A   1      44.984  25.637  37.398  1.00  0.00    -0.237 OA
ATOM     72  O   UNL A   1      46.588  24.253  36.139  1.00  0.00    -0.744 OA
ENDBRANCH  65  69
ENDBRANCH  39  62
ENDBRANCH  13  14
ENDBRANCH   6   8
ENDBRANCH   5   6
ENDBRANCH   4   5
ENDBRANCH   3   4
ENDBRANCH   2   3
ENDBRANCH   1   2
BRANCH   1  73
ATOM     73  C   UNL A   1      30.079  26.480  25.481  1.00  0.00     0.188 C 
BRANCH  73  74
ATOM     74  O   UNL A   1      29.817  25.074  25.424  1.00  0.00    -0.376 OA
BRANCH  74  75
ATOM     75  C   UNL A   1      30.589  24.239  26.283  1.00  0.00     0.202 C 
BRANCH  75  76
ATOM     76  C   UNL A   1      31.894  24.823  26.831  1.00  0.00     0.261 C 
BRANCH  76  77
ATOM     77  O   UNL A   1      33.080  24.205  26.319  1.00  0.00    -0.459 OA
BRANCH  77  78
ATOM     78  C   UNL A   1      33.734  24.921  25.374  1.00  0.00     0.357 C 
ATOM     79  O   UNL A   1      34.338  25.979  25.523  1.00  0.00    -0.244 OA
BRANCH  78  80
ATOM     80  C   UNL A   1      33.475  24.334  24.048  1.00  0.00     0.149 A 
ATOM     81  C   UNL A   1      33.025  23.025  24.037  1.00  0.00     0.051 A 
ATOM     82  N   UNL A   1      33.618  25.117  22.949  1.00  0.00    -0.249 NA
ATOM     83  C   UNL A   1      32.734  22.440  22.817  1.00  0.00     0.011 A 
ATOM     84  C   UNL A   1      33.291  24.536  21.776  1.00  0.00     0.113 A 
ATOM     85  C   UNL A   1      32.851  23.224  21.664  1.00  0.00     0.035 A 
BRANCH  83  86
ATOM     86  S   UNL A   1      32.206  20.751  22.632  1.00  0.00    -0.126 SA
BRANCH  86  87
ATOM     87  C   UNL A   1      32.818  19.865  24.120  1.00  0.00     0.081 C 
BRANCH  87  88
ATOM     88  C   UNL A   1      32.603  18.355  24.275  1.00  0.00     0.027 C 
ATOM     89  C   UNL A   1      33.677  17.525  23.585  1.00  0.00     0.035 C 
ATOM     90  C   UNL A   1      32.615  17.729  25.650  1.00  0.00     0.164 C 
ATOM     91  C   UNL A   1      33.587  16.168  24.268  1.00  0.00     0.160 C 
ATOM     92  O   UNL A   1      32.686  16.322  25.380  1.00  0.00    -0.381 OA
ENDBRANCH  87  88
ENDBRANCH  86  87
ENDBRANCH  83  86
ENDBRANCH  78  80
ENDBRANCH  77  78
ENDBRANCH  76  77
ENDBRANCH  75  76
ENDBRANCH  74  75
ENDBRANCH  73  74
ENDBRANCH   1  73
TORSDOF 23
ENDMDL
