MODEL 1
REMARK VINA RESULT:      -8.8      0.000      0.000
REMARK SMILES C[C@H](NC(=O)c1ccncc1/C=C/C(=O)OCCOCCOCCOC(=O)c1ccc(-c2c3nc(c(-c4cc(S(=O)(=O)[O-])ccc4F)c4ccc([nH]4)c(-c4cc(S(=O)(=O)[O-])ccc4F)c4nc(c(-c5cc(S(=O)(=O)[O-])ccc5F)c5ccc2[nH]5)C=C4)C=C3)cc1)c1ccco1
REMARK SMILES IDX 20 1 19 2 18 3 17 4 16 5 14 6 15 7 13 8 12 9 11 10 6 11 7 12
REMARK SMILES IDX 8 13 10 14 9 15 4 16 3 17 5 19 2 20 1 21 91 22 92 23 95 24
REMARK SMILES IDX 93 25 94 26 21 27 22 28 23 29 24 30 25 31 26 32 27 33 28 34
REMARK SMILES IDX 29 35 90 36 30 37 89 38 31 39 32 40 33 41 83 42 34 43 88 44
REMARK SMILES IDX 82 45 84 46 35 47 87 48 81 49 80 50 36 52 68 53 48 54 67 55
REMARK SMILES IDX 49 56 52 57 66 58 85 59 50 60 51 61 65 63 86 64 53 65 37 66
REMARK SMILES IDX 38 67 46 68 39 69 45 70 47 71 44 72 40 73 41 74 42 75 43 76
REMARK SMILES IDX 69 77 70 78 78 79 71 80 77 81 79 82 76 83 72 84 73 85 74 86
REMARK SMILES IDX 75 87 54 88 55 89 63 90 56 91 62 92 64 93 61 94 57 95 58 96
REMARK SMILES IDX 59 97 60 98
REMARK H PARENT 3 18 84 51 52 62
REMARK Flexibility Score: inf
ROOT
ATOM      1  C   UNL A   1      34.866  34.194  30.271  1.00  0.00     0.188 C 
ENDROOT
BRANCH   1   2
ATOM      2  O   UNL A   1      34.485  32.882  29.874  1.00  0.00    -0.376 OA
BRANCH   2   3
ATOM      3  C   UNL A   1      34.312  32.581  28.496  1.00  0.00     0.202 C 
BRANCH   3   4
ATOM      4  C   UNL A   1      34.228  31.124  28.013  1.00  0.00     0.261 C 
BRANCH   4   5
ATOM      5  O   UNL A   1      33.654  30.933  26.708  1.00  0.00    -0.460 OA
BRANCH   5   6
ATOM      6  C   UNL A   1      32.302  30.869  26.679  1.00  0.00     0.330 C 
ATOM      7  O   UNL A   1      31.534  31.819  26.727  1.00  0.00    -0.247 OA
BRANCH   6   8
ATOM      8  C   UNL A   1      31.786  29.497  26.477  1.00  0.00     0.094 C 
ATOM      9  C   UNL A   1      31.583  28.857  25.311  1.00  0.00     0.018 C 
BRANCH   9  10
ATOM     10  C   UNL A   1      31.126  27.449  25.269  1.00  0.00     0.006 A 
ATOM     11  C   UNL A   1      30.806  26.755  24.089  1.00  0.00     0.050 A 
ATOM     12  C   UNL A   1      30.568  25.377  24.108  1.00  0.00     0.034 A 
ATOM     13  C   UNL A   1      30.513  24.746  25.334  1.00  0.00     0.112 A 
ATOM     14  C   UNL A   1      30.985  26.711  26.445  1.00  0.00     0.119 A 
ATOM     15  N   UNL A   1      30.679  25.392  26.502  1.00  0.00    -0.264 NA
BRANCH  11  16
ATOM     16  C   UNL A   1      30.722  27.453  22.794  1.00  0.00     0.252 C 
ATOM     17  N   UNL A   1      31.811  27.531  21.963  1.00  0.00    -0.342 N 
ATOM     18  H   UNL A   1      31.597  27.902  21.076  1.00  0.00     0.164 HD
ATOM     19  O   UNL A   1      29.655  27.944  22.434  1.00  0.00    -0.269 OA
BRANCH  17  20
ATOM     20  C   UNL A   1      33.233  27.176  22.118  1.00  0.00     0.145 C 
ATOM     21  C   UNL A   1      33.940  27.911  23.263  1.00  0.00     0.039 C 
BRANCH  20  22
ATOM     22  C   UNL A   1      33.337  25.676  22.285  1.00  0.00     0.125 A 
ATOM     23  C   UNL A   1      32.903  24.580  21.557  1.00  0.00     0.048 A 
ATOM     24  O   UNL A   1      34.044  25.229  23.369  1.00  0.00    -0.467 OA
ATOM     25  C   UNL A   1      33.319  23.424  22.265  1.00  0.00     0.042 A 
ATOM     26  C   UNL A   1      34.008  23.876  23.363  1.00  0.00     0.195 A 
ENDBRANCH  20  22
ENDBRANCH  17  20
ENDBRANCH  11  16
ENDBRANCH   9  10
ENDBRANCH   6   8
ENDBRANCH   5   6
ENDBRANCH   4   5
ENDBRANCH   3   4
ENDBRANCH   2   3
ENDBRANCH   1   2
BRANCH   1  27
ATOM     27  C   UNL A   1      33.898  35.047  31.117  1.00  0.00     0.188 C 
BRANCH  27  28
ATOM     28  O   UNL A   1      34.263  35.169  32.472  1.00  0.00    -0.376 OA
BRANCH  28  29
ATOM     29  C   UNL A   1      35.434  34.526  32.941  1.00  0.00     0.202 C 
BRANCH  29  30
ATOM     30  C   UNL A   1      35.453  33.262  33.827  1.00  0.00     0.261 C 
BRANCH  30  31
ATOM     31  O   UNL A   1      36.534  32.339  33.680  1.00  0.00    -0.460 OA
BRANCH  31  32
ATOM     32  C   UNL A   1      36.525  31.564  32.574  1.00  0.00     0.338 C 
ATOM     33  O   UNL A   1      35.564  30.951  32.116  1.00  0.00    -0.246 OA
BRANCH  32  34
ATOM     34  C   UNL A   1      37.824  31.708  31.896  1.00  0.00     0.060 A 
ATOM     35  C   UNL A   1      38.986  31.824  32.668  1.00  0.00     0.016 A 
ATOM     36  C   UNL A   1      37.894  31.740  30.500  1.00  0.00     0.016 A 
ATOM     37  C   UNL A   1      40.224  31.988  32.045  1.00  0.00     0.010 A 
ATOM     38  C   UNL A   1      39.133  31.925  29.879  1.00  0.00     0.010 A 
ATOM     39  C   UNL A   1      40.301  32.074  30.648  1.00  0.00    -0.014 A 
BRANCH  39  40
ATOM     40  C   UNL A   1      41.570  32.490  29.999  1.00  0.00     0.031 A 
ATOM     41  C   UNL A   1      42.586  31.430  29.667  1.00  0.00     0.074 A 
ATOM     42  C   UNL A   1      41.814  33.778  29.697  1.00  0.00     0.049 A 
ATOM     43  N   UNL A   1      43.787  31.554  29.166  1.00  0.00    -0.248 NA
ATOM     44  C   UNL A   1      42.186  30.041  29.943  1.00  0.00     0.031 C 
ATOM     45  C   UNL A   1      40.888  34.887  29.925  1.00  0.00     0.029 A 
ATOM     46  N   UNL A   1      42.920  34.371  29.142  1.00  0.00    -0.354 N 
ATOM     47  C   UNL A   1      44.290  30.261  29.066  1.00  0.00     0.074 A 
ATOM     48  C   UNL A   1      43.277  29.374  29.599  1.00  0.00     0.031 C 
ATOM     49  C   UNL A   1      41.473  36.030  29.526  1.00  0.00     0.029 A 
ATOM     50  C   UNL A   1      42.827  35.742  29.055  1.00  0.00     0.049 A 
ATOM     51  H   UNL A   1      43.706  33.865  28.834  1.00  0.00     0.167 HD
ATOM     52  C   UNL A   1      45.483  29.851  28.569  1.00  0.00     0.034 A 
ATOM     53  C   UNL A   1      43.742  36.656  28.672  1.00  0.00     0.034 A 
ATOM     54  C   UNL A   1      46.491  30.750  28.062  1.00  0.00     0.049 A 
ATOM     55  C   UNL A   1      45.106  36.185  28.220  1.00  0.00     0.074 A 
ATOM     56  C   UNL A   1      47.734  30.443  27.537  1.00  0.00     0.029 A 
ATOM     57  N   UNL A   1      46.382  32.135  28.034  1.00  0.00    -0.354 N 
ATOM     58  N   UNL A   1      45.571  34.960  28.127  1.00  0.00    -0.248 NA
ATOM     59  C   UNL A   1      46.067  37.221  27.817  1.00  0.00     0.031 C 
ATOM     60  C   UNL A   1      48.404  31.641  27.261  1.00  0.00     0.029 A 
ATOM     61  C   UNL A   1      47.547  32.695  27.531  1.00  0.00     0.049 A 
ATOM     62  H   UNL A   1      45.592  32.644  28.327  1.00  0.00     0.167 HD
ATOM     63  C   UNL A   1      46.864  35.079  27.619  1.00  0.00     0.074 A 
ATOM     64  C   UNL A   1      47.099  36.493  27.415  1.00  0.00     0.031 C 
ATOM     65  C   UNL A   1      47.772  34.109  27.339  1.00  0.00     0.034 A 
BRANCH  52  66
ATOM     66  C   UNL A   1      45.774  28.370  28.604  1.00  0.00     0.023 A 
ATOM     67  C   UNL A   1      45.311  27.500  27.599  1.00  0.00     0.031 A 
ATOM     68  C   UNL A   1      46.494  27.813  29.675  1.00  0.00     0.131 A 
ATOM     69  C   UNL A   1      45.510  26.117  27.724  1.00  0.00     0.055 A 
ATOM     70  C   UNL A   1      46.760  26.444  29.751  1.00  0.00     0.041 A 
ATOM     71  F   UNL A   1      46.939  28.587  30.677  1.00  0.00    -0.206 F 
ATOM     72  C   UNL A   1      46.254  25.586  28.780  1.00  0.00     0.022 A 
BRANCH  69  73
ATOM     73  S   UNL A   1      44.657  25.011  26.568  1.00  0.00     0.124 S 
ATOM     74  O   UNL A   1      45.147  25.496  25.279  1.00  0.00    -0.237 OA
ATOM     75  O   UNL A   1      45.132  23.696  26.978  1.00  0.00    -0.237 OA
ATOM     76  O   UNL A   1      43.241  25.272  26.824  1.00  0.00    -0.744 OA
ENDBRANCH  69  73
ENDBRANCH  52  66
BRANCH  53  77
ATOM     77  C   UNL A   1      43.433  38.116  28.739  1.00  0.00     0.023 A 
ATOM     78  C   UNL A   1      43.697  38.864  29.897  1.00  0.00     0.031 A 
ATOM     79  C   UNL A   1      42.798  38.767  27.666  1.00  0.00     0.131 A 
ATOM     80  C   UNL A   1      43.280  40.203  29.976  1.00  0.00     0.055 A 
ATOM     81  C   UNL A   1      42.440  40.115  27.727  1.00  0.00     0.041 A 
ATOM     82  F   UNL A   1      42.515  38.099  26.537  1.00  0.00    -0.206 F 
ATOM     83  C   UNL A   1      42.667  40.838  28.893  1.00  0.00     0.022 A 
BRANCH  80  84
ATOM     84  S   UNL A   1      43.455  41.076  31.558  1.00  0.00     0.124 S 
ATOM     85  O   UNL A   1      42.280  40.608  32.285  1.00  0.00    -0.237 OA
ATOM     86  O   UNL A   1      44.743  40.584  32.034  1.00  0.00    -0.237 OA
ATOM     87  O   UNL A   1      43.431  42.485  31.173  1.00  0.00    -0.744 OA
ENDBRANCH  80  84
ENDBRANCH  53  77
BRANCH  65  88
ATOM     88  C   UNL A   1      49.084  34.545  26.728  1.00  0.00     0.023 A 
ATOM     89  C   UNL A   1      50.277  34.583  27.472  1.00  0.00     0.031 A 
ATOM     90  C   UNL A   1      49.138  34.932  25.377  1.00  0.00     0.131 A 
ATOM     91  C   UNL A   1      51.459  35.052  26.876  1.00  0.00     0.055 A 
ATOM     92  C   UNL A   1      50.328  35.337  24.773  1.00  0.00     0.041 A 
ATOM     93  F   UNL A   1      48.030  34.918  24.618  1.00  0.00    -0.206 F 
ATOM     94  C   UNL A   1      51.496  35.411  25.526  1.00  0.00     0.022 A 
BRANCH  91  95
ATOM     95  S   UNL A   1      52.931  35.275  27.912  1.00  0.00     0.124 S 
ATOM     96  O   UNL A   1      52.513  34.665  29.169  1.00  0.00    -0.237 OA
ATOM     97  O   UNL A   1      53.954  34.552  27.162  1.00  0.00    -0.237 OA
ATOM     98  O   UNL A   1      53.105  36.726  27.953  1.00  0.00    -0.744 OA
ENDBRANCH  91  95
ENDBRANCH  65  88
ENDBRANCH  39  40
ENDBRANCH  32  34
ENDBRANCH  31  32
ENDBRANCH  30  31
ENDBRANCH  29  30
ENDBRANCH  28  29
ENDBRANCH  27  28
ENDBRANCH   1  27
TORSDOF 24
ENDMDL
MODEL 2
REMARK VINA RESULT:      -8.8      4.082      7.555
REMARK SMILES C[C@H](NC(=O)c1ccncc1/C=C/C(=O)OCCOCCOCCOC(=O)c1ccc(-c2c3nc(c(-c4cc(S(=O)(=O)[O-])ccc4F)c4ccc([nH]4)c(-c4cc(S(=O)(=O)[O-])ccc4F)c4nc(c(-c5cc(S(=O)(=O)[O-])ccc5F)c5ccc2[nH]5)C=C4)C=C3)cc1)c1ccco1
REMARK SMILES IDX 20 1 19 2 18 3 17 4 16 5 14 6 15 7 13 8 12 9 11 10 6 11 7 12
REMARK SMILES IDX 8 13 10 14 9 15 4 16 3 17 5 19 2 20 1 21 91 22 92 23 95 24
REMARK SMILES IDX 93 25 94 26 21 27 22 28 23 29 24 30 25 31 26 32 27 33 28 34
REMARK SMILES IDX 29 35 90 36 30 37 89 38 31 39 32 40 33 41 83 42 34 43 88 44
REMARK SMILES IDX 82 45 84 46 35 47 87 48 81 49 80 50 36 52 68 53 48 54 67 55
REMARK SMILES IDX 49 56 52 57 66 58 85 59 50 60 51 61 65 63 86 64 53 65 37 66
REMARK SMILES IDX 38 67 46 68 39 69 45 70 47 71 44 72 40 73 41 74 42 75 43 76
REMARK SMILES IDX 69 77 70 78 78 79 71 80 77 81 79 82 76 83 72 84 73 85 74 86
REMARK SMILES IDX 75 87 54 88 55 89 63 90 56 91 62 92 64 93 61 94 57 95 58 96
REMARK SMILES IDX 59 97 60 98
REMARK H PARENT 3 18 84 51 52 62
REMARK Flexibility Score: inf
ROOT
ATOM      1  C   UNL A   1      38.147  21.272  25.684  1.00  0.00     0.188 C 
ENDROOT
BRANCH   1   2
ATOM      2  O   UNL A   1      37.636  21.617  24.403  1.00  0.00    -0.376 OA
BRANCH   2   3
ATOM      3  C   UNL A   1      36.512  22.481  24.298  1.00  0.00     0.202 C 
BRANCH   3   4
ATOM      4  C   UNL A   1      36.228  23.540  25.376  1.00  0.00     0.261 C 
BRANCH   4   5
ATOM      5  O   UNL A   1      35.242  24.528  25.034  1.00  0.00    -0.460 OA
BRANCH   5   6
ATOM      6  C   UNL A   1      34.139  24.534  25.820  1.00  0.00     0.330 C 
ATOM      7  O   UNL A   1      33.636  23.562  26.364  1.00  0.00    -0.247 OA
BRANCH   6   8
ATOM      8  C   UNL A   1      33.605  25.891  26.068  1.00  0.00     0.094 C 
ATOM      9  C   UNL A   1      33.946  27.036  25.448  1.00  0.00     0.018 C 
BRANCH   9  10
ATOM     10  C   UNL A   1      33.268  28.316  25.758  1.00  0.00     0.006 A 
ATOM     11  C   UNL A   1      32.348  28.951  24.906  1.00  0.00     0.050 A 
ATOM     12  C   UNL A   1      31.605  30.052  25.344  1.00  0.00     0.034 A 
ATOM     13  C   UNL A   1      31.905  30.586  26.581  1.00  0.00     0.112 A 
ATOM     14  C   UNL A   1      33.518  28.982  26.958  1.00  0.00     0.119 A 
ATOM     15  N   UNL A   1      32.871  30.096  27.378  1.00  0.00    -0.264 NA
BRANCH  11  16
ATOM     16  C   UNL A   1      32.128  28.472  23.530  1.00  0.00     0.252 C 
ATOM     17  N   UNL A   1      31.160  27.539  23.255  1.00  0.00    -0.342 N 
ATOM     18  H   UNL A   1      31.019  27.399  22.290  1.00  0.00     0.164 HD
ATOM     19  O   UNL A   1      32.793  28.938  22.609  1.00  0.00    -0.269 OA
BRANCH  17  20
ATOM     20  C   UNL A   1      30.289  26.702  24.098  1.00  0.00     0.145 C 
ATOM     21  C   UNL A   1      28.791  26.877  23.817  1.00  0.00     0.039 C 
BRANCH  20  22
ATOM     22  C   UNL A   1      30.710  25.258  23.938  1.00  0.00     0.125 A 
ATOM     23  C   UNL A   1      31.310  24.522  22.928  1.00  0.00     0.048 A 
ATOM     24  O   UNL A   1      30.515  24.441  25.019  1.00  0.00    -0.467 OA
ATOM     25  C   UNL A   1      31.427  23.192  23.403  1.00  0.00     0.042 A 
ATOM     26  C   UNL A   1      30.927  23.197  24.680  1.00  0.00     0.195 A 
ENDBRANCH  20  22
ENDBRANCH  17  20
ENDBRANCH  11  16
ENDBRANCH   9  10
ENDBRANCH   6   8
ENDBRANCH   5   6
ENDBRANCH   4   5
ENDBRANCH   3   4
ENDBRANCH   2   3
ENDBRANCH   1   2
BRANCH   1  27
ATOM     27  C   UNL A   1      39.633  21.532  26.009  1.00  0.00     0.188 C 
BRANCH  27  28
ATOM     28  O   UNL A   1      39.893  21.800  27.367  1.00  0.00    -0.376 OA
BRANCH  28  29
ATOM     29  C   UNL A   1      41.228  21.776  27.842  1.00  0.00     0.202 C 
BRANCH  29  30
ATOM     30  C   UNL A   1      42.233  22.940  27.711  1.00  0.00     0.261 C 
BRANCH  30  31
ATOM     31  O   UNL A   1      42.908  23.125  26.465  1.00  0.00    -0.460 OA
BRANCH  31  32
ATOM     32  C   UNL A   1      44.255  23.039  26.487  1.00  0.00     0.338 C 
ATOM     33  O   UNL A   1      44.927  22.015  26.399  1.00  0.00    -0.246 OA
BRANCH  32  34
ATOM     34  C   UNL A   1      44.807  24.404  26.460  1.00  0.00     0.060 A 
ATOM     35  C   UNL A   1      44.778  25.127  25.261  1.00  0.00     0.016 A 
ATOM     36  C   UNL A   1      45.363  24.966  27.613  1.00  0.00     0.016 A 
ATOM     37  C   UNL A   1      45.320  26.411  25.208  1.00  0.00     0.010 A 
ATOM     38  C   UNL A   1      45.923  26.245  27.551  1.00  0.00     0.010 A 
ATOM     39  C   UNL A   1      45.927  26.966  26.343  1.00  0.00    -0.014 A 
BRANCH  39  40
ATOM     40  C   UNL A   1      46.714  28.219  26.227  1.00  0.00     0.031 A 
ATOM     41  C   UNL A   1      48.199  28.115  26.008  1.00  0.00     0.074 A 
ATOM     42  C   UNL A   1      46.124  29.426  26.303  1.00  0.00     0.049 A 
ATOM     43  N   UNL A   1      49.101  29.061  25.946  1.00  0.00    -0.248 NA
ATOM     44  C   UNL A   1      48.735  26.756  25.839  1.00  0.00     0.031 C 
ATOM     45  C   UNL A   1      44.689  29.654  26.464  1.00  0.00     0.029 A 
ATOM     46  N   UNL A   1      46.663  30.688  26.262  1.00  0.00    -0.354 N 
ATOM     47  C   UNL A   1      50.313  28.412  25.732  1.00  0.00     0.074 A 
ATOM     48  C   UNL A   1      50.033  26.992  25.717  1.00  0.00     0.031 C 
ATOM     49  C   UNL A   1      44.464  30.979  26.524  1.00  0.00     0.029 A 
ATOM     50  C   UNL A   1      45.739  31.691  26.448  1.00  0.00     0.049 A 
ATOM     51  H   UNL A   1      47.621  30.860  26.113  1.00  0.00     0.167 HD
ATOM     52  C   UNL A   1      51.544  28.953  25.556  1.00  0.00     0.034 A 
ATOM     53  C   UNL A   1      45.910  33.022  26.577  1.00  0.00     0.034 A 
ATOM     54  C   UNL A   1      51.810  30.370  25.596  1.00  0.00     0.049 A 
ATOM     55  C   UNL A   1      47.306  33.596  26.483  1.00  0.00     0.074 A 
ATOM     56  C   UNL A   1      53.018  31.025  25.431  1.00  0.00     0.029 A 
ATOM     57  N   UNL A   1      50.857  31.353  25.834  1.00  0.00    -0.354 N 
ATOM     58  N   UNL A   1      48.445  32.975  26.277  1.00  0.00    -0.248 NA
ATOM     59  C   UNL A   1      47.437  35.052  26.633  1.00  0.00     0.031 C 
ATOM     60  C   UNL A   1      52.810  32.392  25.643  1.00  0.00     0.029 A 
ATOM     61  C   UNL A   1      51.456  32.603  25.854  1.00  0.00     0.049 A 
ATOM     62  H   UNL A   1      49.897  31.185  25.969  1.00  0.00     0.167 HD
ATOM     63  C   UNL A   1      49.421  33.970  26.237  1.00  0.00     0.074 A 
ATOM     64  C   UNL A   1      48.734  35.230  26.427  1.00  0.00     0.031 C 
ATOM     65  C   UNL A   1      50.761  33.854  26.052  1.00  0.00     0.034 A 
BRANCH  52  66
ATOM     66  C   UNL A   1      52.696  27.996  25.359  1.00  0.00     0.023 A 
ATOM     67  C   UNL A   1      53.472  27.539  26.440  1.00  0.00     0.031 A 
ATOM     68  C   UNL A   1      53.045  27.562  24.069  1.00  0.00     0.131 A 
ATOM     69  C   UNL A   1      54.599  26.738  26.203  1.00  0.00     0.055 A 
ATOM     70  C   UNL A   1      54.119  26.697  23.848  1.00  0.00     0.041 A 
ATOM     71  F   UNL A   1      52.359  27.984  22.995  1.00  0.00    -0.206 F 
ATOM     72  C   UNL A   1      54.912  26.292  24.917  1.00  0.00     0.022 A 
BRANCH  69  73
ATOM     73  S   UNL A   1      55.733  26.409  27.580  1.00  0.00     0.124 S 
ATOM     74  O   UNL A   1      55.403  25.023  27.908  1.00  0.00    -0.237 OA
ATOM     75  O   UNL A   1      57.040  26.628  26.973  1.00  0.00    -0.237 OA
ATOM     76  O   UNL A   1      55.340  27.390  28.590  1.00  0.00    -0.744 OA
ENDBRANCH  69  73
ENDBRANCH  52  66
BRANCH  53  77
ATOM     77  C   UNL A   1      44.746  33.915  26.858  1.00  0.00     0.023 A 
ATOM     78  C   UNL A   1      44.253  34.082  28.162  1.00  0.00     0.031 A 
ATOM     79  C   UNL A   1      44.061  34.557  25.810  1.00  0.00     0.131 A 
ATOM     80  C   UNL A   1      43.082  34.826  28.378  1.00  0.00     0.055 A 
ATOM     81  C   UNL A   1      42.932  35.345  26.038  1.00  0.00     0.041 A 
ATOM     82  F   UNL A   1      44.483  34.426  24.542  1.00  0.00    -0.206 F 
ATOM     83  C   UNL A   1      42.426  35.471  27.327  1.00  0.00     0.022 A 
BRANCH  80  84
ATOM     84  S   UNL A   1      42.363  34.851  30.045  1.00  0.00     0.124 S 
ATOM     85  O   UNL A   1      40.982  35.230  29.766  1.00  0.00    -0.237 OA
ATOM     86  O   UNL A   1      42.574  33.476  30.486  1.00  0.00    -0.237 OA
ATOM     87  O   UNL A   1      43.159  35.857  30.743  1.00  0.00    -0.744 OA
ENDBRANCH  80  84
ENDBRANCH  53  77
BRANCH  65  88
ATOM     88  C   UNL A   1      51.564  35.133  25.990  1.00  0.00     0.023 A 
ATOM     89  C   UNL A   1      51.945  35.831  27.150  1.00  0.00     0.031 A 
ATOM     90  C   UNL A   1      51.951  35.662  24.745  1.00  0.00     0.131 A 
ATOM     91  C   UNL A   1      52.640  37.047  27.039  1.00  0.00     0.055 A 
ATOM     92  C   UNL A   1      52.696  36.838  24.643  1.00  0.00     0.041 A 
ATOM     93  F   UNL A   1      51.613  35.040  23.604  1.00  0.00    -0.206 F 
ATOM     94  C   UNL A   1      53.033  37.545  25.793  1.00  0.00     0.022 A 
BRANCH  91  95
ATOM     95  S   UNL A   1      52.943  38.020  28.538  1.00  0.00     0.124 S 
ATOM     96  O   UNL A   1      52.932  36.993  29.575  1.00  0.00    -0.237 OA
ATOM     97  O   UNL A   1      54.240  38.628  28.260  1.00  0.00    -0.237 OA
ATOM     98  O   UNL A   1      51.819  38.953  28.576  1.00  0.00    -0.744 OA
ENDBRANCH  91  95
ENDBRANCH  65  88
ENDBRANCH  39  40
ENDBRANCH  32  34
ENDBRANCH  31  32
ENDBRANCH  30  31
ENDBRANCH  29  30
ENDBRANCH  28  29
ENDBRANCH  27  28
ENDBRANCH   1  27
TORSDOF 24
ENDMDL
MODEL 3
REMARK VINA RESULT:      -8.5      7.476     14.974
REMARK SMILES C[C@H](NC(=O)c1ccncc1/C=C/C(=O)OCCOCCOCCOC(=O)c1ccc(-c2c3nc(c(-c4cc(S(=O)(=O)[O-])ccc4F)c4ccc([nH]4)c(-c4cc(S(=O)(=O)[O-])ccc4F)c4nc(c(-c5cc(S(=O)(=O)[O-])ccc5F)c5ccc2[nH]5)C=C4)C=C3)cc1)c1ccco1
REMARK SMILES IDX 20 1 19 2 18 3 17 4 16 5 14 6 15 7 13 8 12 9 11 10 6 11 7 12
REMARK SMILES IDX 8 13 10 14 9 15 4 16 3 17 5 19 2 20 1 21 91 22 92 23 95 24
REMARK SMILES IDX 93 25 94 26 21 27 22 28 23 29 24 30 25 31 26 32 27 33 28 34
REMARK SMILES IDX 29 35 90 36 30 37 89 38 31 39 32 40 33 41 83 42 34 43 88 44
REMARK SMILES IDX 82 45 84 46 35 47 87 48 81 49 80 50 36 52 68 53 48 54 67 55
REMARK SMILES IDX 49 56 52 57 66 58 85 59 50 60 51 61 65 63 86 64 53 65 37 66
REMARK SMILES IDX 38 67 46 68 39 69 45 70 47 71 44 72 40 73 41 74 42 75 43 76
REMARK SMILES IDX 69 77 70 78 78 79 71 80 77 81 79 82 76 83 72 84 73 85 74 86
REMARK SMILES IDX 75 87 54 88 55 89 63 90 56 91 62 92 64 93 61 94 57 95 58 96
REMARK SMILES IDX 59 97 60 98
REMARK H PARENT 3 18 84 51 52 62
REMARK Flexibility Score: inf
ROOT
ATOM      1  C   UNL A   1      46.640  43.704  26.159  1.00  0.00     0.188 C 
ENDROOT
BRANCH   1   2
ATOM      2  O   UNL A   1      46.828  43.756  24.750  1.00  0.00    -0.376 OA
BRANCH   2   3
ATOM      3  C   UNL A   1      46.317  44.854  24.007  1.00  0.00     0.202 C 
BRANCH   3   4
ATOM      4  C   UNL A   1      46.596  44.984  22.500  1.00  0.00     0.261 C 
BRANCH   4   5
ATOM      5  O   UNL A   1      45.497  44.661  21.633  1.00  0.00    -0.460 OA
BRANCH   5   6
ATOM      6  C   UNL A   1      45.808  44.574  20.318  1.00  0.00     0.330 C 
ATOM      7  O   UNL A   1      46.668  43.858  19.826  1.00  0.00    -0.247 OA
BRANCH   6   8
ATOM      8  C   UNL A   1      44.922  45.383  19.453  1.00  0.00     0.094 C 
ATOM      9  C   UNL A   1      45.139  45.770  18.183  1.00  0.00     0.018 C 
BRANCH   9  10
ATOM     10  C   UNL A   1      44.119  46.522  17.417  1.00  0.00     0.006 A 
ATOM     11  C   UNL A   1      42.988  45.939  16.819  1.00  0.00     0.050 A 
ATOM     12  C   UNL A   1      41.971  46.733  16.278  1.00  0.00     0.034 A 
ATOM     13  C   UNL A   1      42.176  48.096  16.219  1.00  0.00     0.112 A 
ATOM     14  C   UNL A   1      44.232  47.902  17.245  1.00  0.00     0.119 A 
ATOM     15  N   UNL A   1      43.300  48.691  16.656  1.00  0.00    -0.264 NA
BRANCH  11  16
ATOM     16  C   UNL A   1      42.832  44.475  16.750  1.00  0.00     0.252 C 
ATOM     17  N   UNL A   1      41.989  43.816  17.609  1.00  0.00    -0.342 N 
ATOM     18  H   UNL A   1      41.869  42.865  17.381  1.00  0.00     0.164 HD
ATOM     19  O   UNL A   1      43.437  43.837  15.893  1.00  0.00    -0.269 OA
BRANCH  17  20
ATOM     20  C   UNL A   1      41.226  44.230  18.800  1.00  0.00     0.145 C 
ATOM     21  C   UNL A   1      39.708  44.069  18.657  1.00  0.00     0.039 C 
BRANCH  20  22
ATOM     22  C   UNL A   1      41.747  43.460  19.993  1.00  0.00     0.125 A 
ATOM     23  C   UNL A   1      41.362  43.336  21.319  1.00  0.00     0.048 A 
ATOM     24  O   UNL A   1      42.827  42.647  19.773  1.00  0.00    -0.467 OA
ATOM     25  C   UNL A   1      42.286  42.455  21.935  1.00  0.00     0.042 A 
ATOM     26  C   UNL A   1      43.159  42.066  20.950  1.00  0.00     0.195 A 
ENDBRANCH  20  22
ENDBRANCH  17  20
ENDBRANCH  11  16
ENDBRANCH   9  10
ENDBRANCH   6   8
ENDBRANCH   5   6
ENDBRANCH   4   5
ENDBRANCH   3   4
ENDBRANCH   2   3
ENDBRANCH   1   2
BRANCH   1  27
ATOM     27  C   UNL A   1      45.242  43.978  26.753  1.00  0.00     0.188 C 
BRANCH  27  28
ATOM     28  O   UNL A   1      44.953  43.244  27.920  1.00  0.00    -0.376 OA
BRANCH  28  29
ATOM     29  C   UNL A   1      44.315  41.984  27.813  1.00  0.00     0.202 C 
BRANCH  29  30
ATOM     30  C   UNL A   1      45.016  40.621  27.999  1.00  0.00     0.261 C 
BRANCH  30  31
ATOM     31  O   UNL A   1      44.344  39.440  27.555  1.00  0.00    -0.460 OA
BRANCH  31  32
ATOM     32  C   UNL A   1      45.076  38.557  26.844  1.00  0.00     0.338 C 
ATOM     33  O   UNL A   1      45.905  38.821  25.976  1.00  0.00    -0.246 OA
BRANCH  32  34
ATOM     34  C   UNL A   1      44.848  37.212  27.397  1.00  0.00     0.060 A 
ATOM     35  C   UNL A   1      43.536  36.796  27.656  1.00  0.00     0.016 A 
ATOM     36  C   UNL A   1      45.926  36.365  27.670  1.00  0.00     0.016 A 
ATOM     37  C   UNL A   1      43.299  35.535  28.206  1.00  0.00     0.010 A 
ATOM     38  C   UNL A   1      45.687  35.111  28.240  1.00  0.00     0.010 A 
ATOM     39  C   UNL A   1      44.374  34.699  28.533  1.00  0.00    -0.014 A 
BRANCH  39  40
ATOM     40  C   UNL A   1      44.143  33.470  29.335  1.00  0.00     0.031 A 
ATOM     41  C   UNL A   1      43.881  33.616  30.809  1.00  0.00     0.074 A 
ATOM     42  C   UNL A   1      44.152  32.251  28.766  1.00  0.00     0.049 A 
ATOM     43  N   UNL A   1      43.721  32.694  31.723  1.00  0.00    -0.248 NA
ATOM     44  C   UNL A   1      43.791  34.994  31.318  1.00  0.00     0.031 C 
ATOM     45  C   UNL A   1      44.346  31.987  27.341  1.00  0.00     0.029 A 
ATOM     46  N   UNL A   1      44.003  31.005  29.323  1.00  0.00    -0.354 N 
ATOM     47  C   UNL A   1      43.512  33.377  32.916  1.00  0.00     0.074 A 
ATOM     48  C   UNL A   1      43.608  34.790  32.614  1.00  0.00     0.031 C 
ATOM     49  C   UNL A   1      44.319  30.657  27.139  1.00  0.00     0.029 A 
ATOM     50  C   UNL A   1      44.150  29.975  28.422  1.00  0.00     0.049 A 
ATOM     51  H   UNL A   1      43.810  30.861  30.278  1.00  0.00     0.167 HD
ATOM     52  C   UNL A   1      43.256  32.873  34.148  1.00  0.00     0.034 A 
ATOM     53  C   UNL A   1      44.177  28.641  28.618  1.00  0.00     0.034 A 
ATOM     54  C   UNL A   1      43.186  31.462  34.438  1.00  0.00     0.049 A 
ATOM     55  C   UNL A   1      43.995  28.101  30.018  1.00  0.00     0.074 A 
ATOM     56  C   UNL A   1      42.933  30.842  35.649  1.00  0.00     0.029 A 
ATOM     57  N   UNL A   1      43.386  30.448  33.509  1.00  0.00    -0.354 N 
ATOM     58  N   UNL A   1      43.795  28.755  31.139  1.00  0.00    -0.248 NA
ATOM     59  C   UNL A   1      44.037  26.641  30.177  1.00  0.00     0.031 C 
ATOM     60  C   UNL A   1      43.055  29.459  35.469  1.00  0.00     0.029 A 
ATOM     61  C   UNL A   1      43.296  29.210  34.128  1.00  0.00     0.049 A 
ATOM     62  H   UNL A   1      43.565  30.588  32.551  1.00  0.00     0.167 HD
ATOM     63  C   UNL A   1      43.650  27.783  32.128  1.00  0.00     0.074 A 
ATOM     64  C   UNL A   1      43.773  26.500  31.469  1.00  0.00     0.031 C 
ATOM     65  C   UNL A   1      43.428  27.936  33.459  1.00  0.00     0.034 A 
BRANCH  52  66
ATOM     66  C   UNL A   1      43.088  33.861  35.278  1.00  0.00     0.023 A 
ATOM     67  C   UNL A   1      41.818  34.286  35.708  1.00  0.00     0.031 A 
ATOM     68  C   UNL A   1      44.215  34.413  35.911  1.00  0.00     0.131 A 
ATOM     69  C   UNL A   1      41.708  35.285  36.686  1.00  0.00     0.055 A 
ATOM     70  C   UNL A   1      44.097  35.347  36.943  1.00  0.00     0.041 A 
ATOM     71  F   UNL A   1      45.454  34.067  35.528  1.00  0.00    -0.206 F 
ATOM     72  C   UNL A   1      42.838  35.799  37.325  1.00  0.00     0.022 A 
BRANCH  69  73
ATOM     73  S   UNL A   1      40.076  36.008  37.007  1.00  0.00     0.124 S 
ATOM     74  O   UNL A   1      39.329  34.848  37.489  1.00  0.00    -0.237 OA
ATOM     75  O   UNL A   1      40.373  37.033  38.000  1.00  0.00    -0.237 OA
ATOM     76  O   UNL A   1      39.658  36.508  35.698  1.00  0.00    -0.744 OA
ENDBRANCH  69  73
ENDBRANCH  52  66
BRANCH  53  77
ATOM     77  C   UNL A   1      44.434  27.710  27.478  1.00  0.00     0.023 A 
ATOM     78  C   UNL A   1      45.739  27.436  27.040  1.00  0.00     0.031 A 
ATOM     79  C   UNL A   1      43.367  27.138  26.762  1.00  0.00     0.131 A 
ATOM     80  C   UNL A   1      45.943  26.658  25.889  1.00  0.00     0.055 A 
ATOM     81  C   UNL A   1      43.577  26.316  25.653  1.00  0.00     0.041 A 
ATOM     82  F   UNL A   1      42.097  27.372  27.131  1.00  0.00    -0.206 F 
ATOM     83  C   UNL A   1      44.871  26.084  25.201  1.00  0.00     0.022 A 
BRANCH  80  84
ATOM     84  S   UNL A   1      47.629  26.495  25.237  1.00  0.00     0.124 S 
ATOM     85  O   UNL A   1      47.878  27.836  24.721  1.00  0.00    -0.237 OA
ATOM     86  O   UNL A   1      48.379  26.118  26.431  1.00  0.00    -0.237 OA
ATOM     87  O   UNL A   1      47.503  25.449  24.226  1.00  0.00    -0.744 OA
ENDBRANCH  80  84
ENDBRANCH  53  77
BRANCH  65  88
ATOM     88  C   UNL A   1      43.248  26.679  34.279  1.00  0.00     0.023 A 
ATOM     89  C   UNL A   1      44.341  25.902  34.704  1.00  0.00     0.031 A 
ATOM     90  C   UNL A   1      41.957  26.251  34.639  1.00  0.00     0.131 A 
ATOM     91  C   UNL A   1      44.119  24.711  35.413  1.00  0.00     0.055 A 
ATOM     92  C   UNL A   1      41.746  25.100  35.398  1.00  0.00     0.041 A 
ATOM     93  F   UNL A   1      40.875  26.951  34.259  1.00  0.00    -0.206 F 
ATOM     94  C   UNL A   1      42.830  24.315  35.778  1.00  0.00     0.022 A 
BRANCH  91  95
ATOM     95  S   UNL A   1      45.532  23.632  35.774  1.00  0.00     0.124 S 
ATOM     96  O   UNL A   1      45.727  23.854  37.203  1.00  0.00    -0.237 OA
ATOM     97  O   UNL A   1      45.026  22.317  35.398  1.00  0.00    -0.237 OA
ATOM     98  O   UNL A   1      46.592  24.156  34.915  1.00  0.00    -0.744 OA
ENDBRANCH  91  95
ENDBRANCH  65  88
ENDBRANCH  39  40
ENDBRANCH  32  34
ENDBRANCH  31  32
ENDBRANCH  30  31
ENDBRANCH  29  30
ENDBRANCH  28  29
ENDBRANCH  27  28
ENDBRANCH   1  27
TORSDOF 24
ENDMDL
