MODEL 1
REMARK VINA RESULT:     -11.4      0.000      0.000
REMARK SMILES Cc1cc(C)c2c(CCCC(=O)OCCOCCOCCOC(=O)c3ccc(-c4c5nc(c(-c6cc(S(=O)(=O)[O-])ccc6F)c6ccc([nH]6)c(-c6cc(S(=O)(=O)[O-])ccc6F)c6nc(c(-c7cc(S(=O)(=O)[O-])ccc7F)c7ccc4[nH]7)C=C6)C=C5)cc3)c(-c3ccccn3)[nH]c2c1
REMARK SMILES IDX 17 1 16 2 15 3 14 4 13 5 11 6 12 7 10 8 9 9 8 10 7 11 1 12
REMARK SMILES IDX 2 13 3 14 97 15 4 16 96 17 5 18 6 19 95 20 88 21 89 23 90 24
REMARK SMILES IDX 94 25 91 26 93 27 92 28 18 29 19 30 20 31 21 32 22 33 23 34
REMARK SMILES IDX 24 35 25 36 26 37 87 38 27 39 86 40 28 41 29 42 30 43 80 44
REMARK SMILES IDX 31 45 85 46 79 47 81 48 32 49 84 50 78 51 77 52 33 54 65 55
REMARK SMILES IDX 45 56 64 57 46 58 49 59 63 60 82 61 47 62 48 63 62 65 83 66
REMARK SMILES IDX 50 67 34 68 35 69 43 70 36 71 42 72 44 73 41 74 37 75 38 76
REMARK SMILES IDX 39 77 40 78 66 79 67 80 75 81 68 82 74 83 76 84 73 85 69 86
REMARK SMILES IDX 70 87 71 88 72 89 51 90 52 91 60 92 53 93 59 94 61 95 58 96
REMARK SMILES IDX 54 97 55 98 56 99 57 100
REMARK H PARENT 95 22 81 53 49 64
REMARK Flexibility Score: inf
ROOT
ATOM      1  C   UNL A   1      34.297  32.542  27.883  1.00  0.00     0.188 C 
ENDROOT
BRANCH   1   2
ATOM      2  O   UNL A   1      33.243  31.613  27.898  1.00  0.00    -0.376 OA
BRANCH   2   3
ATOM      3  C   UNL A   1      33.349  30.445  27.105  1.00  0.00     0.202 C 
BRANCH   3   4
ATOM      4  C   UNL A   1      32.158  29.699  26.474  1.00  0.00     0.261 C 
BRANCH   4   5
ATOM      5  O   UNL A   1      32.413  28.691  25.490  1.00  0.00    -0.463 OA
BRANCH   5   6
ATOM      6  C   UNL A   1      32.668  27.427  25.912  1.00  0.00     0.305 C 
ATOM      7  O   UNL A   1      31.944  26.821  26.700  1.00  0.00    -0.252 OA
BRANCH   6   8
ATOM      8  C   UNL A   1      33.883  26.766  25.264  1.00  0.00     0.123 C 
BRANCH   8   9
ATOM      9  C   UNL A   1      34.235  25.290  25.482  1.00  0.00     0.017 C 
BRANCH   9  10
ATOM     10  C   UNL A   1      33.129  24.303  25.844  1.00  0.00     0.039 C 
BRANCH  10  11
ATOM     11  C   UNL A   1      32.582  23.518  24.694  1.00  0.00    -0.013 A 
ATOM     12  C   UNL A   1      32.596  18.066  22.924  1.00  0.00     0.044 C 
ATOM     13  C   UNL A   1      32.695  19.471  23.437  1.00  0.00    -0.049 A 
ATOM     14  C   UNL A   1      33.432  19.759  24.587  1.00  0.00     0.007 A 
ATOM     15  C   UNL A   1      32.010  20.493  22.779  1.00  0.00     0.030 A 
ATOM     16  C   UNL A   1      33.522  21.064  25.120  1.00  0.00    -0.041 A 
ATOM     17  C   UNL A   1      32.084  21.782  23.310  1.00  0.00     0.047 A 
ATOM     18  C   UNL A   1      34.365  21.247  26.359  1.00  0.00     0.045 C 
ATOM     19  C   UNL A   1      32.801  22.105  24.462  1.00  0.00     0.006 A 
ATOM     20  N   UNL A   1      31.514  22.935  22.837  1.00  0.00    -0.353 N 
ATOM     21  C   UNL A   1      31.736  23.983  23.687  1.00  0.00     0.068 A 
ATOM     22  H   UNL A   1      31.009  23.000  21.996  1.00  0.00     0.167 HD
BRANCH  21  23
ATOM     23  C   UNL A   1      31.141  25.277  23.392  1.00  0.00     0.087 A 
ATOM     24  C   UNL A   1      29.961  25.705  23.985  1.00  0.00     0.030 A 
ATOM     25  N   UNL A   1      31.813  26.006  22.476  1.00  0.00    -0.255 NA
ATOM     26  C   UNL A   1      29.487  26.978  23.672  1.00  0.00     0.004 A 
ATOM     27  C   UNL A   1      31.359  27.257  22.230  1.00  0.00     0.112 A 
ATOM     28  C   UNL A   1      30.213  27.783  22.800  1.00  0.00     0.020 A 
ENDBRANCH  21  23
ENDBRANCH  10  11
ENDBRANCH   9  10
ENDBRANCH   8   9
ENDBRANCH   6   8
ENDBRANCH   5   6
ENDBRANCH   4   5
ENDBRANCH   3   4
ENDBRANCH   2   3
ENDBRANCH   1   2
BRANCH   1  29
ATOM     29  C   UNL A   1      34.499  33.316  29.195  1.00  0.00     0.188 C 
BRANCH  29  30
ATOM     30  O   UNL A   1      35.733  33.921  29.563  1.00  0.00    -0.376 OA
BRANCH  30  31
ATOM     31  C   UNL A   1      36.842  33.195  30.077  1.00  0.00     0.202 C 
BRANCH  31  32
ATOM     32  C   UNL A   1      37.735  32.318  29.203  1.00  0.00     0.261 C 
BRANCH  32  33
ATOM     33  O   UNL A   1      38.091  31.100  29.806  1.00  0.00    -0.460 OA
BRANCH  33  34
ATOM     34  C   UNL A   1      37.273  30.086  29.440  1.00  0.00     0.338 C 
ATOM     35  O   UNL A   1      36.072  30.023  29.562  1.00  0.00    -0.246 OA
BRANCH  34  36
ATOM     36  C   UNL A   1      38.110  29.077  28.784  1.00  0.00     0.060 A 
ATOM     37  C   UNL A   1      38.505  27.994  29.568  1.00  0.00     0.016 A 
ATOM     38  C   UNL A   1      38.680  29.367  27.537  1.00  0.00     0.016 A 
ATOM     39  C   UNL A   1      39.717  27.430  29.279  1.00  0.00     0.010 A 
ATOM     40  C   UNL A   1      39.896  28.820  27.261  1.00  0.00     0.010 A 
ATOM     41  C   UNL A   1      40.443  27.972  28.217  1.00  0.00    -0.014 A 
BRANCH  41  42
ATOM     42  C   UNL A   1      41.840  27.655  28.124  1.00  0.00     0.031 A 
ATOM     43  C   UNL A   1      42.054  26.335  27.523  1.00  0.00     0.074 A 
ATOM     44  C   UNL A   1      42.782  28.545  28.487  1.00  0.00     0.049 A 
ATOM     45  N   UNL A   1      42.364  25.244  28.137  1.00  0.00    -0.248 NA
ATOM     46  C   UNL A   1      41.618  26.143  26.130  1.00  0.00     0.031 C 
ATOM     47  C   UNL A   1      42.619  29.949  28.876  1.00  0.00     0.029 A 
ATOM     48  N   UNL A   1      44.126  28.384  28.500  1.00  0.00    -0.354 N 
ATOM     49  C   UNL A   1      42.447  24.292  27.136  1.00  0.00     0.074 A 
ATOM     50  C   UNL A   1      41.707  24.818  26.023  1.00  0.00     0.031 C 
ATOM     51  C   UNL A   1      43.829  30.558  28.866  1.00  0.00     0.029 A 
ATOM     52  C   UNL A   1      44.856  29.564  28.601  1.00  0.00     0.049 A 
ATOM     53  H   UNL A   1      44.556  27.499  28.444  1.00  0.00     0.167 HD
ATOM     54  C   UNL A   1      43.411  23.336  27.186  1.00  0.00     0.034 A 
ATOM     55  C   UNL A   1      46.199  29.692  28.417  1.00  0.00     0.034 A 
ATOM     56  C   UNL A   1      43.915  23.182  28.535  1.00  0.00     0.049 A 
ATOM     57  C   UNL A   1      46.774  28.339  28.649  1.00  0.00     0.074 A 
ATOM     58  C   UNL A   1      43.329  22.884  29.753  1.00  0.00     0.029 A 
ATOM     59  N   UNL A   1      45.130  23.757  28.842  1.00  0.00    -0.354 N 
ATOM     60  N   UNL A   1      46.726  27.733  29.805  1.00  0.00    -0.248 NA
ATOM     61  C   UNL A   1      46.930  27.458  27.498  1.00  0.00     0.031 C 
ATOM     62  C   UNL A   1      43.990  23.720  30.700  1.00  0.00     0.029 A 
ATOM     63  C   UNL A   1      44.996  24.426  30.035  1.00  0.00     0.049 A 
ATOM     64  H   UNL A   1      45.950  23.697  28.301  1.00  0.00     0.167 HD
ATOM     65  C   UNL A   1      46.418  26.411  29.510  1.00  0.00     0.074 A 
ATOM     66  C   UNL A   1      46.646  26.284  28.070  1.00  0.00     0.031 C 
ATOM     67  C   UNL A   1      45.726  25.630  30.393  1.00  0.00     0.034 A 
BRANCH  54  68
ATOM     68  C   UNL A   1      44.171  22.870  25.964  1.00  0.00     0.023 A 
ATOM     69  C   UNL A   1      44.204  21.486  25.733  1.00  0.00     0.031 A 
ATOM     70  C   UNL A   1      45.071  23.644  25.189  1.00  0.00     0.131 A 
ATOM     71  C   UNL A   1      45.149  20.926  24.857  1.00  0.00     0.055 A 
ATOM     72  C   UNL A   1      45.966  23.086  24.275  1.00  0.00     0.041 A 
ATOM     73  F   UNL A   1      45.211  24.967  25.320  1.00  0.00    -0.206 F 
ATOM     74  C   UNL A   1      46.032  21.717  24.128  1.00  0.00     0.022 A 
BRANCH  71  75
ATOM     75  S   UNL A   1      45.297  19.127  24.806  1.00  0.00     0.124 S 
ATOM     76  O   UNL A   1      44.035  18.712  25.407  1.00  0.00    -0.237 OA
ATOM     77  O   UNL A   1      45.443  18.881  23.375  1.00  0.00    -0.237 OA
ATOM     78  O   UNL A   1      46.491  18.864  25.608  1.00  0.00    -0.744 OA
ENDBRANCH  71  75
ENDBRANCH  54  68
BRANCH  55  79
ATOM     79  C   UNL A   1      46.929  30.792  27.716  1.00  0.00     0.023 A 
ATOM     80  C   UNL A   1      46.260  31.877  27.103  1.00  0.00     0.031 A 
ATOM     81  C   UNL A   1      48.329  30.923  27.860  1.00  0.00     0.131 A 
ATOM     82  C   UNL A   1      46.983  33.018  26.674  1.00  0.00     0.055 A 
ATOM     83  C   UNL A   1      49.037  32.050  27.433  1.00  0.00     0.041 A 
ATOM     84  F   UNL A   1      49.055  29.997  28.504  1.00  0.00    -0.206 F 
ATOM     85  C   UNL A   1      48.364  33.110  26.848  1.00  0.00     0.022 A 
BRANCH  82  86
ATOM     86  S   UNL A   1      46.115  34.464  25.977  1.00  0.00     0.124 S 
ATOM     87  O   UNL A   1      46.923  34.770  24.801  1.00  0.00    -0.237 OA
ATOM     88  O   UNL A   1      44.777  33.942  25.727  1.00  0.00    -0.237 OA
ATOM     89  O   UNL A   1      46.192  35.457  27.050  1.00  0.00    -0.744 OA
ENDBRANCH  82  86
ENDBRANCH  55  79
BRANCH  67  90
ATOM     90  C   UNL A   1      45.538  26.137  31.810  1.00  0.00     0.023 A 
ATOM     91  C   UNL A   1      44.351  26.722  32.312  1.00  0.00     0.031 A 
ATOM     92  C   UNL A   1      46.563  25.848  32.728  1.00  0.00     0.131 A 
ATOM     93  C   UNL A   1      44.229  26.992  33.694  1.00  0.00     0.055 A 
ATOM     94  C   UNL A   1      46.429  26.098  34.093  1.00  0.00     0.041 A 
ATOM     95  F   UNL A   1      47.698  25.261  32.313  1.00  0.00    -0.206 F 
ATOM     96  C   UNL A   1      45.261  26.670  34.581  1.00  0.00     0.022 A 
BRANCH  93  97
ATOM     97  S   UNL A   1      42.700  27.723  34.371  1.00  0.00     0.124 S 
ATOM     98  O   UNL A   1      43.193  28.622  35.407  1.00  0.00    -0.237 OA
ATOM     99  O   UNL A   1      42.101  28.357  33.200  1.00  0.00    -0.237 OA
ATOM    100  O   UNL A   1      41.960  26.564  34.875  1.00  0.00    -0.744 OA
ENDBRANCH  93  97
ENDBRANCH  67  90
ENDBRANCH  41  42
ENDBRANCH  34  36
ENDBRANCH  33  34
ENDBRANCH  32  33
ENDBRANCH  31  32
ENDBRANCH  30  31
ENDBRANCH  29  30
ENDBRANCH   1  29
TORSDOF 24
ENDMDL
MODEL 2
REMARK VINA RESULT:     -10.5      1.389      2.693
REMARK SMILES Cc1cc(C)c2c(CCCC(=O)OCCOCCOCCOC(=O)c3ccc(-c4c5nc(c(-c6cc(S(=O)(=O)[O-])ccc6F)c6ccc([nH]6)c(-c6cc(S(=O)(=O)[O-])ccc6F)c6nc(c(-c7cc(S(=O)(=O)[O-])ccc7F)c7ccc4[nH]7)C=C6)C=C5)cc3)c(-c3ccccn3)[nH]c2c1
REMARK SMILES IDX 17 1 16 2 15 3 14 4 13 5 11 6 12 7 10 8 9 9 8 10 7 11 1 12
REMARK SMILES IDX 2 13 3 14 97 15 4 16 96 17 5 18 6 19 95 20 88 21 89 23 90 24
REMARK SMILES IDX 94 25 91 26 93 27 92 28 18 29 19 30 20 31 21 32 22 33 23 34
REMARK SMILES IDX 24 35 25 36 26 37 87 38 27 39 86 40 28 41 29 42 30 43 80 44
REMARK SMILES IDX 31 45 85 46 79 47 81 48 32 49 84 50 78 51 77 52 33 54 65 55
REMARK SMILES IDX 45 56 64 57 46 58 49 59 63 60 82 61 47 62 48 63 62 65 83 66
REMARK SMILES IDX 50 67 34 68 35 69 43 70 36 71 42 72 44 73 41 74 37 75 38 76
REMARK SMILES IDX 39 77 40 78 66 79 67 80 75 81 68 82 74 83 76 84 73 85 69 86
REMARK SMILES IDX 70 87 71 88 72 89 51 90 52 91 60 92 53 93 59 94 61 95 58 96
REMARK SMILES IDX 54 97 55 98 56 99 57 100
REMARK H PARENT 95 22 81 53 49 64
REMARK Flexibility Score: inf
ROOT
ATOM      1  C   UNL A   1      34.233  32.095  27.655  1.00  0.00     0.188 C 
ENDROOT
BRANCH   1   2
ATOM      2  O   UNL A   1      33.162  31.187  27.623  1.00  0.00    -0.376 OA
BRANCH   2   3
ATOM      3  C   UNL A   1      33.174  30.148  26.662  1.00  0.00     0.202 C 
BRANCH   3   4
ATOM      4  C   UNL A   1      32.067  29.089  26.495  1.00  0.00     0.261 C 
BRANCH   4   5
ATOM      5  O   UNL A   1      32.160  28.152  25.417  1.00  0.00    -0.463 OA
BRANCH   5   6
ATOM      6  C   UNL A   1      32.998  27.094  25.553  1.00  0.00     0.305 C 
ATOM      7  O   UNL A   1      33.155  26.489  26.611  1.00  0.00    -0.252 OA
BRANCH   6   8
ATOM      8  C   UNL A   1      33.674  26.640  24.260  1.00  0.00     0.123 C 
BRANCH   8   9
ATOM      9  C   UNL A   1      34.746  25.546  24.228  1.00  0.00     0.017 C 
BRANCH   9  10
ATOM     10  C   UNL A   1      35.022  24.731  25.489  1.00  0.00     0.039 C 
BRANCH  10  11
ATOM     11  C   UNL A   1      35.792  23.468  25.268  1.00  0.00    -0.013 A 
ATOM     12  C   UNL A   1      40.851  21.283  26.848  1.00  0.00     0.044 C 
ATOM     13  C   UNL A   1      39.576  21.959  26.442  1.00  0.00    -0.049 A 
ATOM     14  C   UNL A   1      39.302  23.265  26.851  1.00  0.00     0.007 A 
ATOM     15  C   UNL A   1      38.638  21.260  25.680  1.00  0.00     0.030 A 
ATOM     16  C   UNL A   1      38.098  23.926  26.517  1.00  0.00    -0.041 A 
ATOM     17  C   UNL A   1      37.441  21.903  25.360  1.00  0.00     0.047 A 
ATOM     18  C   UNL A   1      37.929  25.343  27.007  1.00  0.00     0.045 C 
ATOM     19  C   UNL A   1      37.128  23.202  25.760  1.00  0.00     0.006 A 
ATOM     20  N   UNL A   1      36.389  21.430  24.621  1.00  0.00    -0.353 N 
ATOM     21  C   UNL A   1      35.351  22.321  24.608  1.00  0.00     0.068 A 
ATOM     22  H   UNL A   1      36.380  20.560  24.161  1.00  0.00     0.167 HD
BRANCH  21  23
ATOM     23  C   UNL A   1      34.113  21.960  23.936  1.00  0.00     0.087 A 
ATOM     24  C   UNL A   1      33.662  22.622  22.803  1.00  0.00     0.030 A 
ATOM     25  N   UNL A   1      33.431  20.953  24.523  1.00  0.00    -0.255 NA
ATOM     26  C   UNL A   1      32.484  22.180  22.202  1.00  0.00     0.004 A 
ATOM     27  C   UNL A   1      32.320  20.511  23.891  1.00  0.00     0.112 A 
ATOM     28  C   UNL A   1      31.813  21.085  22.737  1.00  0.00     0.020 A 
ENDBRANCH  21  23
ENDBRANCH  10  11
ENDBRANCH   9  10
ENDBRANCH   8   9
ENDBRANCH   6   8
ENDBRANCH   5   6
ENDBRANCH   4   5
ENDBRANCH   3   4
ENDBRANCH   2   3
ENDBRANCH   1   2
BRANCH   1  29
ATOM     29  C   UNL A   1      34.282  32.998  28.897  1.00  0.00     0.188 C 
BRANCH  29  30
ATOM     30  O   UNL A   1      35.437  33.734  29.283  1.00  0.00    -0.376 OA
BRANCH  30  31
ATOM     31  C   UNL A   1      36.546  33.156  29.961  1.00  0.00     0.202 C 
BRANCH  31  32
ATOM     32  C   UNL A   1      37.595  32.301  29.253  1.00  0.00     0.261 C 
BRANCH  32  33
ATOM     33  O   UNL A   1      37.921  31.123  29.945  1.00  0.00    -0.460 OA
BRANCH  33  34
ATOM     34  C   UNL A   1      37.150  30.075  29.568  1.00  0.00     0.338 C 
ATOM     35  O   UNL A   1      35.951  29.963  29.673  1.00  0.00    -0.246 OA
BRANCH  34  36
ATOM     36  C   UNL A   1      38.038  29.102  28.924  1.00  0.00     0.060 A 
ATOM     37  C   UNL A   1      38.478  28.045  29.717  1.00  0.00     0.016 A 
ATOM     38  C   UNL A   1      38.600  29.411  27.677  1.00  0.00     0.016 A 
ATOM     39  C   UNL A   1      39.716  27.536  29.438  1.00  0.00     0.010 A 
ATOM     40  C   UNL A   1      39.842  28.919  27.412  1.00  0.00     0.010 A 
ATOM     41  C   UNL A   1      40.422  28.104  28.376  1.00  0.00    -0.014 A 
BRANCH  41  42
ATOM     42  C   UNL A   1      41.833  27.852  28.292  1.00  0.00     0.031 A 
ATOM     43  C   UNL A   1      42.114  26.572  27.635  1.00  0.00     0.074 A 
ATOM     44  C   UNL A   1      42.729  28.763  28.714  1.00  0.00     0.049 A 
ATOM     45  N   UNL A   1      42.461  25.468  28.202  1.00  0.00    -0.248 NA
ATOM     46  C   UNL A   1      41.708  26.428  26.227  1.00  0.00     0.031 C 
ATOM     47  C   UNL A   1      42.500  30.139  29.165  1.00  0.00     0.029 A 
ATOM     48  N   UNL A   1      44.079  28.660  28.743  1.00  0.00    -0.354 N 
ATOM     49  C   UNL A   1      42.601  24.569  27.159  1.00  0.00     0.074 A 
ATOM     50  C   UNL A   1      41.857  25.115  26.059  1.00  0.00     0.031 C 
ATOM     51  C   UNL A   1      43.682  30.799  29.204  1.00  0.00     0.029 A 
ATOM     52  C   UNL A   1      44.755  29.864  28.911  1.00  0.00     0.049 A 
ATOM     53  H   UNL A   1      44.548  27.798  28.652  1.00  0.00     0.167 HD
ATOM     54  C   UNL A   1      43.606  23.654  27.181  1.00  0.00     0.034 A 
ATOM     55  C   UNL A   1      46.094  30.059  28.756  1.00  0.00     0.034 A 
ATOM     56  C   UNL A   1      44.095  23.458  28.530  1.00  0.00     0.049 A 
ATOM     57  C   UNL A   1      46.724  28.721  28.934  1.00  0.00     0.074 A 
ATOM     58  C   UNL A   1      43.504  23.077  29.722  1.00  0.00     0.029 A 
ATOM     59  N   UNL A   1      45.279  24.069  28.885  1.00  0.00    -0.354 N 
ATOM     60  N   UNL A   1      46.685  28.060  30.060  1.00  0.00    -0.248 NA
ATOM     61  C   UNL A   1      46.936  27.904  27.746  1.00  0.00     0.031 C 
ATOM     62  C   UNL A   1      44.114  23.895  30.719  1.00  0.00     0.029 A 
ATOM     63  C   UNL A   1      45.097  24.674  30.105  1.00  0.00     0.049 A 
ATOM     64  H   UNL A   1      46.109  24.070  28.356  1.00  0.00     0.167 HD
ATOM     65  C   UNL A   1      46.439  26.742  29.699  1.00  0.00     0.074 A 
ATOM     66  C   UNL A   1      46.695  26.693  28.258  1.00  0.00     0.031 C 
ATOM     67  C   UNL A   1      45.769  25.890  30.531  1.00  0.00     0.034 A 
BRANCH  54  68
ATOM     68  C   UNL A   1      44.404  23.280  25.952  1.00  0.00     0.023 A 
ATOM     69  C   UNL A   1      44.315  21.946  25.526  1.00  0.00     0.031 A 
ATOM     70  C   UNL A   1      45.432  24.049  25.351  1.00  0.00     0.131 A 
ATOM     71  C   UNL A   1      45.262  21.411  24.636  1.00  0.00     0.055 A 
ATOM     72  C   UNL A   1      46.332  23.528  24.422  1.00  0.00     0.041 A 
ATOM     73  F   UNL A   1      45.694  25.318  25.681  1.00  0.00    -0.206 F 
ATOM     74  C   UNL A   1      46.272  22.192  24.082  1.00  0.00     0.022 A 
BRANCH  71  75
ATOM     75  S   UNL A   1      45.232  19.630  24.334  1.00  0.00     0.124 S 
ATOM     76  O   UNL A   1      44.554  19.564  23.044  1.00  0.00    -0.237 OA
ATOM     77  O   UNL A   1      46.655  19.306  24.334  1.00  0.00    -0.237 OA
ATOM     78  O   UNL A   1      44.474  19.109  25.469  1.00  0.00    -0.744 OA
ENDBRANCH  71  75
ENDBRANCH  54  68
BRANCH  55  79
ATOM     79  C   UNL A   1      46.786  31.220  28.121  1.00  0.00     0.023 A 
ATOM     80  C   UNL A   1      46.094  32.194  27.362  1.00  0.00     0.031 A 
ATOM     81  C   UNL A   1      48.120  31.532  28.466  1.00  0.00     0.131 A 
ATOM     82  C   UNL A   1      46.732  33.403  26.991  1.00  0.00     0.055 A 
ATOM     83  C   UNL A   1      48.745  32.727  28.097  1.00  0.00     0.041 A 
ATOM     84  F   UNL A   1      48.844  30.725  29.256  1.00  0.00    -0.206 F 
ATOM     85  C   UNL A   1      48.048  33.675  27.366  1.00  0.00     0.022 A 
BRANCH  82  86
ATOM     86  S   UNL A   1      45.814  34.707  26.103  1.00  0.00     0.124 S 
ATOM     87  O   UNL A   1      46.512  35.916  26.526  1.00  0.00    -0.237 OA
ATOM     88  O   UNL A   1      45.979  34.317  24.708  1.00  0.00    -0.237 OA
ATOM     89  O   UNL A   1      44.449  34.574  26.616  1.00  0.00    -0.744 OA
ENDBRANCH  82  86
ENDBRANCH  55  79
BRANCH  67  90
ATOM     90  C   UNL A   1      45.537  26.321  31.967  1.00  0.00     0.023 A 
ATOM     91  C   UNL A   1      44.389  27.005  32.434  1.00  0.00     0.031 A 
ATOM     92  C   UNL A   1      46.455  25.855  32.924  1.00  0.00     0.131 A 
ATOM     93  C   UNL A   1      44.200  27.195  33.822  1.00  0.00     0.055 A 
ATOM     94  C   UNL A   1      46.253  26.028  34.293  1.00  0.00     0.041 A 
ATOM     95  F   UNL A   1      47.545  25.169  32.541  1.00  0.00    -0.206 F 
ATOM     96  C   UNL A   1      45.123  26.698  34.747  1.00  0.00     0.022 A 
BRANCH  93  97
ATOM     97  S   UNL A   1      42.717  28.051  34.452  1.00  0.00     0.124 S 
ATOM     98  O   UNL A   1      42.422  29.020  33.403  1.00  0.00    -0.237 OA
ATOM     99  O   UNL A   1      41.759  26.962  34.611  1.00  0.00    -0.237 OA
ATOM    100  O   UNL A   1      43.172  28.643  35.713  1.00  0.00    -0.744 OA
ENDBRANCH  93  97
ENDBRANCH  67  90
ENDBRANCH  41  42
ENDBRANCH  34  36
ENDBRANCH  33  34
ENDBRANCH  32  33
ENDBRANCH  31  32
ENDBRANCH  30  31
ENDBRANCH  29  30
ENDBRANCH   1  29
TORSDOF 24
ENDMDL
MODEL 3
REMARK VINA RESULT:     -10.5      3.901      9.126
REMARK SMILES Cc1cc(C)c2c(CCCC(=O)OCCOCCOCCOC(=O)c3ccc(-c4c5nc(c(-c6cc(S(=O)(=O)[O-])ccc6F)c6ccc([nH]6)c(-c6cc(S(=O)(=O)[O-])ccc6F)c6nc(c(-c7cc(S(=O)(=O)[O-])ccc7F)c7ccc4[nH]7)C=C6)C=C5)cc3)c(-c3ccccn3)[nH]c2c1
REMARK SMILES IDX 17 1 16 2 15 3 14 4 13 5 11 6 12 7 10 8 9 9 8 10 7 11 1 12
REMARK SMILES IDX 2 13 3 14 97 15 4 16 96 17 5 18 6 19 95 20 88 21 89 23 90 24
REMARK SMILES IDX 94 25 91 26 93 27 92 28 18 29 19 30 20 31 21 32 22 33 23 34
REMARK SMILES IDX 24 35 25 36 26 37 87 38 27 39 86 40 28 41 29 42 30 43 80 44
REMARK SMILES IDX 31 45 85 46 79 47 81 48 32 49 84 50 78 51 77 52 33 54 65 55
REMARK SMILES IDX 45 56 64 57 46 58 49 59 63 60 82 61 47 62 48 63 62 65 83 66
REMARK SMILES IDX 50 67 34 68 35 69 43 70 36 71 42 72 44 73 41 74 37 75 38 76
REMARK SMILES IDX 39 77 40 78 66 79 67 80 75 81 68 82 74 83 76 84 73 85 69 86
REMARK SMILES IDX 70 87 71 88 72 89 51 90 52 91 60 92 53 93 59 94 61 95 58 96
REMARK SMILES IDX 54 97 55 98 56 99 57 100
REMARK H PARENT 95 22 81 53 49 64
REMARK Flexibility Score: inf
ROOT
ATOM      1  C   UNL A   1      36.100  22.640  25.853  1.00  0.00     0.188 C 
ENDROOT
BRANCH   1   2
ATOM      2  O   UNL A   1      35.165  21.849  26.542  1.00  0.00    -0.376 OA
BRANCH   2   3
ATOM      3  C   UNL A   1      34.281  22.474  27.454  1.00  0.00     0.202 C 
BRANCH   3   4
ATOM      4  C   UNL A   1      32.833  22.890  27.131  1.00  0.00     0.261 C 
BRANCH   4   5
ATOM      5  O   UNL A   1      32.602  24.132  26.458  1.00  0.00    -0.463 OA
BRANCH   5   6
ATOM      6  C   UNL A   1      31.400  24.739  26.619  1.00  0.00     0.305 C 
ATOM      7  O   UNL A   1      30.355  24.124  26.824  1.00  0.00    -0.252 OA
BRANCH   6   8
ATOM      8  C   UNL A   1      31.447  26.267  26.621  1.00  0.00     0.123 C 
BRANCH   8   9
ATOM      9  C   UNL A   1      32.762  27.052  26.694  1.00  0.00     0.017 C 
BRANCH   9  10
ATOM     10  C   UNL A   1      33.198  27.896  25.500  1.00  0.00     0.039 C 
BRANCH  10  11
ATOM     11  C   UNL A   1      32.152  28.085  24.447  1.00  0.00    -0.013 A 
ATOM     12  C   UNL A   1      28.265  32.055  23.034  1.00  0.00     0.044 C 
ATOM     13  C   UNL A   1      29.270  31.051  23.513  1.00  0.00    -0.049 A 
ATOM     14  C   UNL A   1      30.011  31.285  24.672  1.00  0.00     0.007 A 
ATOM     15  C   UNL A   1      29.492  29.891  22.770  1.00  0.00     0.030 A 
ATOM     16  C   UNL A   1      30.991  30.379  25.139  1.00  0.00    -0.041 A 
ATOM     17  C   UNL A   1      30.468  29.000  23.219  1.00  0.00     0.047 A 
ATOM     18  C   UNL A   1      31.713  30.740  26.414  1.00  0.00     0.045 C 
ATOM     19  C   UNL A   1      31.236  29.205  24.365  1.00  0.00     0.006 A 
ATOM     20  N   UNL A   1      30.850  27.804  22.671  1.00  0.00    -0.353 N 
ATOM     21  C   UNL A   1      31.910  27.264  23.346  1.00  0.00     0.068 A 
ATOM     22  H   UNL A   1      30.418  27.388  21.891  1.00  0.00     0.167 HD
BRANCH  21  23
ATOM     23  C   UNL A   1      32.506  26.029  22.863  1.00  0.00     0.087 A 
ATOM     24  C   UNL A   1      32.111  25.428  21.675  1.00  0.00     0.030 A 
ATOM     25  N   UNL A   1      33.448  25.506  23.676  1.00  0.00    -0.255 NA
ATOM     26  C   UNL A   1      32.768  24.267  21.270  1.00  0.00     0.004 A 
ATOM     27  C   UNL A   1      34.105  24.408  23.234  1.00  0.00     0.112 A 
ATOM     28  C   UNL A   1      33.805  23.761  22.048  1.00  0.00     0.020 A 
ENDBRANCH  21  23
ENDBRANCH  10  11
ENDBRANCH   9  10
ENDBRANCH   8   9
ENDBRANCH   6   8
ENDBRANCH   5   6
ENDBRANCH   4   5
ENDBRANCH   3   4
ENDBRANCH   2   3
ENDBRANCH   1   2
BRANCH   1  29
ATOM     29  C   UNL A   1      36.988  21.877  24.858  1.00  0.00     0.188 C 
BRANCH  29  30
ATOM     30  O   UNL A   1      38.300  21.424  25.170  1.00  0.00    -0.376 OA
BRANCH  30  31
ATOM     31  C   UNL A   1      39.091  21.968  26.219  1.00  0.00     0.202 C 
BRANCH  31  32
ATOM     32  C   UNL A   1      40.604  22.140  26.111  1.00  0.00     0.261 C 
BRANCH  32  33
ATOM     33  O   UNL A   1      41.176  22.797  27.214  1.00  0.00    -0.460 OA
BRANCH  33  34
ATOM     34  C   UNL A   1      41.613  24.040  26.902  1.00  0.00     0.338 C 
ATOM     35  O   UNL A   1      42.121  24.409  25.869  1.00  0.00    -0.246 OA
BRANCH  34  36
ATOM     36  C   UNL A   1      41.285  24.905  28.040  1.00  0.00     0.060 A 
ATOM     37  C   UNL A   1      40.000  25.444  28.059  1.00  0.00     0.016 A 
ATOM     38  C   UNL A   1      42.317  25.354  28.876  1.00  0.00     0.016 A 
ATOM     39  C   UNL A   1      39.853  26.672  28.643  1.00  0.00     0.010 A 
ATOM     40  C   UNL A   1      42.176  26.586  29.439  1.00  0.00     0.010 A 
ATOM     41  C   UNL A   1      40.993  27.270  29.182  1.00  0.00    -0.014 A 
BRANCH  41  42
ATOM     42  C   UNL A   1      40.948  28.677  29.463  1.00  0.00     0.031 A 
ATOM     43  C   UNL A   1      42.037  29.396  28.794  1.00  0.00     0.074 A 
ATOM     44  C   UNL A   1      39.950  29.210  30.192  1.00  0.00     0.049 A 
ATOM     45  N   UNL A   1      43.122  29.835  29.333  1.00  0.00    -0.248 NA
ATOM     46  C   UNL A   1      42.050  29.392  27.322  1.00  0.00     0.031 C 
ATOM     47  C   UNL A   1      38.728  28.568  30.686  1.00  0.00     0.029 A 
ATOM     48  N   UNL A   1      39.789  30.498  30.578  1.00  0.00    -0.354 N 
ATOM     49  C   UNL A   1      43.813  30.429  28.291  1.00  0.00     0.074 A 
ATOM     50  C   UNL A   1      43.269  29.874  27.084  1.00  0.00     0.031 C 
ATOM     51  C   UNL A   1      37.861  29.522  31.105  1.00  0.00     0.029 A 
ATOM     52  C   UNL A   1      38.514  30.818  31.032  1.00  0.00     0.049 A 
ATOM     53  H   UNL A   1      40.520  31.158  30.541  1.00  0.00     0.167 HD
ATOM     54  C   UNL A   1      44.506  31.578  28.502  1.00  0.00     0.034 A 
ATOM     55  C   UNL A   1      38.040  32.073  31.266  1.00  0.00     0.034 A 
ATOM     56  C   UNL A   1      44.798  31.752  29.910  1.00  0.00     0.049 A 
ATOM     57  C   UNL A   1      39.239  32.928  31.487  1.00  0.00     0.074 A 
ATOM     58  C   UNL A   1      45.459  30.989  30.857  1.00  0.00     0.029 A 
ATOM     59  N   UNL A   1      44.026  32.641  30.627  1.00  0.00    -0.354 N 
ATOM     60  N   UNL A   1      40.053  32.765  32.496  1.00  0.00    -0.248 NA
ATOM     61  C   UNL A   1      39.814  33.606  30.333  1.00  0.00     0.031 C 
ATOM     62  C   UNL A   1      44.693  31.131  32.052  1.00  0.00     0.029 A 
ATOM     63  C   UNL A   1      43.654  32.031  31.802  1.00  0.00     0.049 A 
ATOM     64  H   UNL A   1      43.783  33.552  30.347  1.00  0.00     0.167 HD
ATOM     65  C   UNL A   1      41.326  32.923  31.963  1.00  0.00     0.074 A 
ATOM     66  C   UNL A   1      41.112  33.530  30.649  1.00  0.00     0.031 C 
ATOM     67  C   UNL A   1      42.405  32.281  32.502  1.00  0.00     0.034 A 
BRANCH  54  68
ATOM     68  C   UNL A   1      44.532  32.718  27.509  1.00  0.00     0.023 A 
ATOM     69  C   UNL A   1      43.878  33.900  27.889  1.00  0.00     0.031 A 
ATOM     70  C   UNL A   1      44.903  32.634  26.143  1.00  0.00     0.131 A 
ATOM     71  C   UNL A   1      43.539  34.874  26.935  1.00  0.00     0.055 A 
ATOM     72  C   UNL A   1      44.616  33.632  25.211  1.00  0.00     0.041 A 
ATOM     73  F   UNL A   1      45.482  31.559  25.599  1.00  0.00    -0.206 F 
ATOM     74  C   UNL A   1      43.902  34.747  25.597  1.00  0.00     0.022 A 
BRANCH  71  75
ATOM     75  S   UNL A   1      42.480  36.241  27.455  1.00  0.00     0.124 S 
ATOM     76  O   UNL A   1      42.895  36.421  28.842  1.00  0.00    -0.237 OA
ATOM     77  O   UNL A   1      42.871  37.292  26.521  1.00  0.00    -0.237 OA
ATOM     78  O   UNL A   1      41.130  35.712  27.268  1.00  0.00    -0.744 OA
ENDBRANCH  71  75
ENDBRANCH  54  68
BRANCH  55  79
ATOM     79  C   UNL A   1      36.684  32.616  30.949  1.00  0.00     0.023 A 
ATOM     80  C   UNL A   1      35.907  33.321  31.898  1.00  0.00     0.031 A 
ATOM     81  C   UNL A   1      36.232  32.668  29.611  1.00  0.00     0.131 A 
ATOM     82  C   UNL A   1      34.751  34.033  31.495  1.00  0.00     0.055 A 
ATOM     83  C   UNL A   1      35.089  33.371  29.219  1.00  0.00     0.041 A 
ATOM     84  F   UNL A   1      36.935  32.110  28.614  1.00  0.00    -0.206 F 
ATOM     85  C   UNL A   1      34.349  34.068  30.159  1.00  0.00     0.022 A 
BRANCH  82  86
ATOM     86  S   UNL A   1      33.803  35.029  32.695  1.00  0.00     0.124 S 
ATOM     87  O   UNL A   1      34.775  35.229  33.764  1.00  0.00    -0.237 OA
ATOM     88  O   UNL A   1      33.443  36.207  31.916  1.00  0.00    -0.237 OA
ATOM     89  O   UNL A   1      32.676  34.161  33.043  1.00  0.00    -0.744 OA
ENDBRANCH  82  86
ENDBRANCH  55  79
BRANCH  67  90
ATOM     90  C   UNL A   1      42.245  31.611  33.854  1.00  0.00     0.023 A 
ATOM     91  C   UNL A   1      41.945  30.242  34.050  1.00  0.00     0.031 A 
ATOM     92  C   UNL A   1      42.583  32.375  34.984  1.00  0.00     0.131 A 
ATOM     93  C   UNL A   1      41.997  29.690  35.350  1.00  0.00     0.055 A 
ATOM     94  C   UNL A   1      42.653  31.821  36.261  1.00  0.00     0.041 A 
ATOM     95  F   UNL A   1      42.910  33.672  34.852  1.00  0.00    -0.206 F 
ATOM     96  C   UNL A   1      42.361  30.475  36.449  1.00  0.00     0.022 A 
BRANCH  93  97
ATOM     97  S   UNL A   1      41.641  27.922  35.628  1.00  0.00     0.124 S 
ATOM     98  O   UNL A   1      40.753  27.941  36.785  1.00  0.00    -0.237 OA
ATOM     99  O   UNL A   1      41.041  27.511  34.362  1.00  0.00    -0.237 OA
ATOM    100  O   UNL A   1      42.961  27.342  35.887  1.00  0.00    -0.744 OA
ENDBRANCH  93  97
ENDBRANCH  67  90
ENDBRANCH  41  42
ENDBRANCH  34  36
ENDBRANCH  33  34
ENDBRANCH  32  33
ENDBRANCH  31  32
ENDBRANCH  30  31
ENDBRANCH  29  30
ENDBRANCH   1  29
TORSDOF 24
ENDMDL
