MODEL 1
REMARK VINA RESULT:     -10.2      0.000      0.000
REMARK SMILES COc1ncccc1Cn1ccc(C(=O)OCCOCCOCCOC(=O)c2ccc(-c3c4nc(c(-c5cc(S(=O)(=O)[O-])ccc5F)c5ccc([nH]5)c(-c5cc(S(=O)(=O)[O-])ccc5F)c5nc(c(-c6cc(S(=O)(=O)[O-])ccc6F)c6ccc3[nH]6)C=C5)C=C4)cc2)n1
REMARK SMILES IDX 20 1 19 2 18 3 17 4 16 5 14 6 15 7 13 8 10 9 11 10 91 11
REMARK SMILES IDX 12 12 9 13 8 14 3 15 4 16 5 17 7 18 6 19 2 20 1 21 21 22
REMARK SMILES IDX 22 23 23 24 24 25 25 26 26 27 27 28 28 29 29 30 90 31 30 32
REMARK SMILES IDX 89 33 31 34 32 35 33 36 83 37 34 38 88 39 82 40 84 41 35 42
REMARK SMILES IDX 87 43 81 44 80 45 36 47 68 48 48 49 67 50 49 51 52 52 66 53
REMARK SMILES IDX 85 54 50 55 51 56 65 58 86 59 53 60 37 61 38 62 46 63 39 64
REMARK SMILES IDX 45 65 47 66 44 67 40 68 41 69 42 70 43 71 69 72 70 73 78 74
REMARK SMILES IDX 71 75 77 76 79 77 76 78 72 79 73 80 74 81 75 82 54 83 55 84
REMARK SMILES IDX 63 85 56 86 62 87 64 88 61 89 57 90 58 91 59 92 60 93
REMARK H PARENT 84 46 52 57
REMARK Flexibility Score: inf
ROOT
ATOM      1  C   UNL A   1      33.175  28.119  22.719  1.00  0.00     0.188 C 
ENDROOT
BRANCH   1   2
ATOM      2  O   UNL A   1      31.888  27.525  22.712  1.00  0.00    -0.376 OA
BRANCH   2   3
ATOM      3  C   UNL A   1      31.609  26.404  21.891  1.00  0.00     0.202 C 
BRANCH   3   4
ATOM      4  C   UNL A   1      31.280  25.000  22.445  1.00  0.00     0.261 C 
BRANCH   4   5
ATOM      5  O   UNL A   1      30.149  24.899  23.318  1.00  0.00    -0.458 OA
BRANCH   5   6
ATOM      6  C   UNL A   1      30.293  25.448  24.554  1.00  0.00     0.358 C 
ATOM      7  O   UNL A   1      29.559  26.336  24.997  1.00  0.00    -0.244 OA
BRANCH   6   8
ATOM      8  C   UNL A   1      31.329  24.820  25.396  1.00  0.00     0.170 A 
ATOM      9  N   UNL A   1      32.475  23.433  26.570  1.00  0.00    -0.267 N 
ATOM     10  C   UNL A   1      33.247  24.563  26.489  1.00  0.00     0.110 A 
ATOM     11  N   UNL A   1      31.309  23.558  25.881  1.00  0.00    -0.165 NA
ATOM     12  C   UNL A   1      32.515  25.488  25.798  1.00  0.00     0.057 A 
BRANCH   9  13
ATOM     13  C   UNL A   1      32.959  22.108  26.975  1.00  0.00     0.185 C 
BRANCH  13  14
ATOM     14  C   UNL A   1      33.989  21.431  26.104  1.00  0.00     0.036 A 
ATOM     15  C   UNL A   1      33.769  20.267  25.372  1.00  0.00     0.218 A 
ATOM     16  N   UNL A   1      34.743  19.545  24.765  1.00  0.00    -0.222 NA
ATOM     17  C   UNL A   1      36.001  20.014  24.840  1.00  0.00     0.115 A 
ATOM     18  C   UNL A   1      35.320  21.886  26.144  1.00  0.00     0.013 A 
ATOM     19  C   UNL A   1      36.336  21.176  25.503  1.00  0.00     0.021 A 
BRANCH  15  20
ATOM     20  O   UNL A   1      32.523  19.704  25.336  1.00  0.00    -0.481 OA
ATOM     21  C   UNL A   1      32.489  18.681  24.339  1.00  0.00     0.280 C 
ENDBRANCH  15  20
ENDBRANCH  13  14
ENDBRANCH   9  13
ENDBRANCH   6   8
ENDBRANCH   5   6
ENDBRANCH   4   5
ENDBRANCH   3   4
ENDBRANCH   2   3
ENDBRANCH   1   2
BRANCH   1  22
ATOM     22  C   UNL A   1      33.815  28.621  24.029  1.00  0.00     0.188 C 
BRANCH  22  23
ATOM     23  O   UNL A   1      33.122  29.643  24.707  1.00  0.00    -0.376 OA
BRANCH  23  24
ATOM     24  C   UNL A   1      32.905  29.637  26.103  1.00  0.00     0.202 C 
BRANCH  24  25
ATOM     25  C   UNL A   1      33.612  30.522  27.130  1.00  0.00     0.261 C 
BRANCH  25  26
ATOM     26  O   UNL A   1      34.896  30.126  27.565  1.00  0.00    -0.460 OA
BRANCH  26  27
ATOM     27  C   UNL A   1      35.616  31.139  28.084  1.00  0.00     0.338 C 
ATOM     28  O   UNL A   1      35.435  32.341  27.882  1.00  0.00    -0.246 OA
BRANCH  27  29
ATOM     29  C   UNL A   1      36.725  30.599  28.864  1.00  0.00     0.060 A 
ATOM     30  C   UNL A   1      37.958  31.242  28.758  1.00  0.00     0.016 A 
ATOM     31  C   UNL A   1      36.590  29.348  29.487  1.00  0.00     0.016 A 
ATOM     32  C   UNL A   1      39.091  30.560  29.145  1.00  0.00     0.010 A 
ATOM     33  C   UNL A   1      37.725  28.663  29.862  1.00  0.00     0.010 A 
ATOM     34  C   UNL A   1      38.966  29.251  29.624  1.00  0.00    -0.014 A 
BRANCH  34  35
ATOM     35  C   UNL A   1      40.187  28.525  29.910  1.00  0.00     0.031 A 
ATOM     36  C   UNL A   1      40.531  28.472  31.341  1.00  0.00     0.074 A 
ATOM     37  C   UNL A   1      40.887  27.874  28.961  1.00  0.00     0.049 A 
ATOM     38  N   UNL A   1      41.553  28.992  31.932  1.00  0.00    -0.248 NA
ATOM     39  C   UNL A   1      39.545  27.872  32.255  1.00  0.00     0.031 C 
ATOM     40  C   UNL A   1      40.437  27.618  27.589  1.00  0.00     0.029 A 
ATOM     41  N   UNL A   1      42.075  27.203  29.040  1.00  0.00    -0.354 N 
ATOM     42  C   UNL A   1      41.481  28.530  33.239  1.00  0.00     0.074 A 
ATOM     43  C   UNL A   1      40.139  28.060  33.432  1.00  0.00     0.031 C 
ATOM     44  C   UNL A   1      41.228  26.675  27.037  1.00  0.00     0.029 A 
ATOM     45  C   UNL A   1      42.309  26.364  27.959  1.00  0.00     0.049 A 
ATOM     46  H   UNL A   1      42.704  27.306  29.791  1.00  0.00     0.167 HD
ATOM     47  C   UNL A   1      42.623  28.252  33.922  1.00  0.00     0.034 A 
ATOM     48  C   UNL A   1      43.281  25.428  27.828  1.00  0.00     0.034 A 
ATOM     49  C   UNL A   1      43.764  28.905  33.326  1.00  0.00     0.049 A 
ATOM     50  C   UNL A   1      44.410  25.784  28.716  1.00  0.00     0.074 A 
ATOM     51  C   UNL A   1      44.303  30.171  33.306  1.00  0.00     0.029 A 
ATOM     52  N   UNL A   1      44.376  28.190  32.331  1.00  0.00    -0.354 N 
ATOM     53  N   UNL A   1      45.121  26.868  28.571  1.00  0.00    -0.248 NA
ATOM     54  C   UNL A   1      44.582  25.102  29.995  1.00  0.00     0.031 C 
ATOM     55  C   UNL A   1      45.176  30.225  32.177  1.00  0.00     0.029 A 
ATOM     56  C   UNL A   1      45.162  28.989  31.538  1.00  0.00     0.049 A 
ATOM     57  H   UNL A   1      44.266  27.220  32.201  1.00  0.00     0.167 HD
ATOM     58  C   UNL A   1      45.488  27.222  29.852  1.00  0.00     0.074 A 
ATOM     59  C   UNL A   1      45.284  26.026  30.657  1.00  0.00     0.031 C 
ATOM     60  C   UNL A   1      45.581  28.531  30.223  1.00  0.00     0.034 A 
BRANCH  47  61
ATOM     61  C   UNL A   1      42.805  27.036  34.815  1.00  0.00     0.023 A 
ATOM     62  C   UNL A   1      43.574  25.977  34.295  1.00  0.00     0.031 A 
ATOM     63  C   UNL A   1      42.053  26.732  35.975  1.00  0.00     0.131 A 
ATOM     64  C   UNL A   1      43.515  24.691  34.861  1.00  0.00     0.055 A 
ATOM     65  C   UNL A   1      42.041  25.466  36.566  1.00  0.00     0.041 A 
ATOM     66  F   UNL A   1      41.215  27.601  36.551  1.00  0.00    -0.206 F 
ATOM     67  C   UNL A   1      42.752  24.428  35.994  1.00  0.00     0.022 A 
BRANCH  64  68
ATOM     68  S   UNL A   1      44.338  23.328  33.999  1.00  0.00     0.124 S 
ATOM     69  O   UNL A   1      44.265  22.258  34.986  1.00  0.00    -0.237 OA
ATOM     70  O   UNL A   1      43.498  23.175  32.815  1.00  0.00    -0.237 OA
ATOM     71  O   UNL A   1      45.680  23.852  33.745  1.00  0.00    -0.744 OA
ENDBRANCH  64  68
ENDBRANCH  47  61
BRANCH  48  72
ATOM     72  C   UNL A   1      43.160  24.130  27.119  1.00  0.00     0.023 A 
ATOM     73  C   UNL A   1      44.049  23.742  26.101  1.00  0.00     0.031 A 
ATOM     74  C   UNL A   1      42.268  23.144  27.600  1.00  0.00     0.131 A 
ATOM     75  C   UNL A   1      44.017  22.421  25.601  1.00  0.00     0.055 A 
ATOM     76  C   UNL A   1      42.226  21.847  27.089  1.00  0.00     0.041 A 
ATOM     77  F   UNL A   1      41.456  23.389  28.642  1.00  0.00    -0.206 F 
ATOM     78  C   UNL A   1      43.109  21.477  26.089  1.00  0.00     0.022 A 
BRANCH  75  79
ATOM     79  S   UNL A   1      45.247  21.885  24.373  1.00  0.00     0.124 S 
ATOM     80  O   UNL A   1      45.590  23.138  23.712  1.00  0.00    -0.237 OA
ATOM     81  O   UNL A   1      46.281  21.286  25.209  1.00  0.00    -0.237 OA
ATOM     82  O   UNL A   1      44.504  20.935  23.543  1.00  0.00    -0.744 OA
ENDBRANCH  75  79
ENDBRANCH  48  72
BRANCH  60  83
ATOM     83  C   UNL A   1      45.995  29.534  29.176  1.00  0.00     0.023 A 
ATOM     84  C   UNL A   1      45.112  30.324  28.410  1.00  0.00     0.031 A 
ATOM     85  C   UNL A   1      47.375  29.692  28.947  1.00  0.00     0.131 A 
ATOM     86  C   UNL A   1      45.622  31.217  27.447  1.00  0.00     0.055 A 
ATOM     87  C   UNL A   1      47.877  30.591  28.007  1.00  0.00     0.041 A 
ATOM     88  F   UNL A   1      48.270  28.971  29.643  1.00  0.00    -0.206 F 
ATOM     89  C   UNL A   1      47.000  31.352  27.246  1.00  0.00     0.022 A 
BRANCH  86  90
ATOM     90  S   UNL A   1      44.497  32.195  26.400  1.00  0.00     0.124 S 
ATOM     91  O   UNL A   1      43.490  31.228  25.979  1.00  0.00    -0.237 OA
ATOM     92  O   UNL A   1      44.040  33.232  27.321  1.00  0.00    -0.237 OA
ATOM     93  O   UNL A   1      45.368  32.676  25.326  1.00  0.00    -0.744 OA
ENDBRANCH  86  90
ENDBRANCH  60  83
ENDBRANCH  34  35
ENDBRANCH  27  29
ENDBRANCH  26  27
ENDBRANCH  25  26
ENDBRANCH  24  25
ENDBRANCH  23  24
ENDBRANCH  22  23
ENDBRANCH   1  22
TORSDOF 23
ENDMDL
MODEL 2
REMARK VINA RESULT:      -9.9      2.346      7.146
REMARK SMILES COc1ncccc1Cn1ccc(C(=O)OCCOCCOCCOC(=O)c2ccc(-c3c4nc(c(-c5cc(S(=O)(=O)[O-])ccc5F)c5ccc([nH]5)c(-c5cc(S(=O)(=O)[O-])ccc5F)c5nc(c(-c6cc(S(=O)(=O)[O-])ccc6F)c6ccc3[nH]6)C=C5)C=C4)cc2)n1
REMARK SMILES IDX 20 1 19 2 18 3 17 4 16 5 14 6 15 7 13 8 10 9 11 10 91 11
REMARK SMILES IDX 12 12 9 13 8 14 3 15 4 16 5 17 7 18 6 19 2 20 1 21 21 22
REMARK SMILES IDX 22 23 23 24 24 25 25 26 26 27 27 28 28 29 29 30 90 31 30 32
REMARK SMILES IDX 89 33 31 34 32 35 33 36 83 37 34 38 88 39 82 40 84 41 35 42
REMARK SMILES IDX 87 43 81 44 80 45 36 47 68 48 48 49 67 50 49 51 52 52 66 53
REMARK SMILES IDX 85 54 50 55 51 56 65 58 86 59 53 60 37 61 38 62 46 63 39 64
REMARK SMILES IDX 45 65 47 66 44 67 40 68 41 69 42 70 43 71 69 72 70 73 78 74
REMARK SMILES IDX 71 75 77 76 79 77 76 78 72 79 73 80 74 81 75 82 54 83 55 84
REMARK SMILES IDX 63 85 56 86 62 87 64 88 61 89 57 90 58 91 59 92 60 93
REMARK H PARENT 84 46 52 57
REMARK Flexibility Score: inf
ROOT
ATOM      1  C   UNL A   1      34.111  30.411  27.345  1.00  0.00     0.188 C 
ENDROOT
BRANCH   1   2
ATOM      2  O   UNL A   1      33.464  29.387  26.609  1.00  0.00    -0.376 OA
BRANCH   2   3
ATOM      3  C   UNL A   1      33.934  29.005  25.327  1.00  0.00     0.202 C 
BRANCH   3   4
ATOM      4  C   UNL A   1      33.022  28.872  24.088  1.00  0.00     0.261 C 
BRANCH   4   5
ATOM      5  O   UNL A   1      31.647  28.554  24.329  1.00  0.00    -0.458 OA
BRANCH   5   6
ATOM      6  C   UNL A   1      31.398  27.325  24.856  1.00  0.00     0.358 C 
ATOM      7  O   UNL A   1      30.758  27.145  25.896  1.00  0.00    -0.244 OA
BRANCH   6   8
ATOM      8  C   UNL A   1      31.849  26.191  24.028  1.00  0.00     0.170 A 
ATOM      9  N   UNL A   1      32.708  24.341  23.350  1.00  0.00    -0.267 N 
ATOM     10  C   UNL A   1      32.086  24.876  22.252  1.00  0.00     0.110 A 
ATOM     11  N   UNL A   1      32.549  25.116  24.458  1.00  0.00    -0.165 NA
ATOM     12  C   UNL A   1      31.582  26.086  22.638  1.00  0.00     0.057 A 
BRANCH   9  13
ATOM     13  C   UNL A   1      33.142  22.946  23.477  1.00  0.00     0.185 C 
BRANCH  13  14
ATOM     14  C   UNL A   1      34.491  22.674  24.097  1.00  0.00     0.036 A 
ATOM     15  C   UNL A   1      34.697  22.306  25.425  1.00  0.00     0.218 A 
ATOM     16  N   UNL A   1      35.907  22.271  26.034  1.00  0.00    -0.222 NA
ATOM     17  C   UNL A   1      36.986  22.566  25.288  1.00  0.00     0.115 A 
ATOM     18  C   UNL A   1      35.652  22.963  23.357  1.00  0.00     0.013 A 
ATOM     19  C   UNL A   1      36.912  22.905  23.954  1.00  0.00     0.021 A 
BRANCH  15  20
ATOM     20  O   UNL A   1      33.627  22.079  26.248  1.00  0.00    -0.481 OA
ATOM     21  C   UNL A   1      34.069  21.418  27.435  1.00  0.00     0.280 C 
ENDBRANCH  15  20
ENDBRANCH  13  14
ENDBRANCH   9  13
ENDBRANCH   6   8
ENDBRANCH   5   6
ENDBRANCH   4   5
ENDBRANCH   3   4
ENDBRANCH   2   3
ENDBRANCH   1   2
BRANCH   1  22
ATOM     22  C   UNL A   1      33.384  31.725  27.692  1.00  0.00     0.188 C 
BRANCH  22  23
ATOM     23  O   UNL A   1      34.203  32.807  28.074  1.00  0.00    -0.376 OA
BRANCH  23  24
ATOM     24  C   UNL A   1      34.564  33.069  29.415  1.00  0.00     0.202 C 
BRANCH  24  25
ATOM     25  C   UNL A   1      35.772  32.493  30.153  1.00  0.00     0.261 C 
BRANCH  25  26
ATOM     26  O   UNL A   1      36.544  31.515  29.487  1.00  0.00    -0.460 OA
BRANCH  26  27
ATOM     27  C   UNL A   1      36.509  30.311  30.089  1.00  0.00     0.338 C 
ATOM     28  O   UNL A   1      35.763  29.978  31.011  1.00  0.00    -0.246 OA
BRANCH  27  29
ATOM     29  C   UNL A   1      37.566  29.464  29.545  1.00  0.00     0.060 A 
ATOM     30  C   UNL A   1      38.104  28.489  30.386  1.00  0.00     0.016 A 
ATOM     31  C   UNL A   1      38.162  29.799  28.319  1.00  0.00     0.016 A 
ATOM     32  C   UNL A   1      39.332  27.950  30.068  1.00  0.00     0.010 A 
ATOM     33  C   UNL A   1      39.395  29.268  28.009  1.00  0.00     0.010 A 
ATOM     34  C   UNL A   1      39.995  28.401  28.921  1.00  0.00    -0.014 A 
BRANCH  34  35
ATOM     35  C   UNL A   1      41.333  27.899  28.683  1.00  0.00     0.031 A 
ATOM     36  C   UNL A   1      41.370  26.574  28.041  1.00  0.00     0.074 A 
ATOM     37  C   UNL A   1      42.439  28.625  28.935  1.00  0.00     0.049 A 
ATOM     38  N   UNL A   1      41.818  25.468  28.530  1.00  0.00    -0.248 NA
ATOM     39  C   UNL A   1      40.706  26.433  26.734  1.00  0.00     0.031 C 
ATOM     40  C   UNL A   1      42.470  30.053  29.268  1.00  0.00     0.029 A 
ATOM     41  N   UNL A   1      43.760  28.291  28.832  1.00  0.00    -0.354 N 
ATOM     42  C   UNL A   1      41.756  24.564  27.478  1.00  0.00     0.074 A 
ATOM     43  C   UNL A   1      40.867  25.131  26.504  1.00  0.00     0.031 C 
ATOM     44  C   UNL A   1      43.731  30.509  29.127  1.00  0.00     0.029 A 
ATOM     45  C   UNL A   1      44.610  29.390  28.828  1.00  0.00     0.049 A 
ATOM     46  H   UNL A   1      44.079  27.362  28.768  1.00  0.00     0.167 HD
ATOM     47  C   UNL A   1      42.713  23.607  27.350  1.00  0.00     0.034 A 
ATOM     48  C   UNL A   1      45.935  29.415  28.547  1.00  0.00     0.034 A 
ATOM     49  C   UNL A   1      43.416  23.398  28.594  1.00  0.00     0.049 A 
ATOM     50  C   UNL A   1      46.503  28.071  28.798  1.00  0.00     0.074 A 
ATOM     51  C   UNL A   1      43.185  22.747  29.785  1.00  0.00     0.029 A 
ATOM     52  N   UNL A   1      44.493  24.222  28.786  1.00  0.00    -0.354 N 
ATOM     53  N   UNL A   1      46.534  27.516  29.978  1.00  0.00    -0.248 NA
ATOM     54  C   UNL A   1      46.764  27.164  27.684  1.00  0.00     0.031 C 
ATOM     55  C   UNL A   1      44.091  23.306  30.737  1.00  0.00     0.029 A 
ATOM     56  C   UNL A   1      44.863  24.277  30.108  1.00  0.00     0.049 A 
ATOM     57  H   UNL A   1      44.947  24.714  28.065  1.00  0.00     0.167 HD
ATOM     58  C   UNL A   1      46.401  26.166  29.735  1.00  0.00     0.074 A 
ATOM     59  C   UNL A   1      46.721  25.993  28.325  1.00  0.00     0.031 C 
ATOM     60  C   UNL A   1      45.705  25.361  30.588  1.00  0.00     0.034 A 
BRANCH  47  61
ATOM     61  C   UNL A   1      43.343  23.204  26.028  1.00  0.00     0.023 A 
ATOM     62  C   UNL A   1      43.342  21.831  25.716  1.00  0.00     0.031 A 
ATOM     63  C   UNL A   1      44.184  24.011  25.225  1.00  0.00     0.131 A 
ATOM     64  C   UNL A   1      44.191  21.310  24.723  1.00  0.00     0.055 A 
ATOM     65  C   UNL A   1      44.985  23.496  24.201  1.00  0.00     0.041 A 
ATOM     66  F   UNL A   1      44.359  25.320  25.434  1.00  0.00    -0.206 F 
ATOM     67  C   UNL A   1      45.014  22.135  23.963  1.00  0.00     0.022 A 
BRANCH  64  68
ATOM     68  S   UNL A   1      44.310  19.512  24.544  1.00  0.00     0.124 S 
ATOM     69  O   UNL A   1      42.986  19.078  24.971  1.00  0.00    -0.237 OA
ATOM     70  O   UNL A   1      44.609  19.375  23.122  1.00  0.00    -0.237 OA
ATOM     71  O   UNL A   1      45.405  19.156  25.445  1.00  0.00    -0.744 OA
ENDBRANCH  64  68
ENDBRANCH  47  61
BRANCH  48  72
ATOM     72  C   UNL A   1      46.668  30.511  27.865  1.00  0.00     0.023 A 
ATOM     73  C   UNL A   1      46.010  31.521  27.142  1.00  0.00     0.031 A 
ATOM     74  C   UNL A   1      48.049  30.691  28.106  1.00  0.00     0.131 A 
ATOM     75  C   UNL A   1      46.732  32.647  26.687  1.00  0.00     0.055 A 
ATOM     76  C   UNL A   1      48.762  31.794  27.637  1.00  0.00     0.041 A 
ATOM     77  F   UNL A   1      48.739  29.835  28.877  1.00  0.00    -0.206 F 
ATOM     78  C   UNL A   1      48.102  32.785  26.930  1.00  0.00     0.022 A 
BRANCH  75  79
ATOM     79  S   UNL A   1      45.858  34.012  25.859  1.00  0.00     0.124 S 
ATOM     80  O   UNL A   1      46.880  34.532  24.959  1.00  0.00    -0.237 OA
ATOM     81  O   UNL A   1      44.730  33.327  25.238  1.00  0.00    -0.237 OA
ATOM     82  O   UNL A   1      45.500  34.902  26.964  1.00  0.00    -0.744 OA
ENDBRANCH  75  79
ENDBRANCH  48  72
BRANCH  60  83
ATOM     83  C   UNL A   1      45.709  25.714  32.054  1.00  0.00     0.023 A 
ATOM     84  C   UNL A   1      46.705  25.337  32.980  1.00  0.00     0.031 A 
ATOM     85  C   UNL A   1      44.632  26.482  32.534  1.00  0.00     0.131 A 
ATOM     86  C   UNL A   1      46.589  25.716  34.332  1.00  0.00     0.055 A 
ATOM     87  C   UNL A   1      44.529  26.871  33.868  1.00  0.00     0.041 A 
ATOM     88  F   UNL A   1      43.650  26.875  31.705  1.00  0.00    -0.206 F 
ATOM     89  C   UNL A   1      45.505  26.481  34.776  1.00  0.00     0.022 A 
BRANCH  86  90
ATOM     90  S   UNL A   1      47.827  25.181  35.555  1.00  0.00     0.124 S 
ATOM     91  O   UNL A   1      47.024  24.743  36.691  1.00  0.00    -0.237 OA
ATOM     92  O   UNL A   1      48.541  24.130  34.835  1.00  0.00    -0.237 OA
ATOM     93  O   UNL A   1      48.611  26.394  35.795  1.00  0.00    -0.744 OA
ENDBRANCH  86  90
ENDBRANCH  60  83
ENDBRANCH  34  35
ENDBRANCH  27  29
ENDBRANCH  26  27
ENDBRANCH  25  26
ENDBRANCH  24  25
ENDBRANCH  23  24
ENDBRANCH  22  23
ENDBRANCH   1  22
TORSDOF 23
ENDMDL
MODEL 3
REMARK VINA RESULT:      -9.9      1.367      2.387
REMARK SMILES COc1ncccc1Cn1ccc(C(=O)OCCOCCOCCOC(=O)c2ccc(-c3c4nc(c(-c5cc(S(=O)(=O)[O-])ccc5F)c5ccc([nH]5)c(-c5cc(S(=O)(=O)[O-])ccc5F)c5nc(c(-c6cc(S(=O)(=O)[O-])ccc6F)c6ccc3[nH]6)C=C5)C=C4)cc2)n1
REMARK SMILES IDX 20 1 19 2 18 3 17 4 16 5 14 6 15 7 13 8 10 9 11 10 91 11
REMARK SMILES IDX 12 12 9 13 8 14 3 15 4 16 5 17 7 18 6 19 2 20 1 21 21 22
REMARK SMILES IDX 22 23 23 24 24 25 25 26 26 27 27 28 28 29 29 30 90 31 30 32
REMARK SMILES IDX 89 33 31 34 32 35 33 36 83 37 34 38 88 39 82 40 84 41 35 42
REMARK SMILES IDX 87 43 81 44 80 45 36 47 68 48 48 49 67 50 49 51 52 52 66 53
REMARK SMILES IDX 85 54 50 55 51 56 65 58 86 59 53 60 37 61 38 62 46 63 39 64
REMARK SMILES IDX 45 65 47 66 44 67 40 68 41 69 42 70 43 71 69 72 70 73 78 74
REMARK SMILES IDX 71 75 77 76 79 77 76 78 72 79 73 80 74 81 75 82 54 83 55 84
REMARK SMILES IDX 63 85 56 86 62 87 64 88 61 89 57 90 58 91 59 92 60 93
REMARK H PARENT 84 46 52 57
REMARK Flexibility Score: inf
ROOT
ATOM      1  C   UNL A   1      33.627  31.685  27.492  1.00  0.00     0.188 C 
ENDROOT
BRANCH   1   2
ATOM      2  O   UNL A   1      32.896  30.519  27.153  1.00  0.00    -0.376 OA
BRANCH   2   3
ATOM      3  C   UNL A   1      32.794  30.091  25.805  1.00  0.00     0.202 C 
BRANCH   3   4
ATOM      4  C   UNL A   1      31.551  29.379  25.228  1.00  0.00     0.261 C 
BRANCH   4   5
ATOM      5  O   UNL A   1      31.653  28.883  23.889  1.00  0.00    -0.458 OA
BRANCH   5   6
ATOM      6  C   UNL A   1      30.959  27.745  23.615  1.00  0.00     0.358 C 
ATOM      7  O   UNL A   1      29.740  27.717  23.423  1.00  0.00    -0.244 OA
BRANCH   6   8
ATOM      8  C   UNL A   1      31.790  26.538  23.443  1.00  0.00     0.170 A 
ATOM      9  N   UNL A   1      32.584  24.544  23.555  1.00  0.00    -0.267 N 
ATOM     10  C   UNL A   1      33.374  25.199  22.646  1.00  0.00     0.110 A 
ATOM     11  N   UNL A   1      31.587  25.337  24.033  1.00  0.00    -0.165 NA
ATOM     12  C   UNL A   1      32.930  26.491  22.600  1.00  0.00     0.057 A 
BRANCH   9  13
ATOM     13  C   UNL A   1      32.517  23.088  23.720  1.00  0.00     0.185 C 
BRANCH  13  14
ATOM     14  C   UNL A   1      33.208  22.474  24.913  1.00  0.00     0.036 A 
ATOM     15  C   UNL A   1      32.905  21.226  25.451  1.00  0.00     0.218 A 
ATOM     16  N   UNL A   1      33.370  20.767  26.639  1.00  0.00    -0.222 NA
ATOM     17  C   UNL A   1      34.220  21.557  27.319  1.00  0.00     0.115 A 
ATOM     18  C   UNL A   1      34.108  23.257  25.656  1.00  0.00     0.013 A 
ATOM     19  C   UNL A   1      34.625  22.796  26.868  1.00  0.00     0.021 A 
BRANCH  15  20
ATOM     20  O   UNL A   1      31.980  20.421  24.842  1.00  0.00    -0.481 OA
ATOM     21  C   UNL A   1      32.539  19.121  24.637  1.00  0.00     0.280 C 
ENDBRANCH  15  20
ENDBRANCH  13  14
ENDBRANCH   9  13
ENDBRANCH   6   8
ENDBRANCH   5   6
ENDBRANCH   4   5
ENDBRANCH   3   4
ENDBRANCH   2   3
ENDBRANCH   1   2
BRANCH   1  22
ATOM     22  C   UNL A   1      32.917  33.037  27.706  1.00  0.00     0.188 C 
BRANCH  22  23
ATOM     23  O   UNL A   1      33.752  34.165  27.834  1.00  0.00    -0.376 OA
BRANCH  23  24
ATOM     24  C   UNL A   1      33.960  34.840  29.058  1.00  0.00     0.202 C 
BRANCH  24  25
ATOM     25  C   UNL A   1      34.929  34.424  30.164  1.00  0.00     0.261 C 
BRANCH  25  26
ATOM     26  O   UNL A   1      36.015  33.593  29.809  1.00  0.00    -0.460 OA
BRANCH  26  27
ATOM     27  C   UNL A   1      35.845  32.310  30.181  1.00  0.00     0.338 C 
ATOM     28  O   UNL A   1      34.885  31.851  30.802  1.00  0.00    -0.246 OA
BRANCH  27  29
ATOM     29  C   UNL A   1      37.030  31.538  29.819  1.00  0.00     0.060 A 
ATOM     30  C   UNL A   1      36.893  30.151  29.743  1.00  0.00     0.016 A 
ATOM     31  C   UNL A   1      38.286  32.163  29.797  1.00  0.00     0.016 A 
ATOM     32  C   UNL A   1      38.030  29.374  29.797  1.00  0.00     0.010 A 
ATOM     33  C   UNL A   1      39.421  31.385  29.863  1.00  0.00     0.010 A 
ATOM     34  C   UNL A   1      39.275  30.001  29.930  1.00  0.00    -0.014 A 
BRANCH  34  35
ATOM     35  C   UNL A   1      40.436  29.149  30.101  1.00  0.00     0.031 A 
ATOM     36  C   UNL A   1      40.799  28.908  31.507  1.00  0.00     0.074 A 
ATOM     37  C   UNL A   1      41.060  28.553  29.067  1.00  0.00     0.049 A 
ATOM     38  N   UNL A   1      41.872  29.273  32.123  1.00  0.00    -0.248 NA
ATOM     39  C   UNL A   1      39.782  28.292  32.376  1.00  0.00     0.031 C 
ATOM     40  C   UNL A   1      40.566  28.490  27.687  1.00  0.00     0.029 A 
ATOM     41  N   UNL A   1      42.188  27.782  29.039  1.00  0.00    -0.354 N 
ATOM     42  C   UNL A   1      41.784  28.675  33.374  1.00  0.00     0.074 A 
ATOM     43  C   UNL A   1      40.410  28.298  33.550  1.00  0.00     0.031 C 
ATOM     44  C   UNL A   1      41.264  27.553  27.014  1.00  0.00     0.029 A 
ATOM     45  C   UNL A   1      42.331  27.052  27.867  1.00  0.00     0.049 A 
ATOM     46  H   UNL A   1      42.837  27.748  29.779  1.00  0.00     0.167 HD
ATOM     47  C   UNL A   1      42.910  28.229  33.991  1.00  0.00     0.034 A 
ATOM     48  C   UNL A   1      43.217  26.060  27.607  1.00  0.00     0.034 A 
ATOM     49  C   UNL A   1      44.092  28.849  33.439  1.00  0.00     0.049 A 
ATOM     50  C   UNL A   1      44.388  26.221  28.498  1.00  0.00     0.074 A 
ATOM     51  C   UNL A   1      44.736  30.060  33.544  1.00  0.00     0.029 A 
ATOM     52  N   UNL A   1      44.623  28.201  32.355  1.00  0.00    -0.354 N 
ATOM     53  N   UNL A   1      45.186  27.252  28.454  1.00  0.00    -0.248 NA
ATOM     54  C   UNL A   1      44.524  25.388  29.689  1.00  0.00     0.031 C 
ATOM     55  C   UNL A   1      45.590  30.167  32.405  1.00  0.00     0.029 A 
ATOM     56  C   UNL A   1      45.460  29.016  31.633  1.00  0.00     0.049 A 
ATOM     57  H   UNL A   1      44.429  27.265  32.122  1.00  0.00     0.167 HD
ATOM     58  C   UNL A   1      45.604  27.428  29.755  1.00  0.00     0.074 A 
ATOM     59  C   UNL A   1      45.314  26.171  30.428  1.00  0.00     0.031 C 
ATOM     60  C   UNL A   1      45.815  28.676  30.266  1.00  0.00     0.034 A 
BRANCH  47  61
ATOM     61  C   UNL A   1      43.005  26.910  34.739  1.00  0.00     0.023 A 
ATOM     62  C   UNL A   1      43.808  25.908  34.160  1.00  0.00     0.031 A 
ATOM     63  C   UNL A   1      42.151  26.480  35.783  1.00  0.00     0.131 A 
ATOM     64  C   UNL A   1      43.690  24.564  34.555  1.00  0.00     0.055 A 
ATOM     65  C   UNL A   1      42.078  25.151  36.210  1.00  0.00     0.041 A 
ATOM     66  F   UNL A   1      41.273  27.287  36.388  1.00  0.00    -0.206 F 
ATOM     67  C   UNL A   1      42.829  24.178  35.578  1.00  0.00     0.022 A 
BRANCH  64  68
ATOM     68  S   UNL A   1      44.576  23.302  33.605  1.00  0.00     0.124 S 
ATOM     69  O   UNL A   1      45.945  23.798  33.649  1.00  0.00    -0.237 OA
ATOM     70  O   UNL A   1      44.299  22.097  34.381  1.00  0.00    -0.237 OA
ATOM     71  O   UNL A   1      43.934  23.357  32.293  1.00  0.00    -0.744 OA
ENDBRANCH  64  68
ENDBRANCH  47  61
BRANCH  48  72
ATOM     72  C   UNL A   1      42.974  24.864  26.762  1.00  0.00     0.023 A 
ATOM     73  C   UNL A   1      43.898  24.421  25.800  1.00  0.00     0.031 A 
ATOM     74  C   UNL A   1      41.891  24.004  27.054  1.00  0.00     0.131 A 
ATOM     75  C   UNL A   1      43.715  23.170  25.170  1.00  0.00     0.055 A 
ATOM     76  C   UNL A   1      41.703  22.779  26.414  1.00  0.00     0.041 A 
ATOM     77  F   UNL A   1      41.017  24.292  28.033  1.00  0.00    -0.206 F 
ATOM     78  C   UNL A   1      42.623  22.352  25.472  1.00  0.00     0.022 A 
BRANCH  75  79
ATOM     79  S   UNL A   1      44.975  22.542  24.017  1.00  0.00     0.124 S 
ATOM     80  O   UNL A   1      45.515  21.399  24.742  1.00  0.00    -0.237 OA
ATOM     81  O   UNL A   1      44.186  22.244  22.827  1.00  0.00    -0.237 OA
ATOM     82  O   UNL A   1      45.895  23.671  23.873  1.00  0.00    -0.744 OA
ENDBRANCH  75  79
ENDBRANCH  48  72
BRANCH  60  83
ATOM     83  C   UNL A   1      46.294  29.752  29.325  1.00  0.00     0.023 A 
ATOM     84  C   UNL A   1      45.461  30.590  28.553  1.00  0.00     0.031 A 
ATOM     85  C   UNL A   1      47.685  29.932  29.208  1.00  0.00     0.131 A 
ATOM     86  C   UNL A   1      46.030  31.551  27.695  1.00  0.00     0.055 A 
ATOM     87  C   UNL A   1      48.245  30.897  28.373  1.00  0.00     0.041 A 
ATOM     88  F   UNL A   1      48.535  29.168  29.915  1.00  0.00    -0.206 F 
ATOM     89  C   UNL A   1      47.418  31.706  27.605  1.00  0.00     0.022 A 
BRANCH  86  90
ATOM     90  S   UNL A   1      44.975  32.595  26.640  1.00  0.00     0.124 S 
ATOM     91  O   UNL A   1      44.319  33.491  27.586  1.00  0.00    -0.237 OA
ATOM     92  O   UNL A   1      45.948  33.214  25.744  1.00  0.00    -0.237 OA
ATOM     93  O   UNL A   1      44.082  31.630  25.995  1.00  0.00    -0.744 OA
ENDBRANCH  86  90
ENDBRANCH  60  83
ENDBRANCH  34  35
ENDBRANCH  27  29
ENDBRANCH  26  27
ENDBRANCH  25  26
ENDBRANCH  24  25
ENDBRANCH  23  24
ENDBRANCH  22  23
ENDBRANCH   1  22
TORSDOF 23
ENDMDL
