MODEL 1
REMARK VINA RESULT:      -9.2      0.000      0.000
REMARK SMILES C[C@@H](C(=O)OCCOCCOCCOC(=O)c1ccc(-c2c3nc(c(-c4cc(S(=O)(=O)[O-])ccc4F)c4ccc([nH]4)c(-c4cc(S(=O)(=O)[O-])ccc4F)c4nc(c(-c5cc(S(=O)(=O)[O-])ccc5F)c5ccc2[nH]5)C=C4)C=C3)cc1)c1ccc(-c2ccc3[nH]ccc3c2)cc1
REMARK SMILES IDX 10 1 9 2 8 3 7 4 6 5 5 6 3 7 4 8 2 9 1 10 80 11 81 12 94 13
REMARK SMILES IDX 82 14 93 15 83 16 84 17 85 18 92 19 86 20 91 21 87 22 90 23
REMARK SMILES IDX 88 24 89 25 11 27 12 28 13 29 14 30 15 31 16 32 17 33 18 34
REMARK SMILES IDX 79 35 19 36 78 37 20 38 21 39 22 40 72 41 23 42 77 43 71 44
REMARK SMILES IDX 73 45 24 46 76 47 70 48 69 49 25 51 57 52 37 53 56 54 38 55
REMARK SMILES IDX 41 56 55 57 74 58 39 59 40 60 54 62 75 63 42 64 26 65 27 66
REMARK SMILES IDX 35 67 28 68 34 69 36 70 33 71 29 72 30 73 31 74 32 75 58 76
REMARK SMILES IDX 59 77 67 78 60 79 66 80 68 81 65 82 61 83 62 84 63 85 64 86
REMARK SMILES IDX 43 87 44 88 52 89 45 90 51 91 53 92 50 93 46 94 47 95 48 96
REMARK SMILES IDX 49 97
REMARK H PARENT 88 26 73 50 41 61
REMARK Flexibility Score: inf
ROOT
ATOM      1  C   UNL A   1      33.232  35.876  31.128  1.00  0.00     0.188 C 
ENDROOT
BRANCH   1   2
ATOM      2  C   UNL A   1      33.329  35.460  32.603  1.00  0.00     0.188 C 
BRANCH   2   3
ATOM      3  O   UNL A   1      32.947  34.111  32.806  1.00  0.00    -0.376 OA
BRANCH   3   4
ATOM      4  C   UNL A   1      33.915  33.290  33.438  1.00  0.00     0.202 C 
BRANCH   4   5
ATOM      5  C   UNL A   1      35.113  33.953  34.148  1.00  0.00     0.261 C 
BRANCH   5   6
ATOM      6  O   UNL A   1      36.427  33.473  33.802  1.00  0.00    -0.463 OA
BRANCH   6   7
ATOM      7  C   UNL A   1      37.366  34.361  33.388  1.00  0.00     0.313 C 
ATOM      8  O   UNL A   1      38.116  34.947  34.162  1.00  0.00    -0.252 OA
BRANCH   7   9
ATOM      9  C   UNL A   1      37.398  34.555  31.855  1.00  0.00     0.126 C 
ATOM     10  C   UNL A   1      36.436  33.672  31.033  1.00  0.00     0.025 C 
BRANCH   9  11
ATOM     11  C   UNL A   1      38.797  34.559  31.232  1.00  0.00    -0.034 A 
ATOM     12  C   UNL A   1      39.026  34.736  29.861  1.00  0.00     0.005 A 
ATOM     13  C   UNL A   1      39.919  34.366  32.059  1.00  0.00     0.005 A 
ATOM     14  C   UNL A   1      40.324  34.726  29.336  1.00  0.00     0.009 A 
ATOM     15  C   UNL A   1      41.216  34.360  31.531  1.00  0.00     0.009 A 
ATOM     16  C   UNL A   1      41.436  34.541  30.163  1.00  0.00    -0.018 A 
BRANCH  16  17
ATOM     17  C   UNL A   1      42.796  34.525  29.614  1.00  0.00    -0.018 A 
ATOM     18  C   UNL A   1      43.353  33.332  29.130  1.00  0.00     0.011 A 
ATOM     19  C   UNL A   1      43.555  35.707  29.555  1.00  0.00     0.019 A 
ATOM     20  C   UNL A   1      44.633  33.285  28.568  1.00  0.00     0.027 A 
ATOM     21  C   UNL A   1      44.845  35.687  28.987  1.00  0.00    -0.000 A 
ATOM     22  C   UNL A   1      45.347  34.483  28.495  1.00  0.00     0.045 A 
ATOM     23  C   UNL A   1      45.853  36.667  28.790  1.00  0.00     0.028 A 
ATOM     24  N   UNL A   1      46.602  34.738  27.990  1.00  0.00    -0.361 N 
ATOM     25  C   UNL A   1      46.919  36.056  28.169  1.00  0.00     0.083 A 
ATOM     26  H   UNL A   1      47.185  34.071  27.562  1.00  0.00     0.166 HD
ENDBRANCH  16  17
ENDBRANCH   9  11
ENDBRANCH   7   9
ENDBRANCH   6   7
ENDBRANCH   5   6
ENDBRANCH   4   5
ENDBRANCH   3   4
ENDBRANCH   2   3
ENDBRANCH   1   2
BRANCH   1  27
ATOM     27  O   UNL A   1      32.818  34.943  30.144  1.00  0.00    -0.376 OA
BRANCH  27  28
ATOM     28  C   UNL A   1      33.572  34.837  28.948  1.00  0.00     0.202 C 
BRANCH  28  29
ATOM     29  C   UNL A   1      33.493  33.578  28.057  1.00  0.00     0.261 C 
BRANCH  29  30
ATOM     30  O   UNL A   1      34.720  32.887  27.774  1.00  0.00    -0.460 OA
BRANCH  30  31
ATOM     31  C   UNL A   1      34.632  31.534  27.693  1.00  0.00     0.338 C 
ATOM     32  O   UNL A   1      33.733  30.892  27.167  1.00  0.00    -0.246 OA
BRANCH  31  33
ATOM     33  C   UNL A   1      35.900  30.931  28.170  1.00  0.00     0.060 A 
ATOM     34  C   UNL A   1      35.884  29.627  28.687  1.00  0.00     0.016 A 
ATOM     35  C   UNL A   1      37.092  31.654  28.138  1.00  0.00     0.016 A 
ATOM     36  C   UNL A   1      37.056  29.046  29.178  1.00  0.00     0.010 A 
ATOM     37  C   UNL A   1      38.259  31.082  28.666  1.00  0.00     0.010 A 
ATOM     38  C   UNL A   1      38.243  29.785  29.212  1.00  0.00    -0.014 A 
BRANCH  38  39
ATOM     39  C   UNL A   1      39.409  29.288  29.995  1.00  0.00     0.031 A 
ATOM     40  C   UNL A   1      39.653  29.885  31.356  1.00  0.00     0.074 A 
ATOM     41  C   UNL A   1      40.226  28.329  29.522  1.00  0.00     0.049 A 
ATOM     42  N   UNL A   1      40.624  29.661  32.201  1.00  0.00    -0.248 NA
ATOM     43  C   UNL A   1      38.670  30.878  31.815  1.00  0.00     0.031 C 
ATOM     44  C   UNL A   1      40.047  27.640  28.247  1.00  0.00     0.029 A 
ATOM     45  N   UNL A   1      41.360  27.761  30.052  1.00  0.00    -0.354 N 
ATOM     46  C   UNL A   1      40.389  30.510  33.279  1.00  0.00     0.074 A 
ATOM     47  C   UNL A   1      39.189  31.257  32.971  1.00  0.00     0.031 C 
ATOM     48  C   UNL A   1      41.017  26.720  28.109  1.00  0.00     0.029 A 
ATOM     49  C   UNL A   1      41.932  26.797  29.247  1.00  0.00     0.049 A 
ATOM     50  H   UNL A   1      41.729  28.018  30.928  1.00  0.00     0.167 HD
ATOM     51  C   UNL A   1      41.116  30.656  34.413  1.00  0.00     0.034 A 
ATOM     52  C   UNL A   1      43.069  26.080  29.403  1.00  0.00     0.034 A 
ATOM     53  C   UNL A   1      42.317  29.908  34.695  1.00  0.00     0.049 A 
ATOM     54  C   UNL A   1      43.884  26.299  30.664  1.00  0.00     0.074 A 
ATOM     55  C   UNL A   1      43.130  29.974  35.812  1.00  0.00     0.029 A 
ATOM     56  N   UNL A   1      42.888  28.968  33.844  1.00  0.00    -0.354 N 
ATOM     57  N   UNL A   1      43.627  27.073  31.698  1.00  0.00    -0.248 NA
ATOM     58  C   UNL A   1      45.141  25.547  30.787  1.00  0.00     0.031 C 
ATOM     59  C   UNL A   1      44.231  29.139  35.602  1.00  0.00     0.029 A 
ATOM     60  C   UNL A   1      44.060  28.475  34.398  1.00  0.00     0.049 A 
ATOM     61  H   UNL A   1      42.515  28.693  32.975  1.00  0.00     0.167 HD
ATOM     62  C   UNL A   1      44.673  26.874  32.598  1.00  0.00     0.074 A 
ATOM     63  C   UNL A   1      45.540  25.877  32.007  1.00  0.00     0.031 C 
ATOM     64  C   UNL A   1      44.905  27.466  33.800  1.00  0.00     0.034 A 
BRANCH  51  65
ATOM     65  C   UNL A   1      40.673  31.719  35.393  1.00  0.00     0.023 A 
ATOM     66  C   UNL A   1      39.621  31.506  36.300  1.00  0.00     0.031 A 
ATOM     67  C   UNL A   1      41.297  32.979  35.395  1.00  0.00     0.131 A 
ATOM     68  C   UNL A   1      39.180  32.557  37.120  1.00  0.00     0.055 A 
ATOM     69  C   UNL A   1      40.910  33.994  36.273  1.00  0.00     0.041 A 
ATOM     70  F   UNL A   1      42.289  33.252  34.533  1.00  0.00    -0.206 F 
ATOM     71  C   UNL A   1      39.835  33.790  37.133  1.00  0.00     0.022 A 
BRANCH  68  72
ATOM     72  S   UNL A   1      37.645  32.337  38.060  1.00  0.00     0.124 S 
ATOM     73  O   UNL A   1      37.363  30.921  37.837  1.00  0.00    -0.237 OA
ATOM     74  O   UNL A   1      38.050  32.703  39.414  1.00  0.00    -0.237 OA
ATOM     75  O   UNL A   1      36.713  33.259  37.416  1.00  0.00    -0.744 OA
ENDBRANCH  68  72
ENDBRANCH  51  65
BRANCH  52  76
ATOM     76  C   UNL A   1      43.520  25.104  28.353  1.00  0.00     0.023 A 
ATOM     77  C   UNL A   1      44.530  25.431  27.429  1.00  0.00     0.031 A 
ATOM     78  C   UNL A   1      42.928  23.834  28.219  1.00  0.00     0.131 A 
ATOM     79  C   UNL A   1      44.917  24.523  26.430  1.00  0.00     0.055 A 
ATOM     80  C   UNL A   1      43.349  22.909  27.258  1.00  0.00     0.041 A 
ATOM     81  F   UNL A   1      41.927  23.460  29.032  1.00  0.00    -0.206 F 
ATOM     82  C   UNL A   1      44.346  23.255  26.351  1.00  0.00     0.022 A 
BRANCH  79  83
ATOM     83  S   UNL A   1      46.096  25.057  25.154  1.00  0.00     0.124 S 
ATOM     84  O   UNL A   1      45.607  26.392  24.824  1.00  0.00    -0.237 OA
ATOM     85  O   UNL A   1      47.368  24.997  25.864  1.00  0.00    -0.237 OA
ATOM     86  O   UNL A   1      45.930  24.057  24.100  1.00  0.00    -0.744 OA
ENDBRANCH  79  83
ENDBRANCH  52  76
BRANCH  64  87
ATOM     87  C   UNL A   1      46.117  27.005  34.583  1.00  0.00     0.023 A 
ATOM     88  C   UNL A   1      46.081  25.868  35.411  1.00  0.00     0.031 A 
ATOM     89  C   UNL A   1      47.330  27.712  34.493  1.00  0.00     0.131 A 
ATOM     90  C   UNL A   1      47.212  25.513  36.163  1.00  0.00     0.055 A 
ATOM     91  C   UNL A   1      48.474  27.309  35.185  1.00  0.00     0.041 A 
ATOM     92  F   UNL A   1      47.428  28.806  33.720  1.00  0.00    -0.206 F 
ATOM     93  C   UNL A   1      48.413  26.213  36.039  1.00  0.00     0.022 A 
BRANCH  90  94
ATOM     94  S   UNL A   1      47.059  24.185  37.389  1.00  0.00     0.124 S 
ATOM     95  O   UNL A   1      48.444  23.751  37.539  1.00  0.00    -0.237 OA
ATOM     96  O   UNL A   1      46.482  24.882  38.534  1.00  0.00    -0.237 OA
ATOM     97  O   UNL A   1      46.173  23.220  36.741  1.00  0.00    -0.744 OA
ENDBRANCH  90  94
ENDBRANCH  64  87
ENDBRANCH  38  39
ENDBRANCH  31  33
ENDBRANCH  30  31
ENDBRANCH  29  30
ENDBRANCH  28  29
ENDBRANCH  27  28
ENDBRANCH   1  27
TORSDOF 22
ENDMDL
MODEL 2
REMARK VINA RESULT:      -9.1      2.160      2.577
REMARK SMILES C[C@@H](C(=O)OCCOCCOCCOC(=O)c1ccc(-c2c3nc(c(-c4cc(S(=O)(=O)[O-])ccc4F)c4ccc([nH]4)c(-c4cc(S(=O)(=O)[O-])ccc4F)c4nc(c(-c5cc(S(=O)(=O)[O-])ccc5F)c5ccc2[nH]5)C=C4)C=C3)cc1)c1ccc(-c2ccc3[nH]ccc3c2)cc1
REMARK SMILES IDX 10 1 9 2 8 3 7 4 6 5 5 6 3 7 4 8 2 9 1 10 80 11 81 12 94 13
REMARK SMILES IDX 82 14 93 15 83 16 84 17 85 18 92 19 86 20 91 21 87 22 90 23
REMARK SMILES IDX 88 24 89 25 11 27 12 28 13 29 14 30 15 31 16 32 17 33 18 34
REMARK SMILES IDX 79 35 19 36 78 37 20 38 21 39 22 40 72 41 23 42 77 43 71 44
REMARK SMILES IDX 73 45 24 46 76 47 70 48 69 49 25 51 57 52 37 53 56 54 38 55
REMARK SMILES IDX 41 56 55 57 74 58 39 59 40 60 54 62 75 63 42 64 26 65 27 66
REMARK SMILES IDX 35 67 28 68 34 69 36 70 33 71 29 72 30 73 31 74 32 75 58 76
REMARK SMILES IDX 59 77 67 78 60 79 66 80 68 81 65 82 61 83 62 84 63 85 64 86
REMARK SMILES IDX 43 87 44 88 52 89 45 90 51 91 53 92 50 93 46 94 47 95 48 96
REMARK SMILES IDX 49 97
REMARK H PARENT 88 26 73 50 41 61
REMARK Flexibility Score: inf
ROOT
ATOM      1  C   UNL A   1      32.997  36.185  31.064  1.00  0.00     0.188 C 
ENDROOT
BRANCH   1   2
ATOM      2  C   UNL A   1      33.054  35.808  32.551  1.00  0.00     0.188 C 
BRANCH   2   3
ATOM      3  O   UNL A   1      32.756  34.441  32.769  1.00  0.00    -0.376 OA
BRANCH   3   4
ATOM      4  C   UNL A   1      33.814  33.662  33.303  1.00  0.00     0.202 C 
BRANCH   4   5
ATOM      5  C   UNL A   1      35.024  34.376  33.939  1.00  0.00     0.261 C 
BRANCH   5   6
ATOM      6  O   UNL A   1      36.302  33.720  33.830  1.00  0.00    -0.463 OA
BRANCH   6   7
ATOM      7  C   UNL A   1      37.357  34.409  33.324  1.00  0.00     0.313 C 
ATOM      8  O   UNL A   1      38.175  34.988  34.031  1.00  0.00    -0.252 OA
BRANCH   7   9
ATOM      9  C   UNL A   1      37.424  34.389  31.780  1.00  0.00     0.126 C 
ATOM     10  C   UNL A   1      36.580  33.308  31.073  1.00  0.00     0.025 C 
BRANCH   9  11
ATOM     11  C   UNL A   1      38.837  34.444  31.193  1.00  0.00    -0.034 A 
ATOM     12  C   UNL A   1      39.993  34.215  31.951  1.00  0.00     0.005 A 
ATOM     13  C   UNL A   1      39.003  34.747  29.829  1.00  0.00     0.005 A 
ATOM     14  C   UNL A   1      41.265  34.283  31.369  1.00  0.00     0.009 A 
ATOM     15  C   UNL A   1      40.277  34.810  29.249  1.00  0.00     0.009 A 
ATOM     16  C   UNL A   1      41.425  34.577  30.012  1.00  0.00    -0.018 A 
BRANCH  16  17
ATOM     17  C   UNL A   1      42.756  34.654  29.403  1.00  0.00    -0.018 A 
ATOM     18  C   UNL A   1      43.391  35.893  29.235  1.00  0.00     0.011 A 
ATOM     19  C   UNL A   1      43.420  33.484  28.990  1.00  0.00     0.019 A 
ATOM     20  C   UNL A   1      44.676  36.001  28.690  1.00  0.00     0.027 A 
ATOM     21  C   UNL A   1      44.717  33.566  28.444  1.00  0.00    -0.000 A 
ATOM     22  C   UNL A   1      45.318  34.818  28.321  1.00  0.00     0.045 A 
ATOM     23  C   UNL A   1      45.634  32.613  27.929  1.00  0.00     0.028 A 
ATOM     24  N   UNL A   1      46.569  34.620  27.779  1.00  0.00    -0.361 N 
ATOM     25  C   UNL A   1      46.766  33.290  27.533  1.00  0.00     0.083 A 
ATOM     26  H   UNL A   1      47.224  35.331  27.597  1.00  0.00     0.166 HD
ENDBRANCH  16  17
ENDBRANCH   9  11
ENDBRANCH   7   9
ENDBRANCH   6   7
ENDBRANCH   5   6
ENDBRANCH   4   5
ENDBRANCH   3   4
ENDBRANCH   2   3
ENDBRANCH   1   2
BRANCH   1  27
ATOM     27  O   UNL A   1      32.639  35.219  30.090  1.00  0.00    -0.376 OA
BRANCH  27  28
ATOM     28  C   UNL A   1      33.469  35.061  28.951  1.00  0.00     0.202 C 
BRANCH  28  29
ATOM     29  C   UNL A   1      33.366  33.813  28.049  1.00  0.00     0.261 C 
BRANCH  29  30
ATOM     30  O   UNL A   1      34.541  33.001  27.900  1.00  0.00    -0.460 OA
BRANCH  30  31
ATOM     31  C   UNL A   1      34.327  31.664  27.783  1.00  0.00     0.338 C 
ATOM     32  O   UNL A   1      33.329  31.123  27.330  1.00  0.00    -0.246 OA
BRANCH  31  33
ATOM     33  C   UNL A   1      35.578  30.938  28.110  1.00  0.00     0.060 A 
ATOM     34  C   UNL A   1      35.496  29.661  28.686  1.00  0.00     0.016 A 
ATOM     35  C   UNL A   1      36.825  31.520  27.881  1.00  0.00     0.016 A 
ATOM     36  C   UNL A   1      36.656  28.967  29.038  1.00  0.00     0.010 A 
ATOM     37  C   UNL A   1      37.986  30.837  28.270  1.00  0.00     0.010 A 
ATOM     38  C   UNL A   1      37.908  29.568  28.874  1.00  0.00    -0.014 A 
BRANCH  38  39
ATOM     39  C   UNL A   1      39.113  28.968  29.512  1.00  0.00     0.031 A 
ATOM     40  C   UNL A   1      39.579  29.542  30.824  1.00  0.00     0.074 A 
ATOM     41  C   UNL A   1      39.774  27.937  28.954  1.00  0.00     0.049 A 
ATOM     42  N   UNL A   1      40.624  29.232  31.545  1.00  0.00    -0.248 NA
ATOM     43  C   UNL A   1      38.755  30.622  31.388  1.00  0.00     0.031 C 
ATOM     44  C   UNL A   1      39.375  27.265  27.721  1.00  0.00     0.029 A 
ATOM     45  N   UNL A   1      40.909  27.268  29.347  1.00  0.00    -0.354 N 
ATOM     46  C   UNL A   1      40.604  30.101  32.632  1.00  0.00     0.074 A 
ATOM     47  C   UNL A   1      39.448  30.955  32.466  1.00  0.00     0.031 C 
ATOM     48  C   UNL A   1      40.233  26.260  27.475  1.00  0.00     0.029 A 
ATOM     49  C   UNL A   1      41.286  26.255  28.490  1.00  0.00     0.049 A 
ATOM     50  H   UNL A   1      41.407  27.492  30.166  1.00  0.00     0.167 HD
ATOM     51  C   UNL A   1      41.478  30.182  33.665  1.00  0.00     0.034 A 
ATOM     52  C   UNL A   1      42.364  25.436  28.512  1.00  0.00     0.034 A 
ATOM     53  C   UNL A   1      42.631  29.327  33.804  1.00  0.00     0.049 A 
ATOM     54  C   UNL A   1      43.347  25.583  29.658  1.00  0.00     0.074 A 
ATOM     55  C   UNL A   1      43.581  29.321  34.811  1.00  0.00     0.029 A 
ATOM     56  N   UNL A   1      43.003  28.337  32.902  1.00  0.00    -0.354 N 
ATOM     57  N   UNL A   1      43.293  26.379  30.706  1.00  0.00    -0.248 NA
ATOM     58  C   UNL A   1      44.536  24.719  29.634  1.00  0.00     0.031 C 
ATOM     59  C   UNL A   1      44.567  28.388  34.476  1.00  0.00     0.029 A 
ATOM     60  C   UNL A   1      44.186  27.740  33.312  1.00  0.00     0.049 A 
ATOM     61  H   UNL A   1      42.501  28.096  32.090  1.00  0.00     0.167 HD
ATOM     62  C   UNL A   1      44.421  26.086  31.471  1.00  0.00     0.074 A 
ATOM     63  C   UNL A   1      45.113  25.013  30.790  1.00  0.00     0.031 C 
ATOM     64  C   UNL A   1      44.855  26.656  32.627  1.00  0.00     0.034 A 
BRANCH  51  65
ATOM     65  C   UNL A   1      41.259  31.283  34.677  1.00  0.00     0.023 A 
ATOM     66  C   UNL A   1      40.215  31.237  35.617  1.00  0.00     0.031 A 
ATOM     67  C   UNL A   1      42.095  32.414  34.680  1.00  0.00     0.131 A 
ATOM     68  C   UNL A   1      39.991  32.329  36.469  1.00  0.00     0.055 A 
ATOM     69  C   UNL A   1      41.920  33.460  35.589  1.00  0.00     0.041 A 
ATOM     70  F   UNL A   1      43.093  32.529  33.790  1.00  0.00    -0.206 F 
ATOM     71  C   UNL A   1      40.853  33.428  36.481  1.00  0.00     0.022 A 
BRANCH  68  72
ATOM     72  S   UNL A   1      38.471  32.360  37.458  1.00  0.00     0.124 S 
ATOM     73  O   UNL A   1      37.866  31.077  37.109  1.00  0.00    -0.237 OA
ATOM     74  O   UNL A   1      38.983  32.475  38.820  1.00  0.00    -0.237 OA
ATOM     75  O   UNL A   1      37.759  33.534  36.958  1.00  0.00    -0.744 OA
ENDBRANCH  68  72
ENDBRANCH  51  65
BRANCH  52  76
ATOM     76  C   UNL A   1      42.590  24.421  27.427  1.00  0.00     0.023 A 
ATOM     77  C   UNL A   1      42.013  23.138  27.488  1.00  0.00     0.031 A 
ATOM     78  C   UNL A   1      43.419  24.690  26.323  1.00  0.00     0.131 A 
ATOM     79  C   UNL A   1      42.262  22.186  26.485  1.00  0.00     0.055 A 
ATOM     80  C   UNL A   1      43.625  23.761  25.297  1.00  0.00     0.041 A 
ATOM     81  F   UNL A   1      44.043  25.874  26.211  1.00  0.00    -0.206 F 
ATOM     82  C   UNL A   1      43.049  22.498  25.378  1.00  0.00     0.022 A 
BRANCH  79  83
ATOM     83  S   UNL A   1      41.641  20.491  26.696  1.00  0.00     0.124 S 
ATOM     84  O   UNL A   1      40.358  20.714  27.354  1.00  0.00    -0.237 OA
ATOM     85  O   UNL A   1      41.581  20.011  25.320  1.00  0.00    -0.237 OA
ATOM     86  O   UNL A   1      42.664  19.858  27.527  1.00  0.00    -0.744 OA
ENDBRANCH  79  83
ENDBRANCH  52  76
BRANCH  64  87
ATOM     87  C   UNL A   1      46.108  26.088  33.259  1.00  0.00     0.023 A 
ATOM     88  C   UNL A   1      47.393  26.535  32.900  1.00  0.00     0.031 A 
ATOM     89  C   UNL A   1      46.014  25.088  34.244  1.00  0.00     0.131 A 
ATOM     90  C   UNL A   1      48.528  25.939  33.471  1.00  0.00     0.055 A 
ATOM     91  C   UNL A   1      47.145  24.552  34.863  1.00  0.00     0.041 A 
ATOM     92  F   UNL A   1      44.817  24.618  34.630  1.00  0.00    -0.206 F 
ATOM     93  C   UNL A   1      48.412  24.965  34.465  1.00  0.00     0.022 A 
BRANCH  90  94
ATOM     94  S   UNL A   1      50.163  26.377  32.817  1.00  0.00     0.124 S 
ATOM     95  O   UNL A   1      49.970  26.202  31.381  1.00  0.00    -0.237 OA
ATOM     96  O   UNL A   1      50.324  27.752  33.277  1.00  0.00    -0.237 OA
ATOM     97  O   UNL A   1      51.055  25.405  33.447  1.00  0.00    -0.744 OA
ENDBRANCH  90  94
ENDBRANCH  64  87
ENDBRANCH  38  39
ENDBRANCH  31  33
ENDBRANCH  30  31
ENDBRANCH  29  30
ENDBRANCH  28  29
ENDBRANCH  27  28
ENDBRANCH   1  27
TORSDOF 22
ENDMDL
MODEL 3
REMARK VINA RESULT:      -8.9      3.648      6.321
REMARK SMILES C[C@@H](C(=O)OCCOCCOCCOC(=O)c1ccc(-c2c3nc(c(-c4cc(S(=O)(=O)[O-])ccc4F)c4ccc([nH]4)c(-c4cc(S(=O)(=O)[O-])ccc4F)c4nc(c(-c5cc(S(=O)(=O)[O-])ccc5F)c5ccc2[nH]5)C=C4)C=C3)cc1)c1ccc(-c2ccc3[nH]ccc3c2)cc1
REMARK SMILES IDX 10 1 9 2 8 3 7 4 6 5 5 6 3 7 4 8 2 9 1 10 80 11 81 12 94 13
REMARK SMILES IDX 82 14 93 15 83 16 84 17 85 18 92 19 86 20 91 21 87 22 90 23
REMARK SMILES IDX 88 24 89 25 11 27 12 28 13 29 14 30 15 31 16 32 17 33 18 34
REMARK SMILES IDX 79 35 19 36 78 37 20 38 21 39 22 40 72 41 23 42 77 43 71 44
REMARK SMILES IDX 73 45 24 46 76 47 70 48 69 49 25 51 57 52 37 53 56 54 38 55
REMARK SMILES IDX 41 56 55 57 74 58 39 59 40 60 54 62 75 63 42 64 26 65 27 66
REMARK SMILES IDX 35 67 28 68 34 69 36 70 33 71 29 72 30 73 31 74 32 75 58 76
REMARK SMILES IDX 59 77 67 78 60 79 66 80 68 81 65 82 61 83 62 84 63 85 64 86
REMARK SMILES IDX 43 87 44 88 52 89 45 90 51 91 53 92 50 93 46 94 47 95 48 96
REMARK SMILES IDX 49 97
REMARK H PARENT 88 26 73 50 41 61
REMARK Flexibility Score: inf
ROOT
ATOM      1  C   UNL A   1      36.510  34.031  34.680  1.00  0.00     0.188 C 
ENDROOT
BRANCH   1   2
ATOM      2  C   UNL A   1      35.139  34.625  34.328  1.00  0.00     0.188 C 
BRANCH   2   3
ATOM      3  O   UNL A   1      35.222  35.584  33.290  1.00  0.00    -0.376 OA
BRANCH   3   4
ATOM      4  C   UNL A   1      33.995  35.914  32.662  1.00  0.00     0.202 C 
BRANCH   4   5
ATOM      5  C   UNL A   1      33.855  35.716  31.138  1.00  0.00     0.261 C 
BRANCH   5   6
ATOM      6  O   UNL A   1      33.467  34.407  30.680  1.00  0.00    -0.463 OA
BRANCH   6   7
ATOM      7  C   UNL A   1      34.409  33.434  30.588  1.00  0.00     0.313 C 
ATOM      8  O   UNL A   1      34.566  32.574  31.448  1.00  0.00    -0.252 OA
BRANCH   7   9
ATOM      9  C   UNL A   1      35.256  33.516  29.298  1.00  0.00     0.126 C 
ATOM     10  C   UNL A   1      34.492  33.834  27.996  1.00  0.00     0.025 C 
BRANCH   9  11
ATOM     11  C   UNL A   1      36.227  32.351  29.085  1.00  0.00    -0.034 A 
ATOM     12  C   UNL A   1      37.603  32.442  29.337  1.00  0.00     0.005 A 
ATOM     13  C   UNL A   1      35.734  31.124  28.604  1.00  0.00     0.005 A 
ATOM     14  C   UNL A   1      38.452  31.350  29.121  1.00  0.00     0.009 A 
ATOM     15  C   UNL A   1      36.586  30.033  28.392  1.00  0.00     0.009 A 
ATOM     16  C   UNL A   1      37.957  30.131  28.650  1.00  0.00    -0.018 A 
BRANCH  16  17
ATOM     17  C   UNL A   1      38.846  28.988  28.418  1.00  0.00    -0.018 A 
ATOM     18  C   UNL A   1      38.857  27.904  29.307  1.00  0.00     0.011 A 
ATOM     19  C   UNL A   1      39.691  28.959  27.294  1.00  0.00     0.019 A 
ATOM     20  C   UNL A   1      39.666  26.781  29.099  1.00  0.00     0.027 A 
ATOM     21  C   UNL A   1      40.511  27.837  27.059  1.00  0.00    -0.000 A 
ATOM     22  C   UNL A   1      40.468  26.771  27.957  1.00  0.00     0.045 A 
ATOM     23  C   UNL A   1      41.462  27.500  26.061  1.00  0.00     0.028 A 
ATOM     24  N   UNL A   1      41.341  25.811  27.495  1.00  0.00    -0.361 N 
ATOM     25  C   UNL A   1      41.952  26.246  26.352  1.00  0.00     0.083 A 
ATOM     26  H   UNL A   1      41.502  24.941  27.924  1.00  0.00     0.166 HD
ENDBRANCH  16  17
ENDBRANCH   9  11
ENDBRANCH   7   9
ENDBRANCH   6   7
ENDBRANCH   5   6
ENDBRANCH   4   5
ENDBRANCH   3   4
ENDBRANCH   2   3
ENDBRANCH   1   2
BRANCH   1  27
ATOM     27  O   UNL A   1      36.606  32.890  35.516  1.00  0.00    -0.376 OA
BRANCH  27  28
ATOM     28  C   UNL A   1      37.881  32.307  35.728  1.00  0.00     0.202 C 
BRANCH  28  29
ATOM     29  C   UNL A   1      38.153  30.825  35.392  1.00  0.00     0.261 C 
BRANCH  29  30
ATOM     30  O   UNL A   1      37.513  30.280  34.227  1.00  0.00    -0.460 OA
BRANCH  30  31
ATOM     31  C   UNL A   1      37.989  30.716  33.032  1.00  0.00     0.338 C 
ATOM     32  O   UNL A   1      37.537  31.629  32.357  1.00  0.00    -0.246 OA
BRANCH  31  33
ATOM     33  C   UNL A   1      39.278  30.043  32.743  1.00  0.00     0.060 A 
ATOM     34  C   UNL A   1      39.362  28.647  32.866  1.00  0.00     0.016 A 
ATOM     35  C   UNL A   1      40.406  30.779  32.384  1.00  0.00     0.016 A 
ATOM     36  C   UNL A   1      40.572  27.988  32.637  1.00  0.00     0.010 A 
ATOM     37  C   UNL A   1      41.628  30.119  32.192  1.00  0.00     0.010 A 
ATOM     38  C   UNL A   1      41.725  28.723  32.342  1.00  0.00    -0.014 A 
BRANCH  38  39
ATOM     39  C   UNL A   1      43.062  28.066  32.389  1.00  0.00     0.031 A 
ATOM     40  C   UNL A   1      43.646  27.748  33.739  1.00  0.00     0.074 A 
ATOM     41  C   UNL A   1      43.738  27.750  31.269  1.00  0.00     0.049 A 
ATOM     42  N   UNL A   1      44.807  27.232  34.044  1.00  0.00    -0.248 NA
ATOM     43  C   UNL A   1      42.804  28.070  34.902  1.00  0.00     0.031 C 
ATOM     44  C   UNL A   1      43.241  27.956  29.912  1.00  0.00     0.029 A 
ATOM     45  N   UNL A   1      44.978  27.185  31.088  1.00  0.00    -0.354 N 
ATOM     46  C   UNL A   1      44.852  27.197  35.435  1.00  0.00     0.074 A 
ATOM     47  C   UNL A   1      43.604  27.755  35.909  1.00  0.00     0.031 C 
ATOM     48  C   UNL A   1      44.152  27.495  29.039  1.00  0.00     0.029 A 
ATOM     49  C   UNL A   1      45.331  27.024  29.764  1.00  0.00     0.049 A 
ATOM     50  H   UNL A   1      45.560  26.919  31.836  1.00  0.00     0.167 HD
ATOM     51  C   UNL A   1      45.849  26.751  36.237  1.00  0.00     0.034 A 
ATOM     52  C   UNL A   1      46.479  26.571  29.207  1.00  0.00     0.034 A 
ATOM     53  C   UNL A   1      47.090  26.208  35.742  1.00  0.00     0.049 A 
ATOM     54  C   UNL A   1      47.593  26.120  30.133  1.00  0.00     0.074 A 
ATOM     55  C   UNL A   1      48.167  25.725  36.465  1.00  0.00     0.029 A 
ATOM     56  N   UNL A   1      47.430  26.093  34.399  1.00  0.00    -0.354 N 
ATOM     57  N   UNL A   1      47.605  26.050  31.448  1.00  0.00    -0.248 NA
ATOM     58  C   UNL A   1      48.847  25.681  29.506  1.00  0.00     0.031 C 
ATOM     59  C   UNL A   1      49.185  25.396  35.565  1.00  0.00     0.029 A 
ATOM     60  C   UNL A   1      48.712  25.579  34.275  1.00  0.00     0.049 A 
ATOM     61  H   UNL A   1      46.846  26.341  33.645  1.00  0.00     0.167 HD
ATOM     62  C   UNL A   1      48.853  25.532  31.794  1.00  0.00     0.074 A 
ATOM     63  C   UNL A   1      49.548  25.268  30.552  1.00  0.00     0.031 C 
ATOM     64  C   UNL A   1      49.384  25.305  33.024  1.00  0.00     0.034 A 
BRANCH  51  65
ATOM     65  C   UNL A   1      45.664  26.906  37.729  1.00  0.00     0.023 A 
ATOM     66  C   UNL A   1      46.112  28.042  38.423  1.00  0.00     0.031 A 
ATOM     67  C   UNL A   1      45.054  25.880  38.474  1.00  0.00     0.131 A 
ATOM     68  C   UNL A   1      46.008  28.095  39.823  1.00  0.00     0.055 A 
ATOM     69  C   UNL A   1      44.875  25.975  39.856  1.00  0.00     0.041 A 
ATOM     70  F   UNL A   1      44.630  24.758  37.871  1.00  0.00    -0.206 F 
ATOM     71  C   UNL A   1      45.367  27.082  40.540  1.00  0.00     0.022 A 
BRANCH  68  72
ATOM     72  S   UNL A   1      46.853  29.435  40.705  1.00  0.00     0.124 S 
ATOM     73  O   UNL A   1      47.975  28.725  41.315  1.00  0.00    -0.237 OA
ATOM     74  O   UNL A   1      47.190  30.358  39.627  1.00  0.00    -0.237 OA
ATOM     75  O   UNL A   1      45.844  29.916  41.646  1.00  0.00    -0.744 OA
ENDBRANCH  68  72
ENDBRANCH  51  65
BRANCH  52  76
ATOM     76  C   UNL A   1      46.651  26.527  27.714  1.00  0.00     0.023 A 
ATOM     77  C   UNL A   1      46.288  25.394  26.964  1.00  0.00     0.031 A 
ATOM     78  C   UNL A   1      47.221  27.600  27.003  1.00  0.00     0.131 A 
ATOM     79  C   UNL A   1      46.489  25.353  25.574  1.00  0.00     0.055 A 
ATOM     80  C   UNL A   1      47.373  27.581  25.613  1.00  0.00     0.041 A 
ATOM     81  F   UNL A   1      47.636  28.702  27.650  1.00  0.00    -0.206 F 
ATOM     82  C   UNL A   1      47.011  26.449  24.890  1.00  0.00     0.022 A 
BRANCH  79  83
ATOM     83  S   UNL A   1      46.169  23.805  24.676  1.00  0.00     0.124 S 
ATOM     84  O   UNL A   1      47.149  23.869  23.597  1.00  0.00    -0.237 OA
ATOM     85  O   UNL A   1      46.411  22.797  25.702  1.00  0.00    -0.237 OA
ATOM     86  O   UNL A   1      44.775  23.938  24.257  1.00  0.00    -0.744 OA
ENDBRANCH  79  83
ENDBRANCH  52  76
BRANCH  64  87
ATOM     87  C   UNL A   1      50.765  24.684  33.086  1.00  0.00     0.023 A 
ATOM     88  C   UNL A   1      50.952  23.295  33.198  1.00  0.00     0.031 A 
ATOM     89  C   UNL A   1      51.911  25.498  33.023  1.00  0.00     0.131 A 
ATOM     90  C   UNL A   1      52.249  22.769  33.310  1.00  0.00     0.055 A 
ATOM     91  C   UNL A   1      53.200  24.962  33.059  1.00  0.00     0.041 A 
ATOM     92  F   UNL A   1      51.798  26.832  32.917  1.00  0.00    -0.206 F 
ATOM     93  C   UNL A   1      53.374  23.591  33.220  1.00  0.00     0.022 A 
BRANCH  90  94
ATOM     94  S   UNL A   1      52.443  21.005  33.684  1.00  0.00     0.124 S 
ATOM     95  O   UNL A   1      53.889  20.889  33.850  1.00  0.00    -0.237 OA
ATOM     96  O   UNL A   1      51.648  20.854  34.898  1.00  0.00    -0.237 OA
ATOM     97  O   UNL A   1      51.899  20.341  32.500  1.00  0.00    -0.744 OA
ENDBRANCH  90  94
ENDBRANCH  64  87
ENDBRANCH  38  39
ENDBRANCH  31  33
ENDBRANCH  30  31
ENDBRANCH  29  30
ENDBRANCH  28  29
ENDBRANCH  27  28
ENDBRANCH   1  27
TORSDOF 22
ENDMDL
