MODEL 1
REMARK VINA RESULT:      -9.3      0.000      0.000
REMARK SMILES CC(C)c1ccc(O[C@H](C)C(=O)Nc2ccccc2C(=O)OCCOCCOCCOC(=O)c2ccc(-c3c4nc(c(-c5cc(S(=O)(=O)[O-])ccc5F)c5ccc([nH]5)c(-c5cc(S(=O)(=O)[O-])ccc5F)c5nc(c(-c6cc(S(=O)(=O)[O-])ccc6F)c6ccc3[nH]6)C=C5)C=C4)cc2)cc1
REMARK SMILES IDX 26 1 25 2 24 3 23 4 22 5 20 6 21 7 19 8 14 9 15 10 16 11
REMARK SMILES IDX 18 12 17 13 13 14 11 15 12 16 9 18 10 19 8 20 7 21 4 22 5 23
REMARK SMILES IDX 98 24 6 25 97 26 2 27 1 28 3 29 27 30 28 31 29 32 30 33
REMARK SMILES IDX 31 34 32 35 33 36 34 37 35 38 96 39 36 40 95 41 37 42 38 43
REMARK SMILES IDX 39 44 89 45 40 46 94 47 88 48 90 49 41 50 93 51 87 52 86 53
REMARK SMILES IDX 42 55 74 56 54 57 73 58 55 59 58 60 72 61 91 62 56 63 57 64
REMARK SMILES IDX 71 66 92 67 59 68 43 69 44 70 52 71 45 72 51 73 53 74 50 75
REMARK SMILES IDX 46 76 47 77 48 78 49 79 75 80 76 81 84 82 77 83 83 84 85 85
REMARK SMILES IDX 82 86 78 87 79 88 80 89 81 90 60 91 61 92 69 93 62 94 68 95
REMARK SMILES IDX 70 96 67 97 63 98 64 99 65 100 66 101
REMARK H PARENT 13 17 90 54 58 65
REMARK Flexibility Score: inf
ROOT
ATOM      1  C   UNL A   1      41.599  21.274  27.489  1.00  0.00     0.188 C 
ENDROOT
BRANCH   1   2
ATOM      2  O   UNL A   1      40.219  21.090  27.220  1.00  0.00    -0.376 OA
BRANCH   2   3
ATOM      3  C   UNL A   1      39.580  22.162  26.546  1.00  0.00     0.202 C 
BRANCH   3   4
ATOM      4  C   UNL A   1      38.461  21.736  25.602  1.00  0.00     0.261 C 
BRANCH   4   5
ATOM      5  O   UNL A   1      37.098  22.137  25.877  1.00  0.00    -0.460 OA
BRANCH   5   6
ATOM      6  C   UNL A   1      35.993  21.401  25.652  1.00  0.00     0.340 C 
ATOM      7  O   UNL A   1      35.964  20.274  25.181  1.00  0.00    -0.246 OA
BRANCH   6   8
ATOM      8  C   UNL A   1      34.794  22.115  26.172  1.00  0.00     0.083 A 
ATOM      9  C   UNL A   1      33.583  21.468  26.477  1.00  0.00     0.055 A 
ATOM     10  C   UNL A   1      32.431  22.244  26.675  1.00  0.00     0.027 A 
ATOM     11  C   UNL A   1      32.503  23.639  26.703  1.00  0.00     0.002 A 
ATOM     12  C   UNL A   1      34.861  23.521  26.215  1.00  0.00     0.018 A 
ATOM     13  C   UNL A   1      33.722  24.278  26.497  1.00  0.00     0.001 A 
BRANCH   9  14
ATOM     14  N   UNL A   1      33.405  20.071  26.540  1.00  0.00    -0.322 N 
ATOM     15  C   UNL A   1      32.846  19.209  25.629  1.00  0.00     0.265 C 
ATOM     16  O   UNL A   1      32.391  18.137  26.049  1.00  0.00    -0.270 OA
ATOM     17  H   UNL A   1      33.733  19.646  27.365  1.00  0.00     0.170 HD
BRANCH  15  18
ATOM     18  C   UNL A   1      32.916  19.483  24.095  1.00  0.00     0.259 C 
ATOM     19  C   UNL A   1      33.315  18.250  23.284  1.00  0.00     0.064 C 
BRANCH  18  20
ATOM     20  O   UNL A   1      31.942  20.401  23.620  1.00  0.00    -0.481 OA
BRANCH  20  21
ATOM     21  C   UNL A   1      32.141  21.699  23.283  1.00  0.00     0.120 A 
ATOM     22  C   UNL A   1      32.892  24.397  22.822  1.00  0.00    -0.045 A 
ATOM     23  C   UNL A   1      31.581  24.057  23.147  1.00  0.00     0.008 A 
ATOM     24  C   UNL A   1      33.830  23.357  22.727  1.00  0.00     0.008 A 
ATOM     25  C   UNL A   1      31.214  22.725  23.343  1.00  0.00     0.047 A 
ATOM     26  C   UNL A   1      33.459  22.030  22.973  1.00  0.00     0.047 A 
BRANCH  22  27
ATOM     27  C   UNL A   1      33.303  25.827  22.517  1.00  0.00     0.013 C 
ATOM     28  C   UNL A   1      32.096  26.579  21.951  1.00  0.00     0.012 C 
ATOM     29  C   UNL A   1      33.879  26.604  23.709  1.00  0.00     0.012 C 
ENDBRANCH  22  27
ENDBRANCH  20  21
ENDBRANCH  18  20
ENDBRANCH  15  18
ENDBRANCH   9  14
ENDBRANCH   6   8
ENDBRANCH   5   6
ENDBRANCH   4   5
ENDBRANCH   3   4
ENDBRANCH   2   3
ENDBRANCH   1   2
BRANCH   1  30
ATOM     30  C   UNL A   1      42.538  21.035  26.284  1.00  0.00     0.188 C 
BRANCH  30  31
ATOM     31  O   UNL A   1      43.284  22.104  25.725  1.00  0.00    -0.376 OA
BRANCH  31  32
ATOM     32  C   UNL A   1      44.234  21.811  24.717  1.00  0.00     0.202 C 
BRANCH  32  33
ATOM     33  C   UNL A   1      45.691  21.494  25.106  1.00  0.00     0.261 C 
BRANCH  33  34
ATOM     34  O   UNL A   1      46.449  22.557  25.713  1.00  0.00    -0.460 OA
BRANCH  34  35
ATOM     35  C   UNL A   1      46.533  23.720  25.012  1.00  0.00     0.338 C 
ATOM     36  O   UNL A   1      46.762  23.829  23.821  1.00  0.00    -0.246 OA
BRANCH  35  37
ATOM     37  C   UNL A   1      46.057  24.849  25.863  1.00  0.00     0.060 A 
ATOM     38  C   UNL A   1      45.461  25.968  25.249  1.00  0.00     0.016 A 
ATOM     39  C   UNL A   1      46.192  24.815  27.250  1.00  0.00     0.016 A 
ATOM     40  C   UNL A   1      45.026  27.058  26.008  1.00  0.00     0.010 A 
ATOM     41  C   UNL A   1      45.804  25.928  28.006  1.00  0.00     0.010 A 
ATOM     42  C   UNL A   1      45.258  27.071  27.386  1.00  0.00    -0.014 A 
BRANCH  42  43
ATOM     43  C   UNL A   1      45.242  28.357  28.133  1.00  0.00     0.031 A 
ATOM     44  C   UNL A   1      43.937  28.760  28.771  1.00  0.00     0.074 A 
ATOM     45  C   UNL A   1      46.318  29.159  28.238  1.00  0.00     0.049 A 
ATOM     46  N   UNL A   1      43.579  29.901  29.295  1.00  0.00    -0.248 NA
ATOM     47  C   UNL A   1      42.889  27.727  28.799  1.00  0.00     0.031 C 
ATOM     48  C   UNL A   1      47.659  28.847  27.753  1.00  0.00     0.029 A 
ATOM     49  N   UNL A   1      46.435  30.419  28.774  1.00  0.00    -0.354 N 
ATOM     50  C   UNL A   1      42.255  29.733  29.688  1.00  0.00     0.074 A 
ATOM     51  C   UNL A   1      41.870  28.389  29.318  1.00  0.00     0.031 C 
ATOM     52  C   UNL A   1      48.459  29.905  27.984  1.00  0.00     0.029 A 
ATOM     53  C   UNL A   1      47.673  30.988  28.579  1.00  0.00     0.049 A 
ATOM     54  H   UNL A   1      45.704  30.873  29.251  1.00  0.00     0.167 HD
ATOM     55  C   UNL A   1      41.433  30.621  30.299  1.00  0.00     0.034 A 
ATOM     56  C   UNL A   1      48.103  32.248  28.809  1.00  0.00     0.034 A 
ATOM     57  C   UNL A   1      41.829  31.961  30.649  1.00  0.00     0.049 A 
ATOM     58  C   UNL A   1      47.138  33.264  29.385  1.00  0.00     0.074 A 
ATOM     59  C   UNL A   1      41.079  32.945  31.268  1.00  0.00     0.029 A 
ATOM     60  N   UNL A   1      43.080  32.511  30.400  1.00  0.00    -0.354 N 
ATOM     61  N   UNL A   1      45.879  33.110  29.726  1.00  0.00    -0.248 NA
ATOM     62  C   UNL A   1      47.652  34.624  29.607  1.00  0.00     0.031 C 
ATOM     63  C   UNL A   1      41.847  34.112  31.318  1.00  0.00     0.029 A 
ATOM     64  C   UNL A   1      43.110  33.829  30.823  1.00  0.00     0.049 A 
ATOM     65  H   UNL A   1      43.833  32.032  29.984  1.00  0.00     0.167 HD
ATOM     66  C   UNL A   1      45.470  34.339  30.245  1.00  0.00     0.074 A 
ATOM     67  C   UNL A   1      46.612  35.222  30.170  1.00  0.00     0.031 C 
ATOM     68  C   UNL A   1      44.263  34.698  30.753  1.00  0.00     0.034 A 
BRANCH  55  69
ATOM     69  C   UNL A   1      40.009  30.188  30.554  1.00  0.00     0.023 A 
ATOM     70  C   UNL A   1      38.942  30.631  29.753  1.00  0.00     0.031 A 
ATOM     71  C   UNL A   1      39.711  29.347  31.641  1.00  0.00     0.131 A 
ATOM     72  C   UNL A   1      37.624  30.292  30.095  1.00  0.00     0.055 A 
ATOM     73  C   UNL A   1      38.406  28.941  31.922  1.00  0.00     0.041 A 
ATOM     74  F   UNL A   1      40.685  28.917  32.460  1.00  0.00    -0.206 F 
ATOM     75  C   UNL A   1      37.351  29.427  31.157  1.00  0.00     0.022 A 
BRANCH  72  76
ATOM     76  S   UNL A   1      36.265  31.124  29.229  1.00  0.00     0.124 S 
ATOM     77  O   UNL A   1      35.548  31.751  30.337  1.00  0.00    -0.237 OA
ATOM     78  O   UNL A   1      36.971  32.029  28.331  1.00  0.00    -0.237 OA
ATOM     79  O   UNL A   1      35.553  30.027  28.577  1.00  0.00    -0.744 OA
ENDBRANCH  72  76
ENDBRANCH  55  69
BRANCH  56  80
ATOM     80  C   UNL A   1      49.494  32.656  28.445  1.00  0.00     0.023 A 
ATOM     81  C   UNL A   1      49.814  33.055  27.137  1.00  0.00     0.031 A 
ATOM     82  C   UNL A   1      50.540  32.584  29.383  1.00  0.00     0.131 A 
ATOM     83  C   UNL A   1      51.150  33.320  26.791  1.00  0.00     0.055 A 
ATOM     84  C   UNL A   1      51.857  32.909  29.049  1.00  0.00     0.041 A 
ATOM     85  F   UNL A   1      50.296  32.197  30.645  1.00  0.00    -0.206 F 
ATOM     86  C   UNL A   1      52.170  33.266  27.743  1.00  0.00     0.022 A 
BRANCH  83  87
ATOM     87  S   UNL A   1      51.551  33.637  25.050  1.00  0.00     0.124 S 
ATOM     88  O   UNL A   1      51.551  32.288  24.496  1.00  0.00    -0.237 OA
ATOM     89  O   UNL A   1      50.448  34.500  24.639  1.00  0.00    -0.237 OA
ATOM     90  O   UNL A   1      52.857  34.287  25.115  1.00  0.00    -0.744 OA
ENDBRANCH  83  87
ENDBRANCH  56  80
BRANCH  68  91
ATOM     91  C   UNL A   1      44.132  36.080  31.351  1.00  0.00     0.023 A 
ATOM     92  C   UNL A   1      43.869  37.220  30.571  1.00  0.00     0.031 A 
ATOM     93  C   UNL A   1      44.237  36.245  32.746  1.00  0.00     0.131 A 
ATOM     94  C   UNL A   1      43.758  38.476  31.188  1.00  0.00     0.055 A 
ATOM     95  C   UNL A   1      44.063  37.487  33.358  1.00  0.00     0.041 A 
ATOM     96  F   UNL A   1      44.489  35.193  33.541  1.00  0.00    -0.206 F 
ATOM     97  C   UNL A   1      43.832  38.613  32.576  1.00  0.00     0.022 A 
BRANCH  94  98
ATOM     98  S   UNL A   1      43.589  39.952  30.145  1.00  0.00     0.124 S 
ATOM     99  O   UNL A   1      44.925  40.070  29.569  1.00  0.00    -0.237 OA
ATOM    100  O   UNL A   1      42.528  39.563  29.221  1.00  0.00    -0.237 OA
ATOM    101  O   UNL A   1      43.229  41.004  31.093  1.00  0.00    -0.744 OA
ENDBRANCH  94  98
ENDBRANCH  68  91
ENDBRANCH  42  43
ENDBRANCH  35  37
ENDBRANCH  34  35
ENDBRANCH  33  34
ENDBRANCH  32  33
ENDBRANCH  31  32
ENDBRANCH  30  31
ENDBRANCH   1  30
TORSDOF 25
ENDMDL
MODEL 2
REMARK VINA RESULT:      -9.3      5.683      7.346
REMARK SMILES CC(C)c1ccc(O[C@H](C)C(=O)Nc2ccccc2C(=O)OCCOCCOCCOC(=O)c2ccc(-c3c4nc(c(-c5cc(S(=O)(=O)[O-])ccc5F)c5ccc([nH]5)c(-c5cc(S(=O)(=O)[O-])ccc5F)c5nc(c(-c6cc(S(=O)(=O)[O-])ccc6F)c6ccc3[nH]6)C=C5)C=C4)cc2)cc1
REMARK SMILES IDX 26 1 25 2 24 3 23 4 22 5 20 6 21 7 19 8 14 9 15 10 16 11
REMARK SMILES IDX 18 12 17 13 13 14 11 15 12 16 9 18 10 19 8 20 7 21 4 22 5 23
REMARK SMILES IDX 98 24 6 25 97 26 2 27 1 28 3 29 27 30 28 31 29 32 30 33
REMARK SMILES IDX 31 34 32 35 33 36 34 37 35 38 96 39 36 40 95 41 37 42 38 43
REMARK SMILES IDX 39 44 89 45 40 46 94 47 88 48 90 49 41 50 93 51 87 52 86 53
REMARK SMILES IDX 42 55 74 56 54 57 73 58 55 59 58 60 72 61 91 62 56 63 57 64
REMARK SMILES IDX 71 66 92 67 59 68 43 69 44 70 52 71 45 72 51 73 53 74 50 75
REMARK SMILES IDX 46 76 47 77 48 78 49 79 75 80 76 81 84 82 77 83 83 84 85 85
REMARK SMILES IDX 82 86 78 87 79 88 80 89 81 90 60 91 61 92 69 93 62 94 68 95
REMARK SMILES IDX 70 96 67 97 63 98 64 99 65 100 66 101
REMARK H PARENT 13 17 90 54 58 65
REMARK Flexibility Score: inf
ROOT
ATOM      1  C   UNL A   1      41.225  20.603  26.299  1.00  0.00     0.188 C 
ENDROOT
BRANCH   1   2
ATOM      2  O   UNL A   1      39.857  20.969  26.355  1.00  0.00    -0.376 OA
BRANCH   2   3
ATOM      3  C   UNL A   1      39.589  22.252  26.897  1.00  0.00     0.202 C 
BRANCH   3   4
ATOM      4  C   UNL A   1      38.574  23.070  26.108  1.00  0.00     0.261 C 
BRANCH   4   5
ATOM      5  O   UNL A   1      37.182  23.066  26.507  1.00  0.00    -0.460 OA
BRANCH   5   6
ATOM      6  C   UNL A   1      36.222  23.890  26.046  1.00  0.00     0.340 C 
ATOM      7  O   UNL A   1      36.392  24.856  25.318  1.00  0.00    -0.246 OA
BRANCH   6   8
ATOM      8  C   UNL A   1      34.883  23.389  26.462  1.00  0.00     0.083 A 
ATOM      9  C   UNL A   1      33.697  24.127  26.293  1.00  0.00     0.055 A 
ATOM     10  C   UNL A   1      32.540  23.713  26.971  1.00  0.00     0.027 A 
ATOM     11  C   UNL A   1      32.521  22.518  27.693  1.00  0.00     0.002 A 
ATOM     12  C   UNL A   1      34.852  22.179  27.181  1.00  0.00     0.018 A 
ATOM     13  C   UNL A   1      33.669  21.738  27.779  1.00  0.00     0.001 A 
BRANCH   9  14
ATOM     14  N   UNL A   1      33.581  25.311  25.538  1.00  0.00    -0.322 N 
ATOM     15  C   UNL A   1      33.363  25.484  24.193  1.00  0.00     0.265 C 
ATOM     16  O   UNL A   1      33.734  26.547  23.678  1.00  0.00    -0.270 OA
ATOM     17  H   UNL A   1      33.670  26.144  26.055  1.00  0.00     0.170 HD
BRANCH  15  18
ATOM     18  C   UNL A   1      32.535  24.458  23.361  1.00  0.00     0.259 C 
ATOM     19  C   UNL A   1      31.492  25.120  22.460  1.00  0.00     0.064 C 
BRANCH  18  20
ATOM     20  O   UNL A   1      33.272  23.322  22.933  1.00  0.00    -0.481 OA
BRANCH  20  21
ATOM     21  C   UNL A   1      33.241  22.080  23.474  1.00  0.00     0.120 A 
ATOM     22  C   UNL A   1      33.513  19.403  24.375  1.00  0.00    -0.045 A 
ATOM     23  C   UNL A   1      32.284  19.900  23.951  1.00  0.00     0.008 A 
ATOM     24  C   UNL A   1      34.614  20.272  24.345  1.00  0.00     0.008 A 
ATOM     25  C   UNL A   1      32.153  21.226  23.538  1.00  0.00     0.047 A 
ATOM     26  C   UNL A   1      34.479  21.586  23.882  1.00  0.00     0.047 A 
BRANCH  22  27
ATOM     27  C   UNL A   1      33.669  17.991  24.914  1.00  0.00     0.013 C 
ATOM     28  C   UNL A   1      32.280  17.409  25.190  1.00  0.00     0.012 C 
ATOM     29  C   UNL A   1      34.455  17.034  24.007  1.00  0.00     0.012 C 
ENDBRANCH  22  27
ENDBRANCH  20  21
ENDBRANCH  18  20
ENDBRANCH  15  18
ENDBRANCH   9  14
ENDBRANCH   6   8
ENDBRANCH   5   6
ENDBRANCH   4   5
ENDBRANCH   3   4
ENDBRANCH   2   3
ENDBRANCH   1   2
BRANCH   1  30
ATOM     30  C   UNL A   1      42.208  21.778  26.090  1.00  0.00     0.188 C 
BRANCH  30  31
ATOM     31  O   UNL A   1      43.047  21.824  24.947  1.00  0.00    -0.376 OA
BRANCH  31  32
ATOM     32  C   UNL A   1      43.359  23.087  24.388  1.00  0.00     0.202 C 
BRANCH  32  33
ATOM     33  C   UNL A   1      44.753  23.704  24.618  1.00  0.00     0.261 C 
BRANCH  33  34
ATOM     34  O   UNL A   1      44.850  25.139  24.541  1.00  0.00    -0.460 OA
BRANCH  34  35
ATOM     35  C   UNL A   1      45.468  25.763  25.580  1.00  0.00     0.338 C 
ATOM     36  O   UNL A   1      46.651  26.039  25.655  1.00  0.00    -0.246 OA
BRANCH  35  37
ATOM     37  C   UNL A   1      44.441  26.291  26.525  1.00  0.00     0.060 A 
ATOM     38  C   UNL A   1      44.320  27.683  26.700  1.00  0.00     0.016 A 
ATOM     39  C   UNL A   1      43.602  25.432  27.234  1.00  0.00     0.016 A 
ATOM     40  C   UNL A   1      43.390  28.218  27.596  1.00  0.00     0.010 A 
ATOM     41  C   UNL A   1      42.706  25.965  28.169  1.00  0.00     0.010 A 
ATOM     42  C   UNL A   1      42.624  27.356  28.384  1.00  0.00    -0.014 A 
BRANCH  42  43
ATOM     43  C   UNL A   1      41.989  27.855  29.634  1.00  0.00     0.031 A 
ATOM     44  C   UNL A   1      40.639  28.512  29.498  1.00  0.00     0.074 A 
ATOM     45  C   UNL A   1      42.572  27.759  30.842  1.00  0.00     0.049 A 
ATOM     46  N   UNL A   1      39.957  29.210  30.365  1.00  0.00    -0.248 NA
ATOM     47  C   UNL A   1      39.983  28.369  28.188  1.00  0.00     0.031 C 
ATOM     48  C   UNL A   1      43.825  27.067  31.129  1.00  0.00     0.029 A 
ATOM     49  N   UNL A   1      42.185  28.275  32.056  1.00  0.00    -0.354 N 
ATOM     50  C   UNL A   1      38.806  29.616  29.697  1.00  0.00     0.074 A 
ATOM     51  C   UNL A   1      38.897  29.105  28.347  1.00  0.00     0.031 C 
ATOM     52  C   UNL A   1      44.122  27.230  32.431  1.00  0.00     0.029 A 
ATOM     53  C   UNL A   1      43.112  28.085  33.057  1.00  0.00     0.049 A 
ATOM     54  H   UNL A   1      41.328  28.736  32.198  1.00  0.00     0.167 HD
ATOM     55  C   UNL A   1      37.769  30.352  30.166  1.00  0.00     0.034 A 
ATOM     56  C   UNL A   1      43.160  28.586  34.311  1.00  0.00     0.034 A 
ATOM     57  C   UNL A   1      37.700  30.863  31.511  1.00  0.00     0.049 A 
ATOM     58  C   UNL A   1      42.050  29.503  34.783  1.00  0.00     0.074 A 
ATOM     59  C   UNL A   1      36.699  31.620  32.093  1.00  0.00     0.029 A 
ATOM     60  N   UNL A   1      38.677  30.682  32.481  1.00  0.00    -0.354 N 
ATOM     61  N   UNL A   1      40.980  29.909  34.138  1.00  0.00    -0.248 NA
ATOM     62  C   UNL A   1      42.155  30.029  36.152  1.00  0.00     0.031 C 
ATOM     63  C   UNL A   1      37.108  31.965  33.384  1.00  0.00     0.029 A 
ATOM     64  C   UNL A   1      38.317  31.340  33.645  1.00  0.00     0.049 A 
ATOM     65  H   UNL A   1      39.504  30.161  32.358  1.00  0.00     0.167 HD
ATOM     66  C   UNL A   1      40.265  30.697  35.042  1.00  0.00     0.074 A 
ATOM     67  C   UNL A   1      41.025  30.711  36.272  1.00  0.00     0.031 C 
ATOM     68  C   UNL A   1      39.079  31.337  34.872  1.00  0.00     0.034 A 
BRANCH  55  69
ATOM     69  C   UNL A   1      36.669  30.702  29.192  1.00  0.00     0.023 A 
ATOM     70  C   UNL A   1      35.770  29.737  28.708  1.00  0.00     0.031 A 
ATOM     71  C   UNL A   1      36.543  32.018  28.713  1.00  0.00     0.131 A 
ATOM     72  C   UNL A   1      34.836  30.086  27.720  1.00  0.00     0.055 A 
ATOM     73  C   UNL A   1      35.553  32.377  27.798  1.00  0.00     0.041 A 
ATOM     74  F   UNL A   1      37.392  32.977  29.117  1.00  0.00    -0.206 F 
ATOM     75  C   UNL A   1      34.703  31.405  27.283  1.00  0.00     0.022 A 
BRANCH  72  76
ATOM     76  S   UNL A   1      33.906  28.759  26.903  1.00  0.00     0.124 S 
ATOM     77  O   UNL A   1      32.769  28.597  27.806  1.00  0.00    -0.237 OA
ATOM     78  O   UNL A   1      33.609  29.340  25.600  1.00  0.00    -0.237 OA
ATOM     79  O   UNL A   1      34.846  27.641  26.890  1.00  0.00    -0.744 OA
ENDBRANCH  72  76
ENDBRANCH  55  69
BRANCH  56  80
ATOM     80  C   UNL A   1      44.322  28.291  35.204  1.00  0.00     0.023 A 
ATOM     81  C   UNL A   1      44.201  27.403  36.284  1.00  0.00     0.031 A 
ATOM     82  C   UNL A   1      45.553  28.950  35.031  1.00  0.00     0.131 A 
ATOM     83  C   UNL A   1      45.272  27.234  37.177  1.00  0.00     0.055 A 
ATOM     84  C   UNL A   1      46.635  28.731  35.886  1.00  0.00     0.041 A 
ATOM     85  F   UNL A   1      45.724  29.821  34.023  1.00  0.00    -0.206 F 
ATOM     86  C   UNL A   1      46.493  27.879  36.975  1.00  0.00     0.022 A 
BRANCH  83  87
ATOM     87  S   UNL A   1      45.010  26.235  38.669  1.00  0.00     0.124 S 
ATOM     88  O   UNL A   1      45.768  26.985  39.664  1.00  0.00    -0.237 OA
ATOM     89  O   UNL A   1      43.558  26.271  38.806  1.00  0.00    -0.237 OA
ATOM     90  O   UNL A   1      45.567  24.933  38.309  1.00  0.00    -0.744 OA
ENDBRANCH  83  87
ENDBRANCH  56  80
BRANCH  68  91
ATOM     91  C   UNL A   1      38.478  32.038  36.069  1.00  0.00     0.023 A 
ATOM     92  C   UNL A   1      37.899  31.338  37.142  1.00  0.00     0.031 A 
ATOM     93  C   UNL A   1      38.526  33.443  36.147  1.00  0.00     0.131 A 
ATOM     94  C   UNL A   1      37.357  32.047  38.226  1.00  0.00     0.055 A 
ATOM     95  C   UNL A   1      38.042  34.138  37.255  1.00  0.00     0.041 A 
ATOM     96  F   UNL A   1      39.065  34.164  35.151  1.00  0.00    -0.206 F 
ATOM     97  C   UNL A   1      37.445  33.440  38.299  1.00  0.00     0.022 A 
BRANCH  94  98
ATOM     98  S   UNL A   1      36.465  31.131  39.514  1.00  0.00     0.124 S 
ATOM     99  O   UNL A   1      37.417  31.159  40.619  1.00  0.00    -0.237 OA
ATOM    100  O   UNL A   1      35.259  31.934  39.690  1.00  0.00    -0.237 OA
ATOM    101  O   UNL A   1      36.251  29.815  38.914  1.00  0.00    -0.744 OA
ENDBRANCH  94  98
ENDBRANCH  68  91
ENDBRANCH  42  43
ENDBRANCH  35  37
ENDBRANCH  34  35
ENDBRANCH  33  34
ENDBRANCH  32  33
ENDBRANCH  31  32
ENDBRANCH  30  31
ENDBRANCH   1  30
TORSDOF 25
ENDMDL
MODEL 3
REMARK VINA RESULT:      -9.0      5.006     10.170
REMARK SMILES CC(C)c1ccc(O[C@H](C)C(=O)Nc2ccccc2C(=O)OCCOCCOCCOC(=O)c2ccc(-c3c4nc(c(-c5cc(S(=O)(=O)[O-])ccc5F)c5ccc([nH]5)c(-c5cc(S(=O)(=O)[O-])ccc5F)c5nc(c(-c6cc(S(=O)(=O)[O-])ccc6F)c6ccc3[nH]6)C=C5)C=C4)cc2)cc1
REMARK SMILES IDX 26 1 25 2 24 3 23 4 22 5 20 6 21 7 19 8 14 9 15 10 16 11
REMARK SMILES IDX 18 12 17 13 13 14 11 15 12 16 9 18 10 19 8 20 7 21 4 22 5 23
REMARK SMILES IDX 98 24 6 25 97 26 2 27 1 28 3 29 27 30 28 31 29 32 30 33
REMARK SMILES IDX 31 34 32 35 33 36 34 37 35 38 96 39 36 40 95 41 37 42 38 43
REMARK SMILES IDX 39 44 89 45 40 46 94 47 88 48 90 49 41 50 93 51 87 52 86 53
REMARK SMILES IDX 42 55 74 56 54 57 73 58 55 59 58 60 72 61 91 62 56 63 57 64
REMARK SMILES IDX 71 66 92 67 59 68 43 69 44 70 52 71 45 72 51 73 53 74 50 75
REMARK SMILES IDX 46 76 47 77 48 78 49 79 75 80 76 81 84 82 77 83 83 84 85 85
REMARK SMILES IDX 82 86 78 87 79 88 80 89 81 90 60 91 61 92 69 93 62 94 68 95
REMARK SMILES IDX 70 96 67 97 63 98 64 99 65 100 66 101
REMARK H PARENT 13 17 90 54 58 65
REMARK Flexibility Score: inf
ROOT
ATOM      1  C   UNL A   1      31.574  30.620  25.188  1.00  0.00     0.188 C 
ENDROOT
BRANCH   1   2
ATOM      2  O   UNL A   1      30.558  29.728  24.759  1.00  0.00    -0.376 OA
BRANCH   2   3
ATOM      3  C   UNL A   1      30.804  29.068  23.528  1.00  0.00     0.202 C 
BRANCH   3   4
ATOM      4  C   UNL A   1      32.203  29.286  22.964  1.00  0.00     0.261 C 
BRANCH   4   5
ATOM      5  O   UNL A   1      33.289  28.425  23.382  1.00  0.00    -0.460 OA
BRANCH   5   6
ATOM      6  C   UNL A   1      33.406  27.110  23.117  1.00  0.00     0.340 C 
ATOM      7  O   UNL A   1      33.941  26.618  22.135  1.00  0.00    -0.246 OA
BRANCH   6   8
ATOM      8  C   UNL A   1      32.883  26.315  24.263  1.00  0.00     0.083 A 
ATOM      9  C   UNL A   1      32.319  25.034  24.119  1.00  0.00     0.055 A 
ATOM     10  C   UNL A   1      31.593  24.490  25.190  1.00  0.00     0.027 A 
ATOM     11  C   UNL A   1      31.539  25.142  26.424  1.00  0.00     0.002 A 
ATOM     12  C   UNL A   1      32.835  26.959  25.514  1.00  0.00     0.018 A 
ATOM     13  C   UNL A   1      32.180  26.364  26.595  1.00  0.00     0.001 A 
BRANCH   9  14
ATOM     14  N   UNL A   1      32.364  24.257  22.944  1.00  0.00    -0.322 N 
ATOM     15  C   UNL A   1      33.341  23.411  22.480  1.00  0.00     0.265 C 
ATOM     16  O   UNL A   1      33.386  23.190  21.263  1.00  0.00    -0.270 OA
ATOM     17  H   UNL A   1      31.571  24.332  22.365  1.00  0.00     0.170 HD
BRANCH  15  18
ATOM     18  C   UNL A   1      34.270  22.624  23.454  1.00  0.00     0.259 C 
ATOM     19  C   UNL A   1      35.562  23.369  23.785  1.00  0.00     0.064 C 
BRANCH  18  20
ATOM     20  O   UNL A   1      33.578  21.865  24.437  1.00  0.00    -0.481 OA
BRANCH  20  21
ATOM     21  C   UNL A   1      33.561  20.516  24.562  1.00  0.00     0.120 A 
ATOM     22  C   UNL A   1      33.822  17.691  24.537  1.00  0.00    -0.045 A 
ATOM     23  C   UNL A   1      32.573  18.301  24.468  1.00  0.00     0.008 A 
ATOM     24  C   UNL A   1      34.950  18.522  24.623  1.00  0.00     0.008 A 
ATOM     25  C   UNL A   1      32.451  19.690  24.511  1.00  0.00     0.047 A 
ATOM     26  C   UNL A   1      34.817  19.915  24.617  1.00  0.00     0.047 A 
BRANCH  22  27
ATOM     27  C   UNL A   1      33.981  16.180  24.581  1.00  0.00     0.013 C 
ATOM     28  C   UNL A   1      35.280  15.840  25.316  1.00  0.00     0.012 C 
ATOM     29  C   UNL A   1      32.812  15.424  25.227  1.00  0.00     0.012 C 
ENDBRANCH  22  27
ENDBRANCH  20  21
ENDBRANCH  18  20
ENDBRANCH  15  18
ENDBRANCH   9  14
ENDBRANCH   6   8
ENDBRANCH   5   6
ENDBRANCH   4   5
ENDBRANCH   3   4
ENDBRANCH   2   3
ENDBRANCH   1   2
BRANCH   1  30
ATOM     30  C   UNL A   1      31.202  31.500  26.403  1.00  0.00     0.188 C 
BRANCH  30  31
ATOM     31  O   UNL A   1      31.792  32.778  26.579  1.00  0.00    -0.376 OA
BRANCH  31  32
ATOM     32  C   UNL A   1      32.501  33.036  27.777  1.00  0.00     0.202 C 
BRANCH  32  33
ATOM     33  C   UNL A   1      34.040  32.948  27.792  1.00  0.00     0.261 C 
BRANCH  33  34
ATOM     34  O   UNL A   1      34.626  31.968  28.668  1.00  0.00    -0.460 OA
BRANCH  34  35
ATOM     35  C   UNL A   1      34.600  30.676  28.239  1.00  0.00     0.338 C 
ATOM     36  O   UNL A   1      33.709  30.148  27.598  1.00  0.00    -0.246 OA
BRANCH  35  37
ATOM     37  C   UNL A   1      35.940  30.054  28.450  1.00  0.00     0.060 A 
ATOM     38  C   UNL A   1      36.247  29.495  29.705  1.00  0.00     0.016 A 
ATOM     39  C   UNL A   1      36.887  30.017  27.428  1.00  0.00     0.016 A 
ATOM     40  C   UNL A   1      37.500  28.928  29.952  1.00  0.00     0.010 A 
ATOM     41  C   UNL A   1      38.160  29.495  27.691  1.00  0.00     0.010 A 
ATOM     42  C   UNL A   1      38.486  28.986  28.964  1.00  0.00    -0.014 A 
BRANCH  42  43
ATOM     43  C   UNL A   1      39.919  28.827  29.331  1.00  0.00     0.031 A 
ATOM     44  C   UNL A   1      40.673  27.701  28.669  1.00  0.00     0.074 A 
ATOM     45  C   UNL A   1      40.541  29.620  30.222  1.00  0.00     0.049 A 
ATOM     46  N   UNL A   1      41.849  27.206  28.945  1.00  0.00    -0.248 NA
ATOM     47  C   UNL A   1      39.984  27.037  27.551  1.00  0.00     0.031 C 
ATOM     48  C   UNL A   1      39.961  30.798  30.862  1.00  0.00     0.029 A 
ATOM     49  N   UNL A   1      41.803  29.530  30.759  1.00  0.00    -0.354 N 
ATOM     50  C   UNL A   1      42.029  26.152  28.055  1.00  0.00     0.074 A 
ATOM     51  C   UNL A   1      40.830  26.067  27.250  1.00  0.00     0.031 C 
ATOM     52  C   UNL A   1      40.855  31.303  31.732  1.00  0.00     0.029 A 
ATOM     53  C   UNL A   1      42.046  30.452  31.753  1.00  0.00     0.049 A 
ATOM     54  H   UNL A   1      42.470  28.871  30.463  1.00  0.00     0.167 HD
ATOM     55  C   UNL A   1      43.095  25.326  27.923  1.00  0.00     0.034 A 
ATOM     56  C   UNL A   1      43.086  30.561  32.609  1.00  0.00     0.034 A 
ATOM     57  C   UNL A   1      44.277  25.417  28.742  1.00  0.00     0.049 A 
ATOM     58  C   UNL A   1      44.218  29.558  32.527  1.00  0.00     0.074 A 
ATOM     59  C   UNL A   1      45.416  24.633  28.698  1.00  0.00     0.029 A 
ATOM     60  N   UNL A   1      44.467  26.339  29.763  1.00  0.00    -0.354 N 
ATOM     61  N   UNL A   1      44.370  28.544  31.706  1.00  0.00    -0.248 NA
ATOM     62  C   UNL A   1      45.321  29.714  33.489  1.00  0.00     0.031 C 
ATOM     63  C   UNL A   1      46.257  25.026  29.742  1.00  0.00     0.029 A 
ATOM     64  C   UNL A   1      45.691  26.121  30.376  1.00  0.00     0.049 A 
ATOM     65  H   UNL A   1      43.827  27.043  30.014  1.00  0.00     0.167 HD
ATOM     66  C   UNL A   1      45.605  27.976  32.022  1.00  0.00     0.074 A 
ATOM     67  C   UNL A   1      46.154  28.756  33.109  1.00  0.00     0.031 C 
ATOM     68  C   UNL A   1      46.233  26.915  31.454  1.00  0.00     0.034 A 
BRANCH  55  69
ATOM     69  C   UNL A   1      42.993  24.215  26.906  1.00  0.00     0.023 A 
ATOM     70  C   UNL A   1      42.257  23.044  27.156  1.00  0.00     0.031 A 
ATOM     71  C   UNL A   1      43.674  24.315  25.680  1.00  0.00     0.131 A 
ATOM     72  C   UNL A   1      42.282  21.992  26.228  1.00  0.00     0.055 A 
ATOM     73  C   UNL A   1      43.620  23.302  24.722  1.00  0.00     0.041 A 
ATOM     74  F   UNL A   1      44.417  25.397  25.397  1.00  0.00    -0.206 F 
ATOM     75  C   UNL A   1      42.935  22.124  25.000  1.00  0.00     0.022 A 
BRANCH  72  76
ATOM     76  S   UNL A   1      41.580  20.391  26.716  1.00  0.00     0.124 S 
ATOM     77  O   UNL A   1      40.228  20.772  27.115  1.00  0.00    -0.237 OA
ATOM     78  O   UNL A   1      41.689  19.612  25.489  1.00  0.00    -0.237 OA
ATOM     79  O   UNL A   1      42.446  19.958  27.810  1.00  0.00    -0.744 OA
ENDBRANCH  72  76
ENDBRANCH  55  69
BRANCH  56  80
ATOM     80  C   UNL A   1      43.093  31.617  33.667  1.00  0.00     0.023 A 
ATOM     81  C   UNL A   1      42.458  31.413  34.902  1.00  0.00     0.031 A 
ATOM     82  C   UNL A   1      43.676  32.876  33.429  1.00  0.00     0.131 A 
ATOM     83  C   UNL A   1      42.377  32.462  35.832  1.00  0.00     0.055 A 
ATOM     84  C   UNL A   1      43.647  33.896  34.382  1.00  0.00     0.041 A 
ATOM     85  F   UNL A   1      44.286  33.134  32.261  1.00  0.00    -0.206 F 
ATOM     86  C   UNL A   1      42.982  33.697  35.587  1.00  0.00     0.022 A 
BRANCH  83  87
ATOM     87  S   UNL A   1      41.378  32.224  37.328  1.00  0.00     0.124 S 
ATOM     88  O   UNL A   1      40.196  31.561  36.791  1.00  0.00    -0.237 OA
ATOM     89  O   UNL A   1      42.259  31.401  38.151  1.00  0.00    -0.237 OA
ATOM     90  O   UNL A   1      41.166  33.584  37.816  1.00  0.00    -0.744 OA
ENDBRANCH  83  87
ENDBRANCH  56  80
BRANCH  68  91
ATOM     91  C   UNL A   1      47.628  26.582  31.932  1.00  0.00     0.023 A 
ATOM     92  C   UNL A   1      47.879  25.594  32.900  1.00  0.00     0.031 A 
ATOM     93  C   UNL A   1      48.733  27.250  31.369  1.00  0.00     0.131 A 
ATOM     94  C   UNL A   1      49.199  25.331  33.302  1.00  0.00     0.055 A 
ATOM     95  C   UNL A   1      50.045  26.940  31.728  1.00  0.00     0.041 A 
ATOM     96  F   UNL A   1      48.553  28.205  30.442  1.00  0.00    -0.206 F 
ATOM     97  C   UNL A   1      50.283  25.982  32.707  1.00  0.00     0.022 A 
BRANCH  94  98
ATOM     98  S   UNL A   1      49.483  24.176  34.672  1.00  0.00     0.124 S 
ATOM     99  O   UNL A   1      48.183  24.166  35.335  1.00  0.00    -0.237 OA
ATOM    100  O   UNL A   1      49.853  22.948  33.975  1.00  0.00    -0.237 OA
ATOM    101  O   UNL A   1      50.562  24.803  35.433  1.00  0.00    -0.744 OA
ENDBRANCH  94  98
ENDBRANCH  68  91
ENDBRANCH  42  43
ENDBRANCH  35  37
ENDBRANCH  34  35
ENDBRANCH  33  34
ENDBRANCH  32  33
ENDBRANCH  31  32
ENDBRANCH  30  31
ENDBRANCH   1  30
TORSDOF 25
ENDMDL
