MODEL 1
REMARK VINA RESULT:     -10.4      0.000      0.000
REMARK SMILES CC(C)(C)OC(=O)N1CC[C@@H]([NH2+]Cc2cccc(Br)c2)[C@@H](C(=O)OCCOCCOCCOC(=O)c2ccc(-c3c4nc(c(-c5cc(S(=O)(=O)[O-])ccc5F)c5ccc([nH]5)c(-c5cc(S(=O)(=O)[O-])ccc5F)c5nc(c(-c6cc(S(=O)(=O)[O-])ccc6F)c6ccc3[nH]6)C=C5)C=C4)cc2)C1
REMARK SMILES IDX 28 1 27 2 26 3 25 4 24 5 22 6 23 7 21 8 8 9 9 10 99 11 10 12
REMARK SMILES IDX 11 13 6 14 7 15 5 16 2 17 1 18 3 19 4 20 12 21 13 24 14 25
REMARK SMILES IDX 15 26 20 27 16 28 18 29 17 30 19 31 29 32 30 33 31 34 32 35
REMARK SMILES IDX 33 36 34 37 35 38 36 39 37 40 98 41 38 42 97 43 39 44 40 45
REMARK SMILES IDX 41 46 91 47 42 48 96 49 90 50 92 51 43 52 95 53 89 54 88 55
REMARK SMILES IDX 44 57 76 58 56 59 75 60 57 61 60 62 74 63 93 64 58 65 59 66
REMARK SMILES IDX 73 68 94 69 61 70 45 71 46 72 54 73 47 74 53 75 55 76 52 77
REMARK SMILES IDX 48 78 49 79 50 80 51 81 77 82 78 83 86 84 79 85 85 86 87 87
REMARK SMILES IDX 84 88 80 89 81 90 82 91 83 92 62 93 63 94 71 95 64 96 70 97
REMARK SMILES IDX 72 98 69 99 65 100 66 101 67 102 68 103
REMARK H PARENT 12 22 12 23 92 56 60 67
REMARK Flexibility Score: inf
ROOT
ATOM      1  C   UNL A   1      40.061  20.365  26.486  1.00  0.00     0.188 C 
ENDROOT
BRANCH   1   2
ATOM      2  O   UNL A   1      39.914  21.691  26.023  1.00  0.00    -0.376 OA
BRANCH   2   3
ATOM      3  C   UNL A   1      38.770  22.413  26.437  1.00  0.00     0.202 C 
BRANCH   3   4
ATOM      4  C   UNL A   1      37.849  23.037  25.375  1.00  0.00     0.261 C 
BRANCH   4   5
ATOM      5  O   UNL A   1      36.554  23.474  25.824  1.00  0.00    -0.463 OA
BRANCH   5   6
ATOM      6  C   UNL A   1      35.503  23.314  24.980  1.00  0.00     0.316 C 
ATOM      7  O   UNL A   1      35.623  22.947  23.819  1.00  0.00    -0.252 OA
BRANCH   6   8
ATOM      8  C   UNL A   1      34.176  23.613  25.685  1.00  0.00     0.177 C 
ATOM      9  N   UNL A   1      31.896  24.382  25.248  1.00  0.00    -0.307 N 
ATOM     10  C   UNL A   1      31.255  23.338  26.030  1.00  0.00     0.129 C 
ATOM     11  C   UNL A   1      33.166  24.039  24.614  1.00  0.00     0.144 C 
ATOM     12  C   UNL A   1      32.210  22.793  27.077  1.00  0.00     0.087 C 
ATOM     13  C   UNL A   1      33.583  22.419  26.479  1.00  0.00     0.200 C 
BRANCH   9  14
ATOM     14  C   UNL A   1      31.302  25.608  25.106  1.00  0.00     0.410 C 
ATOM     15  O   UNL A   1      30.188  25.779  24.623  1.00  0.00    -0.224 OA
BRANCH  14  16
ATOM     16  O   UNL A   1      32.124  26.589  25.534  1.00  0.00    -0.444 OA
BRANCH  16  17
ATOM     17  C   UNL A   1      32.525  27.674  24.675  1.00  0.00     0.106 C 
ATOM     18  C   UNL A   1      33.867  28.138  25.259  1.00  0.00     0.056 C 
ATOM     19  C   UNL A   1      31.495  28.796  24.789  1.00  0.00     0.056 C 
ATOM     20  C   UNL A   1      32.759  27.231  23.227  1.00  0.00     0.056 C 
ENDBRANCH  16  17
ENDBRANCH  14  16
ENDBRANCH   9  14
BRANCH  13  21
ATOM     21  N   UNL A   1      33.586  21.318  25.539  1.00  0.00    -0.339 N 
ATOM     22  H   UNL A   1      34.146  20.579  25.965  1.00  0.00     0.346 HD
ATOM     23  H   UNL A   1      33.925  21.761  24.686  1.00  0.00     0.346 HD
BRANCH  21  24
ATOM     24  C   UNL A   1      32.367  20.699  25.098  1.00  0.00     0.297 C 
BRANCH  24  25
ATOM     25  C   UNL A   1      32.794  19.445  24.369  1.00  0.00     0.007 A 
ATOM     26  C   UNL A   1      32.272  19.118  23.113  1.00  0.00     0.009 A 
ATOM     27  C   UNL A   1      33.756  18.601  24.958  1.00  0.00     0.025 A 
ATOM     28  C   UNL A   1      32.634  17.916  22.501  1.00  0.00     0.002 A 
ATOM     29  C   UNL A   1      34.089  17.393  24.355  1.00  0.00     0.018 A 
ATOM     30  C   UNL A   1      33.522  17.041  23.134  1.00  0.00     0.016 A 
ATOM     31  Br  UNL A   1      35.254  16.206  25.252  1.00  0.00    -0.051 Br
ENDBRANCH  24  25
ENDBRANCH  21  24
ENDBRANCH  13  21
ENDBRANCH   6   8
ENDBRANCH   5   6
ENDBRANCH   4   5
ENDBRANCH   3   4
ENDBRANCH   2   3
ENDBRANCH   1   2
BRANCH   1  32
ATOM     32  C   UNL A   1      41.528  19.884  26.469  1.00  0.00     0.188 C 
BRANCH  32  33
ATOM     33  O   UNL A   1      42.478  20.470  27.348  1.00  0.00    -0.376 OA
BRANCH  33  34
ATOM     34  C   UNL A   1      43.320  21.502  26.865  1.00  0.00     0.202 C 
BRANCH  34  35
ATOM     35  C   UNL A   1      43.511  21.649  25.348  1.00  0.00     0.261 C 
BRANCH  35  36
ATOM     36  O   UNL A   1      42.972  22.840  24.736  1.00  0.00    -0.460 OA
BRANCH  36  37
ATOM     37  C   UNL A   1      43.723  23.964  24.879  1.00  0.00     0.338 C 
ATOM     38  O   UNL A   1      44.762  24.211  24.289  1.00  0.00    -0.246 OA
BRANCH  37  39
ATOM     39  C   UNL A   1      43.056  24.967  25.752  1.00  0.00     0.060 A 
ATOM     40  C   UNL A   1      43.680  26.208  25.943  1.00  0.00     0.016 A 
ATOM     41  C   UNL A   1      41.900  24.664  26.476  1.00  0.00     0.016 A 
ATOM     42  C   UNL A   1      43.185  27.122  26.885  1.00  0.00     0.010 A 
ATOM     43  C   UNL A   1      41.411  25.580  27.429  1.00  0.00     0.010 A 
ATOM     44  C   UNL A   1      42.064  26.805  27.668  1.00  0.00    -0.014 A 
BRANCH  44  45
ATOM     45  C   UNL A   1      41.651  27.682  28.813  1.00  0.00     0.031 A 
ATOM     46  C   UNL A   1      42.459  27.689  30.067  1.00  0.00     0.074 A 
ATOM     47  C   UNL A   1      40.596  28.516  28.755  1.00  0.00     0.049 A 
ATOM     48  N   UNL A   1      42.231  28.342  31.176  1.00  0.00    -0.248 NA
ATOM     49  C   UNL A   1      43.690  26.893  30.061  1.00  0.00     0.031 C 
ATOM     50  C   UNL A   1      39.826  28.722  27.556  1.00  0.00     0.029 A 
ATOM     51  N   UNL A   1      39.982  29.341  29.672  1.00  0.00    -0.354 N 
ATOM     52  C   UNL A   1      43.309  28.067  31.997  1.00  0.00     0.074 A 
ATOM     53  C   UNL A   1      44.162  27.140  31.274  1.00  0.00     0.031 C 
ATOM     54  C   UNL A   1      38.812  29.562  27.794  1.00  0.00     0.029 A 
ATOM     55  C   UNL A   1      38.832  29.936  29.192  1.00  0.00     0.049 A 
ATOM     56  H   UNL A   1      40.329  29.491  30.580  1.00  0.00     0.167 HD
ATOM     57  C   UNL A   1      43.568  28.563  33.230  1.00  0.00     0.034 A 
ATOM     58  C   UNL A   1      37.874  30.680  29.785  1.00  0.00     0.034 A 
ATOM     59  C   UNL A   1      42.692  29.452  33.955  1.00  0.00     0.049 A 
ATOM     60  C   UNL A   1      38.083  31.058  31.220  1.00  0.00     0.074 A 
ATOM     61  C   UNL A   1      42.858  29.965  35.229  1.00  0.00     0.029 A 
ATOM     62  N   UNL A   1      41.481  29.951  33.487  1.00  0.00    -0.354 N 
ATOM     63  N   UNL A   1      39.100  30.762  31.995  1.00  0.00    -0.248 NA
ATOM     64  C   UNL A   1      37.055  31.890  31.855  1.00  0.00     0.031 C 
ATOM     65  C   UNL A   1      41.720  30.708  35.560  1.00  0.00     0.029 A 
ATOM     66  C   UNL A   1      40.876  30.733  34.463  1.00  0.00     0.049 A 
ATOM     67  H   UNL A   1      41.108  29.775  32.593  1.00  0.00     0.167 HD
ATOM     68  C   UNL A   1      38.857  31.413  33.195  1.00  0.00     0.074 A 
ATOM     69  C   UNL A   1      37.604  32.125  33.037  1.00  0.00     0.031 C 
ATOM     70  C   UNL A   1      39.617  31.427  34.317  1.00  0.00     0.034 A 
BRANCH  57  71
ATOM     71  C   UNL A   1      44.837  28.090  33.883  1.00  0.00     0.023 A 
ATOM     72  C   UNL A   1      46.041  28.801  33.744  1.00  0.00     0.031 A 
ATOM     73  C   UNL A   1      44.852  26.887  34.606  1.00  0.00     0.131 A 
ATOM     74  C   UNL A   1      47.226  28.266  34.264  1.00  0.00     0.055 A 
ATOM     75  C   UNL A   1      46.021  26.401  35.191  1.00  0.00     0.041 A 
ATOM     76  F   UNL A   1      43.735  26.154  34.739  1.00  0.00    -0.206 F 
ATOM     77  C   UNL A   1      47.221  27.085  35.010  1.00  0.00     0.022 A 
BRANCH  74  78
ATOM     78  S   UNL A   1      48.797  29.060  33.829  1.00  0.00     0.124 S 
ATOM     79  O   UNL A   1      48.914  30.071  34.876  1.00  0.00    -0.237 OA
ATOM     80  O   UNL A   1      49.743  27.953  33.901  1.00  0.00    -0.237 OA
ATOM     81  O   UNL A   1      48.554  29.587  32.487  1.00  0.00    -0.744 OA
ENDBRANCH  74  78
ENDBRANCH  57  71
BRANCH  58  82
ATOM     82  C   UNL A   1      36.623  31.072  29.059  1.00  0.00     0.023 A 
ATOM     83  C   UNL A   1      36.188  32.406  28.996  1.00  0.00     0.031 A 
ATOM     84  C   UNL A   1      35.793  30.090  28.484  1.00  0.00     0.131 A 
ATOM     85  C   UNL A   1      34.938  32.714  28.429  1.00  0.00     0.055 A 
ATOM     86  C   UNL A   1      34.578  30.407  27.871  1.00  0.00     0.041 A 
ATOM     87  F   UNL A   1      36.148  28.795  28.515  1.00  0.00    -0.206 F 
ATOM     88  C   UNL A   1      34.136  31.725  27.856  1.00  0.00     0.022 A 
BRANCH  85  89
ATOM     89  S   UNL A   1      34.313  34.414  28.560  1.00  0.00     0.124 S 
ATOM     90  O   UNL A   1      34.628  34.950  27.242  1.00  0.00    -0.237 OA
ATOM     91  O   UNL A   1      32.899  34.192  28.843  1.00  0.00    -0.237 OA
ATOM     92  O   UNL A   1      35.087  34.976  29.665  1.00  0.00    -0.744 OA
ENDBRANCH  85  89
ENDBRANCH  58  82
BRANCH  70  93
ATOM     93  C   UNL A   1      39.123  32.287  35.451  1.00  0.00     0.023 A 
ATOM     94  C   UNL A   1      39.548  33.619  35.606  1.00  0.00     0.031 A 
ATOM     95  C   UNL A   1      38.254  31.752  36.417  1.00  0.00     0.131 A 
ATOM     96  C   UNL A   1      39.161  34.345  36.742  1.00  0.00     0.055 A 
ATOM     97  C   UNL A   1      37.813  32.504  37.505  1.00  0.00     0.041 A 
ATOM     98  F   UNL A   1      37.827  30.482  36.324  1.00  0.00    -0.206 F 
ATOM     99  C   UNL A   1      38.280  33.804  37.681  1.00  0.00     0.022 A 
BRANCH  96 100
ATOM    100  S   UNL A   1      39.921  35.965  37.033  1.00  0.00     0.124 S 
ATOM    101  O   UNL A   1      41.283  35.597  37.404  1.00  0.00    -0.237 OA
ATOM    102  O   UNL A   1      39.768  36.620  35.739  1.00  0.00    -0.237 OA
ATOM    103  O   UNL A   1      39.115  36.532  38.113  1.00  0.00    -0.744 OA
ENDBRANCH  96 100
ENDBRANCH  70  93
ENDBRANCH  44  45
ENDBRANCH  37  39
ENDBRANCH  36  37
ENDBRANCH  35  36
ENDBRANCH  34  35
ENDBRANCH  33  34
ENDBRANCH  32  33
ENDBRANCH   1  32
TORSDOF 26
ENDMDL
MODEL 2
REMARK VINA RESULT:      -9.7      5.104      6.054
REMARK SMILES CC(C)(C)OC(=O)N1CC[C@@H]([NH2+]Cc2cccc(Br)c2)[C@@H](C(=O)OCCOCCOCCOC(=O)c2ccc(-c3c4nc(c(-c5cc(S(=O)(=O)[O-])ccc5F)c5ccc([nH]5)c(-c5cc(S(=O)(=O)[O-])ccc5F)c5nc(c(-c6cc(S(=O)(=O)[O-])ccc6F)c6ccc3[nH]6)C=C5)C=C4)cc2)C1
REMARK SMILES IDX 28 1 27 2 26 3 25 4 24 5 22 6 23 7 21 8 8 9 9 10 99 11 10 12
REMARK SMILES IDX 11 13 6 14 7 15 5 16 2 17 1 18 3 19 4 20 12 21 13 24 14 25
REMARK SMILES IDX 15 26 20 27 16 28 18 29 17 30 19 31 29 32 30 33 31 34 32 35
REMARK SMILES IDX 33 36 34 37 35 38 36 39 37 40 98 41 38 42 97 43 39 44 40 45
REMARK SMILES IDX 41 46 91 47 42 48 96 49 90 50 92 51 43 52 95 53 89 54 88 55
REMARK SMILES IDX 44 57 76 58 56 59 75 60 57 61 60 62 74 63 93 64 58 65 59 66
REMARK SMILES IDX 73 68 94 69 61 70 45 71 46 72 54 73 47 74 53 75 55 76 52 77
REMARK SMILES IDX 48 78 49 79 50 80 51 81 77 82 78 83 86 84 79 85 85 86 87 87
REMARK SMILES IDX 84 88 80 89 81 90 82 91 83 92 62 93 63 94 71 95 64 96 70 97
REMARK SMILES IDX 72 98 69 99 65 100 66 101 67 102 68 103
REMARK H PARENT 12 22 12 23 92 56 60 67
REMARK Flexibility Score: inf
ROOT
ATOM      1  C   UNL A   1      40.920  20.195  26.152  1.00  0.00     0.188 C 
ENDROOT
BRANCH   1   2
ATOM      2  O   UNL A   1      39.973  21.243  26.174  1.00  0.00    -0.376 OA
BRANCH   2   3
ATOM      3  C   UNL A   1      38.636  20.932  25.834  1.00  0.00     0.202 C 
BRANCH   3   4
ATOM      4  C   UNL A   1      37.790  21.973  25.083  1.00  0.00     0.261 C 
BRANCH   4   5
ATOM      5  O   UNL A   1      36.433  22.144  25.531  1.00  0.00    -0.463 OA
BRANCH   5   6
ATOM      6  C   UNL A   1      35.747  23.225  25.077  1.00  0.00     0.316 C 
ATOM      7  O   UNL A   1      36.038  23.823  24.050  1.00  0.00    -0.252 OA
BRANCH   6   8
ATOM      8  C   UNL A   1      34.560  23.550  25.990  1.00  0.00     0.177 C 
ATOM      9  N   UNL A   1      32.501  24.866  26.070  1.00  0.00    -0.307 N 
ATOM     10  C   UNL A   1      31.675  23.783  26.578  1.00  0.00     0.129 C 
ATOM     11  C   UNL A   1      33.625  24.489  25.218  1.00  0.00     0.144 C 
ATOM     12  C   UNL A   1      32.528  22.754  27.297  1.00  0.00     0.087 C 
ATOM     13  C   UNL A   1      33.747  22.315  26.459  1.00  0.00     0.200 C 
BRANCH   9  14
ATOM     14  C   UNL A   1      32.199  26.169  26.367  1.00  0.00     0.410 C 
ATOM     15  O   UNL A   1      31.366  26.509  27.201  1.00  0.00    -0.224 OA
BRANCH  14  16
ATOM     16  O   UNL A   1      32.915  27.013  25.594  1.00  0.00    -0.444 OA
BRANCH  16  17
ATOM     17  C   UNL A   1      32.291  27.841  24.593  1.00  0.00     0.106 C 
ATOM     18  C   UNL A   1      33.251  27.769  23.397  1.00  0.00     0.056 C 
ATOM     19  C   UNL A   1      32.222  29.274  25.116  1.00  0.00     0.056 C 
ATOM     20  C   UNL A   1      30.926  27.308  24.146  1.00  0.00     0.056 C 
ENDBRANCH  16  17
ENDBRANCH  14  16
ENDBRANCH   9  14
BRANCH  13  21
ATOM     21  N   UNL A   1      33.451  21.589  25.242  1.00  0.00    -0.339 N 
ATOM     22  H   UNL A   1      34.326  21.158  24.944  1.00  0.00     0.346 HD
ATOM     23  H   UNL A   1      33.034  22.310  24.654  1.00  0.00     0.346 HD
BRANCH  21  24
ATOM     24  C   UNL A   1      32.456  20.552  25.205  1.00  0.00     0.297 C 
BRANCH  24  25
ATOM     25  C   UNL A   1      33.230  19.258  25.094  1.00  0.00     0.007 A 
ATOM     26  C   UNL A   1      34.543  19.231  24.612  1.00  0.00     0.009 A 
ATOM     27  C   UNL A   1      32.621  18.056  25.507  1.00  0.00     0.025 A 
ATOM     28  C   UNL A   1      35.202  18.010  24.455  1.00  0.00     0.002 A 
ATOM     29  C   UNL A   1      33.274  16.842  25.320  1.00  0.00     0.018 A 
ATOM     30  C   UNL A   1      34.557  16.813  24.784  1.00  0.00     0.016 A 
ATOM     31  Br  UNL A   1      32.365  15.236  25.727  1.00  0.00    -0.051 Br
ENDBRANCH  24  25
ENDBRANCH  21  24
ENDBRANCH  13  21
ENDBRANCH   6   8
ENDBRANCH   5   6
ENDBRANCH   4   5
ENDBRANCH   3   4
ENDBRANCH   2   3
ENDBRANCH   1   2
BRANCH   1  32
ATOM     32  C   UNL A   1      42.377  20.704  26.197  1.00  0.00     0.188 C 
BRANCH  32  33
ATOM     33  O   UNL A   1      42.752  21.699  27.139  1.00  0.00    -0.376 OA
BRANCH  33  34
ATOM     34  C   UNL A   1      42.820  23.053  26.722  1.00  0.00     0.202 C 
BRANCH  34  35
ATOM     35  C   UNL A   1      42.929  23.358  25.221  1.00  0.00     0.261 C 
BRANCH  35  36
ATOM     36  O   UNL A   1      43.086  24.744  24.849  1.00  0.00    -0.460 OA
BRANCH  36  37
ATOM     37  C   UNL A   1      44.252  25.326  25.236  1.00  0.00     0.338 C 
ATOM     38  O   UNL A   1      45.365  25.048  24.819  1.00  0.00    -0.246 OA
BRANCH  37  39
ATOM     39  C   UNL A   1      44.018  26.478  26.149  1.00  0.00     0.060 A 
ATOM     40  C   UNL A   1      43.220  27.538  25.696  1.00  0.00     0.016 A 
ATOM     41  C   UNL A   1      44.665  26.586  27.382  1.00  0.00     0.016 A 
ATOM     42  C   UNL A   1      43.106  28.720  26.445  1.00  0.00     0.010 A 
ATOM     43  C   UNL A   1      44.557  27.777  28.127  1.00  0.00     0.010 A 
ATOM     44  C   UNL A   1      43.803  28.870  27.654  1.00  0.00    -0.014 A 
BRANCH  44  45
ATOM     45  C   UNL A   1      43.852  30.194  28.356  1.00  0.00     0.031 A 
ATOM     46  C   UNL A   1      44.947  31.157  28.042  1.00  0.00     0.074 A 
ATOM     47  C   UNL A   1      42.916  30.593  29.238  1.00  0.00     0.049 A 
ATOM     48  N   UNL A   1      45.182  32.325  28.580  1.00  0.00    -0.248 NA
ATOM     49  C   UNL A   1      45.871  30.775  26.970  1.00  0.00     0.031 C 
ATOM     50  C   UNL A   1      41.727  29.830  29.516  1.00  0.00     0.029 A 
ATOM     51  N   UNL A   1      42.782  31.696  30.052  1.00  0.00    -0.354 N 
ATOM     52  C   UNL A   1      46.263  32.842  27.890  1.00  0.00     0.074 A 
ATOM     53  C   UNL A   1      46.672  31.831  26.931  1.00  0.00     0.031 C 
ATOM     54  C   UNL A   1      40.999  30.432  30.463  1.00  0.00     0.029 A 
ATOM     55  C   UNL A   1      41.693  31.626  30.898  1.00  0.00     0.049 A 
ATOM     56  H   UNL A   1      43.403  32.459  30.033  1.00  0.00     0.167 HD
ATOM     57  C   UNL A   1      46.841  34.058  28.033  1.00  0.00     0.034 A 
ATOM     58  C   UNL A   1      41.286  32.399  31.927  1.00  0.00     0.034 A 
ATOM     59  C   UNL A   1      46.451  35.038  29.018  1.00  0.00     0.049 A 
ATOM     60  C   UNL A   1      42.062  33.651  32.198  1.00  0.00     0.074 A 
ATOM     61  C   UNL A   1      47.016  36.278  29.260  1.00  0.00     0.029 A 
ATOM     62  N   UNL A   1      45.415  34.895  29.934  1.00  0.00    -0.354 N 
ATOM     63  N   UNL A   1      43.107  34.113  31.552  1.00  0.00    -0.248 NA
ATOM     64  C   UNL A   1      41.602  34.505  33.299  1.00  0.00     0.031 C 
ATOM     65  C   UNL A   1      46.375  36.849  30.365  1.00  0.00     0.029 A 
ATOM     66  C   UNL A   1      45.352  36.007  30.765  1.00  0.00     0.049 A 
ATOM     67  H   UNL A   1      44.813  34.118  29.985  1.00  0.00     0.167 HD
ATOM     68  C   UNL A   1      43.398  35.336  32.136  1.00  0.00     0.074 A 
ATOM     69  C   UNL A   1      42.414  35.545  33.179  1.00  0.00     0.031 C 
ATOM     70  C   UNL A   1      44.385  36.209  31.819  1.00  0.00     0.034 A 
BRANCH  57  71
ATOM     71  C   UNL A   1      48.002  34.351  27.125  1.00  0.00     0.023 A 
ATOM     72  C   UNL A   1      49.323  34.057  27.507  1.00  0.00     0.031 A 
ATOM     73  C   UNL A   1      47.790  34.981  25.889  1.00  0.00     0.131 A 
ATOM     74  C   UNL A   1      50.387  34.455  26.688  1.00  0.00     0.055 A 
ATOM     75  C   UNL A   1      48.849  35.302  25.041  1.00  0.00     0.041 A 
ATOM     76  F   UNL A   1      46.551  35.313  25.495  1.00  0.00    -0.206 F 
ATOM     77  C   UNL A   1      50.159  35.051  25.444  1.00  0.00     0.022 A 
BRANCH  74  78
ATOM     78  S   UNL A   1      52.075  34.314  27.334  1.00  0.00     0.124 S 
ATOM     79  O   UNL A   1      52.815  33.923  26.137  1.00  0.00    -0.237 OA
ATOM     80  O   UNL A   1      52.335  35.658  27.836  1.00  0.00    -0.237 OA
ATOM     81  O   UNL A   1      51.963  33.276  28.357  1.00  0.00    -0.744 OA
ENDBRANCH  74  78
ENDBRANCH  57  71
BRANCH  58  82
ATOM     82  C   UNL A   1      40.135  32.001  32.800  1.00  0.00     0.023 A 
ATOM     83  C   UNL A   1      38.837  32.496  32.591  1.00  0.00     0.031 A 
ATOM     84  C   UNL A   1      40.342  31.174  33.922  1.00  0.00     0.131 A 
ATOM     85  C   UNL A   1      37.816  32.212  33.516  1.00  0.00     0.055 A 
ATOM     86  C   UNL A   1      39.311  30.848  34.807  1.00  0.00     0.041 A 
ATOM     87  F   UNL A   1      41.559  30.671  34.182  1.00  0.00    -0.206 F 
ATOM     88  C   UNL A   1      38.042  31.382  34.616  1.00  0.00     0.022 A 
BRANCH  85  89
ATOM     89  S   UNL A   1      36.213  33.045  33.332  1.00  0.00     0.124 S 
ATOM     90  O   UNL A   1      35.800  33.208  34.721  1.00  0.00    -0.237 OA
ATOM     91  O   UNL A   1      36.588  34.264  32.625  1.00  0.00    -0.237 OA
ATOM     92  O   UNL A   1      35.423  32.092  32.554  1.00  0.00    -0.744 OA
ENDBRANCH  85  89
ENDBRANCH  58  82
BRANCH  70  93
ATOM     93  C   UNL A   1      44.411  37.501  32.594  1.00  0.00     0.023 A 
ATOM     94  C   UNL A   1      43.666  38.621  32.187  1.00  0.00     0.031 A 
ATOM     95  C   UNL A   1      45.232  37.628  33.728  1.00  0.00     0.131 A 
ATOM     96  C   UNL A   1      43.814  39.840  32.865  1.00  0.00     0.055 A 
ATOM     97  C   UNL A   1      45.317  38.822  34.443  1.00  0.00     0.041 A 
ATOM     98  F   UNL A   1      45.974  36.593  34.154  1.00  0.00    -0.206 F 
ATOM     99  C   UNL A   1      44.618  39.942  34.002  1.00  0.00     0.022 A 
BRANCH  96 100
ATOM    100  S   UNL A   1      43.032  41.320  32.166  1.00  0.00     0.124 S 
ATOM    101  O   UNL A   1      41.932  41.547  33.097  1.00  0.00    -0.237 OA
ATOM    102  O   UNL A   1      44.115  42.295  32.208  1.00  0.00    -0.237 OA
ATOM    103  O   UNL A   1      42.633  40.894  30.825  1.00  0.00    -0.744 OA
ENDBRANCH  96 100
ENDBRANCH  70  93
ENDBRANCH  44  45
ENDBRANCH  37  39
ENDBRANCH  36  37
ENDBRANCH  35  36
ENDBRANCH  34  35
ENDBRANCH  33  34
ENDBRANCH  32  33
ENDBRANCH   1  32
TORSDOF 26
ENDMDL
MODEL 3
REMARK VINA RESULT:      -9.5      5.363      8.226
REMARK SMILES CC(C)(C)OC(=O)N1CC[C@@H]([NH2+]Cc2cccc(Br)c2)[C@@H](C(=O)OCCOCCOCCOC(=O)c2ccc(-c3c4nc(c(-c5cc(S(=O)(=O)[O-])ccc5F)c5ccc([nH]5)c(-c5cc(S(=O)(=O)[O-])ccc5F)c5nc(c(-c6cc(S(=O)(=O)[O-])ccc6F)c6ccc3[nH]6)C=C5)C=C4)cc2)C1
REMARK SMILES IDX 28 1 27 2 26 3 25 4 24 5 22 6 23 7 21 8 8 9 9 10 99 11 10 12
REMARK SMILES IDX 11 13 6 14 7 15 5 16 2 17 1 18 3 19 4 20 12 21 13 24 14 25
REMARK SMILES IDX 15 26 20 27 16 28 18 29 17 30 19 31 29 32 30 33 31 34 32 35
REMARK SMILES IDX 33 36 34 37 35 38 36 39 37 40 98 41 38 42 97 43 39 44 40 45
REMARK SMILES IDX 41 46 91 47 42 48 96 49 90 50 92 51 43 52 95 53 89 54 88 55
REMARK SMILES IDX 44 57 76 58 56 59 75 60 57 61 60 62 74 63 93 64 58 65 59 66
REMARK SMILES IDX 73 68 94 69 61 70 45 71 46 72 54 73 47 74 53 75 55 76 52 77
REMARK SMILES IDX 48 78 49 79 50 80 51 81 77 82 78 83 86 84 79 85 85 86 87 87
REMARK SMILES IDX 84 88 80 89 81 90 82 91 83 92 62 93 63 94 71 95 64 96 70 97
REMARK SMILES IDX 72 98 69 99 65 100 66 101 67 102 68 103
REMARK H PARENT 12 22 12 23 92 56 60 67
REMARK Flexibility Score: inf
ROOT
ATOM      1  C   UNL A   1      39.368  21.266  26.031  1.00  0.00     0.188 C 
ENDROOT
BRANCH   1   2
ATOM      2  O   UNL A   1      38.079  21.840  25.967  1.00  0.00    -0.376 OA
BRANCH   2   3
ATOM      3  C   UNL A   1      37.338  21.668  24.775  1.00  0.00     0.202 C 
BRANCH   3   4
ATOM      4  C   UNL A   1      36.955  22.904  23.943  1.00  0.00     0.261 C 
BRANCH   4   5
ATOM      5  O   UNL A   1      35.909  23.737  24.473  1.00  0.00    -0.463 OA
BRANCH   5   6
ATOM      6  C   UNL A   1      34.754  23.834  23.764  1.00  0.00     0.316 C 
ATOM      7  O   UNL A   1      34.678  23.590  22.568  1.00  0.00    -0.252 OA
BRANCH   6   8
ATOM      8  C   UNL A   1      33.584  24.242  24.666  1.00  0.00     0.177 C 
ATOM      9  N   UNL A   1      31.270  25.028  24.575  1.00  0.00    -0.307 N 
ATOM     10  C   UNL A   1      30.776  24.089  25.568  1.00  0.00     0.129 C 
ATOM     11  C   UNL A   1      32.398  24.585  23.758  1.00  0.00     0.144 C 
ATOM     12  C   UNL A   1      31.903  23.627  26.473  1.00  0.00     0.087 C 
ATOM     13  C   UNL A   1      33.138  23.154  25.678  1.00  0.00     0.200 C 
BRANCH   9  14
ATOM     14  C   UNL A   1      30.672  26.249  24.414  1.00  0.00     0.410 C 
ATOM     15  O   UNL A   1      29.459  26.427  24.428  1.00  0.00    -0.224 OA
BRANCH  14  16
ATOM     16  O   UNL A   1      31.597  27.210  24.204  1.00  0.00    -0.444 OA
BRANCH  16  17
ATOM     17  C   UNL A   1      32.079  28.048  25.273  1.00  0.00     0.106 C 
ATOM     18  C   UNL A   1      31.419  29.409  25.007  1.00  0.00     0.056 C 
ATOM     19  C   UNL A   1      33.596  28.175  25.152  1.00  0.00     0.056 C 
ATOM     20  C   UNL A   1      31.634  27.561  26.656  1.00  0.00     0.056 C 
ENDBRANCH  16  17
ENDBRANCH  14  16
ENDBRANCH   9  14
BRANCH  13  21
ATOM     21  N   UNL A   1      32.956  21.962  24.876  1.00  0.00    -0.339 N 
ATOM     22  H   UNL A   1      33.891  21.617  24.658  1.00  0.00     0.346 HD
ATOM     23  H   UNL A   1      32.368  22.299  24.115  1.00  0.00     0.346 HD
BRANCH  21  24
ATOM     24  C   UNL A   1      32.211  20.833  25.361  1.00  0.00     0.297 C 
BRANCH  24  25
ATOM     25  C   UNL A   1      32.606  19.678  24.468  1.00  0.00     0.007 A 
ATOM     26  C   UNL A   1      32.185  19.608  23.136  1.00  0.00     0.009 A 
ATOM     27  C   UNL A   1      33.435  18.662  24.985  1.00  0.00     0.025 A 
ATOM     28  C   UNL A   1      32.508  18.492  22.362  1.00  0.00     0.002 A 
ATOM     29  C   UNL A   1      33.727  17.541  24.216  1.00  0.00     0.018 A 
ATOM     30  C   UNL A   1      33.256  17.446  22.911  1.00  0.00     0.016 A 
ATOM     31  Br  UNL A   1      34.699  16.120  24.995  1.00  0.00    -0.051 Br
ENDBRANCH  24  25
ENDBRANCH  21  24
ENDBRANCH  13  21
ENDBRANCH   6   8
ENDBRANCH   5   6
ENDBRANCH   4   5
ENDBRANCH   3   4
ENDBRANCH   2   3
ENDBRANCH   1   2
BRANCH   1  32
ATOM     32  C   UNL A   1      40.492  22.324  26.089  1.00  0.00     0.188 C 
BRANCH  32  33
ATOM     33  O   UNL A   1      41.804  21.945  26.481  1.00  0.00    -0.376 OA
BRANCH  33  34
ATOM     34  C   UNL A   1      42.916  22.561  25.853  1.00  0.00     0.202 C 
BRANCH  34  35
ATOM     35  C   UNL A   1      44.316  21.977  26.096  1.00  0.00     0.261 C 
BRANCH  35  36
ATOM     36  O   UNL A   1      45.393  22.923  26.265  1.00  0.00    -0.460 OA
BRANCH  36  37
ATOM     37  C   UNL A   1      45.579  23.791  25.236  1.00  0.00     0.338 C 
ATOM     38  O   UNL A   1      45.523  23.516  24.048  1.00  0.00    -0.246 OA
BRANCH  37  39
ATOM     39  C   UNL A   1      45.722  25.193  25.713  1.00  0.00     0.060 A 
ATOM     40  C   UNL A   1      46.074  25.410  27.053  1.00  0.00     0.016 A 
ATOM     41  C   UNL A   1      45.399  26.285  24.905  1.00  0.00     0.016 A 
ATOM     42  C   UNL A   1      46.058  26.704  27.597  1.00  0.00     0.010 A 
ATOM     43  C   UNL A   1      45.372  27.581  25.457  1.00  0.00     0.010 A 
ATOM     44  C   UNL A   1      45.670  27.803  26.816  1.00  0.00    -0.014 A 
BRANCH  44  45
ATOM     45  C   UNL A   1      45.452  29.151  27.437  1.00  0.00     0.031 A 
ATOM     46  C   UNL A   1      44.158  29.451  28.116  1.00  0.00     0.074 A 
ATOM     47  C   UNL A   1      46.395  30.111  27.459  1.00  0.00     0.049 A 
ATOM     48  N   UNL A   1      43.769  30.571  28.665  1.00  0.00    -0.248 NA
ATOM     49  C   UNL A   1      43.198  28.348  28.219  1.00  0.00     0.031 C 
ATOM     50  C   UNL A   1      47.737  29.900  26.980  1.00  0.00     0.029 A 
ATOM     51  N   UNL A   1      46.413  31.421  27.884  1.00  0.00    -0.354 N 
ATOM     52  C   UNL A   1      42.529  30.305  29.215  1.00  0.00     0.074 A 
ATOM     53  C   UNL A   1      42.207  28.929  28.881  1.00  0.00     0.031 C 
ATOM     54  C   UNL A   1      48.447  31.030  27.075  1.00  0.00     0.029 A 
ATOM     55  C   UNL A   1      47.593  32.077  27.597  1.00  0.00     0.049 A 
ATOM     56  H   UNL A   1      45.657  31.847  28.348  1.00  0.00     0.167 HD
ATOM     57  C   UNL A   1      41.746  31.130  29.949  1.00  0.00     0.034 A 
ATOM     58  C   UNL A   1      47.968  33.369  27.704  1.00  0.00     0.034 A 
ATOM     59  C   UNL A   1      42.058  32.509  30.241  1.00  0.00     0.049 A 
ATOM     60  C   UNL A   1      47.002  34.317  28.346  1.00  0.00     0.074 A 
ATOM     61  C   UNL A   1      41.295  33.429  30.939  1.00  0.00     0.029 A 
ATOM     62  N   UNL A   1      43.210  33.178  29.842  1.00  0.00    -0.354 N 
ATOM     63  N   UNL A   1      45.813  34.053  28.836  1.00  0.00    -0.248 NA
ATOM     64  C   UNL A   1      47.422  35.715  28.488  1.00  0.00     0.031 C 
ATOM     65  C   UNL A   1      41.947  34.666  30.899  1.00  0.00     0.029 A 
ATOM     66  C   UNL A   1      43.158  34.506  30.248  1.00  0.00     0.049 A 
ATOM     67  H   UNL A   1      43.955  32.769  29.345  1.00  0.00     0.167 HD
ATOM     68  C   UNL A   1      45.364  35.243  29.389  1.00  0.00     0.074 A 
ATOM     69  C   UNL A   1      46.413  36.222  29.181  1.00  0.00     0.031 C 
ATOM     70  C   UNL A   1      44.193  35.489  30.025  1.00  0.00     0.034 A 
BRANCH  57  71
ATOM     71  C   UNL A   1      40.443  30.555  30.431  1.00  0.00     0.023 A 
ATOM     72  C   UNL A   1      39.252  30.731  29.706  1.00  0.00     0.031 A 
ATOM     73  C   UNL A   1      40.384  29.871  31.656  1.00  0.00     0.131 A 
ATOM     74  C   UNL A   1      38.039  30.286  30.245  1.00  0.00     0.055 A 
ATOM     75  C   UNL A   1      39.184  29.360  32.149  1.00  0.00     0.041 A 
ATOM     76  F   UNL A   1      41.487  29.708  32.402  1.00  0.00    -0.206 F 
ATOM     77  C   UNL A   1      38.000  29.577  31.449  1.00  0.00     0.022 A 
BRANCH  74  78
ATOM     78  S   UNL A   1      36.498  30.772  29.424  1.00  0.00     0.124 S 
ATOM     79  O   UNL A   1      36.035  29.493  28.889  1.00  0.00    -0.237 OA
ATOM     80  O   UNL A   1      35.715  31.326  30.523  1.00  0.00    -0.237 OA
ATOM     81  O   UNL A   1      36.936  31.739  28.420  1.00  0.00    -0.744 OA
ENDBRANCH  74  78
ENDBRANCH  57  71
BRANCH  58  82
ATOM     82  C   UNL A   1      49.277  33.854  27.158  1.00  0.00     0.023 A 
ATOM     83  C   UNL A   1      50.452  33.845  27.927  1.00  0.00     0.031 A 
ATOM     84  C   UNL A   1      49.347  34.420  25.870  1.00  0.00     0.131 A 
ATOM     85  C   UNL A   1      51.625  34.440  27.428  1.00  0.00     0.055 A 
ATOM     86  C   UNL A   1      50.530  34.959  25.356  1.00  0.00     0.041 A 
ATOM     87  F   UNL A   1      48.258  34.465  25.084  1.00  0.00    -0.206 F 
ATOM     88  C   UNL A   1      51.675  34.987  26.144  1.00  0.00     0.022 A 
BRANCH  85  89
ATOM     89  S   UNL A   1      53.059  34.604  28.530  1.00  0.00     0.124 S 
ATOM     90  O   UNL A   1      53.622  35.878  28.102  1.00  0.00    -0.237 OA
ATOM     91  O   UNL A   1      52.429  34.589  29.846  1.00  0.00    -0.237 OA
ATOM     92  O   UNL A   1      53.867  33.427  28.214  1.00  0.00    -0.744 OA
ENDBRANCH  85  89
ENDBRANCH  58  82
BRANCH  70  93
ATOM     93  C   UNL A   1      44.012  36.877  30.583  1.00  0.00     0.023 A 
ATOM     94  C   UNL A   1      43.603  37.951  29.774  1.00  0.00     0.031 A 
ATOM     95  C   UNL A   1      44.301  37.138  31.934  1.00  0.00     0.131 A 
ATOM     96  C   UNL A   1      43.566  39.248  30.304  1.00  0.00     0.055 A 
ATOM     97  C   UNL A   1      44.189  38.419  32.475  1.00  0.00     0.041 A 
ATOM     98  F   UNL A   1      44.707  36.151  32.749  1.00  0.00    -0.206 F 
ATOM     99  C   UNL A   1      43.835  39.486  31.654  1.00  0.00     0.022 A 
BRANCH  96 100
ATOM    100  S   UNL A   1      43.274  40.637  29.175  1.00  0.00     0.124 S 
ATOM    101  O   UNL A   1      44.274  40.399  28.140  1.00  0.00    -0.237 OA
ATOM    102  O   UNL A   1      41.886  40.432  28.779  1.00  0.00    -0.237 OA
ATOM    103  O   UNL A   1      43.512  41.813  30.011  1.00  0.00    -0.744 OA
ENDBRANCH  96 100
ENDBRANCH  70  93
ENDBRANCH  44  45
ENDBRANCH  37  39
ENDBRANCH  36  37
ENDBRANCH  35  36
ENDBRANCH  34  35
ENDBRANCH  33  34
ENDBRANCH  32  33
ENDBRANCH   1  32
TORSDOF 26
ENDMDL
