MODEL 1
REMARK VINA RESULT:      -8.5      0.000      0.000
REMARK SMILES O=C(OCCOCCOCCOC(=O)c1ccc(-c2c3nc(c(-c4cc(S(=O)(=O)[O-])ccc4F)c4ccc([nH]4)c(-c4cc(S(=O)(=O)[O-])ccc4F)c4nc(c(-c5cc(S(=O)(=O)[O-])ccc5F)c5ccc2[nH]5)C=C4)C=C3)cc1)C1=Cc2cc(S(F)(F)(F)(F)F)ccc2O[C@H]1C(F)(F)F
REMARK SMILES IDX 8 1 7 2 6 3 5 4 4 5 3 6 2 7 1 8 78 9 79 10 93 11 80 12 92 13
REMARK SMILES IDX 81 14 91 15 82 16 90 17 89 18 94 19 95 20 96 21 97 22 83 23
REMARK SMILES IDX 84 24 85 25 86 26 87 27 88 28 9 29 10 30 11 31 12 32 13 33
REMARK SMILES IDX 14 34 15 35 16 36 77 37 17 38 76 39 18 40 19 41 20 42 70 43
REMARK SMILES IDX 21 44 75 45 69 46 71 47 22 48 74 49 68 50 67 51 23 53 55 54
REMARK SMILES IDX 35 55 54 56 36 57 39 58 53 59 72 60 37 61 38 62 52 64 73 65
REMARK SMILES IDX 40 66 24 67 25 68 33 69 26 70 32 71 34 72 31 73 27 74 28 75
REMARK SMILES IDX 29 76 30 77 56 78 57 79 65 80 58 81 64 82 66 83 63 84 59 85
REMARK SMILES IDX 60 86 61 87 62 88 41 89 42 90 50 91 43 92 49 93 51 94 48 95
REMARK SMILES IDX 44 96 45 97 46 98 47 99
REMARK H PARENT 71 52 39 63
REMARK Flexibility Score: inf
ROOT
ATOM      1  C   UNL A   1      47.228  24.888  24.662  1.00  0.00     0.188 C 
ENDROOT
BRANCH   1   2
ATOM      2  C   UNL A   1      46.400  23.645  24.940  1.00  0.00     0.188 C 
BRANCH   2   3
ATOM      3  O   UNL A   1      45.562  23.374  23.826  1.00  0.00    -0.376 OA
BRANCH   3   4
ATOM      4  C   UNL A   1      44.302  22.905  24.284  1.00  0.00     0.202 C 
BRANCH   4   5
ATOM      5  C   UNL A   1      43.990  23.527  25.635  1.00  0.00     0.261 C 
BRANCH   5   6
ATOM      6  O   UNL A   1      42.582  23.616  25.800  1.00  0.00    -0.460 OA
BRANCH   6   7
ATOM      7  C   UNL A   1      42.012  23.515  27.097  1.00  0.00     0.338 C 
ATOM      8  O   UNL A   1      42.721  23.753  28.124  1.00  0.00    -0.246 OA
BRANCH   7   9
ATOM      9  C   UNL A   1      40.553  23.121  27.256  1.00  0.00     0.087 C 
ATOM     10  C   UNL A   1      39.635  24.050  27.636  1.00  0.00     0.027 C 
ATOM     11  C   UNL A   1      40.118  21.689  26.989  1.00  0.00     0.316 C 
ATOM     12  C   UNL A   1      40.069  25.482  27.902  1.00  0.00     0.019 A 
ATOM     13  O   UNL A   1      41.470  25.316  25.991  1.00  0.00    -0.475 OA
ATOM     14  C   UNL A   1      39.607  26.145  29.027  1.00  0.00     0.036 A 
ATOM     15  C   UNL A   1      40.891  26.073  27.043  1.00  0.00     0.128 A 
ATOM     16  C   UNL A   1      39.844  27.541  29.008  1.00  0.00     0.107 A 
ATOM     17  C   UNL A   1      41.186  27.409  27.163  1.00  0.00     0.048 A 
ATOM     18  C   UNL A   1      40.716  28.141  28.218  1.00  0.00     0.028 A 
BRANCH  11  19
ATOM     19  C   UNL A   1      41.327  20.860  26.582  1.00  0.00     0.430 C 
ATOM     20  F   UNL A   1      40.961  19.588  26.454  1.00  0.00    -0.167 F 
ATOM     21  F   UNL A   1      41.890  21.277  25.451  1.00  0.00    -0.167 F 
ATOM     22  F   UNL A   1      42.199  20.972  27.580  1.00  0.00    -0.167 F 
ENDBRANCH  11  19
BRANCH  16  23
ATOM     23  S   UNL A   1      38.885  28.574  30.143  1.00  0.00     0.310 S 
ATOM     24  F   UNL A   1      38.112  27.319  30.728  1.00  0.00    -0.094 F 
ATOM     25  F   UNL A   1      37.754  28.675  29.051  1.00  0.00    -0.094 F 
ATOM     26  F   UNL A   1      38.060  29.460  31.118  1.00  0.00    -0.094 F 
ATOM     27  F   UNL A   1      39.964  28.346  31.274  1.00  0.00    -0.094 F 
ATOM     28  F   UNL A   1      39.680  27.580  29.204  1.00  0.00    -0.094 F 
ENDBRANCH  16  23
ENDBRANCH   7   9
ENDBRANCH   6   7
ENDBRANCH   5   6
ENDBRANCH   4   5
ENDBRANCH   3   4
ENDBRANCH   2   3
ENDBRANCH   1   2
BRANCH   1  29
ATOM     29  O   UNL A   1      46.368  26.011  24.536  1.00  0.00    -0.376 OA
BRANCH  29  30
ATOM     30  C   UNL A   1      47.058  27.184  24.941  1.00  0.00     0.202 C 
BRANCH  30  31
ATOM     31  C   UNL A   1      46.586  27.597  26.325  1.00  0.00     0.261 C 
BRANCH  31  32
ATOM     32  O   UNL A   1      45.497  26.774  26.718  1.00  0.00    -0.460 OA
BRANCH  32  33
ATOM     33  C   UNL A   1      45.386  26.340  28.066  1.00  0.00     0.338 C 
ATOM     34  O   UNL A   1      45.713  25.153  28.380  1.00  0.00    -0.246 OA
BRANCH  33  35
ATOM     35  C   UNL A   1      44.877  27.296  29.132  1.00  0.00     0.060 A 
ATOM     36  C   UNL A   1      45.472  28.536  29.297  1.00  0.00     0.016 A 
ATOM     37  C   UNL A   1      43.853  26.919  29.888  1.00  0.00     0.016 A 
ATOM     38  C   UNL A   1      45.096  29.199  30.489  1.00  0.00     0.010 A 
ATOM     39  C   UNL A   1      43.452  27.683  30.957  1.00  0.00     0.010 A 
ATOM     40  C   UNL A   1      44.036  28.892  31.214  1.00  0.00    -0.014 A 
BRANCH  40  41
ATOM     41  C   UNL A   1      43.494  29.833  32.278  1.00  0.00     0.031 A 
ATOM     42  C   UNL A   1      44.099  29.822  33.534  1.00  0.00     0.074 A 
ATOM     43  C   UNL A   1      42.429  30.649  31.938  1.00  0.00     0.049 A 
ATOM     44  N   UNL A   1      43.802  30.585  34.588  1.00  0.00    -0.248 NA
ATOM     45  C   UNL A   1      45.208  28.932  33.908  1.00  0.00     0.031 C 
ATOM     46  C   UNL A   1      41.818  30.673  30.669  1.00  0.00     0.029 A 
ATOM     47  N   UNL A   1      41.776  31.565  32.736  1.00  0.00    -0.354 N 
ATOM     48  C   UNL A   1      44.613  30.299  35.609  1.00  0.00     0.074 A 
ATOM     49  C   UNL A   1      45.525  29.227  35.187  1.00  0.00     0.031 C 
ATOM     50  C   UNL A   1      40.806  31.579  30.705  1.00  0.00     0.029 A 
ATOM     51  C   UNL A   1      40.767  32.139  31.997  1.00  0.00     0.049 A 
ATOM     52  H   UNL A   1      41.995  31.772  33.674  1.00  0.00     0.167 HD
ATOM     53  C   UNL A   1      44.629  30.891  36.873  1.00  0.00     0.034 A 
ATOM     54  C   UNL A   1      39.854  33.096  32.407  1.00  0.00     0.034 A 
ATOM     55  C   UNL A   1      43.742  31.879  37.270  1.00  0.00     0.049 A 
ATOM     56  C   UNL A   1      39.832  33.647  33.691  1.00  0.00     0.074 A 
ATOM     57  C   UNL A   1      43.750  32.492  38.537  1.00  0.00     0.029 A 
ATOM     58  N   UNL A   1      42.716  32.436  36.538  1.00  0.00    -0.354 N 
ATOM     59  N   UNL A   1      40.667  33.388  34.698  1.00  0.00    -0.248 NA
ATOM     60  C   UNL A   1      38.848  34.637  34.147  1.00  0.00     0.031 C 
ATOM     61  C   UNL A   1      42.737  33.399  38.573  1.00  0.00     0.029 A 
ATOM     62  C   UNL A   1      42.080  33.367  37.327  1.00  0.00     0.049 A 
ATOM     63  H   UNL A   1      42.480  32.208  35.610  1.00  0.00     0.167 HD
ATOM     64  C   UNL A   1      40.343  34.122  35.764  1.00  0.00     0.074 A 
ATOM     65  C   UNL A   1      39.163  34.931  35.427  1.00  0.00     0.031 C 
ATOM     66  C   UNL A   1      40.986  34.154  37.003  1.00  0.00     0.034 A 
BRANCH  53  67
ATOM     67  C   UNL A   1      45.678  30.425  37.869  1.00  0.00     0.023 A 
ATOM     68  C   UNL A   1      45.412  29.332  38.675  1.00  0.00     0.031 A 
ATOM     69  C   UNL A   1      46.834  31.075  37.949  1.00  0.00     0.131 A 
ATOM     70  C   UNL A   1      46.323  29.174  39.747  1.00  0.00     0.055 A 
ATOM     71  C   UNL A   1      47.737  30.777  38.940  1.00  0.00     0.041 A 
ATOM     72  F   UNL A   1      47.118  32.024  37.061  1.00  0.00    -0.206 F 
ATOM     73  C   UNL A   1      47.512  29.746  39.809  1.00  0.00     0.022 A 
BRANCH  70  74
ATOM     74  S   UNL A   1      45.824  28.115  41.127  1.00  0.00     0.124 S 
ATOM     75  O   UNL A   1      46.946  27.121  41.438  1.00  0.00    -0.237 OA
ATOM     76  O   UNL A   1      45.552  28.978  42.362  1.00  0.00    -0.237 OA
ATOM     77  O   UNL A   1      44.405  27.260  40.705  1.00  0.00    -0.744 OA
ENDBRANCH  70  74
ENDBRANCH  53  67
BRANCH  54  78
ATOM     78  C   UNL A   1      38.815  33.574  31.404  1.00  0.00     0.023 A 
ATOM     79  C   UNL A   1      37.494  33.187  31.557  1.00  0.00     0.031 A 
ATOM     80  C   UNL A   1      39.193  34.355  30.399  1.00  0.00     0.131 A 
ATOM     81  C   UNL A   1      36.688  33.442  30.423  1.00  0.00     0.055 A 
ATOM     82  C   UNL A   1      38.312  34.675  29.394  1.00  0.00     0.041 A 
ATOM     83  F   UNL A   1      40.435  34.831  30.364  1.00  0.00    -0.206 F 
ATOM     84  C   UNL A   1      37.006  34.276  29.450  1.00  0.00     0.022 A 
BRANCH  81  85
ATOM     85  S   UNL A   1      35.111  32.564  30.297  1.00  0.00     0.124 S 
ATOM     86  O   UNL A   1      34.752  31.961  31.658  1.00  0.00    -0.237 OA
ATOM     87  O   UNL A   1      34.015  33.542  29.869  1.00  0.00    -0.237 OA
ATOM     88  O   UNL A   1      35.244  31.315  29.137  1.00  0.00    -0.744 OA
ENDBRANCH  81  85
ENDBRANCH  54  78
BRANCH  66  89
ATOM     89  C   UNL A   1      40.454  35.108  38.060  1.00  0.00     0.023 A 
ATOM     90  C   UNL A   1      41.048  36.346  38.243  1.00  0.00     0.031 A 
ATOM     91  C   UNL A   1      39.411  34.729  38.790  1.00  0.00     0.131 A 
ATOM     92  C   UNL A   1      40.646  37.005  39.429  1.00  0.00     0.055 A 
ATOM     93  C   UNL A   1      38.987  35.492  39.852  1.00  0.00     0.041 A 
ATOM     94  F   UNL A   1      38.771  33.603  38.490  1.00  0.00    -0.206 F 
ATOM     95  C   UNL A   1      39.568  36.698  40.127  1.00  0.00     0.022 A 
BRANCH  92  96
ATOM     96  S   UNL A   1      41.682  38.362  40.030  1.00  0.00     0.124 S 
ATOM     97  O   UNL A   1      42.886  38.535  39.102  1.00  0.00    -0.237 OA
ATOM     98  O   UNL A   1      40.864  39.656  40.052  1.00  0.00    -0.237 OA
ATOM     99  O   UNL A   1      42.227  38.005  41.611  1.00  0.00    -0.744 OA
ENDBRANCH  92  96
ENDBRANCH  66  89
ENDBRANCH  40  41
ENDBRANCH  33  35
ENDBRANCH  32  33
ENDBRANCH  31  32
ENDBRANCH  30  31
ENDBRANCH  29  30
ENDBRANCH   1  29
TORSDOF 22
ENDMDL
MODEL 2
REMARK VINA RESULT:      -8.4      5.278      7.135
REMARK SMILES O=C(OCCOCCOCCOC(=O)c1ccc(-c2c3nc(c(-c4cc(S(=O)(=O)[O-])ccc4F)c4ccc([nH]4)c(-c4cc(S(=O)(=O)[O-])ccc4F)c4nc(c(-c5cc(S(=O)(=O)[O-])ccc5F)c5ccc2[nH]5)C=C4)C=C3)cc1)C1=Cc2cc(S(F)(F)(F)(F)F)ccc2O[C@H]1C(F)(F)F
REMARK SMILES IDX 8 1 7 2 6 3 5 4 4 5 3 6 2 7 1 8 78 9 79 10 93 11 80 12 92 13
REMARK SMILES IDX 81 14 91 15 82 16 90 17 89 18 94 19 95 20 96 21 97 22 83 23
REMARK SMILES IDX 84 24 85 25 86 26 87 27 88 28 9 29 10 30 11 31 12 32 13 33
REMARK SMILES IDX 14 34 15 35 16 36 77 37 17 38 76 39 18 40 19 41 20 42 70 43
REMARK SMILES IDX 21 44 75 45 69 46 71 47 22 48 74 49 68 50 67 51 23 53 55 54
REMARK SMILES IDX 35 55 54 56 36 57 39 58 53 59 72 60 37 61 38 62 52 64 73 65
REMARK SMILES IDX 40 66 24 67 25 68 33 69 26 70 32 71 34 72 31 73 27 74 28 75
REMARK SMILES IDX 29 76 30 77 56 78 57 79 65 80 58 81 64 82 66 83 63 84 59 85
REMARK SMILES IDX 60 86 61 87 62 88 41 89 42 90 50 91 43 92 49 93 51 94 48 95
REMARK SMILES IDX 44 96 45 97 46 98 47 99
REMARK H PARENT 71 52 39 63
REMARK Flexibility Score: inf
ROOT
ATOM      1  C   UNL A   1      47.247  24.328  24.308  1.00  0.00     0.188 C 
ENDROOT
BRANCH   1   2
ATOM      2  C   UNL A   1      46.349  23.125  24.541  1.00  0.00     0.188 C 
BRANCH   2   3
ATOM      3  O   UNL A   1      45.250  23.172  23.643  1.00  0.00    -0.376 OA
BRANCH   3   4
ATOM      4  C   UNL A   1      44.073  22.748  24.313  1.00  0.00     0.202 C 
BRANCH   4   5
ATOM      5  C   UNL A   1      43.831  23.634  25.524  1.00  0.00     0.261 C 
BRANCH   5   6
ATOM      6  O   UNL A   1      42.453  23.971  25.595  1.00  0.00    -0.460 OA
BRANCH   6   7
ATOM      7  C   UNL A   1      41.834  24.163  26.859  1.00  0.00     0.338 C 
ATOM      8  O   UNL A   1      42.522  24.563  27.850  1.00  0.00    -0.246 OA
BRANCH   7   9
ATOM      9  C   UNL A   1      40.349  23.889  27.026  1.00  0.00     0.087 C 
ATOM     10  C   UNL A   1      39.477  24.923  27.163  1.00  0.00     0.027 C 
ATOM     11  C   UNL A   1      39.837  22.457  27.040  1.00  0.00     0.316 C 
ATOM     12  C   UNL A   1      39.988  26.354  27.148  1.00  0.00     0.019 A 
ATOM     13  O   UNL A   1      41.445  25.720  25.381  1.00  0.00    -0.475 OA
ATOM     14  C   UNL A   1      39.529  27.261  28.088  1.00  0.00     0.036 A 
ATOM     15  C   UNL A   1      40.876  26.709  26.226  1.00  0.00     0.128 A 
ATOM     16  C   UNL A   1      39.852  28.608  27.793  1.00  0.00     0.107 A 
ATOM     17  C   UNL A   1      41.247  28.024  26.081  1.00  0.00     0.048 A 
ATOM     18  C   UNL A   1      40.786  28.983  26.939  1.00  0.00     0.028 A 
BRANCH  11  19
ATOM     19  C   UNL A   1      41.006  21.499  26.871  1.00  0.00     0.430 C 
ATOM     20  F   UNL A   1      41.403  21.515  25.601  1.00  0.00    -0.167 F 
ATOM     21  F   UNL A   1      42.037  21.786  27.662  1.00  0.00    -0.167 F 
ATOM     22  F   UNL A   1      40.537  20.292  27.174  1.00  0.00    -0.167 F 
ENDBRANCH  11  19
BRANCH  16  23
ATOM     23  S   UNL A   1      38.918  29.904  28.643  1.00  0.00     0.310 S 
ATOM     24  F   UNL A   1      38.023  28.842  29.408  1.00  0.00    -0.094 F 
ATOM     25  F   UNL A   1      37.854  29.861  27.482  1.00  0.00    -0.094 F 
ATOM     26  F   UNL A   1      38.115  31.017  29.375  1.00  0.00    -0.094 F 
ATOM     27  F   UNL A   1      39.918  29.834  29.864  1.00  0.00    -0.094 F 
ATOM     28  F   UNL A   1      39.681  28.695  27.967  1.00  0.00    -0.094 F 
ENDBRANCH  16  23
ENDBRANCH   7   9
ENDBRANCH   6   7
ENDBRANCH   5   6
ENDBRANCH   4   5
ENDBRANCH   3   4
ENDBRANCH   2   3
ENDBRANCH   1   2
BRANCH   1  29
ATOM     29  O   UNL A   1      46.491  25.520  24.464  1.00  0.00    -0.376 OA
BRANCH  29  30
ATOM     30  C   UNL A   1      47.276  26.495  25.135  1.00  0.00     0.202 C 
BRANCH  30  31
ATOM     31  C   UNL A   1      47.181  26.277  26.635  1.00  0.00     0.261 C 
BRANCH  31  32
ATOM     32  O   UNL A   1      45.816  26.266  27.027  1.00  0.00    -0.460 OA
BRANCH  32  33
ATOM     33  C   UNL A   1      45.463  26.520  28.378  1.00  0.00     0.338 C 
ATOM     34  O   UNL A   1      45.297  25.552  29.185  1.00  0.00    -0.246 OA
BRANCH  33  35
ATOM     35  C   UNL A   1      45.284  27.950  28.861  1.00  0.00     0.060 A 
ATOM     36  C   UNL A   1      44.234  28.718  28.386  1.00  0.00     0.016 A 
ATOM     37  C   UNL A   1      46.146  28.436  29.746  1.00  0.00     0.016 A 
ATOM     38  C   UNL A   1      44.346  30.095  28.691  1.00  0.00     0.010 A 
ATOM     39  C   UNL A   1      46.114  29.763  30.101  1.00  0.00     0.010 A 
ATOM     40  C   UNL A   1      45.139  30.594  29.624  1.00  0.00    -0.014 A 
BRANCH  40  41
ATOM     41  C   UNL A   1      44.976  32.014  30.138  1.00  0.00     0.031 A 
ATOM     42  C   UNL A   1      45.702  33.027  29.511  1.00  0.00     0.074 A 
ATOM     43  C   UNL A   1      44.114  32.224  31.200  1.00  0.00     0.049 A 
ATOM     44  N   UNL A   1      45.679  34.333  29.781  1.00  0.00    -0.248 NA
ATOM     45  C   UNL A   1      46.645  32.803  28.404  1.00  0.00     0.031 C 
ATOM     46  C   UNL A   1      43.370  31.209  31.833  1.00  0.00     0.029 A 
ATOM     47  N   UNL A   1      43.820  33.415  31.829  1.00  0.00    -0.354 N 
ATOM     48  C   UNL A   1      46.496  34.991  28.957  1.00  0.00     0.074 A 
ATOM     49  C   UNL A   1      47.133  34.014  28.063  1.00  0.00     0.031 C 
ATOM     50  C   UNL A   1      42.648  31.776  32.834  1.00  0.00     0.029 A 
ATOM     51  C   UNL A   1      42.928  33.157  32.845  1.00  0.00     0.049 A 
ATOM     52  H   UNL A   1      44.186  34.298  31.592  1.00  0.00     0.167 HD
ATOM     53  C   UNL A   1      46.732  36.366  28.913  1.00  0.00     0.034 A 
ATOM     54  C   UNL A   1      42.378  34.059  33.742  1.00  0.00     0.034 A 
ATOM     55  C   UNL A   1      46.150  37.274  29.782  1.00  0.00     0.049 A 
ATOM     56  C   UNL A   1      42.660  35.427  33.736  1.00  0.00     0.074 A 
ATOM     57  C   UNL A   1      46.372  38.664  29.747  1.00  0.00     0.029 A 
ATOM     58  N   UNL A   1      45.276  37.013  30.815  1.00  0.00    -0.354 N 
ATOM     59  N   UNL A   1      43.446  36.088  32.886  1.00  0.00    -0.248 NA
ATOM     60  C   UNL A   1      42.110  36.387  34.702  1.00  0.00     0.031 C 
ATOM     61  C   UNL A   1      45.649  39.232  30.750  1.00  0.00     0.029 A 
ATOM     62  C   UNL A   1      44.965  38.205  31.428  1.00  0.00     0.049 A 
ATOM     63  H   UNL A   1      44.933  36.126  31.070  1.00  0.00     0.167 HD
ATOM     64  C   UNL A   1      43.454  37.389  33.184  1.00  0.00     0.074 A 
ATOM     65  C   UNL A   1      42.600  37.599  34.361  1.00  0.00     0.031 C 
ATOM     66  C   UNL A   1      44.136  38.411  32.520  1.00  0.00     0.034 A 
BRANCH  53  67
ATOM     67  C   UNL A   1      47.683  36.896  27.851  1.00  0.00     0.023 A 
ATOM     68  C   UNL A   1      49.006  37.135  28.181  1.00  0.00     0.031 A 
ATOM     69  C   UNL A   1      47.227  37.121  26.624  1.00  0.00     0.131 A 
ATOM     70  C   UNL A   1      49.711  37.890  27.213  1.00  0.00     0.055 A 
ATOM     71  C   UNL A   1      48.018  37.742  25.687  1.00  0.00     0.041 A 
ATOM     72  F   UNL A   1      45.994  36.742  26.299  1.00  0.00    -0.206 F 
ATOM     73  C   UNL A   1      49.319  38.059  25.964  1.00  0.00     0.022 A 
BRANCH  70  74
ATOM     74  S   UNL A   1      51.258  38.678  27.724  1.00  0.00     0.124 S 
ATOM     75  O   UNL A   1      52.225  38.720  26.538  1.00  0.00    -0.237 OA
ATOM     76  O   UNL A   1      50.973  40.104  28.200  1.00  0.00    -0.237 OA
ATOM     77  O   UNL A   1      51.960  37.781  29.000  1.00  0.00    -0.744 OA
ENDBRANCH  70  74
ENDBRANCH  53  67
BRANCH  54  78
ATOM     78  C   UNL A   1      41.415  33.530  34.792  1.00  0.00     0.023 A 
ATOM     79  C   UNL A   1      40.083  33.342  34.460  1.00  0.00     0.031 A 
ATOM     80  C   UNL A   1      41.866  33.257  36.011  1.00  0.00     0.131 A 
ATOM     81  C   UNL A   1      39.238  33.133  35.576  1.00  0.00     0.055 A 
ATOM     82  C   UNL A   1      40.995  32.928  37.022  1.00  0.00     0.041 A 
ATOM     83  F   UNL A   1      43.173  33.304  36.256  1.00  0.00    -0.206 F 
ATOM     84  C   UNL A   1      39.658  32.783  36.778  1.00  0.00     0.022 A 
BRANCH  81  85
ATOM     85  S   UNL A   1      37.459  33.364  35.339  1.00  0.00     0.124 S 
ATOM     86  O   UNL A   1      36.768  33.436  36.703  1.00  0.00    -0.237 OA
ATOM     87  O   UNL A   1      37.211  34.664  34.572  1.00  0.00    -0.237 OA
ATOM     88  O   UNL A   1      36.827  32.048  34.448  1.00  0.00    -0.744 OA
ENDBRANCH  81  85
ENDBRANCH  54  78
BRANCH  66  89
ATOM     89  C   UNL A   1      43.958  39.834  33.024  1.00  0.00     0.023 A 
ATOM     90  C   UNL A   1      44.708  40.291  34.095  1.00  0.00     0.031 A 
ATOM     91  C   UNL A   1      43.081  40.619  32.411  1.00  0.00     0.131 A 
ATOM     92  C   UNL A   1      44.249  41.516  34.634  1.00  0.00     0.055 A 
ATOM     93  C   UNL A   1      42.780  41.860  32.919  1.00  0.00     0.041 A 
ATOM     94  F   UNL A   1      42.488  40.202  31.297  1.00  0.00    -0.206 F 
ATOM     95  C   UNL A   1      43.440  42.353  34.010  1.00  0.00     0.022 A 
BRANCH  92  96
ATOM     96  S   UNL A   1      44.809  41.966  36.295  1.00  0.00     0.124 S 
ATOM     97  O   UNL A   1      43.622  42.479  37.113  1.00  0.00    -0.237 OA
ATOM     98  O   UNL A   1      45.409  40.736  36.982  1.00  0.00    -0.237 OA
ATOM     99  O   UNL A   1      45.996  43.192  36.184  1.00  0.00    -0.744 OA
ENDBRANCH  92  96
ENDBRANCH  66  89
ENDBRANCH  40  41
ENDBRANCH  33  35
ENDBRANCH  32  33
ENDBRANCH  31  32
ENDBRANCH  30  31
ENDBRANCH  29  30
ENDBRANCH   1  29
TORSDOF 22
ENDMDL
MODEL 3
REMARK VINA RESULT:      -8.2      4.196      9.143
REMARK SMILES O=C(OCCOCCOCCOC(=O)c1ccc(-c2c3nc(c(-c4cc(S(=O)(=O)[O-])ccc4F)c4ccc([nH]4)c(-c4cc(S(=O)(=O)[O-])ccc4F)c4nc(c(-c5cc(S(=O)(=O)[O-])ccc5F)c5ccc2[nH]5)C=C4)C=C3)cc1)C1=Cc2cc(S(F)(F)(F)(F)F)ccc2O[C@H]1C(F)(F)F
REMARK SMILES IDX 8 1 7 2 6 3 5 4 4 5 3 6 2 7 1 8 78 9 79 10 93 11 80 12 92 13
REMARK SMILES IDX 81 14 91 15 82 16 90 17 89 18 94 19 95 20 96 21 97 22 83 23
REMARK SMILES IDX 84 24 85 25 86 26 87 27 88 28 9 29 10 30 11 31 12 32 13 33
REMARK SMILES IDX 14 34 15 35 16 36 77 37 17 38 76 39 18 40 19 41 20 42 70 43
REMARK SMILES IDX 21 44 75 45 69 46 71 47 22 48 74 49 68 50 67 51 23 53 55 54
REMARK SMILES IDX 35 55 54 56 36 57 39 58 53 59 72 60 37 61 38 62 52 64 73 65
REMARK SMILES IDX 40 66 24 67 25 68 33 69 26 70 32 71 34 72 31 73 27 74 28 75
REMARK SMILES IDX 29 76 30 77 56 78 57 79 65 80 58 81 64 82 66 83 63 84 59 85
REMARK SMILES IDX 60 86 61 87 62 88 41 89 42 90 50 91 43 92 49 93 51 94 48 95
REMARK SMILES IDX 44 96 45 97 46 98 47 99
REMARK H PARENT 71 52 39 63
REMARK Flexibility Score: inf
ROOT
ATOM      1  C   UNL A   1      44.598  30.988  26.842  1.00  0.00     0.188 C 
ENDROOT
BRANCH   1   2
ATOM      2  C   UNL A   1      45.978  31.125  26.222  1.00  0.00     0.188 C 
BRANCH   2   3
ATOM      3  O   UNL A   1      46.236  30.006  25.386  1.00  0.00    -0.376 OA
BRANCH   3   4
ATOM      4  C   UNL A   1      46.258  28.824  26.173  1.00  0.00     0.202 C 
BRANCH   4   5
ATOM      5  C   UNL A   1      45.656  27.676  25.380  1.00  0.00     0.261 C 
BRANCH   5   6
ATOM      6  O   UNL A   1      44.243  27.812  25.350  1.00  0.00    -0.460 OA
BRANCH   6   7
ATOM      7  C   UNL A   1      43.467  27.417  26.472  1.00  0.00     0.338 C 
ATOM      8  O   UNL A   1      43.834  27.745  27.644  1.00  0.00    -0.246 OA
BRANCH   7   9
ATOM      9  C   UNL A   1      42.200  26.603  26.271  1.00  0.00     0.087 C 
ATOM     10  C   UNL A   1      42.276  25.255  26.110  1.00  0.00     0.027 C 
ATOM     11  C   UNL A   1      40.847  27.296  26.252  1.00  0.00     0.316 C 
ATOM     12  C   UNL A   1      43.628  24.562  26.130  1.00  0.00     0.019 A 
ATOM     13  O   UNL A   1      44.230  25.988  27.933  1.00  0.00    -0.475 OA
ATOM     14  C   UNL A   1      43.928  23.605  25.176  1.00  0.00     0.036 A 
ATOM     15  C   UNL A   1      44.505  24.894  27.071  1.00  0.00     0.128 A 
ATOM     16  C   UNL A   1      45.081  22.840  25.472  1.00  0.00     0.107 A 
ATOM     17  C   UNL A   1      45.674  24.188  27.218  1.00  0.00     0.048 A 
ATOM     18  C   UNL A   1      46.007  23.190  26.346  1.00  0.00     0.028 A 
BRANCH  11  19
ATOM     19  C   UNL A   1      41.040  28.791  26.453  1.00  0.00     0.430 C 
ATOM     20  F   UNL A   1      39.870  29.406  26.305  1.00  0.00    -0.167 F 
ATOM     21  F   UNL A   1      41.556  29.097  27.640  1.00  0.00    -0.167 F 
ATOM     22  F   UNL A   1      41.872  29.184  25.493  1.00  0.00    -0.167 F 
ENDBRANCH  11  19
BRANCH  16  23
ATOM     23  S   UNL A   1      45.301  21.273  24.594  1.00  0.00     0.310 S 
ATOM     24  F   UNL A   1      46.148  20.655  25.783  1.00  0.00    -0.094 F 
ATOM     25  F   UNL A   1      46.656  21.823  24.007  1.00  0.00    -0.094 F 
ATOM     26  F   UNL A   1      45.490  19.926  23.840  1.00  0.00    -0.094 F 
ATOM     27  F   UNL A   1      44.015  20.687  25.300  1.00  0.00    -0.094 F 
ATOM     28  F   UNL A   1      45.155  22.592  25.453  1.00  0.00    -0.094 F 
ENDBRANCH  16  23
ENDBRANCH   7   9
ENDBRANCH   6   7
ENDBRANCH   5   6
ENDBRANCH   4   5
ENDBRANCH   3   4
ENDBRANCH   2   3
ENDBRANCH   1   2
BRANCH   1  29
ATOM     29  O   UNL A   1      43.929  32.240  26.791  1.00  0.00    -0.376 OA
BRANCH  29  30
ATOM     30  C   UNL A   1      44.151  32.845  25.526  1.00  0.00     0.202 C 
BRANCH  30  31
ATOM     31  C   UNL A   1      44.012  34.352  25.654  1.00  0.00     0.261 C 
BRANCH  31  32
ATOM     32  O   UNL A   1      45.301  34.940  25.752  1.00  0.00    -0.460 OA
BRANCH  32  33
ATOM     33  C   UNL A   1      45.601  35.818  26.827  1.00  0.00     0.338 C 
ATOM     34  O   UNL A   1      46.418  36.776  26.657  1.00  0.00    -0.246 OA
BRANCH  33  35
ATOM     35  C   UNL A   1      44.944  35.611  28.182  1.00  0.00     0.060 A 
ATOM     36  C   UNL A   1      45.149  34.433  28.882  1.00  0.00     0.016 A 
ATOM     37  C   UNL A   1      44.185  36.582  28.676  1.00  0.00     0.016 A 
ATOM     38  C   UNL A   1      44.269  34.256  29.976  1.00  0.00     0.010 A 
ATOM     39  C   UNL A   1      43.456  36.386  29.824  1.00  0.00     0.010 A 
ATOM     40  C   UNL A   1      43.564  35.224  30.535  1.00  0.00    -0.014 A 
BRANCH  40  41
ATOM     41  C   UNL A   1      42.908  35.053  31.895  1.00  0.00     0.031 A 
ATOM     42  C   UNL A   1      41.543  34.767  31.935  1.00  0.00     0.074 A 
ATOM     43  C   UNL A   1      43.703  35.191  33.020  1.00  0.00     0.049 A 
ATOM     44  N   UNL A   1      40.788  34.548  33.013  1.00  0.00    -0.248 NA
ATOM     45  C   UNL A   1      40.689  34.654  30.744  1.00  0.00     0.031 C 
ATOM     46  C   UNL A   1      45.084  35.471  32.988  1.00  0.00     0.029 A 
ATOM     47  N   UNL A   1      43.325  35.088  34.341  1.00  0.00    -0.354 N 
ATOM     48  C   UNL A   1      39.531  34.287  32.652  1.00  0.00     0.074 A 
ATOM     49  C   UNL A   1      39.448  34.358  31.186  1.00  0.00     0.031 C 
ATOM     50  C   UNL A   1      45.528  35.546  34.269  1.00  0.00     0.029 A 
ATOM     51  C   UNL A   1      44.434  35.315  35.125  1.00  0.00     0.049 A 
ATOM     52  H   UNL A   1      42.418  34.886  34.668  1.00  0.00     0.167 HD
ATOM     53  C   UNL A   1      38.451  33.991  33.485  1.00  0.00     0.034 A 
ATOM     54  C   UNL A   1      44.507  35.326  36.509  1.00  0.00     0.034 A 
ATOM     55  C   UNL A   1      38.533  33.960  34.868  1.00  0.00     0.049 A 
ATOM     56  C   UNL A   1      43.414  35.088  37.345  1.00  0.00     0.074 A 
ATOM     57  C   UNL A   1      37.456  33.656  35.722  1.00  0.00     0.029 A 
ATOM     58  N   UNL A   1      39.637  34.211  35.653  1.00  0.00    -0.354 N 
ATOM     59  N   UNL A   1      42.166  34.788  36.981  1.00  0.00    -0.248 NA
ATOM     60  C   UNL A   1      43.472  35.129  38.812  1.00  0.00     0.031 C 
ATOM     61  C   UNL A   1      37.902  33.732  37.005  1.00  0.00     0.029 A 
ATOM     62  C   UNL A   1      39.265  34.086  36.972  1.00  0.00     0.049 A 
ATOM     63  H   UNL A   1      40.537  34.441  35.327  1.00  0.00     0.167 HD
ATOM     64  C   UNL A   1      41.402  34.610  38.061  1.00  0.00     0.074 A 
ATOM     65  C   UNL A   1      42.231  34.834  39.255  1.00  0.00     0.031 C 
ATOM     66  C   UNL A   1      40.050  34.266  38.100  1.00  0.00     0.034 A 
BRANCH  53  67
ATOM     67  C   UNL A   1      37.109  33.686  32.839  1.00  0.00     0.023 A 
ATOM     68  C   UNL A   1      36.241  34.726  32.551  1.00  0.00     0.031 A 
ATOM     69  C   UNL A   1      36.792  32.427  32.560  1.00  0.00     0.131 A 
ATOM     70  C   UNL A   1      34.929  34.305  32.229  1.00  0.00     0.055 A 
ATOM     71  C   UNL A   1      35.531  32.104  32.120  1.00  0.00     0.041 A 
ATOM     72  F   UNL A   1      37.704  31.470  32.709  1.00  0.00    -0.206 F 
ATOM     73  C   UNL A   1      34.603  33.077  31.870  1.00  0.00     0.022 A 
BRANCH  70  74
ATOM     74  S   UNL A   1      33.605  35.536  32.315  1.00  0.00     0.124 S 
ATOM     75  O   UNL A   1      33.527  36.295  30.988  1.00  0.00    -0.237 OA
ATOM     76  O   UNL A   1      32.270  34.834  32.580  1.00  0.00    -0.237 OA
ATOM     77  O   UNL A   1      33.931  36.636  33.584  1.00  0.00    -0.744 OA
ENDBRANCH  70  74
ENDBRANCH  53  67
BRANCH  54  78
ATOM     78  C   UNL A   1      45.854  35.614  37.154  1.00  0.00     0.023 A 
ATOM     79  C   UNL A   1      46.729  34.568  37.395  1.00  0.00     0.031 A 
ATOM     80  C   UNL A   1      46.167  36.863  37.477  1.00  0.00     0.131 A 
ATOM     81  C   UNL A   1      47.804  34.906  38.251  1.00  0.00     0.055 A 
ATOM     82  C   UNL A   1      47.304  37.135  38.198  1.00  0.00     0.041 A 
ATOM     83  F   UNL A   1      45.372  37.861  37.098  1.00  0.00    -0.206 F 
ATOM     84  C   UNL A   1      48.185  36.141  38.523  1.00  0.00     0.022 A 
BRANCH  81  85
ATOM     85  S   UNL A   1      48.719  33.553  39.028  1.00  0.00     0.124 S 
ATOM     86  O   UNL A   1      47.774  32.376  39.280  1.00  0.00    -0.237 OA
ATOM     87  O   UNL A   1      49.853  33.105  38.101  1.00  0.00    -0.237 OA
ATOM     88  O   UNL A   1      49.376  34.086  40.514  1.00  0.00    -0.744 OA
ENDBRANCH  81  85
ENDBRANCH  54  78
BRANCH  66  89
ATOM     89  C   UNL A   1      39.399  34.079  39.461  1.00  0.00     0.023 A 
ATOM     90  C   UNL A   1      39.350  32.822  40.042  1.00  0.00     0.031 A 
ATOM     91  C   UNL A   1      38.891  35.142  40.074  1.00  0.00     0.131 A 
ATOM     92  C   UNL A   1      38.481  32.739  41.155  1.00  0.00     0.055 A 
ATOM     93  C   UNL A   1      38.166  35.001  41.232  1.00  0.00     0.041 A 
ATOM     94  F   UNL A   1      39.086  36.353  39.561  1.00  0.00    -0.206 F 
ATOM     95  C   UNL A   1      38.027  33.779  41.831  1.00  0.00     0.022 A 
BRANCH  92  96
ATOM     96  S   UNL A   1      37.953  31.092  41.689  1.00  0.00     0.124 S 
ATOM     97  O   UNL A   1      37.358  30.336  40.500  1.00  0.00    -0.237 OA
ATOM     98  O   UNL A   1      39.160  30.321  42.232  1.00  0.00    -0.237 OA
ATOM     99  O   UNL A   1      36.773  31.242  42.918  1.00  0.00    -0.744 OA
ENDBRANCH  92  96
ENDBRANCH  66  89
ENDBRANCH  40  41
ENDBRANCH  33  35
ENDBRANCH  32  33
ENDBRANCH  31  32
ENDBRANCH  30  31
ENDBRANCH  29  30
ENDBRANCH   1  29
TORSDOF 22
ENDMDL
