MODEL 1
REMARK VINA RESULT:     -10.2      0.000      0.000
REMARK SMILES CC[C@@H](C(=O)Nc1ccc(OC(C)=O)cc1C(=O)OCCOCCOCCOC(=O)c1ccc(-c2c3nc(c(-c4cc(S(=O)(=O)[O-])ccc4F)c4ccc([nH]4)c(-c4cc(S(=O)(=O)[O-])ccc4F)c4nc(c(-c5cc(S(=O)(=O)[O-])ccc5F)c5ccc2[nH]5)C=C4)C=C3)cc1)c1ccccc1
REMARK SMILES IDX 23 1 22 2 21 3 20 4 19 5 17 6 18 7 16 8 7 9 8 10 9 11 15 12
REMARK SMILES IDX 10 13 6 14 4 15 5 16 3 18 2 19 1 20 94 21 95 22 99 23 96 24
REMARK SMILES IDX 98 25 97 26 11 27 12 28 13 29 14 30 24 31 25 32 26 33 27 34
REMARK SMILES IDX 28 35 29 36 30 37 31 38 32 39 93 40 33 41 92 42 34 43 35 44
REMARK SMILES IDX 36 45 86 46 37 47 91 48 85 49 87 50 38 51 90 52 84 53 83 54
REMARK SMILES IDX 39 56 71 57 51 58 70 59 52 60 55 61 69 62 88 63 53 64 54 65
REMARK SMILES IDX 68 67 89 68 56 69 40 70 41 71 49 72 42 73 48 74 50 75 47 76
REMARK SMILES IDX 43 77 44 78 45 79 46 80 72 81 73 82 81 83 74 84 80 85 82 86
REMARK SMILES IDX 79 87 75 88 76 89 77 90 78 91 57 92 58 93 66 94 59 95 65 96
REMARK SMILES IDX 67 97 64 98 60 99 61 100 62 101 63 102
REMARK H PARENT 6 17 87 55 55 66
REMARK Flexibility Score: inf
ROOT
ATOM      1  C   UNL A   1      40.409  20.859  26.806  1.00  0.00     0.188 C 
ENDROOT
BRANCH   1   2
ATOM      2  O   UNL A   1      39.862  22.167  26.849  1.00  0.00    -0.376 OA
BRANCH   2   3
ATOM      3  C   UNL A   1      38.657  22.342  26.127  1.00  0.00     0.202 C 
BRANCH   3   4
ATOM      4  C   UNL A   1      38.208  23.794  25.966  1.00  0.00     0.261 C 
BRANCH   4   5
ATOM      5  O   UNL A   1      36.965  24.063  25.290  1.00  0.00    -0.460 OA
BRANCH   5   6
ATOM      6  C   UNL A   1      36.398  23.124  24.515  1.00  0.00     0.340 C 
ATOM      7  O   UNL A   1      36.850  22.633  23.494  1.00  0.00    -0.246 OA
BRANCH   6   8
ATOM      8  C   UNL A   1      35.130  22.655  25.098  1.00  0.00     0.087 A 
ATOM      9  C   UNL A   1      34.050  23.493  25.412  1.00  0.00     0.056 A 
ATOM     10  C   UNL A   1      32.887  22.926  25.955  1.00  0.00     0.031 A 
ATOM     11  C   UNL A   1      32.727  21.539  25.983  1.00  0.00     0.049 A 
ATOM     12  C   UNL A   1      34.999  21.264  25.219  1.00  0.00     0.065 A 
ATOM     13  C   UNL A   1      33.768  20.722  25.551  1.00  0.00     0.131 A 
BRANCH   9  14
ATOM     14  N   UNL A   1      34.018  24.882  25.239  1.00  0.00    -0.325 N 
ATOM     15  C   UNL A   1      33.200  25.659  24.473  1.00  0.00     0.231 C 
ATOM     16  O   UNL A   1      33.800  26.486  23.769  1.00  0.00    -0.274 OA
ATOM     17  H   UNL A   1      34.695  25.378  25.754  1.00  0.00     0.169 HD
BRANCH  15  18
ATOM     18  C   UNL A   1      31.643  25.763  24.742  1.00  0.00     0.108 C 
BRANCH  18  19
ATOM     19  C   UNL A   1      30.587  24.697  24.370  1.00  0.00     0.015 C 
ATOM     20  C   UNL A   1      30.785  23.779  23.176  1.00  0.00     0.005 C 
ENDBRANCH  18  19
BRANCH  18  21
ATOM     21  C   UNL A   1      31.168  27.129  24.166  1.00  0.00    -0.036 A 
ATOM     22  C   UNL A   1      31.246  28.338  24.885  1.00  0.00     0.004 A 
ATOM     23  C   UNL A   1      30.531  27.148  22.916  1.00  0.00     0.004 A 
ATOM     24  C   UNL A   1      30.680  29.513  24.385  1.00  0.00     0.000 A 
ATOM     25  C   UNL A   1      29.954  28.320  22.423  1.00  0.00     0.000 A 
ATOM     26  C   UNL A   1      30.027  29.500  23.159  1.00  0.00     0.000 A 
ENDBRANCH  18  21
ENDBRANCH  15  18
ENDBRANCH   9  14
BRANCH  13  27
ATOM     27  O   UNL A   1      33.513  19.338  25.480  1.00  0.00    -0.427 OA
BRANCH  27  28
ATOM     28  C   UNL A   1      33.502  18.605  24.285  1.00  0.00     0.308 C 
ATOM     29  C   UNL A   1      32.390  18.900  23.318  1.00  0.00     0.139 C 
ATOM     30  O   UNL A   1      34.415  17.830  24.020  1.00  0.00    -0.252 OA
ENDBRANCH  27  28
ENDBRANCH  13  27
ENDBRANCH   6   8
ENDBRANCH   5   6
ENDBRANCH   4   5
ENDBRANCH   3   4
ENDBRANCH   2   3
ENDBRANCH   1   2
BRANCH   1  31
ATOM     31  C   UNL A   1      41.925  20.811  26.508  1.00  0.00     0.188 C 
BRANCH  31  32
ATOM     32  O   UNL A   1      42.645  22.002  26.248  1.00  0.00    -0.376 OA
BRANCH  32  33
ATOM     33  C   UNL A   1      43.270  22.138  24.985  1.00  0.00     0.202 C 
BRANCH  33  34
ATOM     34  C   UNL A   1      44.360  23.211  24.770  1.00  0.00     0.261 C 
BRANCH  34  35
ATOM     35  O   UNL A   1      43.933  24.578  24.586  1.00  0.00    -0.460 OA
BRANCH  35  36
ATOM     36  C   UNL A   1      44.636  25.538  25.256  1.00  0.00     0.338 C 
ATOM     37  O   UNL A   1      45.741  25.942  24.969  1.00  0.00    -0.246 OA
BRANCH  36  38
ATOM     38  C   UNL A   1      43.744  26.221  26.250  1.00  0.00     0.060 A 
ATOM     39  C   UNL A   1      43.905  27.603  26.468  1.00  0.00     0.016 A 
ATOM     40  C   UNL A   1      42.775  25.524  26.972  1.00  0.00     0.016 A 
ATOM     41  C   UNL A   1      43.129  28.281  27.414  1.00  0.00     0.010 A 
ATOM     42  C   UNL A   1      42.032  26.194  27.961  1.00  0.00     0.010 A 
ATOM     43  C   UNL A   1      42.233  27.566  28.215  1.00  0.00    -0.014 A 
BRANCH  43  44
ATOM     44  C   UNL A   1      41.759  28.166  29.496  1.00  0.00     0.031 A 
ATOM     45  C   UNL A   1      40.477  28.961  29.452  1.00  0.00     0.074 A 
ATOM     46  C   UNL A   1      42.399  28.003  30.668  1.00  0.00     0.049 A 
ATOM     47  N   UNL A   1      39.900  29.675  30.383  1.00  0.00    -0.248 NA
ATOM     48  C   UNL A   1      39.761  28.952  28.167  1.00  0.00     0.031 C 
ATOM     49  C   UNL A   1      43.600  27.198  30.873  1.00  0.00     0.029 A 
ATOM     50  N   UNL A   1      42.124  28.518  31.913  1.00  0.00    -0.354 N 
ATOM     51  C   UNL A   1      38.762  30.217  29.791  1.00  0.00     0.074 A 
ATOM     52  C   UNL A   1      38.754  29.773  28.414  1.00  0.00     0.031 C 
ATOM     53  C   UNL A   1      43.959  27.275  32.168  1.00  0.00     0.029 A 
ATOM     54  C   UNL A   1      43.051  28.180  32.873  1.00  0.00     0.049 A 
ATOM     55  H   UNL A   1      41.336  29.078  32.101  1.00  0.00     0.167 HD
ATOM     56  C   UNL A   1      37.810  31.012  30.341  1.00  0.00     0.034 A 
ATOM     57  C   UNL A   1      43.172  28.585  34.157  1.00  0.00     0.034 A 
ATOM     58  C   UNL A   1      37.839  31.466  31.709  1.00  0.00     0.049 A 
ATOM     59  C   UNL A   1      42.168  29.569  34.721  1.00  0.00     0.074 A 
ATOM     60  C   UNL A   1      36.934  32.281  32.366  1.00  0.00     0.029 A 
ATOM     61  N   UNL A   1      38.834  31.158  32.628  1.00  0.00    -0.354 N 
ATOM     62  N   UNL A   1      41.114  30.102  34.144  1.00  0.00    -0.248 NA
ATOM     63  C   UNL A   1      42.377  30.014  36.106  1.00  0.00     0.031 C 
ATOM     64  C   UNL A   1      37.424  32.535  33.650  1.00  0.00     0.029 A 
ATOM     65  C   UNL A   1      38.585  31.800  33.833  1.00  0.00     0.049 A 
ATOM     66  H   UNL A   1      39.603  30.570  32.451  1.00  0.00     0.167 HD
ATOM     67  C   UNL A   1      40.518  30.914  35.109  1.00  0.00     0.074 A 
ATOM     68  C   UNL A   1      41.325  30.794  36.306  1.00  0.00     0.031 C 
ATOM     69  C   UNL A   1      39.402  31.685  35.019  1.00  0.00     0.034 A 
BRANCH  56  70
ATOM     70  C   UNL A   1      36.707  31.494  29.427  1.00  0.00     0.023 A 
ATOM     71  C   UNL A   1      35.681  30.640  28.984  1.00  0.00     0.031 A 
ATOM     72  C   UNL A   1      36.719  32.813  28.938  1.00  0.00     0.131 A 
ATOM     73  C   UNL A   1      34.771  31.085  28.013  1.00  0.00     0.055 A 
ATOM     74  C   UNL A   1      35.751  33.278  28.046  1.00  0.00     0.041 A 
ATOM     75  F   UNL A   1      37.688  33.669  29.301  1.00  0.00    -0.206 F 
ATOM     76  C   UNL A   1      34.781  32.406  27.561  1.00  0.00     0.022 A 
BRANCH  73  77
ATOM     77  S   UNL A   1      33.697  29.861  27.213  1.00  0.00     0.124 S 
ATOM     78  O   UNL A   1      34.174  29.909  25.833  1.00  0.00    -0.237 OA
ATOM     79  O   UNL A   1      34.001  28.642  27.953  1.00  0.00    -0.237 OA
ATOM     80  O   UNL A   1      32.354  30.399  27.417  1.00  0.00    -0.744 OA
ENDBRANCH  73  77
ENDBRANCH  56  70
BRANCH  57  81
ATOM     81  C   UNL A   1      44.317  28.119  34.999  1.00  0.00     0.023 A 
ATOM     82  C   UNL A   1      44.139  27.159  36.010  1.00  0.00     0.031 A 
ATOM     83  C   UNL A   1      45.599  28.679  34.848  1.00  0.00     0.131 A 
ATOM     84  C   UNL A   1      45.211  26.818  36.851  1.00  0.00     0.055 A 
ATOM     85  C   UNL A   1      46.676  28.292  35.648  1.00  0.00     0.041 A 
ATOM     86  F   UNL A   1      45.827  29.614  33.911  1.00  0.00    -0.206 F 
ATOM     87  C   UNL A   1      46.483  27.364  36.664  1.00  0.00     0.022 A 
BRANCH  84  88
ATOM     88  S   UNL A   1      44.903  25.710  38.256  1.00  0.00     0.124 S 
ATOM     89  O   UNL A   1      44.536  24.470  37.581  1.00  0.00    -0.237 OA
ATOM     90  O   UNL A   1      46.193  25.716  38.936  1.00  0.00    -0.237 OA
ATOM     91  O   UNL A   1      43.818  26.371  38.979  1.00  0.00    -0.744 OA
ENDBRANCH  84  88
ENDBRANCH  57  81
BRANCH  69  92
ATOM     92  C   UNL A   1      38.957  32.419  36.264  1.00  0.00     0.023 A 
ATOM     93  C   UNL A   1      38.195  31.796  37.268  1.00  0.00     0.031 A 
ATOM     94  C   UNL A   1      39.305  33.771  36.448  1.00  0.00     0.131 A 
ATOM     95  C   UNL A   1      37.760  32.535  38.379  1.00  0.00     0.055 A 
ATOM     96  C   UNL A   1      38.927  34.483  37.588  1.00  0.00     0.041 A 
ATOM     97  F   UNL A   1      40.027  34.423  35.523  1.00  0.00    -0.206 F 
ATOM     98  C   UNL A   1      38.139  33.869  38.556  1.00  0.00     0.022 A 
BRANCH  95  99
ATOM     99  S   UNL A   1      36.605  31.763  39.545  1.00  0.00     0.124 S 
ATOM    100  O   UNL A   1      37.456  31.533  40.708  1.00  0.00    -0.237 OA
ATOM    101  O   UNL A   1      35.580  32.790  39.699  1.00  0.00    -0.237 OA
ATOM    102  O   UNL A   1      36.170  30.554  38.848  1.00  0.00    -0.744 OA
ENDBRANCH  95  99
ENDBRANCH  69  92
ENDBRANCH  43  44
ENDBRANCH  36  38
ENDBRANCH  35  36
ENDBRANCH  34  35
ENDBRANCH  33  34
ENDBRANCH  32  33
ENDBRANCH  31  32
ENDBRANCH   1  31
TORSDOF 26
ENDMDL
MODEL 2
REMARK VINA RESULT:      -9.5      4.468      9.431
REMARK SMILES CC[C@@H](C(=O)Nc1ccc(OC(C)=O)cc1C(=O)OCCOCCOCCOC(=O)c1ccc(-c2c3nc(c(-c4cc(S(=O)(=O)[O-])ccc4F)c4ccc([nH]4)c(-c4cc(S(=O)(=O)[O-])ccc4F)c4nc(c(-c5cc(S(=O)(=O)[O-])ccc5F)c5ccc2[nH]5)C=C4)C=C3)cc1)c1ccccc1
REMARK SMILES IDX 23 1 22 2 21 3 20 4 19 5 17 6 18 7 16 8 7 9 8 10 9 11 15 12
REMARK SMILES IDX 10 13 6 14 4 15 5 16 3 18 2 19 1 20 94 21 95 22 99 23 96 24
REMARK SMILES IDX 98 25 97 26 11 27 12 28 13 29 14 30 24 31 25 32 26 33 27 34
REMARK SMILES IDX 28 35 29 36 30 37 31 38 32 39 93 40 33 41 92 42 34 43 35 44
REMARK SMILES IDX 36 45 86 46 37 47 91 48 85 49 87 50 38 51 90 52 84 53 83 54
REMARK SMILES IDX 39 56 71 57 51 58 70 59 52 60 55 61 69 62 88 63 53 64 54 65
REMARK SMILES IDX 68 67 89 68 56 69 40 70 41 71 49 72 42 73 48 74 50 75 47 76
REMARK SMILES IDX 43 77 44 78 45 79 46 80 72 81 73 82 81 83 74 84 80 85 82 86
REMARK SMILES IDX 79 87 75 88 76 89 77 90 78 91 57 92 58 93 66 94 59 95 65 96
REMARK SMILES IDX 67 97 64 98 60 99 61 100 62 101 63 102
REMARK H PARENT 6 17 87 55 55 66
REMARK Flexibility Score: inf
ROOT
ATOM      1  C   UNL A   1      41.857  23.704  28.413  1.00  0.00     0.188 C 
ENDROOT
BRANCH   1   2
ATOM      2  O   UNL A   1      41.281  24.841  27.791  1.00  0.00    -0.376 OA
BRANCH   2   3
ATOM      3  C   UNL A   1      40.177  25.408  28.472  1.00  0.00     0.202 C 
BRANCH   3   4
ATOM      4  C   UNL A   1      40.363  26.863  28.900  1.00  0.00     0.261 C 
BRANCH   4   5
ATOM      5  O   UNL A   1      39.194  27.664  29.158  1.00  0.00    -0.460 OA
BRANCH   5   6
ATOM      6  C   UNL A   1      39.159  28.952  28.780  1.00  0.00     0.340 C 
ATOM      7  O   UNL A   1      39.878  29.506  27.965  1.00  0.00    -0.246 OA
BRANCH   6   8
ATOM      8  C   UNL A   1      38.042  29.662  29.428  1.00  0.00     0.087 A 
ATOM      9  C   UNL A   1      37.867  29.752  30.816  1.00  0.00     0.056 A 
ATOM     10  C   UNL A   1      36.767  30.466  31.316  1.00  0.00     0.031 A 
ATOM     11  C   UNL A   1      35.987  31.247  30.460  1.00  0.00     0.049 A 
ATOM     12  C   UNL A   1      37.196  30.371  28.564  1.00  0.00     0.065 A 
ATOM     13  C   UNL A   1      36.255  31.239  29.094  1.00  0.00     0.131 A 
BRANCH   9  14
ATOM     14  N   UNL A   1      38.702  29.179  31.783  1.00  0.00    -0.325 N 
ATOM     15  C   UNL A   1      39.897  29.603  32.284  1.00  0.00     0.231 C 
ATOM     16  O   UNL A   1      40.778  28.730  32.300  1.00  0.00    -0.274 OA
ATOM     17  H   UNL A   1      38.372  28.332  32.165  1.00  0.00     0.169 HD
BRANCH  15  18
ATOM     18  C   UNL A   1      40.034  30.945  33.114  1.00  0.00     0.108 C 
BRANCH  18  19
ATOM     19  C   UNL A   1      39.382  31.230  34.487  1.00  0.00     0.015 C 
ATOM     20  C   UNL A   1      38.224  30.389  34.995  1.00  0.00     0.005 C 
ENDBRANCH  18  19
BRANCH  18  21
ATOM     21  C   UNL A   1      39.669  32.116  32.157  1.00  0.00    -0.036 A 
ATOM     22  C   UNL A   1      40.211  32.254  30.864  1.00  0.00     0.004 A 
ATOM     23  C   UNL A   1      38.846  33.146  32.637  1.00  0.00     0.004 A 
ATOM     24  C   UNL A   1      39.964  33.392  30.095  1.00  0.00     0.000 A 
ATOM     25  C   UNL A   1      38.610  34.291  31.872  1.00  0.00     0.000 A 
ATOM     26  C   UNL A   1      39.172  34.414  30.604  1.00  0.00     0.000 A 
ENDBRANCH  18  21
ENDBRANCH  15  18
ENDBRANCH   9  14
BRANCH  13  27
ATOM     27  O   UNL A   1      35.524  32.136  28.290  1.00  0.00    -0.427 OA
BRANCH  27  28
ATOM     28  C   UNL A   1      34.233  31.880  27.807  1.00  0.00     0.308 C 
ATOM     29  C   UNL A   1      33.936  30.470  27.379  1.00  0.00     0.139 C 
ATOM     30  O   UNL A   1      33.375  32.755  27.828  1.00  0.00    -0.252 OA
ENDBRANCH  27  28
ENDBRANCH  13  27
ENDBRANCH   6   8
ENDBRANCH   5   6
ENDBRANCH   4   5
ENDBRANCH   3   4
ENDBRANCH   2   3
ENDBRANCH   1   2
BRANCH   1  31
ATOM     31  C   UNL A   1      41.188  22.363  28.033  1.00  0.00     0.188 C 
BRANCH  31  32
ATOM     32  O   UNL A   1      41.944  21.327  27.433  1.00  0.00    -0.376 OA
BRANCH  32  33
ATOM     33  C   UNL A   1      42.151  21.380  26.034  1.00  0.00     0.202 C 
BRANCH  33  34
ATOM     34  C   UNL A   1      43.409  22.069  25.461  1.00  0.00     0.261 C 
BRANCH  34  35
ATOM     35  O   UNL A   1      43.314  23.467  25.115  1.00  0.00    -0.460 OA
BRANCH  35  36
ATOM     36  C   UNL A   1      44.488  24.142  24.947  1.00  0.00     0.338 C 
ATOM     37  O   UNL A   1      45.359  23.868  24.152  1.00  0.00    -0.246 OA
BRANCH  36  38
ATOM     38  C   UNL A   1      44.445  25.436  25.705  1.00  0.00     0.060 A 
ATOM     39  C   UNL A   1      45.611  25.876  26.361  1.00  0.00     0.016 A 
ATOM     40  C   UNL A   1      43.283  26.202  25.791  1.00  0.00     0.016 A 
ATOM     41  C   UNL A   1      45.615  27.054  27.117  1.00  0.00     0.010 A 
ATOM     42  C   UNL A   1      43.271  27.356  26.595  1.00  0.00     0.010 A 
ATOM     43  C   UNL A   1      44.425  27.766  27.294  1.00  0.00    -0.014 A 
BRANCH  43  44
ATOM     44  C   UNL A   1      44.309  28.723  28.432  1.00  0.00     0.031 A 
ATOM     45  C   UNL A   1      44.219  28.136  29.819  1.00  0.00     0.074 A 
ATOM     46  C   UNL A   1      44.311  30.060  28.275  1.00  0.00     0.049 A 
ATOM     47  N   UNL A   1      44.003  28.725  30.967  1.00  0.00    -0.248 NA
ATOM     48  C   UNL A   1      44.386  26.678  29.911  1.00  0.00     0.031 C 
ATOM     49  C   UNL A   1      44.471  30.763  27.006  1.00  0.00     0.029 A 
ATOM     50  N   UNL A   1      44.170  31.066  29.202  1.00  0.00    -0.354 N 
ATOM     51  C   UNL A   1      43.988  27.706  31.916  1.00  0.00     0.074 A 
ATOM     52  C   UNL A   1      44.183  26.463  31.200  1.00  0.00     0.031 C 
ATOM     53  C   UNL A   1      44.416  32.090  27.234  1.00  0.00     0.029 A 
ATOM     54  C   UNL A   1      44.159  32.329  28.655  1.00  0.00     0.049 A 
ATOM     55  H   UNL A   1      44.084  30.899  30.168  1.00  0.00     0.167 HD
ATOM     56  C   UNL A   1      43.826  27.793  33.260  1.00  0.00     0.034 A 
ATOM     57  C   UNL A   1      43.931  33.532  29.228  1.00  0.00     0.034 A 
ATOM     58  C   UNL A   1      43.610  29.034  33.961  1.00  0.00     0.049 A 
ATOM     59  C   UNL A   1      43.631  33.600  30.711  1.00  0.00     0.074 A 
ATOM     60  C   UNL A   1      43.424  29.237  35.317  1.00  0.00     0.029 A 
ATOM     61  N   UNL A   1      43.536  30.284  33.360  1.00  0.00    -0.354 N 
ATOM     62  N   UNL A   1      43.587  32.628  31.595  1.00  0.00    -0.248 NA
ATOM     63  C   UNL A   1      43.340  34.928  31.271  1.00  0.00     0.031 C 
ATOM     64  C   UNL A   1      43.151  30.592  35.525  1.00  0.00     0.029 A 
ATOM     65  C   UNL A   1      43.266  31.256  34.313  1.00  0.00     0.049 A 
ATOM     66  H   UNL A   1      43.657  30.456  32.398  1.00  0.00     0.167 HD
ATOM     67  C   UNL A   1      43.299  33.235  32.818  1.00  0.00     0.074 A 
ATOM     68  C   UNL A   1      43.189  34.655  32.559  1.00  0.00     0.031 C 
ATOM     69  C   UNL A   1      43.145  32.671  34.045  1.00  0.00     0.034 A 
BRANCH  56  70
ATOM     70  C   UNL A   1      43.801  26.495  34.034  1.00  0.00     0.023 A 
ATOM     71  C   UNL A   1      44.961  25.725  34.232  1.00  0.00     0.031 A 
ATOM     72  C   UNL A   1      42.585  25.987  34.526  1.00  0.00     0.131 A 
ATOM     73  C   UNL A   1      44.864  24.452  34.816  1.00  0.00     0.055 A 
ATOM     74  C   UNL A   1      42.512  24.763  35.194  1.00  0.00     0.041 A 
ATOM     75  F   UNL A   1      41.438  26.662  34.344  1.00  0.00    -0.206 F 
ATOM     76  C   UNL A   1      43.653  23.978  35.323  1.00  0.00     0.022 A 
BRANCH  73  77
ATOM     77  S   UNL A   1      46.305  23.352  34.732  1.00  0.00     0.124 S 
ATOM     78  O   UNL A   1      47.245  24.157  33.955  1.00  0.00    -0.237 OA
ATOM     79  O   UNL A   1      46.638  23.161  36.139  1.00  0.00    -0.237 OA
ATOM     80  O   UNL A   1      45.793  22.170  34.043  1.00  0.00    -0.744 OA
ENDBRANCH  73  77
ENDBRANCH  56  70
BRANCH  57  81
ATOM     81  C   UNL A   1      43.912  34.779  28.403  1.00  0.00     0.023 A 
ATOM     82  C   UNL A   1      45.098  35.459  28.076  1.00  0.00     0.031 A 
ATOM     83  C   UNL A   1      42.695  35.347  27.982  1.00  0.00     0.131 A 
ATOM     84  C   UNL A   1      45.039  36.682  27.388  1.00  0.00     0.055 A 
ATOM     85  C   UNL A   1      42.646  36.533  27.246  1.00  0.00     0.041 A 
ATOM     86  F   UNL A   1      41.528  34.753  28.278  1.00  0.00    -0.206 F 
ATOM     87  C   UNL A   1      43.822  37.214  26.954  1.00  0.00     0.022 A 
BRANCH  84  88
ATOM     88  S   UNL A   1      46.572  37.621  27.140  1.00  0.00     0.124 S 
ATOM     89  O   UNL A   1      47.421  37.089  28.200  1.00  0.00    -0.237 OA
ATOM     90  O   UNL A   1      46.938  37.252  25.777  1.00  0.00    -0.237 OA
ATOM     91  O   UNL A   1      46.153  39.010  27.315  1.00  0.00    -0.744 OA
ENDBRANCH  84  88
ENDBRANCH  57  81
BRANCH  69  92
ATOM     92  C   UNL A   1      42.894  33.598  35.213  1.00  0.00     0.023 A 
ATOM     93  C   UNL A   1      41.596  33.909  35.657  1.00  0.00     0.031 A 
ATOM     94  C   UNL A   1      43.978  34.179  35.898  1.00  0.00     0.131 A 
ATOM     95  C   UNL A   1      41.414  34.818  36.711  1.00  0.00     0.055 A 
ATOM     96  C   UNL A   1      43.793  35.029  36.990  1.00  0.00     0.041 A 
ATOM     97  F   UNL A   1      45.241  33.924  35.520  1.00  0.00    -0.206 F 
ATOM     98  C   UNL A   1      42.505  35.363  37.394  1.00  0.00     0.022 A 
BRANCH  95  99
ATOM     99  S   UNL A   1      39.731  35.360  37.116  1.00  0.00     0.124 S 
ATOM    100  O   UNL A   1      39.841  36.810  36.990  1.00  0.00    -0.237 OA
ATOM    101  O   UNL A   1      38.931  34.690  36.096  1.00  0.00    -0.237 OA
ATOM    102  O   UNL A   1      39.532  34.872  38.480  1.00  0.00    -0.744 OA
ENDBRANCH  95  99
ENDBRANCH  69  92
ENDBRANCH  43  44
ENDBRANCH  36  38
ENDBRANCH  35  36
ENDBRANCH  34  35
ENDBRANCH  33  34
ENDBRANCH  32  33
ENDBRANCH  31  32
ENDBRANCH   1  31
TORSDOF 26
ENDMDL
MODEL 3
REMARK VINA RESULT:      -9.4      7.299     10.420
REMARK SMILES CC[C@@H](C(=O)Nc1ccc(OC(C)=O)cc1C(=O)OCCOCCOCCOC(=O)c1ccc(-c2c3nc(c(-c4cc(S(=O)(=O)[O-])ccc4F)c4ccc([nH]4)c(-c4cc(S(=O)(=O)[O-])ccc4F)c4nc(c(-c5cc(S(=O)(=O)[O-])ccc5F)c5ccc2[nH]5)C=C4)C=C3)cc1)c1ccccc1
REMARK SMILES IDX 23 1 22 2 21 3 20 4 19 5 17 6 18 7 16 8 7 9 8 10 9 11 15 12
REMARK SMILES IDX 10 13 6 14 4 15 5 16 3 18 2 19 1 20 94 21 95 22 99 23 96 24
REMARK SMILES IDX 98 25 97 26 11 27 12 28 13 29 14 30 24 31 25 32 26 33 27 34
REMARK SMILES IDX 28 35 29 36 30 37 31 38 32 39 93 40 33 41 92 42 34 43 35 44
REMARK SMILES IDX 36 45 86 46 37 47 91 48 85 49 87 50 38 51 90 52 84 53 83 54
REMARK SMILES IDX 39 56 71 57 51 58 70 59 52 60 55 61 69 62 88 63 53 64 54 65
REMARK SMILES IDX 68 67 89 68 56 69 40 70 41 71 49 72 42 73 48 74 50 75 47 76
REMARK SMILES IDX 43 77 44 78 45 79 46 80 72 81 73 82 81 83 74 84 80 85 82 86
REMARK SMILES IDX 79 87 75 88 76 89 77 90 78 91 57 92 58 93 66 94 59 95 65 96
REMARK SMILES IDX 67 97 64 98 60 99 61 100 62 101 63 102
REMARK H PARENT 6 17 87 55 55 66
REMARK Flexibility Score: inf
ROOT
ATOM      1  C   UNL A   1      36.195  21.087  25.331  1.00  0.00     0.188 C 
ENDROOT
BRANCH   1   2
ATOM      2  O   UNL A   1      35.343  21.747  26.253  1.00  0.00    -0.376 OA
BRANCH   2   3
ATOM      3  C   UNL A   1      35.615  23.123  26.446  1.00  0.00     0.202 C 
BRANCH   3   4
ATOM      4  C   UNL A   1      34.378  24.018  26.524  1.00  0.00     0.261 C 
BRANCH   4   5
ATOM      5  O   UNL A   1      33.233  23.554  27.265  1.00  0.00    -0.460 OA
BRANCH   5   6
ATOM      6  C   UNL A   1      32.026  23.494  26.678  1.00  0.00     0.340 C 
ATOM      7  O   UNL A   1      30.988  24.005  27.064  1.00  0.00    -0.246 OA
BRANCH   6   8
ATOM      8  C   UNL A   1      32.097  22.770  25.398  1.00  0.00     0.087 A 
ATOM      9  C   UNL A   1      32.489  23.355  24.185  1.00  0.00     0.056 A 
ATOM     10  C   UNL A   1      32.528  22.558  23.030  1.00  0.00     0.031 A 
ATOM     11  C   UNL A   1      32.387  21.172  23.125  1.00  0.00     0.049 A 
ATOM     12  C   UNL A   1      31.861  21.390  25.470  1.00  0.00     0.065 A 
ATOM     13  C   UNL A   1      32.118  20.596  24.364  1.00  0.00     0.131 A 
BRANCH   9  14
ATOM     14  N   UNL A   1      32.852  24.695  24.004  1.00  0.00    -0.325 N 
ATOM     15  C   UNL A   1      32.153  25.736  23.469  1.00  0.00     0.231 C 
ATOM     16  O   UNL A   1      32.781  26.386  22.620  1.00  0.00    -0.274 OA
ATOM     17  H   UNL A   1      33.758  24.923  24.315  1.00  0.00     0.169 HD
BRANCH  15  18
ATOM     18  C   UNL A   1      30.829  26.295  24.138  1.00  0.00     0.108 C 
BRANCH  18  19
ATOM     19  C   UNL A   1      29.571  26.783  23.384  1.00  0.00     0.015 C 
ATOM     20  C   UNL A   1      28.198  26.731  24.032  1.00  0.00     0.005 C 
ENDBRANCH  18  19
BRANCH  18  21
ATOM     21  C   UNL A   1      31.255  27.412  25.133  1.00  0.00    -0.036 A 
ATOM     22  C   UNL A   1      31.401  27.197  26.518  1.00  0.00     0.004 A 
ATOM     23  C   UNL A   1      31.395  28.724  24.654  1.00  0.00     0.004 A 
ATOM     24  C   UNL A   1      31.646  28.258  27.392  1.00  0.00     0.000 A 
ATOM     25  C   UNL A   1      31.627  29.786  25.531  1.00  0.00     0.000 A 
ATOM     26  C   UNL A   1      31.749  29.553  26.898  1.00  0.00     0.000 A 
ENDBRANCH  18  21
ENDBRANCH  15  18
ENDBRANCH   9  14
BRANCH  13  27
ATOM     27  O   UNL A   1      32.109  19.190  24.431  1.00  0.00    -0.427 OA
BRANCH  27  28
ATOM     28  C   UNL A   1      32.876  18.362  23.598  1.00  0.00     0.308 C 
ATOM     29  C   UNL A   1      32.312  18.058  22.238  1.00  0.00     0.139 C 
ATOM     30  O   UNL A   1      33.991  17.990  23.945  1.00  0.00    -0.252 OA
ENDBRANCH  27  28
ENDBRANCH  13  27
ENDBRANCH   6   8
ENDBRANCH   5   6
ENDBRANCH   4   5
ENDBRANCH   3   4
ENDBRANCH   2   3
ENDBRANCH   1   2
BRANCH   1  31
ATOM     31  C   UNL A   1      37.488  21.862  24.990  1.00  0.00     0.188 C 
BRANCH  31  32
ATOM     32  O   UNL A   1      38.729  21.477  25.553  1.00  0.00    -0.376 OA
BRANCH  32  33
ATOM     33  C   UNL A   1      39.368  22.382  26.433  1.00  0.00     0.202 C 
BRANCH  33  34
ATOM     34  C   UNL A   1      40.889  22.278  26.684  1.00  0.00     0.261 C 
BRANCH  34  35
ATOM     35  O   UNL A   1      41.713  23.402  26.306  1.00  0.00    -0.460 OA
BRANCH  35  36
ATOM     36  C   UNL A   1      43.062  23.196  26.281  1.00  0.00     0.338 C 
ATOM     37  O   UNL A   1      43.618  22.156  26.007  1.00  0.00    -0.246 OA
BRANCH  36  38
ATOM     38  C   UNL A   1      43.779  24.509  26.384  1.00  0.00     0.060 A 
ATOM     39  C   UNL A   1      44.086  25.208  25.201  1.00  0.00     0.016 A 
ATOM     40  C   UNL A   1      44.163  25.046  27.613  1.00  0.00     0.016 A 
ATOM     41  C   UNL A   1      44.791  26.417  25.236  1.00  0.00     0.010 A 
ATOM     42  C   UNL A   1      44.918  26.232  27.646  1.00  0.00     0.010 A 
ATOM     43  C   UNL A   1      45.270  26.902  26.456  1.00  0.00    -0.014 A 
BRANCH  43  44
ATOM     44  C   UNL A   1      46.379  27.899  26.461  1.00  0.00     0.031 A 
ATOM     45  C   UNL A   1      45.997  29.355  26.560  1.00  0.00     0.074 A 
ATOM     46  C   UNL A   1      47.680  27.556  26.411  1.00  0.00     0.049 A 
ATOM     47  N   UNL A   1      46.743  30.427  26.476  1.00  0.00    -0.248 NA
ATOM     48  C   UNL A   1      44.568  29.630  26.773  1.00  0.00     0.031 C 
ATOM     49  C   UNL A   1      48.195  26.190  26.393  1.00  0.00     0.029 A 
ATOM     50  N   UNL A   1      48.808  28.341  26.363  1.00  0.00    -0.354 N 
ATOM     51  C   UNL A   1      45.870  31.504  26.605  1.00  0.00     0.074 A 
ATOM     52  C   UNL A   1      44.539  30.952  26.739  1.00  0.00     0.031 C 
ATOM     53  C   UNL A   1      49.540  26.233  26.335  1.00  0.00     0.029 A 
ATOM     54  C   UNL A   1      49.979  27.627  26.252  1.00  0.00     0.049 A 
ATOM     55  H   UNL A   1      48.780  29.325  26.403  1.00  0.00     0.167 HD
ATOM     56  C   UNL A   1      46.148  32.832  26.611  1.00  0.00     0.034 A 
ATOM     57  C   UNL A   1      51.250  28.049  26.068  1.00  0.00     0.034 A 
ATOM     58  C   UNL A   1      47.476  33.372  26.454  1.00  0.00     0.049 A 
ATOM     59  C   UNL A   1      51.528  29.534  25.956  1.00  0.00     0.074 A 
ATOM     60  C   UNL A   1      47.869  34.698  26.434  1.00  0.00     0.029 A 
ATOM     61  N   UNL A   1      48.626  32.615  26.275  1.00  0.00    -0.354 N 
ATOM     62  N   UNL A   1      50.693  30.544  26.047  1.00  0.00    -0.248 NA
ATOM     63  C   UNL A   1      52.921  29.933  25.705  1.00  0.00     0.031 C 
ATOM     64  C   UNL A   1      49.239  34.746  26.157  1.00  0.00     0.029 A 
ATOM     65  C   UNL A   1      49.723  33.447  26.103  1.00  0.00     0.049 A 
ATOM     66  H   UNL A   1      48.659  31.631  26.270  1.00  0.00     0.167 HD
ATOM     67  C   UNL A   1      51.467  31.696  25.899  1.00  0.00     0.074 A 
ATOM     68  C   UNL A   1      52.835  31.254  25.724  1.00  0.00     0.031 C 
ATOM     69  C   UNL A   1      51.083  33.000  25.915  1.00  0.00     0.034 A 
BRANCH  56  70
ATOM     70  C   UNL A   1      44.975  33.778  26.715  1.00  0.00     0.023 A 
ATOM     71  C   UNL A   1      44.535  34.286  27.950  1.00  0.00     0.031 A 
ATOM     72  C   UNL A   1      44.242  34.127  25.565  1.00  0.00     0.131 A 
ATOM     73  C   UNL A   1      43.348  35.031  28.019  1.00  0.00     0.055 A 
ATOM     74  C   UNL A   1      43.117  34.951  25.629  1.00  0.00     0.041 A 
ATOM     75  F   UNL A   1      44.594  33.652  24.360  1.00  0.00    -0.206 F 
ATOM     76  C   UNL A   1      42.651  35.391  26.864  1.00  0.00     0.022 A 
BRANCH  73  77
ATOM     77  S   UNL A   1      42.629  35.361  29.652  1.00  0.00     0.124 S 
ATOM     78  O   UNL A   1      43.036  36.746  29.877  1.00  0.00    -0.237 OA
ATOM     79  O   UNL A   1      41.206  35.142  29.419  1.00  0.00    -0.237 OA
ATOM     80  O   UNL A   1      43.280  34.381  30.518  1.00  0.00    -0.744 OA
ENDBRANCH  73  77
ENDBRANCH  56  70
BRANCH  57  81
ATOM     81  C   UNL A   1      52.366  27.065  25.916  1.00  0.00     0.023 A 
ATOM     82  C   UNL A   1      53.235  26.773  26.981  1.00  0.00     0.031 A 
ATOM     83  C   UNL A   1      52.620  26.449  24.676  1.00  0.00     0.131 A 
ATOM     84  C   UNL A   1      54.335  25.923  26.777  1.00  0.00     0.055 A 
ATOM     85  C   UNL A   1      53.680  25.557  24.495  1.00  0.00     0.041 A 
ATOM     86  F   UNL A   1      51.834  26.701  23.617  1.00  0.00    -0.206 F 
ATOM     87  C   UNL A   1      54.552  25.299  25.546  1.00  0.00     0.022 A 
BRANCH  84  88
ATOM     88  S   UNL A   1      55.537  25.709  28.120  1.00  0.00     0.124 S 
ATOM     89  O   UNL A   1      54.692  25.855  29.300  1.00  0.00    -0.237 OA
ATOM     90  O   UNL A   1      56.051  24.369  27.858  1.00  0.00    -0.237 OA
ATOM     91  O   UNL A   1      56.492  26.793  27.899  1.00  0.00    -0.744 OA
ENDBRANCH  84  88
ENDBRANCH  57  81
BRANCH  69  92
ATOM     92  C   UNL A   1      52.167  34.048  25.789  1.00  0.00     0.023 A 
ATOM     93  C   UNL A   1      52.797  34.612  26.913  1.00  0.00     0.031 A 
ATOM     94  C   UNL A   1      52.577  34.489  24.517  1.00  0.00     0.131 A 
ATOM     95  C   UNL A   1      53.758  35.621  26.746  1.00  0.00     0.055 A 
ATOM     96  C   UNL A   1      53.583  35.444  24.355  1.00  0.00     0.041 A 
ATOM     97  F   UNL A   1      52.011  33.992  23.406  1.00  0.00    -0.206 F 
ATOM     98  C   UNL A   1      54.170  36.025  25.473  1.00  0.00     0.022 A 
BRANCH  95  99
ATOM     99  S   UNL A   1      54.394  36.474  28.215  1.00  0.00     0.124 S 
ATOM    100  O   UNL A   1      55.171  35.423  28.864  1.00  0.00    -0.237 OA
ATOM    101  O   UNL A   1      55.163  37.569  27.634  1.00  0.00    -0.237 OA
ATOM    102  O   UNL A   1      53.184  36.878  28.928  1.00  0.00    -0.744 OA
ENDBRANCH  95  99
ENDBRANCH  69  92
ENDBRANCH  43  44
ENDBRANCH  36  38
ENDBRANCH  35  36
ENDBRANCH  34  35
ENDBRANCH  33  34
ENDBRANCH  32  33
ENDBRANCH  31  32
ENDBRANCH   1  31
TORSDOF 26
ENDMDL
