MODEL 1
REMARK VINA RESULT:     -11.3      0.000      0.000
REMARK SMILES Cc1cc(C(=O)OCCOCCOCCOC(=O)c2ccc(-c3c4nc(c(-c5cc(S(=O)(=O)[O-])ccc5F)c5ccc([nH]5)c(-c5cc(S(=O)(=O)[O-])ccc5F)c5nc(c(-c6cc(S(=O)(=O)[O-])ccc6F)c6ccc3[nH]6)C=C5)C=C4)cc2)nn1[C@H]1CCS(=O)(=O)C1
REMARK SMILES IDX 12 1 11 2 10 3 9 4 8 5 7 6 5 7 6 8 4 9 1 10 2 11 3 12 83 13
REMARK SMILES IDX 82 14 84 15 85 16 90 17 86 18 87 19 88 20 89 21 13 22 14 23
REMARK SMILES IDX 15 24 16 25 17 26 18 27 19 28 20 29 81 30 21 31 80 32 22 33
REMARK SMILES IDX 23 34 24 35 74 36 25 37 79 38 73 39 75 40 26 41 78 42 72 43
REMARK SMILES IDX 71 44 27 46 59 47 39 48 58 49 40 50 43 51 57 52 76 53 41 54
REMARK SMILES IDX 42 55 56 57 77 58 44 59 28 60 29 61 37 62 30 63 36 64 38 65
REMARK SMILES IDX 35 66 31 67 32 68 33 69 34 70 60 71 61 72 69 73 62 74 68 75
REMARK SMILES IDX 70 76 67 77 63 78 64 79 65 80 66 81 45 82 46 83 54 84 47 85
REMARK SMILES IDX 53 86 55 87 52 88 48 89 49 90 50 91 51 92
REMARK H PARENT 75 45 43 56
REMARK Flexibility Score: inf
ROOT
ATOM      1  C   UNL A   1      34.167  29.805  27.033  1.00  0.00     0.188 C 
ENDROOT
BRANCH   1   2
ATOM      2  C   UNL A   1      33.084  29.160  26.140  1.00  0.00     0.188 C 
BRANCH   2   3
ATOM      3  O   UNL A   1      33.279  29.023  24.737  1.00  0.00    -0.376 OA
BRANCH   3   4
ATOM      4  C   UNL A   1      32.173  28.860  23.861  1.00  0.00     0.202 C 
BRANCH   4   5
ATOM      5  C   UNL A   1      32.266  27.962  22.610  1.00  0.00     0.261 C 
BRANCH   5   6
ATOM      6  O   UNL A   1      33.471  27.199  22.460  1.00  0.00    -0.458 OA
BRANCH   6   7
ATOM      7  C   UNL A   1      33.323  25.914  22.017  1.00  0.00     0.358 C 
ATOM      8  O   UNL A   1      33.278  25.598  20.831  1.00  0.00    -0.244 OA
BRANCH   7   9
ATOM      9  C   UNL A   1      33.323  24.939  23.123  1.00  0.00     0.170 A 
ATOM     10  C   UNL A   1      33.312  23.706  26.594  1.00  0.00     0.066 C 
ATOM     11  C   UNL A   1      33.374  23.945  25.130  1.00  0.00     0.037 A 
ATOM     12  C   UNL A   1      33.486  25.177  24.506  1.00  0.00     0.061 A 
ATOM     13  N   UNL A   1      33.323  23.025  24.108  1.00  0.00    -0.265 N 
ATOM     14  N   UNL A   1      33.212  23.619  22.899  1.00  0.00    -0.165 NA
BRANCH  13  15
ATOM     15  C   UNL A   1      33.345  21.573  24.065  1.00  0.00     0.123 C 
ATOM     16  C   UNL A   1      34.567  20.955  24.778  1.00  0.00     0.044 C 
ATOM     17  C   UNL A   1      32.158  20.804  24.618  1.00  0.00     0.164 C 
ATOM     18  C   UNL A   1      34.436  19.437  24.628  1.00  0.00     0.139 C 
ATOM     19  S   UNL A   1      32.681  19.111  24.517  1.00  0.00     0.152 S 
ATOM     20  O   UNL A   1      32.372  18.630  23.187  1.00  0.00    -0.229 OA
ATOM     21  O   UNL A   1      32.229  18.425  25.709  1.00  0.00    -0.229 OA
ENDBRANCH  13  15
ENDBRANCH   7   9
ENDBRANCH   6   7
ENDBRANCH   5   6
ENDBRANCH   4   5
ENDBRANCH   3   4
ENDBRANCH   2   3
ENDBRANCH   1   2
BRANCH   1  22
ATOM     22  O   UNL A   1      33.706  30.886  27.819  1.00  0.00    -0.376 OA
BRANCH  22  23
ATOM     23  C   UNL A   1      34.585  31.954  28.132  1.00  0.00     0.202 C 
BRANCH  23  24
ATOM     24  C   UNL A   1      35.537  31.896  29.328  1.00  0.00     0.261 C 
BRANCH  24  25
ATOM     25  O   UNL A   1      36.692  31.090  29.181  1.00  0.00    -0.460 OA
BRANCH  25  26
ATOM     26  C   UNL A   1      36.637  29.915  29.842  1.00  0.00     0.338 C 
ATOM     27  O   UNL A   1      35.904  29.633  30.773  1.00  0.00    -0.246 OA
BRANCH  26  28
ATOM     28  C   UNL A   1      37.680  29.041  29.307  1.00  0.00     0.060 A 
ATOM     29  C   UNL A   1      38.264  28.118  30.177  1.00  0.00     0.016 A 
ATOM     30  C   UNL A   1      38.242  29.362  28.064  1.00  0.00     0.016 A 
ATOM     31  C   UNL A   1      39.529  27.660  29.881  1.00  0.00     0.010 A 
ATOM     32  C   UNL A   1      39.513  28.925  27.785  1.00  0.00     0.010 A 
ATOM     33  C   UNL A   1      40.168  28.149  28.737  1.00  0.00    -0.014 A 
BRANCH  33  34
ATOM     34  C   UNL A   1      41.548  27.777  28.509  1.00  0.00     0.031 A 
ATOM     35  C   UNL A   1      41.689  26.462  27.853  1.00  0.00     0.074 A 
ATOM     36  C   UNL A   1      42.568  28.618  28.764  1.00  0.00     0.049 A 
ATOM     37  N   UNL A   1      42.190  25.385  28.353  1.00  0.00    -0.248 NA
ATOM     38  C   UNL A   1      41.024  26.267  26.554  1.00  0.00     0.031 C 
ATOM     39  C   UNL A   1      42.495  30.024  29.168  1.00  0.00     0.029 A 
ATOM     40  N   UNL A   1      43.904  28.417  28.600  1.00  0.00    -0.354 N 
ATOM     41  C   UNL A   1      42.136  24.447  27.332  1.00  0.00     0.074 A 
ATOM     42  C   UNL A   1      41.214  24.963  26.361  1.00  0.00     0.031 C 
ATOM     43  C   UNL A   1      43.706  30.600  28.991  1.00  0.00     0.029 A 
ATOM     44  C   UNL A   1      44.661  29.584  28.571  1.00  0.00     0.049 A 
ATOM     45  H   UNL A   1      44.301  27.521  28.510  1.00  0.00     0.167 HD
ATOM     46  C   UNL A   1      43.069  23.462  27.241  1.00  0.00     0.034 A 
ATOM     47  C   UNL A   1      45.950  29.713  28.154  1.00  0.00     0.034 A 
ATOM     48  C   UNL A   1      43.752  23.273  28.501  1.00  0.00     0.049 A 
ATOM     49  C   UNL A   1      46.563  28.360  28.206  1.00  0.00     0.074 A 
ATOM     50  C   UNL A   1      43.330  22.985  29.787  1.00  0.00     0.029 A 
ATOM     51  N   UNL A   1      45.029  23.773  28.638  1.00  0.00    -0.354 N 
ATOM     52  N   UNL A   1      46.790  27.723  29.321  1.00  0.00    -0.248 NA
ATOM     53  C   UNL A   1      46.458  27.512  27.026  1.00  0.00     0.031 C 
ATOM     54  C   UNL A   1      44.148  23.790  30.633  1.00  0.00     0.029 A 
ATOM     55  C   UNL A   1      45.082  24.452  29.833  1.00  0.00     0.049 A 
ATOM     56  H   UNL A   1      45.768  23.664  27.996  1.00  0.00     0.167 HD
ATOM     57  C   UNL A   1      46.404  26.415  29.072  1.00  0.00     0.074 A 
ATOM     58  C   UNL A   1      46.312  26.320  27.616  1.00  0.00     0.031 C 
ATOM     59  C   UNL A   1      45.912  25.619  30.069  1.00  0.00     0.034 A 
BRANCH  46  60
ATOM     60  C   UNL A   1      43.612  22.941  25.930  1.00  0.00     0.023 A 
ATOM     61  C   UNL A   1      43.575  21.551  25.727  1.00  0.00     0.031 A 
ATOM     62  C   UNL A   1      44.403  23.674  25.012  1.00  0.00     0.131 A 
ATOM     63  C   UNL A   1      44.362  20.947  24.732  1.00  0.00     0.055 A 
ATOM     64  C   UNL A   1      45.123  23.076  23.977  1.00  0.00     0.041 A 
ATOM     65  F   UNL A   1      44.609  24.992  25.116  1.00  0.00    -0.206 F 
ATOM     66  C   UNL A   1      45.134  21.701  23.851  1.00  0.00     0.022 A 
BRANCH  63  67
ATOM     67  S   UNL A   1      44.502  19.144  24.731  1.00  0.00     0.124 S 
ATOM     68  O   UNL A   1      45.653  18.940  25.603  1.00  0.00    -0.237 OA
ATOM     69  O   UNL A   1      43.206  18.744  25.268  1.00  0.00    -0.237 OA
ATOM     70  O   UNL A   1      44.720  18.822  23.323  1.00  0.00    -0.744 OA
ENDBRANCH  63  67
ENDBRANCH  46  60
BRANCH  47  71
ATOM     71  C   UNL A   1      46.570  30.862  27.432  1.00  0.00     0.023 A 
ATOM     72  C   UNL A   1      45.815  31.930  26.899  1.00  0.00     0.031 A 
ATOM     73  C   UNL A   1      47.972  31.038  27.473  1.00  0.00     0.131 A 
ATOM     74  C   UNL A   1      46.463  33.102  26.438  1.00  0.00     0.055 A 
ATOM     75  C   UNL A   1      48.606  32.194  27.012  1.00  0.00     0.041 A 
ATOM     76  F   UNL A   1      48.773  30.128  28.048  1.00  0.00    -0.206 F 
ATOM     77  C   UNL A   1      47.853  33.236  26.501  1.00  0.00     0.022 A 
BRANCH  74  78
ATOM     78  S   UNL A   1      45.496  34.529  25.840  1.00  0.00     0.124 S 
ATOM     79  O   UNL A   1      44.559  34.750  26.936  1.00  0.00    -0.237 OA
ATOM     80  O   UNL A   1      46.521  35.546  25.645  1.00  0.00    -0.237 OA
ATOM     81  O   UNL A   1      44.886  34.033  24.604  1.00  0.00    -0.744 OA
ENDBRANCH  74  78
ENDBRANCH  47  71
BRANCH  59  82
ATOM     82  C   UNL A   1      46.055  26.097  31.505  1.00  0.00     0.023 A 
ATOM     83  C   UNL A   1      45.025  26.705  32.265  1.00  0.00     0.031 A 
ATOM     84  C   UNL A   1      47.273  25.841  32.161  1.00  0.00     0.131 A 
ATOM     85  C   UNL A   1      45.249  27.055  33.611  1.00  0.00     0.055 A 
ATOM     86  C   UNL A   1      47.481  26.165  33.501  1.00  0.00     0.041 A 
ATOM     87  F   UNL A   1      48.284  25.241  31.510  1.00  0.00    -0.206 F 
ATOM     88  C   UNL A   1      46.472  26.784  34.229  1.00  0.00     0.022 A 
BRANCH  85  89
ATOM     89  S   UNL A   1      43.961  27.910  34.578  1.00  0.00     0.124 S 
ATOM     90  O   UNL A   1      43.836  29.205  33.919  1.00  0.00    -0.237 OA
ATOM     91  O   UNL A   1      42.817  27.010  34.440  1.00  0.00    -0.237 OA
ATOM     92  O   UNL A   1      44.530  27.964  35.926  1.00  0.00    -0.744 OA
ENDBRANCH  85  89
ENDBRANCH  59  82
ENDBRANCH  33  34
ENDBRANCH  26  28
ENDBRANCH  25  26
ENDBRANCH  24  25
ENDBRANCH  23  24
ENDBRANCH  22  23
ENDBRANCH   1  22
TORSDOF 21
ENDMDL
MODEL 2
REMARK VINA RESULT:     -11.1      2.706      7.101
REMARK SMILES Cc1cc(C(=O)OCCOCCOCCOC(=O)c2ccc(-c3c4nc(c(-c5cc(S(=O)(=O)[O-])ccc5F)c5ccc([nH]5)c(-c5cc(S(=O)(=O)[O-])ccc5F)c5nc(c(-c6cc(S(=O)(=O)[O-])ccc6F)c6ccc3[nH]6)C=C5)C=C4)cc2)nn1[C@H]1CCS(=O)(=O)C1
REMARK SMILES IDX 12 1 11 2 10 3 9 4 8 5 7 6 5 7 6 8 4 9 1 10 2 11 3 12 83 13
REMARK SMILES IDX 82 14 84 15 85 16 90 17 86 18 87 19 88 20 89 21 13 22 14 23
REMARK SMILES IDX 15 24 16 25 17 26 18 27 19 28 20 29 81 30 21 31 80 32 22 33
REMARK SMILES IDX 23 34 24 35 74 36 25 37 79 38 73 39 75 40 26 41 78 42 72 43
REMARK SMILES IDX 71 44 27 46 59 47 39 48 58 49 40 50 43 51 57 52 76 53 41 54
REMARK SMILES IDX 42 55 56 57 77 58 44 59 28 60 29 61 37 62 30 63 36 64 38 65
REMARK SMILES IDX 35 66 31 67 32 68 33 69 34 70 60 71 61 72 69 73 62 74 68 75
REMARK SMILES IDX 70 76 67 77 63 78 64 79 65 80 66 81 45 82 46 83 54 84 47 85
REMARK SMILES IDX 53 86 55 87 52 88 48 89 49 90 50 91 51 92
REMARK H PARENT 75 45 43 56
REMARK Flexibility Score: inf
ROOT
ATOM      1  C   UNL A   1      32.569  29.255  23.992  1.00  0.00     0.188 C 
ENDROOT
BRANCH   1   2
ATOM      2  C   UNL A   1      31.225  28.557  23.690  1.00  0.00     0.188 C 
BRANCH   2   3
ATOM      3  O   UNL A   1      30.977  27.968  22.418  1.00  0.00    -0.376 OA
BRANCH   3   4
ATOM      4  C   UNL A   1      31.491  26.684  22.098  1.00  0.00     0.202 C 
BRANCH   4   5
ATOM      5  C   UNL A   1      32.996  26.464  21.840  1.00  0.00     0.261 C 
BRANCH   5   6
ATOM      6  O   UNL A   1      33.606  25.359  22.521  1.00  0.00    -0.458 OA
BRANCH   6   7
ATOM      7  C   UNL A   1      33.625  25.424  23.886  1.00  0.00     0.358 C 
ATOM      8  O   UNL A   1      34.173  26.322  24.522  1.00  0.00    -0.244 OA
BRANCH   7   9
ATOM      9  C   UNL A   1      32.829  24.351  24.508  1.00  0.00     0.170 A 
ATOM     10  C   UNL A   1      30.283  22.796  26.668  1.00  0.00     0.066 C 
ATOM     11  C   UNL A   1      31.401  23.169  25.767  1.00  0.00     0.037 A 
ATOM     12  C   UNL A   1      31.911  24.443  25.578  1.00  0.00     0.061 A 
ATOM     13  N   UNL A   1      32.145  22.356  24.941  1.00  0.00    -0.265 N 
ATOM     14  N   UNL A   1      32.950  23.069  24.123  1.00  0.00    -0.165 NA
BRANCH  13  15
ATOM     15  C   UNL A   1      32.223  20.918  24.759  1.00  0.00     0.123 C 
ATOM     16  C   UNL A   1      32.317  20.489  23.279  1.00  0.00     0.044 C 
ATOM     17  C   UNL A   1      33.339  20.150  25.445  1.00  0.00     0.164 C 
ATOM     18  C   UNL A   1      32.379  18.959  23.272  1.00  0.00     0.139 C 
ATOM     19  S   UNL A   1      33.148  18.499  24.820  1.00  0.00     0.152 S 
ATOM     20  O   UNL A   1      32.174  17.822  25.649  1.00  0.00    -0.229 OA
ATOM     21  O   UNL A   1      34.466  17.952  24.575  1.00  0.00    -0.229 OA
ENDBRANCH  13  15
ENDBRANCH   7   9
ENDBRANCH   6   7
ENDBRANCH   5   6
ENDBRANCH   4   5
ENDBRANCH   3   4
ENDBRANCH   2   3
ENDBRANCH   1   2
BRANCH   1  22
ATOM     22  O   UNL A   1      32.856  29.396  25.369  1.00  0.00    -0.376 OA
BRANCH  22  23
ATOM     23  C   UNL A   1      32.236  30.431  26.116  1.00  0.00     0.202 C 
BRANCH  23  24
ATOM     24  C   UNL A   1      32.964  31.162  27.245  1.00  0.00     0.261 C 
BRANCH  24  25
ATOM     25  O   UNL A   1      34.251  30.682  27.587  1.00  0.00    -0.460 OA
BRANCH  25  26
ATOM     26  C   UNL A   1      35.133  31.646  27.922  1.00  0.00     0.338 C 
ATOM     27  O   UNL A   1      35.127  32.805  27.546  1.00  0.00    -0.246 OA
BRANCH  26  28
ATOM     28  C   UNL A   1      36.171  31.045  28.758  1.00  0.00     0.060 A 
ATOM     29  C   UNL A   1      37.242  31.853  29.145  1.00  0.00     0.016 A 
ATOM     30  C   UNL A   1      36.200  29.649  28.880  1.00  0.00     0.016 A 
ATOM     31  C   UNL A   1      38.430  31.240  29.475  1.00  0.00     0.010 A 
ATOM     32  C   UNL A   1      37.393  29.041  29.183  1.00  0.00     0.010 A 
ATOM     33  C   UNL A   1      38.510  29.845  29.393  1.00  0.00    -0.014 A 
BRANCH  33  34
ATOM     34  C   UNL A   1      39.797  29.217  29.600  1.00  0.00     0.031 A 
ATOM     35  C   UNL A   1      40.171  29.127  31.025  1.00  0.00     0.074 A 
ATOM     36  C   UNL A   1      40.497  28.669  28.588  1.00  0.00     0.049 A 
ATOM     37  N   UNL A   1      41.135  29.740  31.623  1.00  0.00    -0.248 NA
ATOM     38  C   UNL A   1      39.254  28.420  31.933  1.00  0.00     0.031 C 
ATOM     39  C   UNL A   1      40.075  28.489  27.197  1.00  0.00     0.029 A 
ATOM     40  N   UNL A   1      41.706  28.046  28.624  1.00  0.00    -0.354 N 
ATOM     41  C   UNL A   1      41.099  29.288  32.934  1.00  0.00     0.074 A 
ATOM     42  C   UNL A   1      39.809  28.684  33.116  1.00  0.00     0.031 C 
ATOM     43  C   UNL A   1      40.905  27.607  26.592  1.00  0.00     0.029 A 
ATOM     44  C   UNL A   1      41.975  27.250  27.514  1.00  0.00     0.049 A 
ATOM     45  H   UNL A   1      42.337  28.149  29.372  1.00  0.00     0.167 HD
ATOM     46  C   UNL A   1      42.237  29.198  33.672  1.00  0.00     0.034 A 
ATOM     47  C   UNL A   1      42.954  26.312  27.398  1.00  0.00     0.034 A 
ATOM     48  C   UNL A   1      43.289  30.014  33.109  1.00  0.00     0.049 A 
ATOM     49  C   UNL A   1      43.975  26.617  28.433  1.00  0.00     0.074 A 
ATOM     50  C   UNL A   1      43.398  31.357  32.796  1.00  0.00     0.029 A 
ATOM     51  N   UNL A   1      44.298  29.391  32.405  1.00  0.00    -0.354 N 
ATOM     52  N   UNL A   1      44.730  27.680  28.399  1.00  0.00    -0.248 NA
ATOM     53  C   UNL A   1      43.816  26.022  29.753  1.00  0.00     0.031 C 
ATOM     54  C   UNL A   1      44.108  31.393  31.561  1.00  0.00     0.029 A 
ATOM     55  C   UNL A   1      44.474  30.086  31.231  1.00  0.00     0.049 A 
ATOM     56  H   UNL A   1      44.800  28.594  32.692  1.00  0.00     0.167 HD
ATOM     57  C   UNL A   1      44.756  28.145  29.705  1.00  0.00     0.074 A 
ATOM     58  C   UNL A   1      44.268  27.027  30.512  1.00  0.00     0.031 C 
ATOM     59  C   UNL A   1      44.888  29.478  29.980  1.00  0.00     0.034 A 
BRANCH  46  60
ATOM     60  C   UNL A   1      42.503  28.094  34.671  1.00  0.00     0.023 A 
ATOM     61  C   UNL A   1      43.248  26.991  34.224  1.00  0.00     0.031 A 
ATOM     62  C   UNL A   1      41.846  27.928  35.914  1.00  0.00     0.131 A 
ATOM     63  C   UNL A   1      43.242  25.780  34.937  1.00  0.00     0.055 A 
ATOM     64  C   UNL A   1      41.905  26.748  36.657  1.00  0.00     0.041 A 
ATOM     65  F   UNL A   1      41.032  28.851  36.440  1.00  0.00    -0.206 F 
ATOM     66  C   UNL A   1      42.579  25.652  36.155  1.00  0.00     0.022 A 
BRANCH  63  67
ATOM     67  S   UNL A   1      43.964  24.321  34.150  1.00  0.00     0.124 S 
ATOM     68  O   UNL A   1      45.125  24.075  34.997  1.00  0.00    -0.237 OA
ATOM     69  O   UNL A   1      42.874  23.356  34.253  1.00  0.00    -0.237 OA
ATOM     70  O   UNL A   1      44.264  24.780  32.796  1.00  0.00    -0.744 OA
ENDBRANCH  63  67
ENDBRANCH  46  60
BRANCH  47  71
ATOM     71  C   UNL A   1      42.898  25.015  26.664  1.00  0.00     0.023 A 
ATOM     72  C   UNL A   1      43.937  24.566  25.819  1.00  0.00     0.031 A 
ATOM     73  C   UNL A   1      41.896  24.072  26.988  1.00  0.00     0.131 A 
ATOM     74  C   UNL A   1      43.941  23.233  25.339  1.00  0.00     0.055 A 
ATOM     75  C   UNL A   1      41.902  22.761  26.507  1.00  0.00     0.041 A 
ATOM     76  F   UNL A   1      40.918  24.365  27.859  1.00  0.00    -0.206 F 
ATOM     77  C   UNL A   1      42.931  22.332  25.687  1.00  0.00     0.022 A 
BRANCH  74  78
ATOM     78  S   UNL A   1      45.328  22.610  24.330  1.00  0.00     0.124 S 
ATOM     79  O   UNL A   1      46.035  21.749  25.271  1.00  0.00    -0.237 OA
ATOM     80  O   UNL A   1      44.643  21.946  23.228  1.00  0.00    -0.237 OA
ATOM     81  O   UNL A   1      46.049  23.828  23.953  1.00  0.00    -0.744 OA
ENDBRANCH  74  78
ENDBRANCH  47  71
BRANCH  59  82
ATOM     82  C   UNL A   1      45.286  30.409  28.846  1.00  0.00     0.023 A 
ATOM     83  C   UNL A   1      46.617  30.757  28.512  1.00  0.00     0.031 A 
ATOM     84  C   UNL A   1      44.264  30.893  28.010  1.00  0.00     0.131 A 
ATOM     85  C   UNL A   1      46.877  31.582  27.400  1.00  0.00     0.055 A 
ATOM     86  C   UNL A   1      44.527  31.687  26.894  1.00  0.00     0.041 A 
ATOM     87  F   UNL A   1      42.980  30.578  28.250  1.00  0.00    -0.206 F 
ATOM     88  C   UNL A   1      45.836  32.044  26.591  1.00  0.00     0.022 A 
BRANCH  85  89
ATOM     89  S   UNL A   1      48.578  32.105  27.004  1.00  0.00     0.124 S 
ATOM     90  O   UNL A   1      48.398  33.104  25.957  1.00  0.00    -0.237 OA
ATOM     91  O   UNL A   1      49.058  32.608  28.291  1.00  0.00    -0.237 OA
ATOM     92  O   UNL A   1      49.219  30.865  26.561  1.00  0.00    -0.744 OA
ENDBRANCH  85  89
ENDBRANCH  59  82
ENDBRANCH  33  34
ENDBRANCH  26  28
ENDBRANCH  25  26
ENDBRANCH  24  25
ENDBRANCH  23  24
ENDBRANCH  22  23
ENDBRANCH   1  22
TORSDOF 21
ENDMDL
MODEL 3
REMARK VINA RESULT:     -11.1      4.596     10.520
REMARK SMILES Cc1cc(C(=O)OCCOCCOCCOC(=O)c2ccc(-c3c4nc(c(-c5cc(S(=O)(=O)[O-])ccc5F)c5ccc([nH]5)c(-c5cc(S(=O)(=O)[O-])ccc5F)c5nc(c(-c6cc(S(=O)(=O)[O-])ccc6F)c6ccc3[nH]6)C=C5)C=C4)cc2)nn1[C@H]1CCS(=O)(=O)C1
REMARK SMILES IDX 12 1 11 2 10 3 9 4 8 5 7 6 5 7 6 8 4 9 1 10 2 11 3 12 83 13
REMARK SMILES IDX 82 14 84 15 85 16 90 17 86 18 87 19 88 20 89 21 13 22 14 23
REMARK SMILES IDX 15 24 16 25 17 26 18 27 19 28 20 29 81 30 21 31 80 32 22 33
REMARK SMILES IDX 23 34 24 35 74 36 25 37 79 38 73 39 75 40 26 41 78 42 72 43
REMARK SMILES IDX 71 44 27 46 59 47 39 48 58 49 40 50 43 51 57 52 76 53 41 54
REMARK SMILES IDX 42 55 56 57 77 58 44 59 28 60 29 61 37 62 30 63 36 64 38 65
REMARK SMILES IDX 35 66 31 67 32 68 33 69 34 70 60 71 61 72 69 73 62 74 68 75
REMARK SMILES IDX 70 76 67 77 63 78 64 79 65 80 66 81 45 82 46 83 54 84 47 85
REMARK SMILES IDX 53 86 55 87 52 88 48 89 49 90 50 91 51 92
REMARK H PARENT 75 45 43 56
REMARK Flexibility Score: inf
ROOT
ATOM      1  C   UNL A   1      41.694  20.921  26.422  1.00  0.00     0.188 C 
ENDROOT
BRANCH   1   2
ATOM      2  C   UNL A   1      40.167  20.758  26.253  1.00  0.00     0.188 C 
BRANCH   2   3
ATOM      3  O   UNL A   1      39.275  21.801  26.627  1.00  0.00    -0.376 OA
BRANCH   3   4
ATOM      4  C   UNL A   1      38.376  22.362  25.682  1.00  0.00     0.202 C 
BRANCH   4   5
ATOM      5  C   UNL A   1      37.545  21.470  24.736  1.00  0.00     0.261 C 
BRANCH   5   6
ATOM      6  O   UNL A   1      36.178  21.854  24.534  1.00  0.00    -0.458 OA
BRANCH   6   7
ATOM      7  C   UNL A   1      35.951  22.807  23.582  1.00  0.00     0.358 C 
ATOM      8  O   UNL A   1      36.746  23.087  22.687  1.00  0.00    -0.244 OA
BRANCH   7   9
ATOM      9  C   UNL A   1      34.603  23.394  23.689  1.00  0.00     0.170 A 
ATOM     10  C   UNL A   1      30.943  23.633  23.356  1.00  0.00     0.066 C 
ATOM     11  C   UNL A   1      32.404  23.802  23.549  1.00  0.00     0.037 A 
ATOM     12  C   UNL A   1      33.392  22.922  23.135  1.00  0.00     0.061 A 
ATOM     13  N   UNL A   1      33.075  24.831  24.170  1.00  0.00    -0.265 N 
ATOM     14  N   UNL A   1      34.388  24.555  24.329  1.00  0.00    -0.165 NA
BRANCH  13  15
ATOM     15  C   UNL A   1      32.662  26.119  24.699  1.00  0.00     0.123 C 
ATOM     16  C   UNL A   1      32.317  26.085  26.203  1.00  0.00     0.044 C 
ATOM     17  C   UNL A   1      33.597  27.307  24.554  1.00  0.00     0.164 C 
ATOM     18  C   UNL A   1      31.896  27.507  26.585  1.00  0.00     0.139 C 
ATOM     19  S   UNL A   1      32.779  28.590  25.469  1.00  0.00     0.152 S 
ATOM     20  O   UNL A   1      31.830  29.230  24.581  1.00  0.00    -0.229 OA
ATOM     21  O   UNL A   1      33.782  29.339  26.195  1.00  0.00    -0.229 OA
ENDBRANCH  13  15
ENDBRANCH   7   9
ENDBRANCH   6   7
ENDBRANCH   5   6
ENDBRANCH   4   5
ENDBRANCH   3   4
ENDBRANCH   2   3
ENDBRANCH   1   2
BRANCH   1  22
ATOM     22  O   UNL A   1      42.337  21.550  25.331  1.00  0.00    -0.376 OA
BRANCH  22  23
ATOM     23  C   UNL A   1      42.701  22.918  25.421  1.00  0.00     0.202 C 
BRANCH  23  24
ATOM     24  C   UNL A   1      42.139  23.836  26.508  1.00  0.00     0.261 C 
BRANCH  24  25
ATOM     25  O   UNL A   1      41.009  24.614  26.159  1.00  0.00    -0.460 OA
BRANCH  25  26
ATOM     26  C   UNL A   1      41.306  25.838  25.675  1.00  0.00     0.338 C 
ATOM     27  O   UNL A   1      42.041  26.095  24.738  1.00  0.00    -0.246 OA
BRANCH  26  28
ATOM     28  C   UNL A   1      40.657  26.835  26.525  1.00  0.00     0.060 A 
ATOM     29  C   UNL A   1      40.988  28.176  26.322  1.00  0.00     0.016 A 
ATOM     30  C   UNL A   1      39.981  26.393  27.671  1.00  0.00     0.016 A 
ATOM     31  C   UNL A   1      40.814  29.052  27.370  1.00  0.00     0.010 A 
ATOM     32  C   UNL A   1      39.834  27.262  28.722  1.00  0.00     0.010 A 
ATOM     33  C   UNL A   1      40.329  28.555  28.585  1.00  0.00    -0.014 A 
BRANCH  33  34
ATOM     34  C   UNL A   1      40.285  29.448  29.723  1.00  0.00     0.031 A 
ATOM     35  C   UNL A   1      39.050  30.255  29.774  1.00  0.00     0.074 A 
ATOM     36  C   UNL A   1      41.227  29.429  30.686  1.00  0.00     0.049 A 
ATOM     37  N   UNL A   1      38.941  31.532  29.629  1.00  0.00    -0.248 NA
ATOM     38  C   UNL A   1      37.763  29.543  29.800  1.00  0.00     0.031 C 
ATOM     39  C   UNL A   1      42.336  28.484  30.839  1.00  0.00     0.029 A 
ATOM     40  N   UNL A   1      41.320  30.194  31.806  1.00  0.00    -0.354 N 
ATOM     41  C   UNL A   1      37.593  31.807  29.807  1.00  0.00     0.074 A 
ATOM     42  C   UNL A   1      36.905  30.554  29.670  1.00  0.00     0.031 C 
ATOM     43  C   UNL A   1      42.838  28.589  32.092  1.00  0.00     0.029 A 
ATOM     44  C   UNL A   1      42.164  29.678  32.785  1.00  0.00     0.049 A 
ATOM     45  H   UNL A   1      40.832  31.041  31.916  1.00  0.00     0.167 HD
ATOM     46  C   UNL A   1      37.187  32.994  30.332  1.00  0.00     0.034 A 
ATOM     47  C   UNL A   1      42.241  30.067  34.088  1.00  0.00     0.034 A 
ATOM     48  C   UNL A   1      38.227  33.993  30.226  1.00  0.00     0.049 A 
ATOM     49  C   UNL A   1      41.652  31.429  34.171  1.00  0.00     0.074 A 
ATOM     50  C   UNL A   1      38.951  34.516  29.170  1.00  0.00     0.029 A 
ATOM     51  N   UNL A   1      38.945  34.315  31.358  1.00  0.00    -0.354 N 
ATOM     52  N   UNL A   1      42.205  32.479  33.630  1.00  0.00    -0.248 NA
ATOM     53  C   UNL A   1      40.220  31.546  34.411  1.00  0.00     0.031 C 
ATOM     54  C   UNL A   1      40.279  34.660  29.668  1.00  0.00     0.029 A 
ATOM     55  C   UNL A   1      40.278  34.307  31.019  1.00  0.00     0.049 A 
ATOM     56  H   UNL A   1      38.570  34.515  32.246  1.00  0.00     0.167 HD
ATOM     57  C   UNL A   1      41.158  33.179  33.051  1.00  0.00     0.074 A 
ATOM     58  C   UNL A   1      39.950  32.617  33.656  1.00  0.00     0.031 C 
ATOM     59  C   UNL A   1      41.346  33.936  31.928  1.00  0.00     0.034 A 
BRANCH  46  60
ATOM     60  C   UNL A   1      36.006  33.137  31.263  1.00  0.00     0.023 A 
ATOM     61  C   UNL A   1      35.004  34.051  30.894  1.00  0.00     0.031 A 
ATOM     62  C   UNL A   1      35.940  32.660  32.595  1.00  0.00     0.131 A 
ATOM     63  C   UNL A   1      34.072  34.518  31.836  1.00  0.00     0.055 A 
ATOM     64  C   UNL A   1      34.965  33.069  33.506  1.00  0.00     0.041 A 
ATOM     65  F   UNL A   1      36.863  31.850  33.127  1.00  0.00    -0.206 F 
ATOM     66  C   UNL A   1      34.042  34.030  33.140  1.00  0.00     0.022 A 
BRANCH  63  67
ATOM     67  S   UNL A   1      33.018  35.914  31.375  1.00  0.00     0.124 S 
ATOM     68  O   UNL A   1      31.765  35.565  32.037  1.00  0.00    -0.237 OA
ATOM     69  O   UNL A   1      33.753  37.041  31.938  1.00  0.00    -0.237 OA
ATOM     70  O   UNL A   1      32.992  35.851  29.916  1.00  0.00    -0.744 OA
ENDBRANCH  63  67
ENDBRANCH  46  60
BRANCH  47  71
ATOM     71  C   UNL A   1      42.502  29.216  35.284  1.00  0.00     0.023 A 
ATOM     72  C   UNL A   1      41.822  28.003  35.527  1.00  0.00     0.031 A 
ATOM     73  C   UNL A   1      43.627  29.482  36.097  1.00  0.00     0.131 A 
ATOM     74  C   UNL A   1      42.271  27.122  36.541  1.00  0.00     0.055 A 
ATOM     75  C   UNL A   1      44.063  28.613  37.101  1.00  0.00     0.041 A 
ATOM     76  F   UNL A   1      44.402  30.558  35.887  1.00  0.00    -0.206 F 
ATOM     77  C   UNL A   1      43.391  27.423  37.320  1.00  0.00     0.022 A 
BRANCH  74  78
ATOM     78  S   UNL A   1      41.464  25.506  36.798  1.00  0.00     0.124 S 
ATOM     79  O   UNL A   1      40.778  25.701  38.071  1.00  0.00    -0.237 OA
ATOM     80  O   UNL A   1      40.621  25.383  35.616  1.00  0.00    -0.237 OA
ATOM     81  O   UNL A   1      42.587  24.568  36.846  1.00  0.00    -0.744 OA
ENDBRANCH  74  78
ENDBRANCH  47  71
BRANCH  59  82
ATOM     82  C   UNL A   1      42.773  34.224  31.488  1.00  0.00     0.023 A 
ATOM     83  C   UNL A   1      43.541  33.394  30.635  1.00  0.00     0.031 A 
ATOM     84  C   UNL A   1      43.345  35.445  31.885  1.00  0.00     0.131 A 
ATOM     85  C   UNL A   1      44.835  33.787  30.240  1.00  0.00     0.055 A 
ATOM     86  C   UNL A   1      44.615  35.844  31.470  1.00  0.00     0.041 A 
ATOM     87  F   UNL A   1      42.661  36.295  32.670  1.00  0.00    -0.206 F 
ATOM     88  C   UNL A   1      45.371  35.010  30.654  1.00  0.00     0.022 A 
BRANCH  85  89
ATOM     89  S   UNL A   1      45.868  32.695  29.209  1.00  0.00     0.124 S 
ATOM     90  O   UNL A   1      46.510  33.609  28.272  1.00  0.00    -0.237 OA
ATOM     91  O   UNL A   1      46.746  32.071  30.197  1.00  0.00    -0.237 OA
ATOM     92  O   UNL A   1      44.895  31.784  28.603  1.00  0.00    -0.744 OA
ENDBRANCH  85  89
ENDBRANCH  59  82
ENDBRANCH  33  34
ENDBRANCH  26  28
ENDBRANCH  25  26
ENDBRANCH  24  25
ENDBRANCH  23  24
ENDBRANCH  22  23
ENDBRANCH   1  22
TORSDOF 21
ENDMDL
