MODEL 1
REMARK VINA RESULT:     -10.9      0.000      0.000
REMARK SMILES O=C(OCCOCCOCCOC(=O)[C@H]1CC=CC[C@@H]1C(=O)N[C@@H]1CCCN(c2ccccc2F)C1=O)c1ccc(-c2c3nc(c(-c4cc(S(=O)(=O)[O-])ccc4F)c4ccc([nH]4)c(-c4cc(S(=O)(=O)[O-])ccc4F)c4nc(c(-c5cc(S(=O)(=O)[O-])ccc5F)c5ccc2[nH]5)C=C4)C=C3)cc1
REMARK SMILES IDX 7 1 6 2 5 3 4 4 3 5 2 6 1 7 38 8 39 9 100 10 40 11 99 12
REMARK SMILES IDX 41 13 42 14 43 15 93 16 44 17 98 18 92 19 94 20 45 21 97 22
REMARK SMILES IDX 91 23 90 24 46 26 78 27 58 28 77 29 59 30 62 31 76 32 95 33
REMARK SMILES IDX 60 34 61 35 75 37 96 38 63 39 47 40 48 41 56 42 49 43 55 44
REMARK SMILES IDX 57 45 54 46 50 47 51 48 52 49 53 50 79 51 80 52 88 53 81 54
REMARK SMILES IDX 87 55 89 56 86 57 82 58 83 59 84 60 85 61 64 62 65 63 73 64
REMARK SMILES IDX 66 65 72 66 74 67 71 68 67 69 68 70 69 71 70 72 8 73 9 74
REMARK SMILES IDX 10 75 11 76 12 77 13 78 14 79 15 80 16 81 20 82 17 83 19 84
REMARK SMILES IDX 18 85 21 86 22 87 23 88 24 90 25 91 36 92 26 93 28 94 37 95
REMARK SMILES IDX 27 96 29 97 30 98 34 99 31 100 33 101 35 102 32 103
REMARK H PARENT 94 25 62 36 23 89
REMARK Flexibility Score: inf
ROOT
ATOM      1  C   UNL A   1      32.119  29.279  25.754  1.00  0.00     0.188 C 
ENDROOT
BRANCH   1   2
ATOM      2  O   UNL A   1      31.753  30.613  25.436  1.00  0.00    -0.376 OA
BRANCH   2   3
ATOM      3  C   UNL A   1      31.418  31.536  26.460  1.00  0.00     0.202 C 
BRANCH   3   4
ATOM      4  C   UNL A   1      32.445  31.983  27.526  1.00  0.00     0.261 C 
BRANCH   4   5
ATOM      5  O   UNL A   1      32.746  33.389  27.630  1.00  0.00    -0.460 OA
BRANCH   5   6
ATOM      6  C   UNL A   1      33.911  33.963  28.040  1.00  0.00     0.338 C 
ATOM      7  O   UNL A   1      34.154  35.122  27.716  1.00  0.00    -0.246 OA
BRANCH   6   8
ATOM      8  C   UNL A   1      35.027  33.114  28.582  1.00  0.00     0.060 A 
ATOM      9  C   UNL A   1      34.832  31.995  29.386  1.00  0.00     0.016 A 
ATOM     10  C   UNL A   1      36.352  33.438  28.228  1.00  0.00     0.016 A 
ATOM     11  C   UNL A   1      35.889  31.201  29.813  1.00  0.00     0.010 A 
ATOM     12  C   UNL A   1      37.436  32.684  28.707  1.00  0.00     0.010 A 
ATOM     13  C   UNL A   1      37.198  31.576  29.528  1.00  0.00    -0.014 A 
BRANCH  13  14
ATOM     14  C   UNL A   1      38.244  30.968  30.375  1.00  0.00     0.031 A 
ATOM     15  C   UNL A   1      39.150  29.968  29.712  1.00  0.00     0.074 A 
ATOM     16  C   UNL A   1      38.520  31.462  31.594  1.00  0.00     0.049 A 
ATOM     17  N   UNL A   1      40.193  29.350  30.189  1.00  0.00    -0.248 NA
ATOM     18  C   UNL A   1      38.865  29.662  28.296  1.00  0.00     0.031 C 
ATOM     19  C   UNL A   1      37.811  32.572  32.225  1.00  0.00     0.029 A 
ATOM     20  N   UNL A   1      39.496  31.133  32.498  1.00  0.00    -0.354 N 
ATOM     21  C   UNL A   1      40.695  28.596  29.135  1.00  0.00     0.074 A 
ATOM     22  C   UNL A   1      39.840  28.821  27.994  1.00  0.00     0.031 C 
ATOM     23  C   UNL A   1      38.381  32.836  33.412  1.00  0.00     0.029 A 
ATOM     24  C   UNL A   1      39.455  31.883  33.652  1.00  0.00     0.049 A 
ATOM     25  H   UNL A   1      40.163  30.426  32.338  1.00  0.00     0.167 HD
ATOM     26  C   UNL A   1      41.774  27.785  29.130  1.00  0.00     0.034 A 
ATOM     27  C   UNL A   1      40.187  31.785  34.779  1.00  0.00     0.034 A 
ATOM     28  C   UNL A   1      42.581  27.558  30.296  1.00  0.00     0.049 A 
ATOM     29  C   UNL A   1      41.271  30.739  34.813  1.00  0.00     0.074 A 
ATOM     30  C   UNL A   1      43.630  26.676  30.461  1.00  0.00     0.029 A 
ATOM     31  N   UNL A   1      42.411  28.220  31.506  1.00  0.00    -0.354 N 
ATOM     32  N   UNL A   1      41.668  29.939  33.848  1.00  0.00    -0.248 NA
ATOM     33  C   UNL A   1      41.998  30.567  36.076  1.00  0.00     0.031 C 
ATOM     34  C   UNL A   1      44.051  26.756  31.791  1.00  0.00     0.029 A 
ATOM     35  C   UNL A   1      43.317  27.743  32.434  1.00  0.00     0.049 A 
ATOM     36  H   UNL A   1      41.745  28.924  31.677  1.00  0.00     0.167 HD
ATOM     37  C   UNL A   1      42.703  29.180  34.381  1.00  0.00     0.074 A 
ATOM     38  C   UNL A   1      42.874  29.623  35.752  1.00  0.00     0.031 C 
ATOM     39  C   UNL A   1      43.448  28.210  33.794  1.00  0.00     0.034 A 
BRANCH  26  40
ATOM     40  C   UNL A   1      42.060  27.023  27.865  1.00  0.00     0.023 A 
ATOM     41  C   UNL A   1      41.842  25.638  27.765  1.00  0.00     0.031 A 
ATOM     42  C   UNL A   1      42.598  27.694  26.753  1.00  0.00     0.131 A 
ATOM     43  C   UNL A   1      42.195  24.963  26.586  1.00  0.00     0.055 A 
ATOM     44  C   UNL A   1      42.892  27.027  25.565  1.00  0.00     0.041 A 
ATOM     45  F   UNL A   1      42.859  29.010  26.813  1.00  0.00    -0.206 F 
ATOM     46  C   UNL A   1      42.696  25.652  25.477  1.00  0.00     0.022 A 
BRANCH  43  47
ATOM     47  S   UNL A   1      42.064  23.153  26.539  1.00  0.00     0.124 S 
ATOM     48  O   UNL A   1      40.702  22.943  27.024  1.00  0.00    -0.237 OA
ATOM     49  O   UNL A   1      42.294  22.852  25.132  1.00  0.00    -0.237 OA
ATOM     50  O   UNL A   1      43.119  22.711  27.450  1.00  0.00    -0.744 OA
ENDBRANCH  43  47
ENDBRANCH  26  40
BRANCH  27  51
ATOM     51  C   UNL A   1      39.872  32.629  35.971  1.00  0.00     0.023 A 
ATOM     52  C   UNL A   1      38.938  32.228  36.939  1.00  0.00     0.031 A 
ATOM     53  C   UNL A   1      40.495  33.882  36.143  1.00  0.00     0.131 A 
ATOM     54  C   UNL A   1      38.640  33.078  38.020  1.00  0.00     0.055 A 
ATOM     55  C   UNL A   1      40.223  34.705  37.236  1.00  0.00     0.041 A 
ATOM     56  F   UNL A   1      41.396  34.323  35.249  1.00  0.00    -0.206 F 
ATOM     57  C   UNL A   1      39.284  34.307  38.181  1.00  0.00     0.022 A 
BRANCH  54  58
ATOM     58  S   UNL A   1      37.357  32.577  39.204  1.00  0.00     0.124 S 
ATOM     59  O   UNL A   1      37.739  31.199  39.491  1.00  0.00    -0.237 OA
ATOM     60  O   UNL A   1      37.550  33.539  40.284  1.00  0.00    -0.237 OA
ATOM     61  O   UNL A   1      36.116  32.736  38.448  1.00  0.00    -0.744 OA
ENDBRANCH  54  58
ENDBRANCH  27  51
BRANCH  39  62
ATOM     62  C   UNL A   1      44.530  27.577  34.621  1.00  0.00     0.023 A 
ATOM     63  C   UNL A   1      44.315  26.371  35.301  1.00  0.00     0.031 A 
ATOM     64  C   UNL A   1      45.814  28.149  34.653  1.00  0.00     0.131 A 
ATOM     65  C   UNL A   1      45.368  25.777  36.008  1.00  0.00     0.055 A 
ATOM     66  C   UNL A   1      46.872  27.528  35.314  1.00  0.00     0.041 A 
ATOM     67  F   UNL A   1      46.065  29.300  34.008  1.00  0.00    -0.206 F 
ATOM     68  C   UNL A   1      46.650  26.336  35.999  1.00  0.00     0.022 A 
BRANCH  65  69
ATOM     69  S   UNL A   1      45.034  24.274  36.961  1.00  0.00     0.124 S 
ATOM     70  O   UNL A   1      46.381  23.837  37.315  1.00  0.00    -0.237 OA
ATOM     71  O   UNL A   1      44.217  24.771  38.062  1.00  0.00    -0.237 OA
ATOM     72  O   UNL A   1      44.334  23.414  36.008  1.00  0.00    -0.744 OA
ENDBRANCH  65  69
ENDBRANCH  39  62
ENDBRANCH  13  14
ENDBRANCH   6   8
ENDBRANCH   5   6
ENDBRANCH   4   5
ENDBRANCH   3   4
ENDBRANCH   2   3
ENDBRANCH   1   2
BRANCH   1  73
ATOM     73  C   UNL A   1      33.610  28.945  25.689  1.00  0.00     0.188 C 
BRANCH  73  74
ATOM     74  O   UNL A   1      34.090  28.100  24.639  1.00  0.00    -0.376 OA
BRANCH  74  75
ATOM     75  C   UNL A   1      34.336  28.723  23.383  1.00  0.00     0.202 C 
BRANCH  75  76
ATOM     76  C   UNL A   1      33.218  28.469  22.366  1.00  0.00     0.261 C 
BRANCH  76  77
ATOM     77  O   UNL A   1      33.143  27.068  22.063  1.00  0.00    -0.463 OA
BRANCH  77  78
ATOM     78  C   UNL A   1      31.966  26.472  22.290  1.00  0.00     0.310 C 
ATOM     79  O   UNL A   1      31.075  26.391  21.441  1.00  0.00    -0.252 OA
BRANCH  78  80
ATOM     80  C   UNL A   1      31.853  25.891  23.694  1.00  0.00     0.115 C 
ATOM     81  C   UNL A   1      30.452  25.306  23.805  1.00  0.00     0.043 C 
ATOM     82  C   UNL A   1      32.873  24.876  24.191  1.00  0.00     0.097 C 
ATOM     83  C   UNL A   1      30.321  23.976  23.140  1.00  0.00    -0.030 C 
ATOM     84  C   UNL A   1      32.764  23.543  23.394  1.00  0.00     0.041 C 
ATOM     85  C   UNL A   1      31.379  23.185  22.932  1.00  0.00    -0.030 C 
BRANCH  82  86
ATOM     86  C   UNL A   1      32.857  24.563  25.702  1.00  0.00     0.224 C 
ATOM     87  O   UNL A   1      31.787  24.702  26.317  1.00  0.00    -0.275 OA
ATOM     88  N   UNL A   1      33.919  24.317  26.510  1.00  0.00    -0.344 N 
ATOM     89  H   UNL A   1      34.017  25.014  27.197  1.00  0.00     0.164 HD
BRANCH  88  90
ATOM     90  C   UNL A   1      34.990  23.261  26.641  1.00  0.00     0.172 C 
ATOM     91  C   UNL A   1      36.166  23.731  25.743  1.00  0.00     0.037 C 
ATOM     92  C   UNL A   1      34.705  21.738  26.445  1.00  0.00     0.249 C 
ATOM     93  C   UNL A   1      36.806  22.633  24.909  1.00  0.00     0.025 C 
ATOM     94  N   UNL A   1      34.877  21.204  25.165  1.00  0.00    -0.308 N 
ATOM     95  O   UNL A   1      34.236  21.094  27.383  1.00  0.00    -0.272 OA
ATOM     96  C   UNL A   1      35.707  21.871  24.184  1.00  0.00     0.126 C 
BRANCH  94  97
ATOM     97  C   UNL A   1      34.174  20.020  24.781  1.00  0.00     0.080 A 
ATOM     98  C   UNL A   1      32.843  20.087  24.361  1.00  0.00     0.029 A 
ATOM     99  C   UNL A   1      34.861  18.807  24.622  1.00  0.00     0.146 A 
ATOM    100  C   UNL A   1      32.247  19.004  23.709  1.00  0.00     0.002 A 
ATOM    101  C   UNL A   1      34.299  17.755  23.897  1.00  0.00     0.041 A 
ATOM    102  F   UNL A   1      36.150  18.703  24.988  1.00  0.00    -0.205 F 
ATOM    103  C   UNL A   1      32.993  17.861  23.426  1.00  0.00     0.003 A 
ENDBRANCH  94  97
ENDBRANCH  88  90
ENDBRANCH  82  86
ENDBRANCH  78  80
ENDBRANCH  77  78
ENDBRANCH  76  77
ENDBRANCH  75  76
ENDBRANCH  74  75
ENDBRANCH  73  74
ENDBRANCH   1  73
TORSDOF 23
ENDMDL
MODEL 2
REMARK VINA RESULT:     -10.3      6.195      8.237
REMARK SMILES O=C(OCCOCCOCCOC(=O)[C@H]1CC=CC[C@@H]1C(=O)N[C@@H]1CCCN(c2ccccc2F)C1=O)c1ccc(-c2c3nc(c(-c4cc(S(=O)(=O)[O-])ccc4F)c4ccc([nH]4)c(-c4cc(S(=O)(=O)[O-])ccc4F)c4nc(c(-c5cc(S(=O)(=O)[O-])ccc5F)c5ccc2[nH]5)C=C4)C=C3)cc1
REMARK SMILES IDX 7 1 6 2 5 3 4 4 3 5 2 6 1 7 38 8 39 9 100 10 40 11 99 12
REMARK SMILES IDX 41 13 42 14 43 15 93 16 44 17 98 18 92 19 94 20 45 21 97 22
REMARK SMILES IDX 91 23 90 24 46 26 78 27 58 28 77 29 59 30 62 31 76 32 95 33
REMARK SMILES IDX 60 34 61 35 75 37 96 38 63 39 47 40 48 41 56 42 49 43 55 44
REMARK SMILES IDX 57 45 54 46 50 47 51 48 52 49 53 50 79 51 80 52 88 53 81 54
REMARK SMILES IDX 87 55 89 56 86 57 82 58 83 59 84 60 85 61 64 62 65 63 73 64
REMARK SMILES IDX 66 65 72 66 74 67 71 68 67 69 68 70 69 71 70 72 8 73 9 74
REMARK SMILES IDX 10 75 11 76 12 77 13 78 14 79 15 80 16 81 20 82 17 83 19 84
REMARK SMILES IDX 18 85 21 86 22 87 23 88 24 90 25 91 36 92 26 93 28 94 37 95
REMARK SMILES IDX 27 96 29 97 30 98 34 99 31 100 33 101 35 102 32 103
REMARK H PARENT 94 25 62 36 23 89
REMARK Flexibility Score: inf
ROOT
ATOM      1  C   UNL A   1      34.560  32.628  28.827  1.00  0.00     0.188 C 
ENDROOT
BRANCH   1   2
ATOM      2  O   UNL A   1      34.422  32.246  30.186  1.00  0.00    -0.376 OA
BRANCH   2   3
ATOM      3  C   UNL A   1      35.554  31.862  30.949  1.00  0.00     0.202 C 
BRANCH   3   4
ATOM      4  C   UNL A   1      36.215  30.473  30.789  1.00  0.00     0.261 C 
BRANCH   4   5
ATOM      5  O   UNL A   1      36.286  29.618  31.947  1.00  0.00    -0.460 OA
BRANCH   5   6
ATOM      6  C   UNL A   1      37.390  29.297  32.678  1.00  0.00     0.338 C 
ATOM      7  O   UNL A   1      37.453  28.194  33.214  1.00  0.00    -0.246 OA
BRANCH   6   8
ATOM      8  C   UNL A   1      38.355  30.367  33.108  1.00  0.00     0.060 A 
ATOM      9  C   UNL A   1      37.980  31.668  33.429  1.00  0.00     0.016 A 
ATOM     10  C   UNL A   1      39.717  30.033  33.234  1.00  0.00     0.016 A 
ATOM     11  C   UNL A   1      38.896  32.609  33.883  1.00  0.00     0.010 A 
ATOM     12  C   UNL A   1      40.666  30.991  33.628  1.00  0.00     0.010 A 
ATOM     13  C   UNL A   1      40.250  32.293  33.926  1.00  0.00    -0.014 A 
BRANCH  13  14
ATOM     14  C   UNL A   1      41.179  33.440  33.970  1.00  0.00     0.031 A 
ATOM     15  C   UNL A   1      41.700  33.936  32.648  1.00  0.00     0.074 A 
ATOM     16  C   UNL A   1      41.353  34.147  35.099  1.00  0.00     0.049 A 
ATOM     17  N   UNL A   1      42.453  34.966  32.387  1.00  0.00    -0.248 NA
ATOM     18  C   UNL A   1      41.265  33.190  31.451  1.00  0.00     0.031 C 
ATOM     19  C   UNL A   1      40.718  33.844  36.379  1.00  0.00     0.029 A 
ATOM     20  N   UNL A   1      42.071  35.289  35.345  1.00  0.00    -0.354 N 
ATOM     21  C   UNL A   1      42.573  35.000  31.004  1.00  0.00     0.074 A 
ATOM     22  C   UNL A   1      41.826  33.884  30.475  1.00  0.00     0.031 C 
ATOM     23  C   UNL A   1      41.070  34.782  37.274  1.00  0.00     0.029 A 
ATOM     24  C   UNL A   1      41.995  35.717  36.651  1.00  0.00     0.049 A 
ATOM     25  H   UNL A   1      42.591  35.757  34.653  1.00  0.00     0.167 HD
ATOM     26  C   UNL A   1      43.253  35.888  30.247  1.00  0.00     0.034 A 
ATOM     27  C   UNL A   1      42.627  36.733  37.270  1.00  0.00     0.034 A 
ATOM     28  C   UNL A   1      44.015  36.966  30.811  1.00  0.00     0.049 A 
ATOM     29  C   UNL A   1      43.532  37.601  36.433  1.00  0.00     0.074 A 
ATOM     30  C   UNL A   1      44.842  37.867  30.170  1.00  0.00     0.029 A 
ATOM     31  N   UNL A   1      44.047  37.277  32.165  1.00  0.00    -0.354 N 
ATOM     32  N   UNL A   1      43.737  37.557  35.135  1.00  0.00    -0.248 NA
ATOM     33  C   UNL A   1      44.296  38.642  37.129  1.00  0.00     0.031 C 
ATOM     34  C   UNL A   1      45.428  38.679  31.145  1.00  0.00     0.029 A 
ATOM     35  C   UNL A   1      44.906  38.337  32.385  1.00  0.00     0.049 A 
ATOM     36  H   UNL A   1      43.534  36.812  32.865  1.00  0.00     0.167 HD
ATOM     37  C   UNL A   1      44.641  38.574  34.856  1.00  0.00     0.074 A 
ATOM     38  C   UNL A   1      44.936  39.221  36.121  1.00  0.00     0.031 C 
ATOM     39  C   UNL A   1      45.176  38.946  33.666  1.00  0.00     0.034 A 
BRANCH  26  40
ATOM     40  C   UNL A   1      43.278  35.655  28.762  1.00  0.00     0.023 A 
ATOM     41  C   UNL A   1      44.083  34.661  28.178  1.00  0.00     0.031 A 
ATOM     42  C   UNL A   1      42.509  36.471  27.914  1.00  0.00     0.131 A 
ATOM     43  C   UNL A   1      44.125  34.533  26.781  1.00  0.00     0.055 A 
ATOM     44  C   UNL A   1      42.512  36.301  26.531  1.00  0.00     0.041 A 
ATOM     45  F   UNL A   1      41.754  37.458  28.421  1.00  0.00    -0.206 F 
ATOM     46  C   UNL A   1      43.327  35.330  25.955  1.00  0.00     0.022 A 
BRANCH  43  47
ATOM     47  S   UNL A   1      45.298  33.360  26.042  1.00  0.00     0.124 S 
ATOM     48  O   UNL A   1      44.514  32.818  24.935  1.00  0.00    -0.237 OA
ATOM     49  O   UNL A   1      46.417  34.218  25.672  1.00  0.00    -0.237 OA
ATOM     50  O   UNL A   1      45.568  32.418  27.127  1.00  0.00    -0.744 OA
ENDBRANCH  43  47
ENDBRANCH  26  40
BRANCH  27  51
ATOM     51  C   UNL A   1      42.495  36.930  38.746  1.00  0.00     0.023 A 
ATOM     52  C   UNL A   1      41.411  37.620  39.309  1.00  0.00     0.031 A 
ATOM     53  C   UNL A   1      43.487  36.442  39.622  1.00  0.00     0.131 A 
ATOM     54  C   UNL A   1      41.352  37.820  40.701  1.00  0.00     0.055 A 
ATOM     55  C   UNL A   1      43.407  36.612  41.004  1.00  0.00     0.041 A 
ATOM     56  F   UNL A   1      44.551  35.776  39.143  1.00  0.00    -0.206 F 
ATOM     57  C   UNL A   1      42.336  37.310  41.552  1.00  0.00     0.022 A 
BRANCH  54  58
ATOM     58  S   UNL A   1      39.989  38.799  41.392  1.00  0.00     0.124 S 
ATOM     59  O   UNL A   1      38.879  38.417  40.526  1.00  0.00    -0.237 OA
ATOM     60  O   UNL A   1      39.933  38.311  42.767  1.00  0.00    -0.237 OA
ATOM     61  O   UNL A   1      40.450  40.178  41.243  1.00  0.00    -0.744 OA
ENDBRANCH  54  58
ENDBRANCH  27  51
BRANCH  39  62
ATOM     62  C   UNL A   1      46.116  40.118  33.669  1.00  0.00     0.023 A 
ATOM     63  C   UNL A   1      47.497  39.942  33.828  1.00  0.00     0.031 A 
ATOM     64  C   UNL A   1      45.625  41.413  33.423  1.00  0.00     0.131 A 
ATOM     65  C   UNL A   1      48.349  41.051  33.759  1.00  0.00     0.055 A 
ATOM     66  C   UNL A   1      46.481  42.505  33.302  1.00  0.00     0.041 A 
ATOM     67  F   UNL A   1      44.309  41.624  33.256  1.00  0.00    -0.206 F 
ATOM     68  C   UNL A   1      47.852  42.327  33.475  1.00  0.00     0.022 A 
BRANCH  65  69
ATOM     69  S   UNL A   1      50.116  40.808  34.070  1.00  0.00     0.124 S 
ATOM     70  O   UNL A   1      50.552  42.162  34.400  1.00  0.00    -0.237 OA
ATOM     71  O   UNL A   1      50.116  39.853  35.173  1.00  0.00    -0.237 OA
ATOM     72  O   UNL A   1      50.619  40.287  32.800  1.00  0.00    -0.744 OA
ENDBRANCH  65  69
ENDBRANCH  39  62
ENDBRANCH  13  14
ENDBRANCH   6   8
ENDBRANCH   5   6
ENDBRANCH   4   5
ENDBRANCH   3   4
ENDBRANCH   2   3
ENDBRANCH   1   2
BRANCH   1  73
ATOM     73  C   UNL A   1      34.325  31.536  27.782  1.00  0.00     0.188 C 
BRANCH  73  74
ATOM     74  O   UNL A   1      35.343  30.557  27.556  1.00  0.00    -0.376 OA
BRANCH  74  75
ATOM     75  C   UNL A   1      34.904  29.265  27.151  1.00  0.00     0.202 C 
BRANCH  75  76
ATOM     76  C   UNL A   1      33.777  29.319  26.113  1.00  0.00     0.261 C 
BRANCH  76  77
ATOM     77  O   UNL A   1      33.384  27.987  25.751  1.00  0.00    -0.463 OA
BRANCH  77  78
ATOM     78  C   UNL A   1      32.079  27.705  25.848  1.00  0.00     0.310 C 
ATOM     79  O   UNL A   1      31.383  28.047  26.808  1.00  0.00    -0.252 OA
BRANCH  78  80
ATOM     80  C   UNL A   1      31.543  26.938  24.646  1.00  0.00     0.115 C 
ATOM     81  C   UNL A   1      30.349  27.729  24.129  1.00  0.00     0.043 C 
ATOM     82  C   UNL A   1      32.464  26.584  23.487  1.00  0.00     0.097 C 
ATOM     83  C   UNL A   1      30.745  28.917  23.317  1.00  0.00    -0.030 C 
ATOM     84  C   UNL A   1      32.931  27.866  22.737  1.00  0.00     0.041 C 
ATOM     85  C   UNL A   1      31.930  28.988  22.703  1.00  0.00    -0.030 C 
BRANCH  82  86
ATOM     86  C   UNL A   1      31.923  25.568  22.459  1.00  0.00     0.224 C 
ATOM     87  O   UNL A   1      32.144  25.778  21.255  1.00  0.00    -0.275 OA
ATOM     88  N   UNL A   1      31.066  24.539  22.681  1.00  0.00    -0.344 N 
ATOM     89  H   UNL A   1      30.216  24.671  22.203  1.00  0.00     0.164 HD
BRANCH  88  90
ATOM     90  C   UNL A   1      31.065  23.247  23.461  1.00  0.00     0.172 C 
ATOM     91  C   UNL A   1      30.619  23.618  24.902  1.00  0.00     0.037 C 
ATOM     92  C   UNL A   1      32.284  22.271  23.483  1.00  0.00     0.249 C 
ATOM     93  C   UNL A   1      31.414  22.942  26.007  1.00  0.00     0.025 C 
ATOM     94  N   UNL A   1      33.230  22.434  24.498  1.00  0.00    -0.308 N 
ATOM     95  O   UNL A   1      32.427  21.477  22.553  1.00  0.00    -0.272 OA
ATOM     96  C   UNL A   1      32.897  23.131  25.723  1.00  0.00     0.126 C 
BRANCH  94  97
ATOM     97  C   UNL A   1      34.570  21.974  24.310  1.00  0.00     0.080 A 
ATOM     98  C   UNL A   1      35.536  22.808  23.743  1.00  0.00     0.029 A 
ATOM     99  C   UNL A   1      34.989  20.759  24.875  1.00  0.00     0.146 A 
ATOM    100  C   UNL A   1      36.893  22.486  23.828  1.00  0.00     0.002 A 
ATOM    101  C   UNL A   1      36.345  20.475  25.038  1.00  0.00     0.041 A 
ATOM    102  F   UNL A   1      34.098  19.937  25.455  1.00  0.00    -0.205 F 
ATOM    103  C   UNL A   1      37.300  21.350  24.525  1.00  0.00     0.003 A 
ENDBRANCH  94  97
ENDBRANCH  88  90
ENDBRANCH  82  86
ENDBRANCH  78  80
ENDBRANCH  77  78
ENDBRANCH  76  77
ENDBRANCH  75  76
ENDBRANCH  74  75
ENDBRANCH  73  74
ENDBRANCH   1  73
TORSDOF 23
ENDMDL
MODEL 3
REMARK VINA RESULT:     -10.2      5.189     11.621
REMARK SMILES O=C(OCCOCCOCCOC(=O)[C@H]1CC=CC[C@@H]1C(=O)N[C@@H]1CCCN(c2ccccc2F)C1=O)c1ccc(-c2c3nc(c(-c4cc(S(=O)(=O)[O-])ccc4F)c4ccc([nH]4)c(-c4cc(S(=O)(=O)[O-])ccc4F)c4nc(c(-c5cc(S(=O)(=O)[O-])ccc5F)c5ccc2[nH]5)C=C4)C=C3)cc1
REMARK SMILES IDX 7 1 6 2 5 3 4 4 3 5 2 6 1 7 38 8 39 9 100 10 40 11 99 12
REMARK SMILES IDX 41 13 42 14 43 15 93 16 44 17 98 18 92 19 94 20 45 21 97 22
REMARK SMILES IDX 91 23 90 24 46 26 78 27 58 28 77 29 59 30 62 31 76 32 95 33
REMARK SMILES IDX 60 34 61 35 75 37 96 38 63 39 47 40 48 41 56 42 49 43 55 44
REMARK SMILES IDX 57 45 54 46 50 47 51 48 52 49 53 50 79 51 80 52 88 53 81 54
REMARK SMILES IDX 87 55 89 56 86 57 82 58 83 59 84 60 85 61 64 62 65 63 73 64
REMARK SMILES IDX 66 65 72 66 74 67 71 68 67 69 68 70 69 71 70 72 8 73 9 74
REMARK SMILES IDX 10 75 11 76 12 77 13 78 14 79 15 80 16 81 20 82 17 83 19 84
REMARK SMILES IDX 18 85 21 86 22 87 23 88 24 90 25 91 36 92 26 93 28 94 37 95
REMARK SMILES IDX 27 96 29 97 30 98 34 99 31 100 33 101 35 102 32 103
REMARK H PARENT 94 25 62 36 23 89
REMARK Flexibility Score: inf
ROOT
ATOM      1  C   UNL A   1      43.832  23.503  26.856  1.00  0.00     0.188 C 
ENDROOT
BRANCH   1   2
ATOM      2  O   UNL A   1      44.318  22.269  26.351  1.00  0.00    -0.376 OA
BRANCH   2   3
ATOM      3  C   UNL A   1      43.436  21.332  25.755  1.00  0.00     0.202 C 
BRANCH   3   4
ATOM      4  C   UNL A   1      41.983  21.147  26.251  1.00  0.00     0.261 C 
BRANCH   4   5
ATOM      5  O   UNL A   1      40.967  22.016  25.712  1.00  0.00    -0.460 OA
BRANCH   5   6
ATOM      6  C   UNL A   1      39.901  22.555  26.366  1.00  0.00     0.338 C 
ATOM      7  O   UNL A   1      38.808  21.998  26.293  1.00  0.00    -0.246 OA
BRANCH   6   8
ATOM      8  C   UNL A   1      39.960  23.966  26.882  1.00  0.00     0.060 A 
ATOM      9  C   UNL A   1      40.387  25.053  26.125  1.00  0.00     0.016 A 
ATOM     10  C   UNL A   1      39.522  24.220  28.197  1.00  0.00     0.016 A 
ATOM     11  C   UNL A   1      40.365  26.350  26.622  1.00  0.00     0.010 A 
ATOM     12  C   UNL A   1      39.558  25.517  28.736  1.00  0.00     0.010 A 
ATOM     13  C   UNL A   1      40.010  26.580  27.947  1.00  0.00    -0.014 A 
BRANCH  13  14
ATOM     14  C   UNL A   1      40.443  27.872  28.517  1.00  0.00     0.031 A 
ATOM     15  C   UNL A   1      41.919  28.160  28.489  1.00  0.00     0.074 A 
ATOM     16  C   UNL A   1      39.549  28.831  28.816  1.00  0.00     0.049 A 
ATOM     17  N   UNL A   1      42.560  29.238  28.840  1.00  0.00    -0.248 NA
ATOM     18  C   UNL A   1      42.784  27.097  27.941  1.00  0.00     0.031 C 
ATOM     19  C   UNL A   1      38.101  28.694  28.676  1.00  0.00     0.029 A 
ATOM     20  N   UNL A   1      39.723  30.119  29.250  1.00  0.00    -0.354 N 
ATOM     21  C   UNL A   1      43.895  28.990  28.546  1.00  0.00     0.074 A 
ATOM     22  C   UNL A   1      43.980  27.658  27.997  1.00  0.00     0.031 C 
ATOM     23  C   UNL A   1      37.519  29.857  29.012  1.00  0.00     0.029 A 
ATOM     24  C   UNL A   1      38.541  30.800  29.442  1.00  0.00     0.049 A 
ATOM     25  H   UNL A   1      40.607  30.519  29.409  1.00  0.00     0.167 HD
ATOM     26  C   UNL A   1      44.954  29.809  28.725  1.00  0.00     0.034 A 
ATOM     27  C   UNL A   1      38.320  32.033  29.937  1.00  0.00     0.034 A 
ATOM     28  C   UNL A   1      44.836  31.116  29.307  1.00  0.00     0.049 A 
ATOM     29  C   UNL A   1      39.526  32.860  30.304  1.00  0.00     0.074 A 
ATOM     30  C   UNL A   1      45.838  32.001  29.652  1.00  0.00     0.029 A 
ATOM     31  N   UNL A   1      43.629  31.717  29.643  1.00  0.00    -0.354 N 
ATOM     32  N   UNL A   1      40.798  32.574  30.134  1.00  0.00    -0.248 NA
ATOM     33  C   UNL A   1      39.280  34.161  30.937  1.00  0.00     0.031 C 
ATOM     34  C   UNL A   1      45.240  33.109  30.258  1.00  0.00     0.029 A 
ATOM     35  C   UNL A   1      43.862  32.950  30.221  1.00  0.00     0.049 A 
ATOM     36  H   UNL A   1      42.740  31.323  29.492  1.00  0.00     0.167 HD
ATOM     37  C   UNL A   1      41.504  33.666  30.622  1.00  0.00     0.074 A 
ATOM     38  C   UNL A   1      40.516  34.621  31.087  1.00  0.00     0.031 C 
ATOM     39  C   UNL A   1      42.845  33.867  30.677  1.00  0.00     0.034 A 
BRANCH  26  40
ATOM     40  C   UNL A   1      46.314  29.265  28.384  1.00  0.00     0.023 A 
ATOM     41  C   UNL A   1      47.008  28.400  29.248  1.00  0.00     0.031 A 
ATOM     42  C   UNL A   1      46.940  29.652  27.187  1.00  0.00     0.131 A 
ATOM     43  C   UNL A   1      48.305  27.979  28.916  1.00  0.00     0.055 A 
ATOM     44  C   UNL A   1      48.206  29.184  26.836  1.00  0.00     0.041 A 
ATOM     45  F   UNL A   1      46.334  30.505  26.346  1.00  0.00    -0.206 F 
ATOM     46  C   UNL A   1      48.899  28.346  27.704  1.00  0.00     0.022 A 
BRANCH  43  47
ATOM     47  S   UNL A   1      49.247  27.004  30.123  1.00  0.00     0.124 S 
ATOM     48  O   UNL A   1      50.547  27.671  30.090  1.00  0.00    -0.237 OA
ATOM     49  O   UNL A   1      48.473  27.175  31.346  1.00  0.00    -0.237 OA
ATOM     50  O   UNL A   1      49.231  25.655  29.560  1.00  0.00    -0.744 OA
ENDBRANCH  43  47
ENDBRANCH  26  40
BRANCH  27  51
ATOM     51  C   UNL A   1      36.929  32.518  30.186  1.00  0.00     0.023 A 
ATOM     52  C   UNL A   1      36.220  33.263  29.231  1.00  0.00     0.031 A 
ATOM     53  C   UNL A   1      36.293  32.259  31.418  1.00  0.00     0.131 A 
ATOM     54  C   UNL A   1      34.929  33.738  29.528  1.00  0.00     0.055 A 
ATOM     55  C   UNL A   1      34.998  32.701  31.694  1.00  0.00     0.041 A 
ATOM     56  F   UNL A   1      36.921  31.554  32.373  1.00  0.00    -0.206 F 
ATOM     57  C   UNL A   1      34.310  33.452  30.748  1.00  0.00     0.022 A 
BRANCH  54  58
ATOM     58  S   UNL A   1      34.073  34.780  28.313  1.00  0.00     0.124 S 
ATOM     59  O   UNL A   1      34.139  36.092  28.948  1.00  0.00    -0.237 OA
ATOM     60  O   UNL A   1      34.898  34.597  27.123  1.00  0.00    -0.237 OA
ATOM     61  O   UNL A   1      32.738  34.191  28.238  1.00  0.00    -0.744 OA
ENDBRANCH  54  58
ENDBRANCH  27  51
BRANCH  39  62
ATOM     62  C   UNL A   1      43.322  35.176  31.239  1.00  0.00     0.023 A 
ATOM     63  C   UNL A   1      43.609  36.264  30.404  1.00  0.00     0.031 A 
ATOM     64  C   UNL A   1      43.404  35.355  32.631  1.00  0.00     0.131 A 
ATOM     65  C   UNL A   1      43.987  37.489  30.968  1.00  0.00     0.055 A 
ATOM     66  C   UNL A   1      43.729  36.589  33.189  1.00  0.00     0.041 A 
ATOM     67  F   UNL A   1      43.128  34.340  33.467  1.00  0.00    -0.206 F 
ATOM     68  C   UNL A   1      44.027  37.665  32.355  1.00  0.00     0.022 A 
BRANCH  65  69
ATOM     69  S   UNL A   1      44.451  38.846  29.863  1.00  0.00     0.124 S 
ATOM     70  O   UNL A   1      43.275  39.708  29.933  1.00  0.00    -0.237 OA
ATOM     71  O   UNL A   1      45.661  39.368  30.492  1.00  0.00    -0.237 OA
ATOM     72  O   UNL A   1      44.659  38.184  28.576  1.00  0.00    -0.744 OA
ENDBRANCH  65  69
ENDBRANCH  39  62
ENDBRANCH  13  14
ENDBRANCH   6   8
ENDBRANCH   5   6
ENDBRANCH   4   5
ENDBRANCH   3   4
ENDBRANCH   2   3
ENDBRANCH   1   2
BRANCH   1  73
ATOM     73  C   UNL A   1      43.639  23.593  28.371  1.00  0.00     0.188 C 
BRANCH  73  74
ATOM     74  O   UNL A   1      44.685  24.143  29.176  1.00  0.00    -0.376 OA
BRANCH  74  75
ATOM     75  C   UNL A   1      44.376  24.385  30.544  1.00  0.00     0.202 C 
BRANCH  75  76
ATOM     76  C   UNL A   1      45.305  25.419  31.189  1.00  0.00     0.261 C 
BRANCH  76  77
ATOM     77  O   UNL A   1      45.562  25.058  32.554  1.00  0.00    -0.463 OA
BRANCH  77  78
ATOM     78  C   UNL A   1      45.288  25.989  33.478  1.00  0.00     0.310 C 
ATOM     79  O   UNL A   1      46.118  26.811  33.875  1.00  0.00    -0.252 OA
BRANCH  78  80
ATOM     80  C   UNL A   1      43.846  25.939  33.966  1.00  0.00     0.115 C 
ATOM     81  C   UNL A   1      43.587  24.501  34.394  1.00  0.00     0.043 C 
ATOM     82  C   UNL A   1      43.368  26.892  35.053  1.00  0.00     0.097 C 
ATOM     83  C   UNL A   1      44.154  24.182  35.737  1.00  0.00    -0.030 C 
ATOM     84  C   UNL A   1      44.068  26.583  36.409  1.00  0.00     0.041 C 
ATOM     85  C   UNL A   1      44.394  25.134  36.645  1.00  0.00    -0.030 C 
BRANCH  82  86
ATOM     86  C   UNL A   1      41.844  26.974  35.279  1.00  0.00     0.224 C 
ATOM     87  O   UNL A   1      41.396  26.621  36.382  1.00  0.00    -0.275 OA
ATOM     88  N   UNL A   1      40.880  27.222  34.357  1.00  0.00    -0.344 N 
ATOM     89  H   UNL A   1      40.285  26.447  34.242  1.00  0.00     0.164 HD
BRANCH  88  90
ATOM     90  C   UNL A   1      40.473  28.365  33.460  1.00  0.00     0.172 C 
ATOM     91  C   UNL A   1      41.631  28.544  32.441  1.00  0.00     0.037 C 
ATOM     92  C   UNL A   1      39.992  29.745  34.013  1.00  0.00     0.249 C 
ATOM     93  C   UNL A   1      42.022  29.987  32.170  1.00  0.00     0.025 C 
ATOM     94  N   UNL A   1      40.954  30.741  34.200  1.00  0.00    -0.308 N 
ATOM     95  O   UNL A   1      38.820  29.868  34.368  1.00  0.00    -0.272 OA
ATOM     96  C   UNL A   1      42.222  30.695  33.503  1.00  0.00     0.126 C 
BRANCH  94  97
ATOM     97  C   UNL A   1      40.726  31.790  35.143  1.00  0.00     0.080 A 
ATOM     98  C   UNL A   1      41.441  31.838  36.342  1.00  0.00     0.029 A 
ATOM     99  C   UNL A   1      39.935  32.897  34.797  1.00  0.00     0.146 A 
ATOM    100  C   UNL A   1      41.447  32.998  37.122  1.00  0.00     0.002 A 
ATOM    101  C   UNL A   1      40.005  34.084  35.527  1.00  0.00     0.041 A 
ATOM    102  F   UNL A   1      39.249  32.906  33.641  1.00  0.00    -0.205 F 
ATOM    103  C   UNL A   1      40.776  34.138  36.685  1.00  0.00     0.003 A 
ENDBRANCH  94  97
ENDBRANCH  88  90
ENDBRANCH  82  86
ENDBRANCH  78  80
ENDBRANCH  77  78
ENDBRANCH  76  77
ENDBRANCH  75  76
ENDBRANCH  74  75
ENDBRANCH  73  74
ENDBRANCH   1  73
TORSDOF 23
ENDMDL
