MODEL 1
REMARK VINA RESULT:     -11.2      0.000      0.000
REMARK SMILES CC(C)(C)c1cc2c(cc1Cl)C=C(C(=O)OCCOCCOCCOC(=O)c1ccc(-c3c4nc(c(-c5cc(S(=O)(=O)[O-])ccc5F)c5ccc([nH]5)c(-c5cc(S(=O)(=O)[O-])ccc5F)c5nc(c(-c6cc(S(=O)(=O)[O-])ccc6F)c6ccc3[nH]6)C=C5)C=C4)cc1)[C@@H](C(F)(F)F)O2
REMARK SMILES IDX 21 1 20 2 19 3 18 4 17 5 16 6 14 7 15 8 13 9 5 10 6 11 10 12
REMARK SMILES IDX 7 13 9 14 11 15 8 16 96 17 12 18 91 19 2 20 1 21 3 22 4 23
REMARK SMILES IDX 92 24 93 25 94 26 95 27 22 28 23 29 24 30 25 31 26 32 27 33
REMARK SMILES IDX 28 34 29 35 90 36 30 37 89 38 31 39 32 40 33 41 83 42 34 43
REMARK SMILES IDX 88 44 82 45 84 46 35 47 87 48 81 49 80 50 36 52 68 53 48 54
REMARK SMILES IDX 67 55 49 56 52 57 66 58 85 59 50 60 51 61 65 63 86 64 53 65
REMARK SMILES IDX 37 66 38 67 46 68 39 69 45 70 47 71 44 72 40 73 41 74 42 75
REMARK SMILES IDX 43 76 69 77 70 78 78 79 71 80 77 81 79 82 76 83 72 84 73 85
REMARK SMILES IDX 74 86 75 87 54 88 55 89 63 90 56 91 62 92 64 93 61 94 57 95
REMARK SMILES IDX 58 96 59 97 60 98
REMARK H PARENT 84 51 52 62
REMARK Flexibility Score: inf
ROOT
ATOM      1  C   UNL A   1      32.966  29.671  26.956  1.00  0.00     0.188 C 
ENDROOT
BRANCH   1   2
ATOM      2  C   UNL A   1      33.756  29.111  25.754  1.00  0.00     0.188 C 
BRANCH   2   3
ATOM      3  O   UNL A   1      33.187  29.465  24.503  1.00  0.00    -0.376 OA
BRANCH   3   4
ATOM      4  C   UNL A   1      33.320  28.515  23.458  1.00  0.00     0.202 C 
BRANCH   4   5
ATOM      5  C   UNL A   1      32.192  27.481  23.361  1.00  0.00     0.261 C 
BRANCH   5   6
ATOM      6  O   UNL A   1      32.609  26.112  23.498  1.00  0.00    -0.460 OA
BRANCH   6   7
ATOM      7  C   UNL A   1      31.663  25.213  23.846  1.00  0.00     0.338 C 
ATOM      8  O   UNL A   1      30.465  25.418  23.924  1.00  0.00    -0.246 OA
BRANCH   7   9
ATOM      9  C   UNL A   1      32.312  23.892  24.012  1.00  0.00     0.087 C 
ATOM     10  C   UNL A   1      33.553  18.973  23.932  1.00  0.00    -0.020 A 
ATOM     11  C   UNL A   1      34.023  20.131  24.596  1.00  0.00     0.053 A 
ATOM     12  C   UNL A   1      32.587  19.195  22.922  1.00  0.00     0.045 A 
ATOM     13  C   UNL A   1      33.497  21.407  24.353  1.00  0.00     0.128 A 
ATOM     14  C   UNL A   1      32.051  20.476  22.691  1.00  0.00     0.032 A 
ATOM     15  Cl  UNL A   1      31.978  17.964  21.873  1.00  0.00    -0.084 Cl
ATOM     16  C   UNL A   1      32.475  21.578  23.431  1.00  0.00     0.019 A 
ATOM     17  O   UNL A   1      34.035  22.424  25.087  1.00  0.00    -0.475 OA
ATOM     18  C   UNL A   1      31.839  22.878  23.277  1.00  0.00     0.027 C 
ATOM     19  C   UNL A   1      33.492  23.767  24.945  1.00  0.00     0.316 C 
BRANCH  10  20
ATOM     20  C   UNL A   1      34.076  17.574  24.354  1.00  0.00    -0.012 C 
ATOM     21  C   UNL A   1      35.524  17.652  24.898  1.00  0.00     0.016 C 
ATOM     22  C   UNL A   1      34.154  16.564  23.174  1.00  0.00     0.016 C 
ATOM     23  C   UNL A   1      33.145  16.933  25.404  1.00  0.00     0.016 C 
ENDBRANCH  10  20
BRANCH  19  24
ATOM     24  C   UNL A   1      33.195  24.296  26.355  1.00  0.00     0.430 C 
ATOM     25  F   UNL A   1      33.377  25.640  26.422  1.00  0.00    -0.167 F 
ATOM     26  F   UNL A   1      31.912  24.069  26.728  1.00  0.00    -0.167 F 
ATOM     27  F   UNL A   1      33.993  23.735  27.291  1.00  0.00    -0.167 F 
ENDBRANCH  19  24
ENDBRANCH   7   9
ENDBRANCH   6   7
ENDBRANCH   5   6
ENDBRANCH   4   5
ENDBRANCH   3   4
ENDBRANCH   2   3
ENDBRANCH   1   2
BRANCH   1  28
ATOM     28  O   UNL A   1      31.729  30.339  26.736  1.00  0.00    -0.376 OA
BRANCH  28  29
ATOM     29  C   UNL A   1      31.715  31.763  26.697  1.00  0.00     0.202 C 
BRANCH  29  30
ATOM     30  C   UNL A   1      32.582  32.529  27.703  1.00  0.00     0.261 C 
BRANCH  30  31
ATOM     31  O   UNL A   1      32.523  33.958  27.564  1.00  0.00    -0.460 OA
BRANCH  31  32
ATOM     32  C   UNL A   1      33.173  34.671  28.521  1.00  0.00     0.338 C 
ATOM     33  O   UNL A   1      32.825  35.729  29.013  1.00  0.00    -0.246 OA
BRANCH  32  34
ATOM     34  C   UNL A   1      34.291  33.855  29.041  1.00  0.00     0.060 A 
ATOM     35  C   UNL A   1      35.527  33.830  28.393  1.00  0.00     0.016 A 
ATOM     36  C   UNL A   1      34.081  33.094  30.200  1.00  0.00     0.016 A 
ATOM     37  C   UNL A   1      36.559  33.044  28.913  1.00  0.00     0.010 A 
ATOM     38  C   UNL A   1      35.107  32.292  30.704  1.00  0.00     0.010 A 
ATOM     39  C   UNL A   1      36.357  32.271  30.070  1.00  0.00    -0.014 A 
BRANCH  39  40
ATOM     40  C   UNL A   1      37.499  31.563  30.697  1.00  0.00     0.031 A 
ATOM     41  C   UNL A   1      38.252  30.487  29.977  1.00  0.00     0.074 A 
ATOM     42  C   UNL A   1      37.845  31.907  31.953  1.00  0.00     0.049 A 
ATOM     43  N   UNL A   1      39.330  29.850  30.357  1.00  0.00    -0.248 NA
ATOM     44  C   UNL A   1      37.733  30.068  28.667  1.00  0.00     0.031 C 
ATOM     45  C   UNL A   1      37.155  32.917  32.753  1.00  0.00     0.029 A 
ATOM     46  N   UNL A   1      38.849  31.454  32.771  1.00  0.00    -0.354 N 
ATOM     47  C   UNL A   1      39.640  28.974  29.325  1.00  0.00     0.074 A 
ATOM     48  C   UNL A   1      38.603  29.125  28.324  1.00  0.00     0.031 C 
ATOM     49  C   UNL A   1      37.763  33.018  33.945  1.00  0.00     0.029 A 
ATOM     50  C   UNL A   1      38.871  32.066  34.002  1.00  0.00     0.049 A 
ATOM     51  H   UNL A   1      39.492  30.759  32.502  1.00  0.00     0.167 HD
ATOM     52  C   UNL A   1      40.705  28.143  29.221  1.00  0.00     0.034 A 
ATOM     53  C   UNL A   1      39.690  31.888  35.059  1.00  0.00     0.034 A 
ATOM     54  C   UNL A   1      41.717  27.999  30.241  1.00  0.00     0.049 A 
ATOM     55  C   UNL A   1      40.841  30.923  34.935  1.00  0.00     0.074 A 
ATOM     56  C   UNL A   1      42.869  27.232  30.197  1.00  0.00     0.029 A 
ATOM     57  N   UNL A   1      41.696  28.609  31.487  1.00  0.00    -0.354 N 
ATOM     58  N   UNL A   1      41.200  30.199  33.901  1.00  0.00    -0.248 NA
ATOM     59  C   UNL A   1      41.708  30.759  36.109  1.00  0.00     0.031 C 
ATOM     60  C   UNL A   1      43.500  27.317  31.437  1.00  0.00     0.029 A 
ATOM     61  C   UNL A   1      42.789  28.199  32.235  1.00  0.00     0.049 A 
ATOM     62  H   UNL A   1      41.006  29.239  31.796  1.00  0.00     0.167 HD
ATOM     63  C   UNL A   1      42.344  29.509  34.292  1.00  0.00     0.074 A 
ATOM     64  C   UNL A   1      42.633  29.924  35.649  1.00  0.00     0.031 C 
ATOM     65  C   UNL A   1      43.081  28.612  33.589  1.00  0.00     0.034 A 
BRANCH  52  66
ATOM     66  C   UNL A   1      40.881  27.337  27.957  1.00  0.00     0.023 A 
ATOM     67  C   UNL A   1      40.655  25.947  27.963  1.00  0.00     0.031 A 
ATOM     68  C   UNL A   1      41.434  27.915  26.800  1.00  0.00     0.131 A 
ATOM     69  C   UNL A   1      41.018  25.177  26.849  1.00  0.00     0.055 A 
ATOM     70  C   UNL A   1      41.758  27.149  25.679  1.00  0.00     0.041 A 
ATOM     71  F   UNL A   1      41.678  29.235  26.747  1.00  0.00    -0.206 F 
ATOM     72  C   UNL A   1      41.562  25.772  25.706  1.00  0.00     0.022 A 
BRANCH  69  73
ATOM     73  S   UNL A   1      40.870  23.369  26.867  1.00  0.00     0.124 S 
ATOM     74  O   UNL A   1      41.805  22.983  25.813  1.00  0.00    -0.237 OA
ATOM     75  O   UNL A   1      41.292  23.042  28.226  1.00  0.00    -0.237 OA
ATOM     76  O   UNL A   1      39.463  23.129  26.566  1.00  0.00    -0.744 OA
ENDBRANCH  69  73
ENDBRANCH  52  66
BRANCH  53  77
ATOM     77  C   UNL A   1      39.469  32.706  36.285  1.00  0.00     0.023 A 
ATOM     78  C   UNL A   1      38.683  32.217  37.346  1.00  0.00     0.031 A 
ATOM     79  C   UNL A   1      39.932  34.030  36.361  1.00  0.00     0.131 A 
ATOM     80  C   UNL A   1      38.324  33.070  38.397  1.00  0.00     0.055 A 
ATOM     81  C   UNL A   1      39.631  34.853  37.446  1.00  0.00     0.041 A 
ATOM     82  F   UNL A   1      40.671  34.545  35.366  1.00  0.00    -0.206 F 
ATOM     83  C   UNL A   1      38.807  34.380  38.463  1.00  0.00     0.022 A 
BRANCH  80  84
ATOM     84  S   UNL A   1      37.104  32.552  39.637  1.00  0.00     0.124 S 
ATOM     85  O   UNL A   1      37.588  31.226  40.006  1.00  0.00    -0.237 OA
ATOM     86  O   UNL A   1      37.260  33.588  40.656  1.00  0.00    -0.237 OA
ATOM     87  O   UNL A   1      35.839  32.584  38.910  1.00  0.00    -0.744 OA
ENDBRANCH  80  84
ENDBRANCH  53  77
BRANCH  65  88
ATOM     88  C   UNL A   1      44.280  27.979  34.255  1.00  0.00     0.023 A 
ATOM     89  C   UNL A   1      44.119  26.843  35.073  1.00  0.00     0.031 A 
ATOM     90  C   UNL A   1      45.546  28.589  34.212  1.00  0.00     0.131 A 
ATOM     91  C   UNL A   1      45.190  26.385  35.852  1.00  0.00     0.055 A 
ATOM     92  C   UNL A   1      46.624  28.098  34.950  1.00  0.00     0.041 A 
ATOM     93  F   UNL A   1      45.750  29.679  33.455  1.00  0.00    -0.206 F 
ATOM     94  C   UNL A   1      46.444  27.001  35.787  1.00  0.00     0.022 A 
BRANCH  91  95
ATOM     95  S   UNL A   1      44.975  25.033  37.043  1.00  0.00     0.124 S 
ATOM     96  O   UNL A   1      43.749  24.399  36.564  1.00  0.00    -0.237 OA
ATOM     97  O   UNL A   1      46.196  24.256  36.850  1.00  0.00    -0.237 OA
ATOM     98  O   UNL A   1      44.859  25.712  38.330  1.00  0.00    -0.744 OA
ENDBRANCH  91  95
ENDBRANCH  65  88
ENDBRANCH  39  40
ENDBRANCH  32  34
ENDBRANCH  31  32
ENDBRANCH  30  31
ENDBRANCH  29  30
ENDBRANCH  28  29
ENDBRANCH   1  28
TORSDOF 22
ENDMDL
MODEL 2
REMARK VINA RESULT:     -10.9      1.856      2.252
REMARK SMILES CC(C)(C)c1cc2c(cc1Cl)C=C(C(=O)OCCOCCOCCOC(=O)c1ccc(-c3c4nc(c(-c5cc(S(=O)(=O)[O-])ccc5F)c5ccc([nH]5)c(-c5cc(S(=O)(=O)[O-])ccc5F)c5nc(c(-c6cc(S(=O)(=O)[O-])ccc6F)c6ccc3[nH]6)C=C5)C=C4)cc1)[C@@H](C(F)(F)F)O2
REMARK SMILES IDX 21 1 20 2 19 3 18 4 17 5 16 6 14 7 15 8 13 9 5 10 6 11 10 12
REMARK SMILES IDX 7 13 9 14 11 15 8 16 96 17 12 18 91 19 2 20 1 21 3 22 4 23
REMARK SMILES IDX 92 24 93 25 94 26 95 27 22 28 23 29 24 30 25 31 26 32 27 33
REMARK SMILES IDX 28 34 29 35 90 36 30 37 89 38 31 39 32 40 33 41 83 42 34 43
REMARK SMILES IDX 88 44 82 45 84 46 35 47 87 48 81 49 80 50 36 52 68 53 48 54
REMARK SMILES IDX 67 55 49 56 52 57 66 58 85 59 50 60 51 61 65 63 86 64 53 65
REMARK SMILES IDX 37 66 38 67 46 68 39 69 45 70 47 71 44 72 40 73 41 74 42 75
REMARK SMILES IDX 43 76 69 77 70 78 78 79 71 80 77 81 79 82 76 83 72 84 73 85
REMARK SMILES IDX 74 86 75 87 54 88 55 89 63 90 56 91 62 92 64 93 61 94 57 95
REMARK SMILES IDX 58 96 59 97 60 98
REMARK H PARENT 84 51 52 62
REMARK Flexibility Score: inf
ROOT
ATOM      1  C   UNL A   1      31.825  29.741  26.107  1.00  0.00     0.188 C 
ENDROOT
BRANCH   1   2
ATOM      2  C   UNL A   1      31.429  29.898  24.623  1.00  0.00     0.188 C 
BRANCH   2   3
ATOM      3  O   UNL A   1      31.497  28.679  23.898  1.00  0.00    -0.376 OA
BRANCH   3   4
ATOM      4  C   UNL A   1      32.597  28.530  23.016  1.00  0.00     0.202 C 
BRANCH   4   5
ATOM      5  C   UNL A   1      33.866  27.938  23.640  1.00  0.00     0.261 C 
BRANCH   5   6
ATOM      6  O   UNL A   1      33.847  26.511  23.817  1.00  0.00    -0.460 OA
BRANCH   6   7
ATOM      7  C   UNL A   1      33.473  26.046  25.029  1.00  0.00     0.338 C 
ATOM      8  O   UNL A   1      33.295  26.711  26.034  1.00  0.00    -0.246 OA
BRANCH   7   9
ATOM      9  C   UNL A   1      33.204  24.595  24.911  1.00  0.00     0.087 C 
ATOM     10  C   UNL A   1      33.515  19.556  24.398  1.00  0.00    -0.020 A 
ATOM     11  C   UNL A   1      32.476  20.516  24.412  1.00  0.00     0.053 A 
ATOM     12  C   UNL A   1      34.800  20.039  24.744  1.00  0.00     0.045 A 
ATOM     13  C   UNL A   1      32.708  21.879  24.647  1.00  0.00     0.128 A 
ATOM     14  C   UNL A   1      35.032  21.411  24.965  1.00  0.00     0.032 A 
ATOM     15  Cl  UNL A   1      36.193  19.036  24.945  1.00  0.00    -0.084 Cl
ATOM     16  C   UNL A   1      33.996  22.338  24.879  1.00  0.00     0.019 A 
ATOM     17  O   UNL A   1      31.609  22.687  24.606  1.00  0.00    -0.475 OA
ATOM     18  C   UNL A   1      34.253  23.766  24.989  1.00  0.00     0.027 C 
ATOM     19  C   UNL A   1      31.777  24.123  24.767  1.00  0.00     0.316 C 
BRANCH  10  20
ATOM     20  C   UNL A   1      33.210  18.092  23.986  1.00  0.00    -0.012 C 
ATOM     21  C   UNL A   1      34.510  17.303  23.695  1.00  0.00     0.016 C 
ATOM     22  C   UNL A   1      32.382  17.982  22.674  1.00  0.00     0.016 C 
ATOM     23  C   UNL A   1      32.383  17.375  25.074  1.00  0.00     0.016 C 
ENDBRANCH  10  20
BRANCH  19  24
ATOM     24  C   UNL A   1      31.038  24.808  23.609  1.00  0.00     0.430 C 
ATOM     25  F   UNL A   1      31.845  24.943  22.525  1.00  0.00    -0.167 F 
ATOM     26  F   UNL A   1      29.963  24.096  23.194  1.00  0.00    -0.167 F 
ATOM     27  F   UNL A   1      30.601  26.043  23.942  1.00  0.00    -0.167 F 
ENDBRANCH  19  24
ENDBRANCH   7   9
ENDBRANCH   6   7
ENDBRANCH   5   6
ENDBRANCH   4   5
ENDBRANCH   3   4
ENDBRANCH   2   3
ENDBRANCH   1   2
BRANCH   1  28
ATOM     28  O   UNL A   1      32.018  30.900  26.910  1.00  0.00    -0.376 OA
BRANCH  28  29
ATOM     29  C   UNL A   1      31.314  32.091  26.576  1.00  0.00     0.202 C 
BRANCH  29  30
ATOM     30  C   UNL A   1      31.993  33.440  26.844  1.00  0.00     0.261 C 
BRANCH  30  31
ATOM     31  O   UNL A   1      32.470  33.602  28.189  1.00  0.00    -0.460 OA
BRANCH  31  32
ATOM     32  C   UNL A   1      33.506  34.468  28.347  1.00  0.00     0.338 C 
ATOM     33  O   UNL A   1      33.510  35.662  28.105  1.00  0.00    -0.246 OA
BRANCH  32  34
ATOM     34  C   UNL A   1      34.595  33.776  29.069  1.00  0.00     0.060 A 
ATOM     35  C   UNL A   1      34.322  32.728  29.950  1.00  0.00     0.016 A 
ATOM     36  C   UNL A   1      35.914  34.201  28.857  1.00  0.00     0.016 A 
ATOM     37  C   UNL A   1      35.378  32.100  30.617  1.00  0.00     0.010 A 
ATOM     38  C   UNL A   1      36.965  33.585  29.541  1.00  0.00     0.010 A 
ATOM     39  C   UNL A   1      36.704  32.524  30.418  1.00  0.00    -0.014 A 
BRANCH  39  40
ATOM     40  C   UNL A   1      37.825  31.754  31.011  1.00  0.00     0.031 A 
ATOM     41  C   UNL A   1      38.502  30.645  30.266  1.00  0.00     0.074 A 
ATOM     42  C   UNL A   1      38.222  32.073  32.257  1.00  0.00     0.049 A 
ATOM     43  N   UNL A   1      39.555  29.951  30.613  1.00  0.00    -0.248 NA
ATOM     44  C   UNL A   1      37.927  30.261  28.969  1.00  0.00     0.031 C 
ATOM     45  C   UNL A   1      37.606  33.113  33.081  1.00  0.00     0.029 A 
ATOM     46  N   UNL A   1      39.223  31.565  33.046  1.00  0.00    -0.354 N 
ATOM     47  C   UNL A   1      39.792  29.067  29.569  1.00  0.00     0.074 A 
ATOM     48  C   UNL A   1      38.738  29.276  28.598  1.00  0.00     0.031 C 
ATOM     49  C   UNL A   1      38.251  33.176  34.256  1.00  0.00     0.029 A 
ATOM     50  C   UNL A   1      39.309  32.168  34.279  1.00  0.00     0.049 A 
ATOM     51  H   UNL A   1      39.822  30.839  32.757  1.00  0.00     0.167 HD
ATOM     52  C   UNL A   1      40.810  28.183  29.432  1.00  0.00     0.034 A 
ATOM     53  C   UNL A   1      40.146  31.942  35.312  1.00  0.00     0.034 A 
ATOM     54  C   UNL A   1      41.840  27.981  30.424  1.00  0.00     0.049 A 
ATOM     55  C   UNL A   1      41.243  30.919  35.153  1.00  0.00     0.074 A 
ATOM     56  C   UNL A   1      42.949  27.156  30.345  1.00  0.00     0.029 A 
ATOM     57  N   UNL A   1      41.884  28.584  31.673  1.00  0.00    -0.354 N 
ATOM     58  N   UNL A   1      41.536  30.184  34.106  1.00  0.00    -0.248 NA
ATOM     59  C   UNL A   1      42.132  30.704  36.302  1.00  0.00     0.031 C 
ATOM     60  C   UNL A   1      43.617  27.202  31.568  1.00  0.00     0.029 A 
ATOM     61  C   UNL A   1      42.975  28.114  32.389  1.00  0.00     0.049 A 
ATOM     62  H   UNL A   1      41.236  29.247  32.003  1.00  0.00     0.167 HD
ATOM     63  C   UNL A   1      42.653  29.434  34.463  1.00  0.00     0.074 A 
ATOM     64  C   UNL A   1      42.999  29.826  35.814  1.00  0.00     0.031 C 
ATOM     65  C   UNL A   1      43.324  28.505  33.736  1.00  0.00     0.034 A 
BRANCH  52  66
ATOM     66  C   UNL A   1      40.910  27.376  28.161  1.00  0.00     0.023 A 
ATOM     67  C   UNL A   1      40.677  25.987  28.180  1.00  0.00     0.031 A 
ATOM     68  C   UNL A   1      41.399  27.952  26.974  1.00  0.00     0.131 A 
ATOM     69  C   UNL A   1      40.973  25.216  27.047  1.00  0.00     0.055 A 
ATOM     70  C   UNL A   1      41.655  27.185  25.836  1.00  0.00     0.041 A 
ATOM     71  F   UNL A   1      41.646  29.270  26.908  1.00  0.00    -0.206 F 
ATOM     72  C   UNL A   1      41.455  25.808  25.875  1.00  0.00     0.022 A 
BRANCH  69  73
ATOM     73  S   UNL A   1      40.817  23.409  27.074  1.00  0.00     0.124 S 
ATOM     74  O   UNL A   1      41.644  23.021  25.933  1.00  0.00    -0.237 OA
ATOM     75  O   UNL A   1      41.368  23.074  28.384  1.00  0.00    -0.237 OA
ATOM     76  O   UNL A   1      39.387  23.177  26.911  1.00  0.00    -0.744 OA
ENDBRANCH  69  73
ENDBRANCH  52  66
BRANCH  53  77
ATOM     77  C   UNL A   1      40.001  32.763  36.547  1.00  0.00     0.023 A 
ATOM     78  C   UNL A   1      40.896  33.814  36.823  1.00  0.00     0.031 A 
ATOM     79  C   UNL A   1      39.050  32.431  37.526  1.00  0.00     0.131 A 
ATOM     80  C   UNL A   1      40.867  34.443  38.074  1.00  0.00     0.055 A 
ATOM     81  C   UNL A   1      38.979  33.108  38.743  1.00  0.00     0.041 A 
ATOM     82  F   UNL A   1      38.186  31.425  37.314  1.00  0.00    -0.206 F 
ATOM     83  C   UNL A   1      39.903  34.108  39.030  1.00  0.00     0.022 A 
BRANCH  80  84
ATOM     84  S   UNL A   1      42.168  35.614  38.555  1.00  0.00     0.124 S 
ATOM     85  O   UNL A   1      42.151  35.507  40.010  1.00  0.00    -0.237 OA
ATOM     86  O   UNL A   1      43.340  35.043  37.893  1.00  0.00    -0.237 OA
ATOM     87  O   UNL A   1      41.707  36.886  38.008  1.00  0.00    -0.744 OA
ENDBRANCH  80  84
ENDBRANCH  53  77
BRANCH  65  88
ATOM     88  C   UNL A   1      44.506  27.806  34.367  1.00  0.00     0.023 A 
ATOM     89  C   UNL A   1      44.310  26.663  35.167  1.00  0.00     0.031 A 
ATOM     90  C   UNL A   1      45.796  28.362  34.310  1.00  0.00     0.131 A 
ATOM     91  C   UNL A   1      45.375  26.144  35.916  1.00  0.00     0.055 A 
ATOM     92  C   UNL A   1      46.866  27.809  35.017  1.00  0.00     0.041 A 
ATOM     93  F   UNL A   1      46.034  29.456  33.569  1.00  0.00    -0.206 F 
ATOM     94  C   UNL A   1      46.653  26.706  35.838  1.00  0.00     0.022 A 
BRANCH  91  95
ATOM     95  S   UNL A   1      45.123  24.780  37.086  1.00  0.00     0.124 S 
ATOM     96  O   UNL A   1      46.324  24.863  37.912  1.00  0.00    -0.237 OA
ATOM     97  O   UNL A   1      43.882  25.170  37.749  1.00  0.00    -0.237 OA
ATOM     98  O   UNL A   1      45.035  23.597  36.235  1.00  0.00    -0.744 OA
ENDBRANCH  91  95
ENDBRANCH  65  88
ENDBRANCH  39  40
ENDBRANCH  32  34
ENDBRANCH  31  32
ENDBRANCH  30  31
ENDBRANCH  29  30
ENDBRANCH  28  29
ENDBRANCH   1  28
TORSDOF 22
ENDMDL
MODEL 3
REMARK VINA RESULT:     -10.8      2.742      9.025
REMARK SMILES CC(C)(C)c1cc2c(cc1Cl)C=C(C(=O)OCCOCCOCCOC(=O)c1ccc(-c3c4nc(c(-c5cc(S(=O)(=O)[O-])ccc5F)c5ccc([nH]5)c(-c5cc(S(=O)(=O)[O-])ccc5F)c5nc(c(-c6cc(S(=O)(=O)[O-])ccc6F)c6ccc3[nH]6)C=C5)C=C4)cc1)[C@@H](C(F)(F)F)O2
REMARK SMILES IDX 21 1 20 2 19 3 18 4 17 5 16 6 14 7 15 8 13 9 5 10 6 11 10 12
REMARK SMILES IDX 7 13 9 14 11 15 8 16 96 17 12 18 91 19 2 20 1 21 3 22 4 23
REMARK SMILES IDX 92 24 93 25 94 26 95 27 22 28 23 29 24 30 25 31 26 32 27 33
REMARK SMILES IDX 28 34 29 35 90 36 30 37 89 38 31 39 32 40 33 41 83 42 34 43
REMARK SMILES IDX 88 44 82 45 84 46 35 47 87 48 81 49 80 50 36 52 68 53 48 54
REMARK SMILES IDX 67 55 49 56 52 57 66 58 85 59 50 60 51 61 65 63 86 64 53 65
REMARK SMILES IDX 37 66 38 67 46 68 39 69 45 70 47 71 44 72 40 73 41 74 42 75
REMARK SMILES IDX 43 76 69 77 70 78 78 79 71 80 77 81 79 82 76 83 72 84 73 85
REMARK SMILES IDX 74 86 75 87 54 88 55 89 63 90 56 91 62 92 64 93 61 94 57 95
REMARK SMILES IDX 58 96 59 97 60 98
REMARK H PARENT 84 51 52 62
REMARK Flexibility Score: inf
ROOT
ATOM      1  C   UNL A   1      40.048  20.923  26.281  1.00  0.00     0.188 C 
ENDROOT
BRANCH   1   2
ATOM      2  C   UNL A   1      38.847  21.835  25.955  1.00  0.00     0.188 C 
BRANCH   2   3
ATOM      3  O   UNL A   1      37.595  21.200  26.159  1.00  0.00    -0.376 OA
BRANCH   3   4
ATOM      4  C   UNL A   1      36.538  21.598  25.301  1.00  0.00     0.202 C 
BRANCH   4   5
ATOM      5  C   UNL A   1      35.209  21.916  25.997  1.00  0.00     0.261 C 
BRANCH   5   6
ATOM      6  O   UNL A   1      34.834  23.304  25.984  1.00  0.00    -0.460 OA
BRANCH   6   7
ATOM      7  C   UNL A   1      35.463  24.102  25.094  1.00  0.00     0.338 C 
ATOM      8  O   UNL A   1      36.631  24.029  24.758  1.00  0.00    -0.246 OA
BRANCH   7   9
ATOM      9  C   UNL A   1      34.464  25.021  24.502  1.00  0.00     0.087 C 
ATOM     10  C   UNL A   1      31.030  28.651  23.616  1.00  0.00    -0.020 A 
ATOM     11  C   UNL A   1      31.526  27.525  22.916  1.00  0.00     0.053 A 
ATOM     12  C   UNL A   1      31.717  28.982  24.808  1.00  0.00     0.045 A 
ATOM     13  C   UNL A   1      32.560  26.720  23.415  1.00  0.00     0.128 A 
ATOM     14  C   UNL A   1      32.745  28.162  25.313  1.00  0.00     0.032 A 
ATOM     15  Cl  UNL A   1      31.398  30.394  25.753  1.00  0.00    -0.084 Cl
ATOM     16  C   UNL A   1      33.143  27.010  24.639  1.00  0.00     0.019 A 
ATOM     17  O   UNL A   1      32.915  25.655  22.637  1.00  0.00    -0.475 OA
ATOM     18  C   UNL A   1      34.121  26.100  25.216  1.00  0.00     0.027 C 
ATOM     19  C   UNL A   1      33.929  24.731  23.120  1.00  0.00     0.316 C 
BRANCH  10  20
ATOM     20  C   UNL A   1      29.788  29.409  23.079  1.00  0.00    -0.012 C 
ATOM     21  C   UNL A   1      30.026  29.941  21.644  1.00  0.00     0.016 C 
ATOM     22  C   UNL A   1      29.431  30.673  23.912  1.00  0.00     0.016 C 
ATOM     23  C   UNL A   1      28.536  28.508  23.113  1.00  0.00     0.016 C 
ENDBRANCH  10  20
BRANCH  19  24
ATOM     24  C   UNL A   1      33.361  23.311  22.987  1.00  0.00     0.430 C 
ATOM     25  F   UNL A   1      32.538  23.014  24.025  1.00  0.00    -0.167 F 
ATOM     26  F   UNL A   1      32.623  23.157  21.862  1.00  0.00    -0.167 F 
ATOM     27  F   UNL A   1      34.334  22.372  22.964  1.00  0.00    -0.167 F 
ENDBRANCH  19  24
ENDBRANCH   7   9
ENDBRANCH   6   7
ENDBRANCH   5   6
ENDBRANCH   4   5
ENDBRANCH   3   4
ENDBRANCH   2   3
ENDBRANCH   1   2
BRANCH   1  28
ATOM     28  O   UNL A   1      41.329  21.500  26.510  1.00  0.00    -0.376 OA
BRANCH  28  29
ATOM     29  C   UNL A   1      42.464  20.928  25.868  1.00  0.00     0.202 C 
BRANCH  29  30
ATOM     30  C   UNL A   1      43.531  21.870  25.296  1.00  0.00     0.261 C 
BRANCH  30  31
ATOM     31  O   UNL A   1      43.019  23.133  24.842  1.00  0.00    -0.460 OA
BRANCH  31  32
ATOM     32  C   UNL A   1      43.832  24.204  25.039  1.00  0.00     0.338 C 
ATOM     33  O   UNL A   1      44.802  24.523  24.376  1.00  0.00    -0.246 OA
BRANCH  32  34
ATOM     34  C   UNL A   1      43.232  25.067  26.079  1.00  0.00     0.060 A 
ATOM     35  C   UNL A   1      42.235  24.584  26.929  1.00  0.00     0.016 A 
ATOM     36  C   UNL A   1      43.681  26.391  26.191  1.00  0.00     0.016 A 
ATOM     37  C   UNL A   1      41.690  25.431  27.898  1.00  0.00     0.010 A 
ATOM     38  C   UNL A   1      43.119  27.241  27.146  1.00  0.00     0.010 A 
ATOM     39  C   UNL A   1      42.127  26.763  28.013  1.00  0.00    -0.014 A 
BRANCH  39  40
ATOM     40  C   UNL A   1      41.654  27.604  29.139  1.00  0.00     0.031 A 
ATOM     41  C   UNL A   1      40.417  28.442  29.033  1.00  0.00     0.074 A 
ATOM     42  C   UNL A   1      42.376  27.604  30.276  1.00  0.00     0.049 A 
ATOM     43  N   UNL A   1      39.826  29.149  29.962  1.00  0.00    -0.248 NA
ATOM     44  C   UNL A   1      39.759  28.499  27.720  1.00  0.00     0.031 C 
ATOM     45  C   UNL A   1      43.614  26.851  30.470  1.00  0.00     0.029 A 
ATOM     46  N   UNL A   1      42.183  28.251  31.471  1.00  0.00    -0.354 N 
ATOM     47  C   UNL A   1      38.710  29.714  29.360  1.00  0.00     0.074 A 
ATOM     48  C   UNL A   1      38.736  29.310  27.970  1.00  0.00     0.031 C 
ATOM     49  C   UNL A   1      44.064  27.066  31.715  1.00  0.00     0.029 A 
ATOM     50  C   UNL A   1      43.162  27.990  32.400  1.00  0.00     0.049 A 
ATOM     51  H   UNL A   1      41.417  28.844  31.645  1.00  0.00     0.167 HD
ATOM     52  C   UNL A   1      37.747  30.479  29.930  1.00  0.00     0.034 A 
ATOM     53  C   UNL A   1      43.318  28.438  33.663  1.00  0.00     0.034 A 
ATOM     54  C   UNL A   1      37.753  30.882  31.317  1.00  0.00     0.049 A 
ATOM     55  C   UNL A   1      42.255  29.326  34.259  1.00  0.00     0.074 A 
ATOM     56  C   UNL A   1      36.786  31.600  31.999  1.00  0.00     0.029 A 
ATOM     57  N   UNL A   1      38.772  30.627  32.224  1.00  0.00    -0.354 N 
ATOM     58  N   UNL A   1      41.135  29.744  33.719  1.00  0.00    -0.248 NA
ATOM     59  C   UNL A   1      42.465  29.790  35.636  1.00  0.00     0.031 C 
ATOM     60  C   UNL A   1      37.253  31.844  33.291  1.00  0.00     0.029 A 
ATOM     61  C   UNL A   1      38.477  31.214  33.446  1.00  0.00     0.049 A 
ATOM     62  H   UNL A   1      39.585  30.108  32.029  1.00  0.00     0.167 HD
ATOM     63  C   UNL A   1      40.497  30.504  34.694  1.00  0.00     0.074 A 
ATOM     64  C   UNL A   1      41.345  30.464  35.869  1.00  0.00     0.031 C 
ATOM     65  C   UNL A   1      39.320  31.174  34.619  1.00  0.00     0.034 A 
BRANCH  52  66
ATOM     66  C   UNL A   1      36.571  30.916  29.090  1.00  0.00     0.023 A 
ATOM     67  C   UNL A   1      36.143  32.257  29.111  1.00  0.00     0.031 A 
ATOM     68  C   UNL A   1      35.778  29.976  28.409  1.00  0.00     0.131 A 
ATOM     69  C   UNL A   1      34.934  32.612  28.497  1.00  0.00     0.055 A 
ATOM     70  C   UNL A   1      34.594  30.342  27.765  1.00  0.00     0.041 A 
ATOM     71  F   UNL A   1      36.138  28.682  28.367  1.00  0.00    -0.206 F 
ATOM     72  C   UNL A   1      34.161  31.663  27.820  1.00  0.00     0.022 A 
BRANCH  69  73
ATOM     73  S   UNL A   1      34.278  34.299  28.617  1.00  0.00     0.124 S 
ATOM     74  O   UNL A   1      35.106  34.867  29.679  1.00  0.00    -0.237 OA
ATOM     75  O   UNL A   1      34.536  34.822  27.278  1.00  0.00    -0.237 OA
ATOM     76  O   UNL A   1      32.874  34.107  28.960  1.00  0.00    -0.744 OA
ENDBRANCH  69  73
ENDBRANCH  52  66
BRANCH  53  77
ATOM     77  C   UNL A   1      44.500  27.979  34.447  1.00  0.00     0.023 A 
ATOM     78  C   UNL A   1      44.392  26.905  35.351  1.00  0.00     0.031 A 
ATOM     79  C   UNL A   1      45.714  28.683  34.399  1.00  0.00     0.131 A 
ATOM     80  C   UNL A   1      45.452  26.617  36.219  1.00  0.00     0.055 A 
ATOM     81  C   UNL A   1      46.793  28.346  35.215  1.00  0.00     0.041 A 
ATOM     82  F   UNL A   1      45.859  29.724  33.563  1.00  0.00    -0.206 F 
ATOM     83  C   UNL A   1      46.658  27.319  36.146  1.00  0.00     0.022 A 
BRANCH  80  84
ATOM     84  S   UNL A   1      45.249  25.418  37.567  1.00  0.00     0.124 S 
ATOM     85  O   UNL A   1      46.480  24.641  37.471  1.00  0.00    -0.237 OA
ATOM     86  O   UNL A   1      45.144  26.296  38.731  1.00  0.00    -0.237 OA
ATOM     87  O   UNL A   1      44.023  24.708  37.215  1.00  0.00    -0.744 OA
ENDBRANCH  80  84
ENDBRANCH  53  77
BRANCH  65  88
ATOM     88  C   UNL A   1      38.850  31.953  35.826  1.00  0.00     0.023 A 
ATOM     89  C   UNL A   1      38.200  31.292  36.887  1.00  0.00     0.031 A 
ATOM     90  C   UNL A   1      38.900  33.358  35.852  1.00  0.00     0.131 A 
ATOM     91  C   UNL A   1      37.583  32.038  37.901  1.00  0.00     0.055 A 
ATOM     92  C   UNL A   1      38.329  34.094  36.892  1.00  0.00     0.041 A 
ATOM     93  F   UNL A   1      39.500  34.036  34.861  1.00  0.00    -0.206 F 
ATOM     94  C   UNL A   1      37.653  33.434  37.913  1.00  0.00     0.022 A 
BRANCH  91  95
ATOM     95  S   UNL A   1      36.593  31.231  39.190  1.00  0.00     0.124 S 
ATOM     96  O   UNL A   1      36.313  29.930  38.588  1.00  0.00    -0.237 OA
ATOM     97  O   UNL A   1      37.519  31.208  40.319  1.00  0.00    -0.237 OA
ATOM     98  O   UNL A   1      35.435  32.105  39.345  1.00  0.00    -0.744 OA
ENDBRANCH  91  95
ENDBRANCH  65  88
ENDBRANCH  39  40
ENDBRANCH  32  34
ENDBRANCH  31  32
ENDBRANCH  30  31
ENDBRANCH  29  30
ENDBRANCH  28  29
ENDBRANCH   1  28
TORSDOF 22
ENDMDL
