MODEL 1
REMARK VINA RESULT:      -7.6      0.000      0.000
REMARK SMILES CO[C@H](C)[C@@H](NC(=O)OCc1ccccc1)C(=O)OCCOCCOCCOC(=O)c1ccc(-c2c3nc(c(-c4cc(S(=O)(=O)[O-])ccc4F)c4ccc([nH]4)c(-c4cc(S(=O)(=O)[O-])ccc4F)c4nc(c(-c5cc(S(=O)(=O)[O-])ccc5F)c5ccc2[nH]5)C=C4)C=C3)cc1
REMARK SMILES IDX 23 1 22 2 21 3 20 4 19 5 17 6 18 7 5 8 3 9 4 10 2 11 1 12
REMARK SMILES IDX 6 13 7 14 8 16 9 17 10 18 11 19 12 20 16 21 13 22 15 23
REMARK SMILES IDX 14 24 24 25 25 26 26 27 27 28 28 29 29 30 30 31 31 32 32 33
REMARK SMILES IDX 93 34 33 35 92 36 34 37 35 38 36 39 86 40 37 41 91 42 85 43
REMARK SMILES IDX 87 44 38 45 90 46 84 47 83 48 39 50 71 51 51 52 70 53 52 54
REMARK SMILES IDX 55 55 69 56 88 57 53 58 54 59 68 61 89 62 56 63 40 64 41 65
REMARK SMILES IDX 49 66 42 67 48 68 50 69 47 70 43 71 44 72 45 73 46 74 72 75
REMARK SMILES IDX 73 76 81 77 74 78 80 79 82 80 79 81 75 82 76 83 77 84 78 85
REMARK SMILES IDX 57 86 58 87 66 88 59 89 65 90 67 91 64 92 60 93 61 94 62 95
REMARK SMILES IDX 63 96
REMARK H PARENT 6 15 87 49 55 60
REMARK Flexibility Score: inf
ROOT
ATOM      1  C   UNL A   1      36.388  30.103  27.729  1.00  0.00     0.188 C 
ENDROOT
BRANCH   1   2
ATOM      2  O   UNL A   1      35.130  29.494  27.477  1.00  0.00    -0.376 OA
BRANCH   2   3
ATOM      3  C   UNL A   1      33.997  30.327  27.255  1.00  0.00     0.202 C 
BRANCH   3   4
ATOM      4  C   UNL A   1      32.772  29.757  26.523  1.00  0.00     0.261 C 
BRANCH   4   5
ATOM      5  O   UNL A   1      32.250  28.480  26.974  1.00  0.00    -0.462 OA
BRANCH   5   6
ATOM      6  C   UNL A   1      32.495  27.403  26.161  1.00  0.00     0.331 C 
ATOM      7  O   UNL A   1      33.587  27.193  25.636  1.00  0.00    -0.250 OA
BRANCH   6   8
ATOM      8  C   UNL A   1      31.242  26.570  25.780  1.00  0.00     0.224 C 
BRANCH   8   9
ATOM      9  C   UNL A   1      30.949  26.141  24.307  1.00  0.00     0.148 C 
ATOM     10  C   UNL A   1      29.423  25.994  24.121  1.00  0.00     0.041 C 
BRANCH   9  11
ATOM     11  O   UNL A   1      31.335  27.167  23.377  1.00  0.00    -0.379 OA
ATOM     12  C   UNL A   1      32.109  26.697  22.272  1.00  0.00     0.195 C 
ENDBRANCH   9  11
ENDBRANCH   8   9
BRANCH   8  13
ATOM     13  N   UNL A   1      31.024  25.480  26.757  1.00  0.00    -0.305 N 
ATOM     14  C   UNL A   1      31.626  24.258  26.790  1.00  0.00     0.408 C 
ATOM     15  H   UNL A   1      30.367  25.658  27.467  1.00  0.00     0.168 HD
ATOM     16  O   UNL A   1      31.224  23.355  27.521  1.00  0.00    -0.225 OA
BRANCH  14  17
ATOM     17  O   UNL A   1      32.717  24.192  26.010  1.00  0.00    -0.445 OA
BRANCH  17  18
ATOM     18  C   UNL A   1      33.172  22.906  25.580  1.00  0.00     0.270 C 
BRANCH  18  19
ATOM     19  C   UNL A   1      34.674  22.785  25.474  1.00  0.00    -0.011 A 
ATOM     20  C   UNL A   1      35.542  23.860  25.716  1.00  0.00     0.007 A 
ATOM     21  C   UNL A   1      35.223  21.559  25.074  1.00  0.00     0.007 A 
ATOM     22  C   UNL A   1      36.926  23.693  25.627  1.00  0.00     0.000 A 
ATOM     23  C   UNL A   1      36.606  21.393  24.980  1.00  0.00     0.000 A 
ATOM     24  C   UNL A   1      37.457  22.457  25.268  1.00  0.00     0.000 A 
ENDBRANCH  18  19
ENDBRANCH  17  18
ENDBRANCH  14  17
ENDBRANCH   8  13
ENDBRANCH   6   8
ENDBRANCH   5   6
ENDBRANCH   4   5
ENDBRANCH   3   4
ENDBRANCH   2   3
ENDBRANCH   1   2
BRANCH   1  25
ATOM     25  C   UNL A   1      37.116  29.717  29.016  1.00  0.00     0.188 C 
BRANCH  25  26
ATOM     26  O   UNL A   1      36.284  29.401  30.111  1.00  0.00    -0.376 OA
BRANCH  26  27
ATOM     27  C   UNL A   1      36.735  29.765  31.400  1.00  0.00     0.202 C 
BRANCH  27  28
ATOM     28  C   UNL A   1      36.119  31.002  32.077  1.00  0.00     0.261 C 
BRANCH  28  29
ATOM     29  O   UNL A   1      36.984  31.791  32.918  1.00  0.00    -0.460 OA
BRANCH  29  30
ATOM     30  C   UNL A   1      37.585  32.881  32.375  1.00  0.00     0.338 C 
ATOM     31  O   UNL A   1      37.224  34.037  32.499  1.00  0.00    -0.246 OA
BRANCH  30  32
ATOM     32  C   UNL A   1      38.908  32.444  31.845  1.00  0.00     0.060 A 
ATOM     33  C   UNL A   1      39.110  32.382  30.456  1.00  0.00     0.016 A 
ATOM     34  C   UNL A   1      39.966  32.161  32.710  1.00  0.00     0.016 A 
ATOM     35  C   UNL A   1      40.359  32.028  29.933  1.00  0.00     0.010 A 
ATOM     36  C   UNL A   1      41.206  31.776  32.186  1.00  0.00     0.010 A 
ATOM     37  C   UNL A   1      41.408  31.689  30.795  1.00  0.00    -0.014 A 
BRANCH  37  38
ATOM     38  C   UNL A   1      42.669  31.096  30.271  1.00  0.00     0.031 A 
ATOM     39  C   UNL A   1      43.784  32.024  29.870  1.00  0.00     0.074 A 
ATOM     40  C   UNL A   1      42.821  29.766  30.132  1.00  0.00     0.049 A 
ATOM     41  N   UNL A   1      44.908  31.762  29.254  1.00  0.00    -0.248 NA
ATOM     42  C   UNL A   1      43.594  33.443  30.204  1.00  0.00     0.031 C 
ATOM     43  C   UNL A   1      41.847  28.757  30.542  1.00  0.00     0.029 A 
ATOM     44  N   UNL A   1      43.850  29.036  29.585  1.00  0.00    -0.354 N 
ATOM     45  C   UNL A   1      45.555  32.986  29.111  1.00  0.00     0.074 A 
ATOM     46  C   UNL A   1      44.681  33.991  29.680  1.00  0.00     0.031 C 
ATOM     47  C   UNL A   1      42.316  27.540  30.213  1.00  0.00     0.029 A 
ATOM     48  C   UNL A   1      43.596  27.685  29.519  1.00  0.00     0.049 A 
ATOM     49  H   UNL A   1      44.690  29.442  29.270  1.00  0.00     0.167 HD
ATOM     50  C   UNL A   1      46.766  33.244  28.558  1.00  0.00     0.034 A 
ATOM     51  C   UNL A   1      44.291  26.689  28.930  1.00  0.00     0.034 A 
ATOM     52  C   UNL A   1      47.618  32.233  27.982  1.00  0.00     0.049 A 
ATOM     53  C   UNL A   1      45.584  27.017  28.216  1.00  0.00     0.074 A 
ATOM     54  C   UNL A   1      48.870  32.385  27.410  1.00  0.00     0.029 A 
ATOM     55  N   UNL A   1      47.303  30.883  27.887  1.00  0.00    -0.354 N 
ATOM     56  N   UNL A   1      46.187  28.176  28.085  1.00  0.00    -0.248 NA
ATOM     57  C   UNL A   1      46.287  25.900  27.569  1.00  0.00     0.031 C 
ATOM     58  C   UNL A   1      49.270  31.149  26.892  1.00  0.00     0.029 A 
ATOM     59  C   UNL A   1      48.313  30.202  27.224  1.00  0.00     0.049 A 
ATOM     60  H   UNL A   1      46.481  30.470  28.239  1.00  0.00     0.167 HD
ATOM     61  C   UNL A   1      47.356  27.918  27.368  1.00  0.00     0.074 A 
ATOM     62  C   UNL A   1      47.380  26.494  27.113  1.00  0.00     0.031 C 
ATOM     63  C   UNL A   1      48.322  28.781  26.960  1.00  0.00     0.034 A 
BRANCH  50  64
ATOM     64  C   UNL A   1      47.207  34.688  28.493  1.00  0.00     0.023 A 
ATOM     65  C   UNL A   1      47.955  35.285  29.522  1.00  0.00     0.031 A 
ATOM     66  C   UNL A   1      46.857  35.486  27.388  1.00  0.00     0.131 A 
ATOM     67  C   UNL A   1      48.266  36.653  29.460  1.00  0.00     0.055 A 
ATOM     68  C   UNL A   1      47.243  36.824  27.292  1.00  0.00     0.041 A 
ATOM     69  F   UNL A   1      46.122  34.981  26.385  1.00  0.00    -0.206 F 
ATOM     70  C   UNL A   1      47.940  37.420  28.339  1.00  0.00     0.022 A 
BRANCH  67  71
ATOM     71  S   UNL A   1      48.969  37.449  30.930  1.00  0.00     0.124 S 
ATOM     72  O   UNL A   1      50.094  36.568  31.235  1.00  0.00    -0.237 OA
ATOM     73  O   UNL A   1      49.314  38.777  30.435  1.00  0.00    -0.237 OA
ATOM     74  O   UNL A   1      47.875  37.409  31.898  1.00  0.00    -0.744 OA
ENDBRANCH  67  71
ENDBRANCH  50  64
BRANCH  51  75
ATOM     75  C   UNL A   1      43.762  25.291  28.926  1.00  0.00     0.023 A 
ATOM     76  C   UNL A   1      42.886  24.848  27.922  1.00  0.00     0.031 A 
ATOM     77  C   UNL A   1      44.073  24.397  29.967  1.00  0.00     0.131 A 
ATOM     78  C   UNL A   1      42.315  23.567  28.005  1.00  0.00     0.055 A 
ATOM     79  C   UNL A   1      43.554  23.101  30.010  1.00  0.00     0.041 A 
ATOM     80  F   UNL A   1      44.893  24.771  30.963  1.00  0.00    -0.206 F 
ATOM     81  C   UNL A   1      42.657  22.685  29.031  1.00  0.00     0.022 A 
BRANCH  78  82
ATOM     82  S   UNL A   1      41.035  23.108  26.804  1.00  0.00     0.124 S 
ATOM     83  O   UNL A   1      40.607  24.413  26.312  1.00  0.00    -0.237 OA
ATOM     84  O   UNL A   1      41.783  22.282  25.862  1.00  0.00    -0.237 OA
ATOM     85  O   UNL A   1      40.051  22.392  27.612  1.00  0.00    -0.744 OA
ENDBRANCH  78  82
ENDBRANCH  51  75
BRANCH  63  86
ATOM     86  C   UNL A   1      49.510  28.197  26.229  1.00  0.00     0.023 A 
ATOM     87  C   UNL A   1      49.599  28.208  24.826  1.00  0.00     0.031 A 
ATOM     88  C   UNL A   1      50.568  27.612  26.950  1.00  0.00     0.131 A 
ATOM     89  C   UNL A   1      50.687  27.594  24.187  1.00  0.00     0.055 A 
ATOM     90  C   UNL A   1      51.683  27.066  26.311  1.00  0.00     0.041 A 
ATOM     91  F   UNL A   1      50.538  27.566  28.291  1.00  0.00    -0.206 F 
ATOM     92  C   UNL A   1      51.740  27.042  24.921  1.00  0.00     0.022 A 
BRANCH  89  93
ATOM     93  S   UNL A   1      50.660  27.431  22.380  1.00  0.00     0.124 S 
ATOM     94  O   UNL A   1      51.881  26.673  22.127  1.00  0.00    -0.237 OA
ATOM     95  O   UNL A   1      49.407  26.720  22.149  1.00  0.00    -0.237 OA
ATOM     96  O   UNL A   1      50.681  28.816  21.911  1.00  0.00    -0.744 OA
ENDBRANCH  89  93
ENDBRANCH  63  86
ENDBRANCH  37  38
ENDBRANCH  30  32
ENDBRANCH  29  30
ENDBRANCH  28  29
ENDBRANCH  27  28
ENDBRANCH  26  27
ENDBRANCH  25  26
ENDBRANCH   1  25
TORSDOF 26
ENDMDL
MODEL 2
REMARK VINA RESULT:      -7.5      1.592      7.744
REMARK SMILES CO[C@H](C)[C@@H](NC(=O)OCc1ccccc1)C(=O)OCCOCCOCCOC(=O)c1ccc(-c2c3nc(c(-c4cc(S(=O)(=O)[O-])ccc4F)c4ccc([nH]4)c(-c4cc(S(=O)(=O)[O-])ccc4F)c4nc(c(-c5cc(S(=O)(=O)[O-])ccc5F)c5ccc2[nH]5)C=C4)C=C3)cc1
REMARK SMILES IDX 23 1 22 2 21 3 20 4 19 5 17 6 18 7 5 8 3 9 4 10 2 11 1 12
REMARK SMILES IDX 6 13 7 14 8 16 9 17 10 18 11 19 12 20 16 21 13 22 15 23
REMARK SMILES IDX 14 24 24 25 25 26 26 27 27 28 28 29 29 30 30 31 31 32 32 33
REMARK SMILES IDX 93 34 33 35 92 36 34 37 35 38 36 39 86 40 37 41 91 42 85 43
REMARK SMILES IDX 87 44 38 45 90 46 84 47 83 48 39 50 71 51 51 52 70 53 52 54
REMARK SMILES IDX 55 55 69 56 88 57 53 58 54 59 68 61 89 62 56 63 40 64 41 65
REMARK SMILES IDX 49 66 42 67 48 68 50 69 47 70 43 71 44 72 45 73 46 74 72 75
REMARK SMILES IDX 73 76 81 77 74 78 80 79 82 80 79 81 75 82 76 83 77 84 78 85
REMARK SMILES IDX 57 86 58 87 66 88 59 89 65 90 67 91 64 92 60 93 61 94 62 95
REMARK SMILES IDX 63 96
REMARK H PARENT 6 15 87 49 55 60
REMARK Flexibility Score: inf
ROOT
ATOM      1  C   UNL A   1      36.324  30.184  27.709  1.00  0.00     0.188 C 
ENDROOT
BRANCH   1   2
ATOM      2  O   UNL A   1      35.063  29.579  27.458  1.00  0.00    -0.376 OA
BRANCH   2   3
ATOM      3  C   UNL A   1      33.930  30.416  27.257  1.00  0.00     0.202 C 
BRANCH   3   4
ATOM      4  C   UNL A   1      32.736  29.888  26.445  1.00  0.00     0.261 C 
BRANCH   4   5
ATOM      5  O   UNL A   1      32.206  28.583  26.796  1.00  0.00    -0.462 OA
BRANCH   5   6
ATOM      6  C   UNL A   1      32.299  27.612  25.832  1.00  0.00     0.331 C 
ATOM      7  O   UNL A   1      33.317  27.419  25.170  1.00  0.00    -0.250 OA
BRANCH   6   8
ATOM      8  C   UNL A   1      30.965  26.899  25.488  1.00  0.00     0.224 C 
BRANCH   8   9
ATOM      9  C   UNL A   1      30.594  26.496  24.025  1.00  0.00     0.148 C 
ATOM     10  C   UNL A   1      29.061  26.333  23.922  1.00  0.00     0.041 C 
BRANCH   9  11
ATOM     11  O   UNL A   1      30.913  27.546  23.097  1.00  0.00    -0.379 OA
ATOM     12  C   UNL A   1      29.911  28.558  22.986  1.00  0.00     0.195 C 
ENDBRANCH   9  11
ENDBRANCH   8   9
BRANCH   8  13
ATOM     13  N   UNL A   1      30.671  25.835  26.475  1.00  0.00    -0.305 N 
ATOM     14  C   UNL A   1      31.166  24.566  26.504  1.00  0.00     0.408 C 
ATOM     15  H   UNL A   1      30.045  26.073  27.196  1.00  0.00     0.168 HD
ATOM     16  O   UNL A   1      30.701  23.704  27.248  1.00  0.00    -0.225 OA
BRANCH  14  17
ATOM     17  O   UNL A   1      32.233  24.404  25.705  1.00  0.00    -0.445 OA
BRANCH  17  18
ATOM     18  C   UNL A   1      32.719  23.077  25.478  1.00  0.00     0.270 C 
BRANCH  18  19
ATOM     19  C   UNL A   1      34.217  22.989  25.308  1.00  0.00    -0.011 A 
ATOM     20  C   UNL A   1      35.082  24.046  25.628  1.00  0.00     0.007 A 
ATOM     21  C   UNL A   1      34.765  21.818  24.766  1.00  0.00     0.007 A 
ATOM     22  C   UNL A   1      36.464  23.909  25.474  1.00  0.00     0.000 A 
ATOM     23  C   UNL A   1      36.145  21.682  24.607  1.00  0.00     0.000 A 
ATOM     24  C   UNL A   1      36.994  22.724  24.973  1.00  0.00     0.000 A 
ENDBRANCH  18  19
ENDBRANCH  17  18
ENDBRANCH  14  17
ENDBRANCH   8  13
ENDBRANCH   6   8
ENDBRANCH   5   6
ENDBRANCH   4   5
ENDBRANCH   3   4
ENDBRANCH   2   3
ENDBRANCH   1   2
BRANCH   1  25
ATOM     25  C   UNL A   1      37.117  29.691  28.920  1.00  0.00     0.188 C 
BRANCH  25  26
ATOM     26  O   UNL A   1      36.348  29.380  30.060  1.00  0.00    -0.376 OA
BRANCH  26  27
ATOM     27  C   UNL A   1      37.012  29.350  31.307  1.00  0.00     0.202 C 
BRANCH  27  28
ATOM     28  C   UNL A   1      36.726  30.468  32.325  1.00  0.00     0.261 C 
BRANCH  28  29
ATOM     29  O   UNL A   1      37.835  30.938  33.116  1.00  0.00    -0.460 OA
BRANCH  29  30
ATOM     30  C   UNL A   1      38.406  32.123  32.779  1.00  0.00     0.338 C 
ATOM     31  O   UNL A   1      38.117  33.215  33.236  1.00  0.00    -0.246 OA
BRANCH  30  32
ATOM     32  C   UNL A   1      39.624  31.821  31.975  1.00  0.00     0.060 A 
ATOM     33  C   UNL A   1      39.570  31.925  30.575  1.00  0.00     0.016 A 
ATOM     34  C   UNL A   1      40.830  31.501  32.599  1.00  0.00     0.016 A 
ATOM     35  C   UNL A   1      40.714  31.699  29.801  1.00  0.00     0.010 A 
ATOM     36  C   UNL A   1      41.967  31.245  31.821  1.00  0.00     0.010 A 
ATOM     37  C   UNL A   1      41.914  31.324  30.416  1.00  0.00    -0.014 A 
BRANCH  37  38
ATOM     38  C   UNL A   1      43.076  30.863  29.609  1.00  0.00     0.031 A 
ATOM     39  C   UNL A   1      43.218  29.389  29.334  1.00  0.00     0.074 A 
ATOM     40  C   UNL A   1      44.000  31.723  29.143  1.00  0.00     0.049 A 
ATOM     41  N   UNL A   1      44.210  28.733  28.790  1.00  0.00    -0.248 NA
ATOM     42  C   UNL A   1      42.086  28.545  29.740  1.00  0.00     0.031 C 
ATOM     43  C   UNL A   1      43.947  33.177  29.283  1.00  0.00     0.029 A 
ATOM     44  N   UNL A   1      45.179  31.494  28.474  1.00  0.00    -0.354 N 
ATOM     45  C   UNL A   1      43.830  27.394  28.802  1.00  0.00     0.074 A 
ATOM     46  C   UNL A   1      42.528  27.335  29.434  1.00  0.00     0.031 C 
ATOM     47  C   UNL A   1      45.055  33.708  28.735  1.00  0.00     0.029 A 
ATOM     48  C   UNL A   1      45.923  32.632  28.257  1.00  0.00     0.049 A 
ATOM     49  H   UNL A   1      45.466  30.599  28.179  1.00  0.00     0.167 HD
ATOM     50  C   UNL A   1      44.505  26.318  28.327  1.00  0.00     0.034 A 
ATOM     51  C   UNL A   1      47.173  32.784  27.770  1.00  0.00     0.034 A 
ATOM     52  C   UNL A   1      45.808  26.393  27.713  1.00  0.00     0.049 A 
ATOM     53  C   UNL A   1      47.955  31.557  27.355  1.00  0.00     0.074 A 
ATOM     54  C   UNL A   1      46.572  25.367  27.184  1.00  0.00     0.029 A 
ATOM     55  N   UNL A   1      46.551  27.558  27.558  1.00  0.00    -0.354 N 
ATOM     56  N   UNL A   1      47.587  30.296  27.370  1.00  0.00    -0.248 NA
ATOM     57  C   UNL A   1      49.320  31.777  26.857  1.00  0.00     0.031 C 
ATOM     58  C   UNL A   1      47.807  25.894  26.794  1.00  0.00     0.029 A 
ATOM     59  C   UNL A   1      47.781  27.266  26.988  1.00  0.00     0.049 A 
ATOM     60  H   UNL A   1      46.248  28.458  27.816  1.00  0.00     0.167 HD
ATOM     61  C   UNL A   1      48.668  29.579  26.855  1.00  0.00     0.074 A 
ATOM     62  C   UNL A   1      49.689  30.550  26.522  1.00  0.00     0.031 C 
ATOM     63  C   UNL A   1      48.802  28.240  26.672  1.00  0.00     0.034 A 
BRANCH  50  64
ATOM     64  C   UNL A   1      43.869  24.960  28.516  1.00  0.00     0.023 A 
ATOM     65  C   UNL A   1      42.986  24.413  27.569  1.00  0.00     0.031 A 
ATOM     66  C   UNL A   1      44.138  24.208  29.674  1.00  0.00     0.131 A 
ATOM     67  C   UNL A   1      42.351  23.188  27.828  1.00  0.00     0.055 A 
ATOM     68  C   UNL A   1      43.569  22.950  29.886  1.00  0.00     0.041 A 
ATOM     69  F   UNL A   1      44.952  24.687  30.628  1.00  0.00    -0.206 F 
ATOM     70  C   UNL A   1      42.657  22.440  28.968  1.00  0.00     0.022 A 
BRANCH  67  71
ATOM     71  S   UNL A   1      41.007  22.660  26.731  1.00  0.00     0.124 S 
ATOM     72  O   UNL A   1      41.702  21.744  25.830  1.00  0.00    -0.237 OA
ATOM     73  O   UNL A   1      40.063  22.049  27.660  1.00  0.00    -0.237 OA
ATOM     74  O   UNL A   1      40.557  23.907  26.115  1.00  0.00    -0.744 OA
ENDBRANCH  67  71
ENDBRANCH  50  64
BRANCH  51  75
ATOM     75  C   UNL A   1      47.803  34.137  27.702  1.00  0.00     0.023 A 
ATOM     76  C   UNL A   1      48.479  34.681  28.806  1.00  0.00     0.031 A 
ATOM     77  C   UNL A   1      47.678  34.936  26.551  1.00  0.00     0.131 A 
ATOM     78  C   UNL A   1      48.962  35.999  28.753  1.00  0.00     0.055 A 
ATOM     79  C   UNL A   1      48.218  36.222  26.480  1.00  0.00     0.041 A 
ATOM     80  F   UNL A   1      47.029  34.475  25.470  1.00  0.00    -0.206 F 
ATOM     81  C   UNL A   1      48.854  36.766  27.591  1.00  0.00     0.022 A 
BRANCH  78  82
ATOM     82  S   UNL A   1      49.647  36.735  30.264  1.00  0.00     0.124 S 
ATOM     83  O   UNL A   1      49.143  35.828  31.290  1.00  0.00    -0.237 OA
ATOM     84  O   UNL A   1      51.082  36.678  30.007  1.00  0.00    -0.237 OA
ATOM     85  O   UNL A   1      49.071  38.078  30.279  1.00  0.00    -0.744 OA
ENDBRANCH  78  82
ENDBRANCH  51  75
BRANCH  63  86
ATOM     86  C   UNL A   1      50.087  27.751  26.044  1.00  0.00     0.023 A 
ATOM     87  C   UNL A   1      51.230  27.471  26.812  1.00  0.00     0.031 A 
ATOM     88  C   UNL A   1      50.171  27.569  24.650  1.00  0.00     0.131 A 
ATOM     89  C   UNL A   1      52.423  27.085  26.180  1.00  0.00     0.055 A 
ATOM     90  C   UNL A   1      51.338  27.115  24.034  1.00  0.00     0.041 A 
ATOM     91  F   UNL A   1      49.114  27.824  23.863  1.00  0.00    -0.206 F 
ATOM     92  C   UNL A   1      52.479  26.885  24.798  1.00  0.00     0.022 A 
BRANCH  89  93
ATOM     93  S   UNL A   1      53.933  26.949  27.176  1.00  0.00     0.124 S 
ATOM     94  O   UNL A   1      53.536  27.602  28.419  1.00  0.00    -0.237 OA
ATOM     95  O   UNL A   1      54.130  25.504  27.250  1.00  0.00    -0.237 OA
ATOM     96  O   UNL A   1      54.931  27.670  26.387  1.00  0.00    -0.744 OA
ENDBRANCH  89  93
ENDBRANCH  63  86
ENDBRANCH  37  38
ENDBRANCH  30  32
ENDBRANCH  29  30
ENDBRANCH  28  29
ENDBRANCH  27  28
ENDBRANCH  26  27
ENDBRANCH  25  26
ENDBRANCH   1  25
TORSDOF 26
ENDMDL
MODEL 3
REMARK VINA RESULT:      -7.4      3.590      9.259
REMARK SMILES CO[C@H](C)[C@@H](NC(=O)OCc1ccccc1)C(=O)OCCOCCOCCOC(=O)c1ccc(-c2c3nc(c(-c4cc(S(=O)(=O)[O-])ccc4F)c4ccc([nH]4)c(-c4cc(S(=O)(=O)[O-])ccc4F)c4nc(c(-c5cc(S(=O)(=O)[O-])ccc5F)c5ccc2[nH]5)C=C4)C=C3)cc1
REMARK SMILES IDX 23 1 22 2 21 3 20 4 19 5 17 6 18 7 5 8 3 9 4 10 2 11 1 12
REMARK SMILES IDX 6 13 7 14 8 16 9 17 10 18 11 19 12 20 16 21 13 22 15 23
REMARK SMILES IDX 14 24 24 25 25 26 26 27 27 28 28 29 29 30 30 31 31 32 32 33
REMARK SMILES IDX 93 34 33 35 92 36 34 37 35 38 36 39 86 40 37 41 91 42 85 43
REMARK SMILES IDX 87 44 38 45 90 46 84 47 83 48 39 50 71 51 51 52 70 53 52 54
REMARK SMILES IDX 55 55 69 56 88 57 53 58 54 59 68 61 89 62 56 63 40 64 41 65
REMARK SMILES IDX 49 66 42 67 48 68 50 69 47 70 43 71 44 72 45 73 46 74 72 75
REMARK SMILES IDX 73 76 81 77 74 78 80 79 82 80 79 81 75 82 76 83 77 84 78 85
REMARK SMILES IDX 57 86 58 87 66 88 59 89 65 90 67 91 64 92 60 93 61 94 62 95
REMARK SMILES IDX 63 96
REMARK H PARENT 6 15 87 49 55 60
REMARK Flexibility Score: inf
ROOT
ATOM      1  C   UNL A   1      36.661  29.928  27.559  1.00  0.00     0.188 C 
ENDROOT
BRANCH   1   2
ATOM      2  O   UNL A   1      35.394  29.304  27.710  1.00  0.00    -0.376 OA
BRANCH   2   3
ATOM      3  C   UNL A   1      34.239  29.969  27.210  1.00  0.00     0.202 C 
BRANCH   3   4
ATOM      4  C   UNL A   1      33.200  29.173  26.403  1.00  0.00     0.261 C 
BRANCH   4   5
ATOM      5  O   UNL A   1      32.630  27.989  27.019  1.00  0.00    -0.462 OA
BRANCH   5   6
ATOM      6  C   UNL A   1      32.692  26.833  26.284  1.00  0.00     0.331 C 
ATOM      7  O   UNL A   1      33.737  26.399  25.801  1.00  0.00    -0.250 OA
BRANCH   6   8
ATOM      8  C   UNL A   1      31.317  26.208  25.926  1.00  0.00     0.224 C 
BRANCH   8   9
ATOM      9  C   UNL A   1      30.900  25.913  24.451  1.00  0.00     0.148 C 
ATOM     10  C   UNL A   1      29.886  26.984  23.990  1.00  0.00     0.041 C 
BRANCH   9  11
ATOM     11  O   UNL A   1      32.014  26.053  23.554  1.00  0.00    -0.379 OA
ATOM     12  C   UNL A   1      31.787  26.958  22.472  1.00  0.00     0.195 C 
ENDBRANCH   9  11
ENDBRANCH   8   9
BRANCH   8  13
ATOM     13  N   UNL A   1      30.989  25.103  26.855  1.00  0.00    -0.305 N 
ATOM     14  C   UNL A   1      31.127  23.765  26.638  1.00  0.00     0.408 C 
ATOM     15  H   UNL A   1      30.630  25.365  27.732  1.00  0.00     0.168 HD
ATOM     16  O   UNL A   1      30.636  22.930  27.396  1.00  0.00    -0.225 OA
BRANCH  14  17
ATOM     17  O   UNL A   1      31.901  23.484  25.578  1.00  0.00    -0.445 OA
BRANCH  17  18
ATOM     18  C   UNL A   1      32.754  22.338  25.641  1.00  0.00     0.270 C 
BRANCH  18  19
ATOM     19  C   UNL A   1      34.184  22.608  25.234  1.00  0.00    -0.011 A 
ATOM     20  C   UNL A   1      35.257  22.540  26.136  1.00  0.00     0.007 A 
ATOM     21  C   UNL A   1      34.446  22.987  23.911  1.00  0.00     0.007 A 
ATOM     22  C   UNL A   1      36.565  22.777  25.707  1.00  0.00     0.000 A 
ATOM     23  C   UNL A   1      35.753  23.230  23.483  1.00  0.00     0.000 A 
ATOM     24  C   UNL A   1      36.812  23.113  24.379  1.00  0.00     0.000 A 
ENDBRANCH  18  19
ENDBRANCH  17  18
ENDBRANCH  14  17
ENDBRANCH   8  13
ENDBRANCH   6   8
ENDBRANCH   5   6
ENDBRANCH   4   5
ENDBRANCH   3   4
ENDBRANCH   2   3
ENDBRANCH   1   2
BRANCH   1  25
ATOM     25  C   UNL A   1      37.765  29.535  28.540  1.00  0.00     0.188 C 
BRANCH  25  26
ATOM     26  O   UNL A   1      37.348  29.337  29.873  1.00  0.00    -0.376 OA
BRANCH  26  27
ATOM     27  C   UNL A   1      38.070  30.003  30.889  1.00  0.00     0.202 C 
BRANCH  27  28
ATOM     28  C   UNL A   1      37.496  31.307  31.470  1.00  0.00     0.261 C 
BRANCH  28  29
ATOM     29  O   UNL A   1      38.437  32.255  32.014  1.00  0.00    -0.460 OA
BRANCH  29  30
ATOM     30  C   UNL A   1      38.269  33.569  31.713  1.00  0.00     0.338 C 
ATOM     31  O   UNL A   1      37.380  34.292  32.124  1.00  0.00    -0.246 OA
BRANCH  30  32
ATOM     32  C   UNL A   1      39.510  34.032  31.029  1.00  0.00     0.060 A 
ATOM     33  C   UNL A   1      39.459  34.384  29.670  1.00  0.00     0.016 A 
ATOM     34  C   UNL A   1      40.702  34.184  31.739  1.00  0.00     0.016 A 
ATOM     35  C   UNL A   1      40.597  34.873  29.019  1.00  0.00     0.010 A 
ATOM     36  C   UNL A   1      41.848  34.645  31.078  1.00  0.00     0.010 A 
ATOM     37  C   UNL A   1      41.810  34.975  29.710  1.00  0.00    -0.014 A 
BRANCH  37  38
ATOM     38  C   UNL A   1      43.078  35.277  28.990  1.00  0.00     0.031 A 
ATOM     39  C   UNL A   1      44.029  34.145  28.709  1.00  0.00     0.074 A 
ATOM     40  C   UNL A   1      43.394  36.528  28.609  1.00  0.00     0.049 A 
ATOM     41  N   UNL A   1      45.248  34.176  28.236  1.00  0.00    -0.248 NA
ATOM     42  C   UNL A   1      43.534  32.794  29.016  1.00  0.00     0.031 C 
ATOM     43  C   UNL A   1      42.535  37.700  28.761  1.00  0.00     0.029 A 
ATOM     44  N   UNL A   1      44.538  37.024  28.030  1.00  0.00    -0.354 N 
ATOM     45  C   UNL A   1      45.674  32.851  28.202  1.00  0.00     0.074 A 
ATOM     46  C   UNL A   1      44.591  32.049  28.730  1.00  0.00     0.031 C 
ATOM     47  C   UNL A   1      43.192  38.783  28.308  1.00  0.00     0.029 A 
ATOM     48  C   UNL A   1      44.537  38.393  27.886  1.00  0.00     0.049 A 
ATOM     49  H   UNL A   1      45.290  36.454  27.748  1.00  0.00     0.167 HD
ATOM     50  C   UNL A   1      46.859  32.354  27.769  1.00  0.00     0.034 A 
ATOM     51  C   UNL A   1      45.518  39.236  27.500  1.00  0.00     0.034 A 
ATOM     52  C   UNL A   1      47.935  33.169  27.259  1.00  0.00     0.049 A 
ATOM     53  C   UNL A   1      46.872  38.670  27.131  1.00  0.00     0.074 A 
ATOM     54  C   UNL A   1      49.169  32.765  26.779  1.00  0.00     0.029 A 
ATOM     55  N   UNL A   1      47.914  34.557  27.176  1.00  0.00    -0.354 N 
ATOM     56  N   UNL A   1      47.266  37.417  27.103  1.00  0.00    -0.248 NA
ATOM     57  C   UNL A   1      47.911  39.634  26.744  1.00  0.00     0.031 C 
ATOM     58  C   UNL A   1      49.924  33.907  26.492  1.00  0.00     0.029 A 
ATOM     59  C   UNL A   1      49.130  35.024  26.700  1.00  0.00     0.049 A 
ATOM     60  H   UNL A   1      47.148  35.124  27.421  1.00  0.00     0.167 HD
ATOM     61  C   UNL A   1      48.590  37.445  26.665  1.00  0.00     0.074 A 
ATOM     62  C   UNL A   1      48.918  38.834  26.424  1.00  0.00     0.031 C 
ATOM     63  C   UNL A   1      49.455  36.415  26.477  1.00  0.00     0.034 A 
BRANCH  50  64
ATOM     64  C   UNL A   1      47.074  30.863  27.891  1.00  0.00     0.023 A 
ATOM     65  C   UNL A   1      46.658  29.966  26.892  1.00  0.00     0.031 A 
ATOM     66  C   UNL A   1      47.691  30.329  29.037  1.00  0.00     0.131 A 
ATOM     67  C   UNL A   1      46.798  28.583  27.089  1.00  0.00     0.055 A 
ATOM     68  C   UNL A   1      47.906  28.957  29.189  1.00  0.00     0.041 A 
ATOM     69  F   UNL A   1      48.088  31.131  30.038  1.00  0.00    -0.206 F 
ATOM     70  C   UNL A   1      47.445  28.074  28.218  1.00  0.00     0.022 A 
BRANCH  67  71
ATOM     71  S   UNL A   1      45.989  27.456  25.922  1.00  0.00     0.124 S 
ATOM     72  O   UNL A   1      45.094  28.362  25.205  1.00  0.00    -0.237 OA
ATOM     73  O   UNL A   1      47.115  26.932  25.157  1.00  0.00    -0.237 OA
ATOM     74  O   UNL A   1      45.319  26.488  26.788  1.00  0.00    -0.744 OA
ENDBRANCH  67  71
ENDBRANCH  50  64
BRANCH  51  75
ATOM     75  C   UNL A   1      45.294  40.714  27.497  1.00  0.00     0.023 A 
ATOM     76  C   UNL A   1      45.268  41.447  28.694  1.00  0.00     0.031 A 
ATOM     77  C   UNL A   1      45.034  41.404  26.299  1.00  0.00     0.131 A 
ATOM     78  C   UNL A   1      44.943  42.814  28.672  1.00  0.00     0.055 A 
ATOM     79  C   UNL A   1      44.775  42.776  26.276  1.00  0.00     0.041 A 
ATOM     80  F   UNL A   1      45.030  40.751  25.125  1.00  0.00    -0.206 F 
ATOM     81  C   UNL A   1      44.715  43.487  27.470  1.00  0.00     0.022 A 
BRANCH  78  82
ATOM     82  S   UNL A   1      44.720  43.679  30.252  1.00  0.00     0.124 S 
ATOM     83  O   UNL A   1      43.405  43.202  30.668  1.00  0.00    -0.237 OA
ATOM     84  O   UNL A   1      45.854  43.192  31.029  1.00  0.00    -0.237 OA
ATOM     85  O   UNL A   1      44.782  45.090  29.878  1.00  0.00    -0.744 OA
ENDBRANCH  78  82
ENDBRANCH  51  75
BRANCH  63  86
ATOM     86  C   UNL A   1      50.830  36.752  25.945  1.00  0.00     0.023 A 
ATOM     87  C   UNL A   1      51.830  37.302  26.765  1.00  0.00     0.031 A 
ATOM     88  C   UNL A   1      51.141  36.524  24.591  1.00  0.00     0.131 A 
ATOM     89  C   UNL A   1      53.070  37.663  26.214  1.00  0.00     0.055 A 
ATOM     90  C   UNL A   1      52.400  36.819  24.064  1.00  0.00     0.041 A 
ATOM     91  F   UNL A   1      50.226  36.006  23.757  1.00  0.00    -0.206 F 
ATOM     92  C   UNL A   1      53.368  37.405  24.873  1.00  0.00     0.022 A 
BRANCH  89  93
ATOM     93  S   UNL A   1      54.252  38.571  27.247  1.00  0.00     0.124 S 
ATOM     94  O   UNL A   1      54.222  37.803  28.487  1.00  0.00    -0.237 OA
ATOM     95  O   UNL A   1      55.484  38.478  26.468  1.00  0.00    -0.237 OA
ATOM     96  O   UNL A   1      53.675  39.911  27.333  1.00  0.00    -0.744 OA
ENDBRANCH  89  93
ENDBRANCH  63  86
ENDBRANCH  37  38
ENDBRANCH  30  32
ENDBRANCH  29  30
ENDBRANCH  28  29
ENDBRANCH  27  28
ENDBRANCH  26  27
ENDBRANCH  25  26
ENDBRANCH   1  25
TORSDOF 26
ENDMDL
