MODEL 1
REMARK VINA RESULT:      -8.5      0.000      0.000
REMARK SMILES O=C(Cc1ccccc1Nc1c(Cl)cccc1C(F)(F)F)OCCOCCOCCOC(=O)c1ccc(-c2c3nc(c(-c4cc(S(=O)(=O)[O-])ccc4F)c4ccc([nH]4)c(-c4cc(S(=O)(=O)[O-])ccc4F)c4nc(c(-c5cc(S(=O)(=O)[O-])ccc5F)c5ccc2[nH]5)C=C4)C=C3)cc1
REMARK SMILES IDX 26 1 25 2 24 3 23 4 22 5 2 6 1 7 3 8 4 9 5 10 9 11 6 12 8 13
REMARK SMILES IDX 7 14 10 15 11 17 12 18 17 19 13 20 14 21 16 22 15 23 18 24
REMARK SMILES IDX 19 25 20 26 21 27 27 28 28 29 29 30 30 31 31 32 32 33 33 34
REMARK SMILES IDX 34 35 35 36 96 37 36 38 95 39 37 40 38 41 39 42 89 43 40 44
REMARK SMILES IDX 94 45 88 46 90 47 41 48 93 49 87 50 86 51 42 53 74 54 54 55
REMARK SMILES IDX 73 56 55 57 58 58 72 59 91 60 56 61 57 62 71 64 92 65 59 66
REMARK SMILES IDX 43 67 44 68 52 69 45 70 51 71 53 72 50 73 46 74 47 75 48 76
REMARK SMILES IDX 49 77 75 78 76 79 84 80 77 81 83 82 85 83 82 84 78 85 79 86
REMARK SMILES IDX 80 87 81 88 60 89 61 90 69 91 62 92 68 93 70 94 67 95 63 96
REMARK SMILES IDX 64 97 65 98 66 99
REMARK H PARENT 10 16 90 52 58 63
REMARK Flexibility Score: inf
ROOT
ATOM      1  C   UNL A   1      40.543  26.224  26.808  1.00  0.00     0.188 C 
ENDROOT
BRANCH   1   2
ATOM      2  O   UNL A   1      40.073  25.327  27.799  1.00  0.00    -0.376 OA
BRANCH   2   3
ATOM      3  C   UNL A   1      39.383  24.157  27.391  1.00  0.00     0.202 C 
BRANCH   3   4
ATOM      4  C   UNL A   1      38.558  24.193  26.104  1.00  0.00     0.261 C 
BRANCH   4   5
ATOM      5  O   UNL A   1      37.660  23.107  25.823  1.00  0.00    -0.463 OA
BRANCH   5   6
ATOM      6  C   UNL A   1      36.692  23.093  24.879  1.00  0.00     0.310 C 
ATOM      7  O   UNL A   1      36.997  22.842  23.713  1.00  0.00    -0.252 OA
BRANCH   6   8
ATOM      8  C   UNL A   1      35.312  23.584  25.243  1.00  0.00     0.160 C 
BRANCH   8   9
ATOM      9  C   UNL A   1      34.202  22.827  24.561  1.00  0.00    -0.013 A 
ATOM     10  C   UNL A   1      34.198  21.426  24.649  1.00  0.00     0.006 A 
ATOM     11  C   UNL A   1      33.165  23.490  23.869  1.00  0.00     0.042 A 
ATOM     12  C   UNL A   1      33.200  20.683  24.030  1.00  0.00     0.000 A 
ATOM     13  C   UNL A   1      32.173  22.726  23.246  1.00  0.00     0.026 A 
ATOM     14  C   UNL A   1      32.187  21.333  23.330  1.00  0.00     0.002 A 
BRANCH  11  15
ATOM     15  N   UNL A   1      33.250  24.874  23.622  1.00  0.00    -0.354 N 
ATOM     16  H   UNL A   1      34.155  25.178  23.380  1.00  0.00     0.167 HD
BRANCH  15  17
ATOM     17  C   UNL A   1      32.292  25.916  23.655  1.00  0.00     0.070 A 
ATOM     18  C   UNL A   1      31.798  26.400  22.413  1.00  0.00     0.065 A 
ATOM     19  C   UNL A   1      31.870  26.574  24.829  1.00  0.00     0.080 A 
ATOM     20  Cl  UNL A   1      32.291  25.666  20.920  1.00  0.00    -0.082 Cl
ATOM     21  C   UNL A   1      30.916  27.480  22.329  1.00  0.00     0.023 A 
ATOM     22  C   UNL A   1      30.959  27.655  24.722  1.00  0.00     0.015 A 
ATOM     23  C   UNL A   1      30.492  28.107  23.489  1.00  0.00     0.002 A 
BRANCH  19  24
ATOM     24  C   UNL A   1      32.375  26.240  26.216  1.00  0.00     0.418 C 
ATOM     25  F   UNL A   1      33.743  26.293  26.289  1.00  0.00    -0.166 F 
ATOM     26  F   UNL A   1      31.940  27.114  27.162  1.00  0.00    -0.166 F 
ATOM     27  F   UNL A   1      32.064  24.990  26.640  1.00  0.00    -0.166 F 
ENDBRANCH  19  24
ENDBRANCH  15  17
ENDBRANCH  11  15
ENDBRANCH   8   9
ENDBRANCH   6   8
ENDBRANCH   5   6
ENDBRANCH   4   5
ENDBRANCH   3   4
ENDBRANCH   2   3
ENDBRANCH   1   2
BRANCH   1  28
ATOM     28  C   UNL A   1      40.350  27.723  27.046  1.00  0.00     0.188 C 
BRANCH  28  29
ATOM     29  O   UNL A   1      39.800  28.047  28.318  1.00  0.00    -0.376 OA
BRANCH  29  30
ATOM     30  C   UNL A   1      38.380  28.206  28.317  1.00  0.00     0.202 C 
BRANCH  30  31
ATOM     31  C   UNL A   1      37.876  29.658  28.238  1.00  0.00     0.261 C 
BRANCH  31  32
ATOM     32  O   UNL A   1      37.833  30.394  29.472  1.00  0.00    -0.460 OA
BRANCH  32  33
ATOM     33  C   UNL A   1      37.391  29.728  30.561  1.00  0.00     0.338 C 
ATOM     34  O   UNL A   1      36.239  29.419  30.798  1.00  0.00    -0.246 OA
BRANCH  33  35
ATOM     35  C   UNL A   1      38.553  29.295  31.368  1.00  0.00     0.060 A 
ATOM     36  C   UNL A   1      39.646  30.161  31.478  1.00  0.00     0.016 A 
ATOM     37  C   UNL A   1      38.599  28.024  31.951  1.00  0.00     0.016 A 
ATOM     38  C   UNL A   1      40.805  29.747  32.133  1.00  0.00     0.010 A 
ATOM     39  C   UNL A   1      39.776  27.596  32.581  1.00  0.00     0.010 A 
ATOM     40  C   UNL A   1      40.900  28.441  32.632  1.00  0.00    -0.014 A 
BRANCH  40  41
ATOM     41  C   UNL A   1      42.256  27.894  32.911  1.00  0.00     0.031 A 
ATOM     42  C   UNL A   1      43.105  27.503  31.727  1.00  0.00     0.074 A 
ATOM     43  C   UNL A   1      42.763  27.824  34.155  1.00  0.00     0.049 A 
ATOM     44  N   UNL A   1      44.342  27.080  31.686  1.00  0.00    -0.248 NA
ATOM     45  C   UNL A   1      42.463  27.610  30.406  1.00  0.00     0.031 C 
ATOM     46  C   UNL A   1      42.064  28.212  35.378  1.00  0.00     0.029 A 
ATOM     47  N   UNL A   1      43.999  27.409  34.591  1.00  0.00    -0.354 N 
ATOM     48  C   UNL A   1      44.629  26.881  30.339  1.00  0.00     0.074 A 
ATOM     49  C   UNL A   1      43.422  27.183  29.602  1.00  0.00     0.031 C 
ATOM     50  C   UNL A   1      42.885  28.019  36.428  1.00  0.00     0.029 A 
ATOM     51  C   UNL A   1      44.160  27.477  35.956  1.00  0.00     0.049 A 
ATOM     52  H   UNL A   1      44.705  27.093  33.982  1.00  0.00     0.167 HD
ATOM     53  C   UNL A   1      45.794  26.497  29.763  1.00  0.00     0.034 A 
ATOM     54  C   UNL A   1      45.213  27.137  36.729  1.00  0.00     0.034 A 
ATOM     55  C   UNL A   1      46.987  26.174  30.506  1.00  0.00     0.049 A 
ATOM     56  C   UNL A   1      46.477  26.629  36.072  1.00  0.00     0.074 A 
ATOM     57  C   UNL A   1      48.219  25.770  30.025  1.00  0.00     0.029 A 
ATOM     58  N   UNL A   1      47.091  26.202  31.890  1.00  0.00    -0.354 N 
ATOM     59  N   UNL A   1      46.743  26.467  34.795  1.00  0.00    -0.248 NA
ATOM     60  C   UNL A   1      47.591  26.276  36.963  1.00  0.00     0.031 C 
ATOM     61  C   UNL A   1      49.045  25.485  31.117  1.00  0.00     0.029 A 
ATOM     62  C   UNL A   1      48.358  25.794  32.280  1.00  0.00     0.049 A 
ATOM     63  H   UNL A   1      46.372  26.472  32.506  1.00  0.00     0.167 HD
ATOM     64  C   UNL A   1      48.068  26.038  34.732  1.00  0.00     0.074 A 
ATOM     65  C   UNL A   1      48.547  25.976  36.097  1.00  0.00     0.031 C 
ATOM     66  C   UNL A   1      48.825  25.733  33.646  1.00  0.00     0.034 A 
BRANCH  53  67
ATOM     67  C   UNL A   1      45.800  26.348  28.260  1.00  0.00     0.023 A 
ATOM     68  C   UNL A   1      45.383  25.162  27.629  1.00  0.00     0.031 A 
ATOM     69  C   UNL A   1      46.281  27.390  27.449  1.00  0.00     0.131 A 
ATOM     70  C   UNL A   1      45.527  25.019  26.241  1.00  0.00     0.055 A 
ATOM     71  C   UNL A   1      46.344  27.273  26.059  1.00  0.00     0.041 A 
ATOM     72  F   UNL A   1      46.719  28.535  27.996  1.00  0.00    -0.206 F 
ATOM     73  C   UNL A   1      45.982  26.076  25.448  1.00  0.00     0.022 A 
BRANCH  70  74
ATOM     74  S   UNL A   1      45.262  23.383  25.503  1.00  0.00     0.124 S 
ATOM     75  O   UNL A   1      45.281  23.696  24.076  1.00  0.00    -0.237 OA
ATOM     76  O   UNL A   1      46.399  22.622  26.006  1.00  0.00    -0.237 OA
ATOM     77  O   UNL A   1      43.959  22.978  26.026  1.00  0.00    -0.744 OA
ENDBRANCH  70  74
ENDBRANCH  53  67
BRANCH  54  78
ATOM     78  C   UNL A   1      45.130  27.236  38.218  1.00  0.00     0.023 A 
ATOM     79  C   UNL A   1      45.534  28.398  38.897  1.00  0.00     0.031 A 
ATOM     80  C   UNL A   1      44.722  26.133  38.989  1.00  0.00     0.131 A 
ATOM     81  C   UNL A   1      45.573  28.411  40.301  1.00  0.00     0.055 A 
ATOM     82  C   UNL A   1      44.709  26.170  40.385  1.00  0.00     0.041 A 
ATOM     83  F   UNL A   1      44.331  24.996  38.392  1.00  0.00    -0.206 F 
ATOM     84  C   UNL A   1      45.150  27.309  41.050  1.00  0.00     0.022 A 
BRANCH  81  85
ATOM     85  S   UNL A   1      46.274  29.859  41.142  1.00  0.00     0.124 S 
ATOM     86  O   UNL A   1      46.729  29.280  42.400  1.00  0.00    -0.237 OA
ATOM     87  O   UNL A   1      47.317  30.273  40.210  1.00  0.00    -0.237 OA
ATOM     88  O   UNL A   1      45.139  30.773  41.248  1.00  0.00    -0.744 OA
ENDBRANCH  81  85
ENDBRANCH  54  78
BRANCH  66  89
ATOM     89  C   UNL A   1      50.273  25.370  33.890  1.00  0.00     0.023 A 
ATOM     90  C   UNL A   1      51.293  26.337  33.915  1.00  0.00     0.031 A 
ATOM     91  C   UNL A   1      50.637  24.025  34.084  1.00  0.00     0.131 A 
ATOM     92  C   UNL A   1      52.632  25.940  34.059  1.00  0.00     0.055 A 
ATOM     93  C   UNL A   1      51.962  23.642  34.294  1.00  0.00     0.041 A 
ATOM     94  F   UNL A   1      49.707  23.056  34.072  1.00  0.00    -0.206 F 
ATOM     95  C   UNL A   1      52.971  24.600  34.266  1.00  0.00     0.022 A 
BRANCH  92  96
ATOM     96  S   UNL A   1      53.938  27.183  33.861  1.00  0.00     0.124 S 
ATOM     97  O   UNL A   1      53.187  28.431  33.951  1.00  0.00    -0.237 OA
ATOM     98  O   UNL A   1      54.821  26.888  34.985  1.00  0.00    -0.237 OA
ATOM     99  O   UNL A   1      54.496  26.889  32.542  1.00  0.00    -0.744 OA
ENDBRANCH  92  96
ENDBRANCH  66  89
ENDBRANCH  40  41
ENDBRANCH  33  35
ENDBRANCH  32  33
ENDBRANCH  31  32
ENDBRANCH  30  31
ENDBRANCH  29  30
ENDBRANCH  28  29
ENDBRANCH   1  28
TORSDOF 24
ENDMDL
MODEL 2
REMARK VINA RESULT:      -8.3     11.942     16.083
REMARK SMILES O=C(Cc1ccccc1Nc1c(Cl)cccc1C(F)(F)F)OCCOCCOCCOC(=O)c1ccc(-c2c3nc(c(-c4cc(S(=O)(=O)[O-])ccc4F)c4ccc([nH]4)c(-c4cc(S(=O)(=O)[O-])ccc4F)c4nc(c(-c5cc(S(=O)(=O)[O-])ccc5F)c5ccc2[nH]5)C=C4)C=C3)cc1
REMARK SMILES IDX 26 1 25 2 24 3 23 4 22 5 2 6 1 7 3 8 4 9 5 10 9 11 6 12 8 13
REMARK SMILES IDX 7 14 10 15 11 17 12 18 17 19 13 20 14 21 16 22 15 23 18 24
REMARK SMILES IDX 19 25 20 26 21 27 27 28 28 29 29 30 30 31 31 32 32 33 33 34
REMARK SMILES IDX 34 35 35 36 96 37 36 38 95 39 37 40 38 41 39 42 89 43 40 44
REMARK SMILES IDX 94 45 88 46 90 47 41 48 93 49 87 50 86 51 42 53 74 54 54 55
REMARK SMILES IDX 73 56 55 57 58 58 72 59 91 60 56 61 57 62 71 64 92 65 59 66
REMARK SMILES IDX 43 67 44 68 52 69 45 70 51 71 53 72 50 73 46 74 47 75 48 76
REMARK SMILES IDX 49 77 75 78 76 79 84 80 77 81 83 82 85 83 82 84 78 85 79 86
REMARK SMILES IDX 80 87 81 88 60 89 61 90 69 91 62 92 68 93 70 94 67 95 63 96
REMARK SMILES IDX 64 97 65 98 66 99
REMARK H PARENT 10 16 90 52 58 63
REMARK Flexibility Score: inf
ROOT
ATOM      1  C   UNL A   1      42.256  42.195  24.169  1.00  0.00     0.188 C 
ENDROOT
BRANCH   1   2
ATOM      2  O   UNL A   1      42.371  41.598  22.889  1.00  0.00    -0.376 OA
BRANCH   2   3
ATOM      3  C   UNL A   1      41.857  42.288  21.762  1.00  0.00     0.202 C 
BRANCH   3   4
ATOM      4  C   UNL A   1      42.246  43.752  21.548  1.00  0.00     0.261 C 
BRANCH   4   5
ATOM      5  O   UNL A   1      43.638  44.109  21.549  1.00  0.00    -0.463 OA
BRANCH   5   6
ATOM      6  C   UNL A   1      44.528  43.859  20.563  1.00  0.00     0.310 C 
ATOM      7  O   UNL A   1      45.102  42.770  20.535  1.00  0.00    -0.252 OA
BRANCH   6   8
ATOM      8  C   UNL A   1      44.940  44.989  19.651  1.00  0.00     0.160 C 
BRANCH   8   9
ATOM      9  C   UNL A   1      43.924  45.306  18.583  1.00  0.00    -0.013 A 
ATOM     10  C   UNL A   1      43.233  44.241  17.984  1.00  0.00     0.006 A 
ATOM     11  C   UNL A   1      43.637  46.634  18.201  1.00  0.00     0.042 A 
ATOM     12  C   UNL A   1      42.293  44.481  16.989  1.00  0.00     0.000 A 
ATOM     13  C   UNL A   1      42.693  46.857  17.193  1.00  0.00     0.026 A 
ATOM     14  C   UNL A   1      42.022  45.789  16.595  1.00  0.00     0.002 A 
BRANCH  11  15
ATOM     15  N   UNL A   1      44.442  47.694  18.662  1.00  0.00    -0.354 N 
ATOM     16  H   UNL A   1      44.542  47.717  19.641  1.00  0.00     0.167 HD
BRANCH  15  17
ATOM     17  C   UNL A   1      45.134  48.734  17.997  1.00  0.00     0.070 A 
ATOM     18  C   UNL A   1      44.588  50.044  18.068  1.00  0.00     0.065 A 
ATOM     19  C   UNL A   1      46.271  48.541  17.184  1.00  0.00     0.080 A 
ATOM     20  Cl  UNL A   1      43.172  50.361  19.020  1.00  0.00    -0.082 Cl
ATOM     21  C   UNL A   1      45.144  51.124  17.378  1.00  0.00     0.023 A 
ATOM     22  C   UNL A   1      46.831  49.655  16.510  1.00  0.00     0.015 A 
ATOM     23  C   UNL A   1      46.273  50.929  16.598  1.00  0.00     0.002 A 
BRANCH  19  24
ATOM     24  C   UNL A   1      46.915  47.195  16.932  1.00  0.00     0.418 C 
ATOM     25  F   UNL A   1      46.042  46.313  16.350  1.00  0.00    -0.166 F 
ATOM     26  F   UNL A   1      47.966  47.264  16.073  1.00  0.00    -0.166 F 
ATOM     27  F   UNL A   1      47.340  46.558  18.051  1.00  0.00    -0.166 F 
ENDBRANCH  19  24
ENDBRANCH  15  17
ENDBRANCH  11  15
ENDBRANCH   8   9
ENDBRANCH   6   8
ENDBRANCH   5   6
ENDBRANCH   4   5
ENDBRANCH   3   4
ENDBRANCH   2   3
ENDBRANCH   1   2
BRANCH   1  28
ATOM     28  C   UNL A   1      42.547  41.328  25.395  1.00  0.00     0.188 C 
BRANCH  28  29
ATOM     29  O   UNL A   1      41.393  40.977  26.150  1.00  0.00    -0.376 OA
BRANCH  29  30
ATOM     30  C   UNL A   1      41.640  40.798  27.546  1.00  0.00     0.202 C 
BRANCH  30  31
ATOM     31  C   UNL A   1      41.826  39.340  28.005  1.00  0.00     0.261 C 
BRANCH  31  32
ATOM     32  O   UNL A   1      42.338  38.418  27.029  1.00  0.00    -0.460 OA
BRANCH  32  33
ATOM     33  C   UNL A   1      43.656  38.126  27.101  1.00  0.00     0.338 C 
ATOM     34  O   UNL A   1      44.575  38.915  26.992  1.00  0.00    -0.246 OA
BRANCH  33  35
ATOM     35  C   UNL A   1      43.817  36.707  27.483  1.00  0.00     0.060 A 
ATOM     36  C   UNL A   1      42.671  35.908  27.574  1.00  0.00     0.016 A 
ATOM     37  C   UNL A   1      45.070  36.183  27.818  1.00  0.00     0.016 A 
ATOM     38  C   UNL A   1      42.767  34.597  28.039  1.00  0.00     0.010 A 
ATOM     39  C   UNL A   1      45.161  34.875  28.316  1.00  0.00     0.010 A 
ATOM     40  C   UNL A   1      44.000  34.095  28.474  1.00  0.00    -0.014 A 
BRANCH  40  41
ATOM     41  C   UNL A   1      43.997  32.897  29.358  1.00  0.00     0.031 A 
ATOM     42  C   UNL A   1      43.769  33.123  30.832  1.00  0.00     0.074 A 
ATOM     43  C   UNL A   1      44.104  31.646  28.877  1.00  0.00     0.049 A 
ATOM     44  N   UNL A   1      43.639  32.255  31.802  1.00  0.00    -0.248 NA
ATOM     45  C   UNL A   1      43.669  34.526  31.265  1.00  0.00     0.031 C 
ATOM     46  C   UNL A   1      44.283  31.290  27.471  1.00  0.00     0.029 A 
ATOM     47  N   UNL A   1      44.064  30.435  29.527  1.00  0.00    -0.354 N 
ATOM     48  C   UNL A   1      43.433  33.005  32.955  1.00  0.00     0.074 A 
ATOM     49  C   UNL A   1      43.504  34.398  32.570  1.00  0.00     0.031 C 
ATOM     50  C   UNL A   1      44.333  29.949  27.364  1.00  0.00     0.029 A 
ATOM     51  C   UNL A   1      44.209  29.350  28.694  1.00  0.00     0.049 A 
ATOM     52  H   UNL A   1      43.939  30.353  30.500  1.00  0.00     0.167 HD
ATOM     53  C   UNL A   1      43.192  32.579  34.219  1.00  0.00     0.034 A 
ATOM     54  C   UNL A   1      44.243  28.030  28.976  1.00  0.00     0.034 A 
ATOM     55  C   UNL A   1      43.148  31.189  34.600  1.00  0.00     0.049 A 
ATOM     56  C   UNL A   1      44.056  27.578  30.408  1.00  0.00     0.074 A 
ATOM     57  C   UNL A   1      42.915  30.645  35.851  1.00  0.00     0.029 A 
ATOM     58  N   UNL A   1      43.356  30.122  33.736  1.00  0.00    -0.354 N 
ATOM     59  N   UNL A   1      43.839  28.297  31.485  1.00  0.00    -0.248 NA
ATOM     60  C   UNL A   1      44.100  26.129  30.655  1.00  0.00     0.031 C 
ATOM     61  C   UNL A   1      43.055  29.256  35.758  1.00  0.00     0.029 A 
ATOM     62  C   UNL A   1      43.288  28.925  34.433  1.00  0.00     0.049 A 
ATOM     63  H   UNL A   1      43.527  30.203  32.770  1.00  0.00     0.167 HD
ATOM     64  C   UNL A   1      43.675  27.384  32.527  1.00  0.00     0.074 A 
ATOM     65  C   UNL A   1      43.810  26.065  31.945  1.00  0.00     0.031 C 
ATOM     66  C   UNL A   1      43.426  27.613  33.843  1.00  0.00     0.034 A 
BRANCH  53  67
ATOM     67  C   UNL A   1      43.023  33.639  35.281  1.00  0.00     0.023 A 
ATOM     68  C   UNL A   1      41.754  34.106  35.669  1.00  0.00     0.031 A 
ATOM     69  C   UNL A   1      44.151  34.229  35.877  1.00  0.00     0.131 A 
ATOM     70  C   UNL A   1      41.647  35.181  36.564  1.00  0.00     0.055 A 
ATOM     71  C   UNL A   1      44.036  35.242  36.830  1.00  0.00     0.041 A 
ATOM     72  F   UNL A   1      45.389  33.844  35.527  1.00  0.00    -0.206 F 
ATOM     73  C   UNL A   1      42.779  35.736  37.166  1.00  0.00     0.022 A 
BRANCH  70  74
ATOM     74  S   UNL A   1      40.022  35.949  36.811  1.00  0.00     0.124 S 
ATOM     75  O   UNL A   1      40.352  37.061  37.698  1.00  0.00    -0.237 OA
ATOM     76  O   UNL A   1      39.633  36.309  35.452  1.00  0.00    -0.237 OA
ATOM     77  O   UNL A   1      39.230  34.885  37.425  1.00  0.00    -0.744 OA
ENDBRANCH  70  74
ENDBRANCH  53  67
BRANCH  54  78
ATOM     78  C   UNL A   1      44.485  27.025  27.897  1.00  0.00     0.023 A 
ATOM     79  C   UNL A   1      45.786  26.717  27.464  1.00  0.00     0.031 A 
ATOM     80  C   UNL A   1      43.408  26.420  27.225  1.00  0.00     0.131 A 
ATOM     81  C   UNL A   1      45.973  25.871  26.357  1.00  0.00     0.055 A 
ATOM     82  C   UNL A   1      43.602  25.538  26.161  1.00  0.00     0.041 A 
ATOM     83  F   UNL A   1      42.145  26.685  27.594  1.00  0.00    -0.206 F 
ATOM     84  C   UNL A   1      44.891  25.269  25.712  1.00  0.00     0.022 A 
BRANCH  81  85
ATOM     85  S   UNL A   1      47.654  25.641  25.710  1.00  0.00     0.124 S 
ATOM     86  O   UNL A   1      48.102  24.473  26.458  1.00  0.00    -0.237 OA
ATOM     87  O   UNL A   1      47.405  25.438  24.287  1.00  0.00    -0.237 OA
ATOM     88  O   UNL A   1      48.324  26.895  26.049  1.00  0.00    -0.744 OA
ENDBRANCH  81  85
ENDBRANCH  54  78
BRANCH  66  89
ATOM     89  C   UNL A   1      43.215  26.406  34.729  1.00  0.00     0.023 A 
ATOM     90  C   UNL A   1      44.286  25.720  35.325  1.00  0.00     0.031 A 
ATOM     91  C   UNL A   1      41.913  25.927  34.964  1.00  0.00     0.131 A 
ATOM     92  C   UNL A   1      44.044  24.554  36.070  1.00  0.00     0.055 A 
ATOM     93  C   UNL A   1      41.672  24.806  35.761  1.00  0.00     0.041 A 
ATOM     94  F   UNL A   1      40.849  26.540  34.423  1.00  0.00    -0.206 F 
ATOM     95  C   UNL A   1      42.743  24.103  36.305  1.00  0.00     0.022 A 
BRANCH  92  96
ATOM     96  S   UNL A   1      45.459  23.568  36.634  1.00  0.00     0.124 S 
ATOM     97  O   UNL A   1      45.131  22.243  36.118  1.00  0.00    -0.237 OA
ATOM     98  O   UNL A   1      46.583  24.242  35.994  1.00  0.00    -0.237 OA
ATOM     99  O   UNL A   1      45.409  23.696  38.090  1.00  0.00    -0.744 OA
ENDBRANCH  92  96
ENDBRANCH  66  89
ENDBRANCH  40  41
ENDBRANCH  33  35
ENDBRANCH  32  33
ENDBRANCH  31  32
ENDBRANCH  30  31
ENDBRANCH  29  30
ENDBRANCH  28  29
ENDBRANCH   1  28
TORSDOF 24
ENDMDL
MODEL 3
REMARK VINA RESULT:      -8.3      5.280      8.087
REMARK SMILES O=C(Cc1ccccc1Nc1c(Cl)cccc1C(F)(F)F)OCCOCCOCCOC(=O)c1ccc(-c2c3nc(c(-c4cc(S(=O)(=O)[O-])ccc4F)c4ccc([nH]4)c(-c4cc(S(=O)(=O)[O-])ccc4F)c4nc(c(-c5cc(S(=O)(=O)[O-])ccc5F)c5ccc2[nH]5)C=C4)C=C3)cc1
REMARK SMILES IDX 26 1 25 2 24 3 23 4 22 5 2 6 1 7 3 8 4 9 5 10 9 11 6 12 8 13
REMARK SMILES IDX 7 14 10 15 11 17 12 18 17 19 13 20 14 21 16 22 15 23 18 24
REMARK SMILES IDX 19 25 20 26 21 27 27 28 28 29 29 30 30 31 31 32 32 33 33 34
REMARK SMILES IDX 34 35 35 36 96 37 36 38 95 39 37 40 38 41 39 42 89 43 40 44
REMARK SMILES IDX 94 45 88 46 90 47 41 48 93 49 87 50 86 51 42 53 74 54 54 55
REMARK SMILES IDX 73 56 55 57 58 58 72 59 91 60 56 61 57 62 71 64 92 65 59 66
REMARK SMILES IDX 43 67 44 68 52 69 45 70 51 71 53 72 50 73 46 74 47 75 48 76
REMARK SMILES IDX 49 77 75 78 76 79 84 80 77 81 83 82 85 83 82 84 78 85 79 86
REMARK SMILES IDX 80 87 81 88 60 89 61 90 69 91 62 92 68 93 70 94 67 95 63 96
REMARK SMILES IDX 64 97 65 98 66 99
REMARK H PARENT 10 16 90 52 58 63
REMARK Flexibility Score: inf
ROOT
ATOM      1  C   UNL A   1      37.016  29.642  27.638  1.00  0.00     0.188 C 
ENDROOT
BRANCH   1   2
ATOM      2  O   UNL A   1      35.742  29.541  28.248  1.00  0.00    -0.376 OA
BRANCH   2   3
ATOM      3  C   UNL A   1      34.587  29.809  27.470  1.00  0.00     0.202 C 
BRANCH   3   4
ATOM      4  C   UNL A   1      34.142  28.783  26.426  1.00  0.00     0.261 C 
BRANCH   4   5
ATOM      5  O   UNL A   1      33.475  27.589  26.866  1.00  0.00    -0.463 OA
BRANCH   5   6
ATOM      6  C   UNL A   1      32.142  27.433  27.035  1.00  0.00     0.310 C 
ATOM      7  O   UNL A   1      31.572  28.072  27.919  1.00  0.00    -0.252 OA
BRANCH   6   8
ATOM      8  C   UNL A   1      31.435  26.337  26.276  1.00  0.00     0.160 C 
BRANCH   8   9
ATOM      9  C   UNL A   1      31.801  26.280  24.815  1.00  0.00    -0.013 A 
ATOM     10  C   UNL A   1      31.189  27.190  23.939  1.00  0.00     0.006 A 
ATOM     11  C   UNL A   1      32.754  25.362  24.322  1.00  0.00     0.042 A 
ATOM     12  C   UNL A   1      31.488  27.171  22.581  1.00  0.00     0.000 A 
ATOM     13  C   UNL A   1      33.037  25.352  22.953  1.00  0.00     0.026 A 
ATOM     14  C   UNL A   1      32.412  26.254  22.089  1.00  0.00     0.002 A 
BRANCH  11  15
ATOM     15  N   UNL A   1      33.241  24.332  25.152  1.00  0.00    -0.354 N 
ATOM     16  H   UNL A   1      33.544  24.646  26.034  1.00  0.00     0.167 HD
BRANCH  15  17
ATOM     17  C   UNL A   1      33.382  22.936  24.966  1.00  0.00     0.070 A 
ATOM     18  C   UNL A   1      32.256  22.115  25.246  1.00  0.00     0.065 A 
ATOM     19  C   UNL A   1      34.591  22.296  24.623  1.00  0.00     0.080 A 
ATOM     20  Cl  UNL A   1      30.740  22.821  25.706  1.00  0.00    -0.082 Cl
ATOM     21  C   UNL A   1      32.313  20.721  25.178  1.00  0.00     0.023 A 
ATOM     22  C   UNL A   1      34.621  20.881  24.540  1.00  0.00     0.015 A 
ATOM     23  C   UNL A   1      33.500  20.102  24.820  1.00  0.00     0.002 A 
BRANCH  19  24
ATOM     24  C   UNL A   1      35.898  23.022  24.386  1.00  0.00     0.418 C 
ATOM     25  F   UNL A   1      35.855  23.796  23.255  1.00  0.00    -0.166 F 
ATOM     26  F   UNL A   1      36.212  23.886  25.388  1.00  0.00    -0.166 F 
ATOM     27  F   UNL A   1      36.966  22.208  24.197  1.00  0.00    -0.166 F 
ENDBRANCH  19  24
ENDBRANCH  15  17
ENDBRANCH  11  15
ENDBRANCH   8   9
ENDBRANCH   6   8
ENDBRANCH   5   6
ENDBRANCH   4   5
ENDBRANCH   3   4
ENDBRANCH   2   3
ENDBRANCH   1   2
BRANCH   1  28
ATOM     28  C   UNL A   1      38.172  28.850  28.253  1.00  0.00     0.188 C 
BRANCH  28  29
ATOM     29  O   UNL A   1      39.462  29.377  27.963  1.00  0.00    -0.376 OA
BRANCH  29  30
ATOM     30  C   UNL A   1      40.169  28.666  26.946  1.00  0.00     0.202 C 
BRANCH  30  31
ATOM     31  C   UNL A   1      41.546  29.241  26.568  1.00  0.00     0.261 C 
BRANCH  31  32
ATOM     32  O   UNL A   1      42.183  28.679  25.409  1.00  0.00    -0.460 OA
BRANCH  32  33
ATOM     33  C   UNL A   1      42.439  27.353  25.440  1.00  0.00     0.338 C 
ATOM     34  O   UNL A   1      41.752  26.474  24.954  1.00  0.00    -0.246 OA
BRANCH  33  35
ATOM     35  C   UNL A   1      43.775  27.132  26.034  1.00  0.00     0.060 A 
ATOM     36  C   UNL A   1      44.568  28.249  26.322  1.00  0.00     0.016 A 
ATOM     37  C   UNL A   1      44.273  25.841  26.242  1.00  0.00     0.016 A 
ATOM     38  C   UNL A   1      45.875  28.082  26.777  1.00  0.00     0.010 A 
ATOM     39  C   UNL A   1      45.599  25.674  26.669  1.00  0.00     0.010 A 
ATOM     40  C   UNL A   1      46.419  26.795  26.891  1.00  0.00    -0.014 A 
BRANCH  40  41
ATOM     41  C   UNL A   1      47.901  26.662  26.939  1.00  0.00     0.031 A 
ATOM     42  C   UNL A   1      48.651  26.787  25.636  1.00  0.00     0.074 A 
ATOM     43  C   UNL A   1      48.576  26.524  28.095  1.00  0.00     0.049 A 
ATOM     44  N   UNL A   1      49.940  26.792  25.409  1.00  0.00    -0.248 NA
ATOM     45  C   UNL A   1      47.828  26.931  24.425  1.00  0.00     0.031 C 
ATOM     46  C   UNL A   1      47.973  26.436  29.423  1.00  0.00     0.029 A 
ATOM     47  N   UNL A   1      49.927  26.446  28.333  1.00  0.00    -0.354 N 
ATOM     48  C   UNL A   1      50.080  26.949  24.034  1.00  0.00     0.074 A 
ATOM     49  C   UNL A   1      48.746  26.986  23.476  1.00  0.00     0.031 C 
ATOM     50  C   UNL A   1      48.954  26.320  30.338  1.00  0.00     0.029 A 
ATOM     51  C   UNL A   1      50.251  26.306  29.662  1.00  0.00     0.049 A 
ATOM     52  H   UNL A   1      50.601  26.489  27.617  1.00  0.00     0.167 HD
ATOM     53  C   UNL A   1      51.213  27.066  23.300  1.00  0.00     0.034 A 
ATOM     54  C   UNL A   1      51.456  26.177  30.259  1.00  0.00     0.034 A 
ATOM     55  C   UNL A   1      52.540  27.003  23.860  1.00  0.00     0.049 A 
ATOM     56  C   UNL A   1      52.708  26.226  29.411  1.00  0.00     0.074 A 
ATOM     57  C   UNL A   1      53.757  27.106  23.209  1.00  0.00     0.029 A 
ATOM     58  N   UNL A   1      52.825  26.804  25.204  1.00  0.00    -0.354 N 
ATOM     59  N   UNL A   1      52.827  26.398  28.114  1.00  0.00    -0.248 NA
ATOM     60  C   UNL A   1      53.990  26.083  30.115  1.00  0.00     0.031 C 
ATOM     61  C   UNL A   1      54.774  26.897  24.145  1.00  0.00     0.029 A 
ATOM     62  C   UNL A   1      54.198  26.750  25.397  1.00  0.00     0.049 A 
ATOM     63  H   UNL A   1      52.152  26.713  25.917  1.00  0.00     0.167 HD
ATOM     64  C   UNL A   1      54.197  26.429  27.857  1.00  0.00     0.074 A 
ATOM     65  C   UNL A   1      54.860  26.267  29.134  1.00  0.00     0.031 C 
ATOM     66  C   UNL A   1      54.850  26.587  26.676  1.00  0.00     0.034 A 
BRANCH  53  67
ATOM     67  C   UNL A   1      51.051  27.210  21.805  1.00  0.00     0.023 A 
ATOM     68  C   UNL A   1      50.827  26.100  20.972  1.00  0.00     0.031 A 
ATOM     69  C   UNL A   1      51.176  28.473  21.200  1.00  0.00     0.131 A 
ATOM     70  C   UNL A   1      50.812  26.262  19.578  1.00  0.00     0.055 A 
ATOM     71  C   UNL A   1      51.078  28.639  19.817  1.00  0.00     0.041 A 
ATOM     72  F   UNL A   1      51.419  29.565  21.941  1.00  0.00    -0.206 F 
ATOM     73  C   UNL A   1      50.911  27.528  18.996  1.00  0.00     0.022 A 
BRANCH  70  74
ATOM     74  S   UNL A   1      50.821  24.781  18.530  1.00  0.00     0.124 S 
ATOM     75  O   UNL A   1      51.062  25.355  17.209  1.00  0.00    -0.237 OA
ATOM     76  O   UNL A   1      51.913  23.999  19.098  1.00  0.00    -0.237 OA
ATOM     77  O   UNL A   1      49.485  24.218  18.721  1.00  0.00    -0.744 OA
ENDBRANCH  70  74
ENDBRANCH  53  67
BRANCH  54  78
ATOM     78  C   UNL A   1      51.557  25.965  31.734  1.00  0.00     0.023 A 
ATOM     79  C   UNL A   1      51.450  24.681  32.298  1.00  0.00     0.031 A 
ATOM     80  C   UNL A   1      51.679  27.058  32.610  1.00  0.00     0.131 A 
ATOM     81  C   UNL A   1      51.413  24.530  33.694  1.00  0.00     0.055 A 
ATOM     82  C   UNL A   1      51.697  26.897  33.997  1.00  0.00     0.041 A 
ATOM     83  F   UNL A   1      51.778  28.306  32.126  1.00  0.00    -0.206 F 
ATOM     84  C   UNL A   1      51.549  25.628  34.547  1.00  0.00     0.022 A 
BRANCH  81  85
ATOM     85  S   UNL A   1      51.089  22.883  34.385  1.00  0.00     0.124 S 
ATOM     86  O   UNL A   1      52.435  22.428  34.712  1.00  0.00    -0.237 OA
ATOM     87  O   UNL A   1      50.222  23.195  35.516  1.00  0.00    -0.237 OA
ATOM     88  O   UNL A   1      50.440  22.174  33.284  1.00  0.00    -0.744 OA
ENDBRANCH  81  85
ENDBRANCH  54  78
BRANCH  66  89
ATOM     89  C   UNL A   1      56.360  26.660  26.722  1.00  0.00     0.023 A 
ATOM     90  C   UNL A   1      57.045  27.879  26.862  1.00  0.00     0.031 A 
ATOM     91  C   UNL A   1      57.124  25.484  26.607  1.00  0.00     0.131 A 
ATOM     92  C   UNL A   1      58.448  27.903  26.814  1.00  0.00     0.055 A 
ATOM     93  C   UNL A   1      58.519  25.506  26.627  1.00  0.00     0.041 A 
ATOM     94  F   UNL A   1      56.526  24.290  26.471  1.00  0.00    -0.206 F 
ATOM     95  C   UNL A   1      59.189  26.723  26.714  1.00  0.00     0.022 A 
BRANCH  92  96
ATOM     96  S   UNL A   1      59.293  29.508  26.770  1.00  0.00     0.124 S 
ATOM     97  O   UNL A   1      58.175  30.437  26.641  1.00  0.00    -0.237 OA
ATOM     98  O   UNL A   1      59.994  29.526  28.050  1.00  0.00    -0.237 OA
ATOM     99  O   UNL A   1      60.156  29.410  25.593  1.00  0.00    -0.744 OA
ENDBRANCH  92  96
ENDBRANCH  66  89
ENDBRANCH  40  41
ENDBRANCH  33  35
ENDBRANCH  32  33
ENDBRANCH  31  32
ENDBRANCH  30  31
ENDBRANCH  29  30
ENDBRANCH  28  29
ENDBRANCH   1  28
TORSDOF 24
ENDMDL
