MODEL 1
REMARK VINA RESULT:     -10.0      0.000      0.000
REMARK SMILES CC[C@@](C)(NC(=O)[C@H]1OCCc2ccccc21)C(=O)OCCOCCOCCOC(=O)c1ccc(-c2c3nc(c(-c4cc(S(=O)(=O)[O-])ccc4F)c4ccc([nH]4)c(-c4cc(S(=O)(=O)[O-])ccc4F)c4nc(c(-c5cc(S(=O)(=O)[O-])ccc5F)c5ccc2[nH]5)C=C4)C=C3)cc1
REMARK SMILES IDX 25 1 24 2 23 3 22 4 21 5 20 6 18 7 19 8 3 9 4 10 2 11 1 12
REMARK SMILES IDX 5 13 6 14 7 16 8 17 9 18 17 19 10 20 12 21 16 22 11 23 13 24
REMARK SMILES IDX 15 25 14 26 26 27 27 28 28 29 29 30 30 31 31 32 32 33 33 34
REMARK SMILES IDX 94 35 34 36 93 37 35 38 36 39 37 40 87 41 38 42 92 43 86 44
REMARK SMILES IDX 88 45 39 46 91 47 85 48 84 49 40 51 72 52 52 53 71 54 53 55
REMARK SMILES IDX 56 56 70 57 89 58 54 59 55 60 69 62 90 63 57 64 41 65 42 66
REMARK SMILES IDX 50 67 43 68 49 69 51 70 48 71 44 72 45 73 46 74 47 75 73 76
REMARK SMILES IDX 74 77 82 78 75 79 81 80 83 81 80 82 76 83 77 84 78 85 79 86
REMARK SMILES IDX 58 87 59 88 67 89 60 90 66 91 68 92 65 93 61 94 62 95 63 96
REMARK SMILES IDX 64 97
REMARK H PARENT 5 15 88 50 56 61
REMARK Flexibility Score: inf
ROOT
ATOM      1  C   UNL A   1      33.918  31.808  27.980  1.00  0.00     0.188 C 
ENDROOT
BRANCH   1   2
ATOM      2  C   UNL A   1      34.202  30.481  27.315  1.00  0.00     0.188 C 
BRANCH   2   3
ATOM      3  O   UNL A   1      33.069  29.621  27.231  1.00  0.00    -0.376 OA
BRANCH   3   4
ATOM      4  C   UNL A   1      32.203  29.869  26.117  1.00  0.00     0.202 C 
BRANCH   4   5
ATOM      5  C   UNL A   1      32.507  28.966  24.913  1.00  0.00     0.261 C 
BRANCH   5   6
ATOM      6  O   UNL A   1      32.623  27.609  25.379  1.00  0.00    -0.462 OA
BRANCH   6   7
ATOM      7  C   UNL A   1      31.532  26.818  25.398  1.00  0.00     0.331 C 
ATOM      8  O   UNL A   1      30.925  26.565  26.434  1.00  0.00    -0.249 OA
BRANCH   7   9
ATOM      9  C   UNL A   1      31.193  26.196  23.986  1.00  0.00     0.135 C 
ATOM     10  C   UNL A   1      30.786  24.746  24.291  1.00  0.00     0.047 C 
BRANCH   9  11
ATOM     11  C   UNL A   1      29.973  26.986  23.378  1.00  0.00     0.037 C 
ATOM     12  C   UNL A   1      28.554  26.635  23.798  1.00  0.00     0.007 C 
ENDBRANCH   9  11
BRANCH   9  13
ATOM     13  N   UNL A   1      32.154  26.176  22.801  1.00  0.00    -0.338 N 
ATOM     14  C   UNL A   1      33.040  25.300  22.231  1.00  0.00     0.254 C 
ATOM     15  H   UNL A   1      32.131  27.030  22.309  1.00  0.00     0.164 HD
ATOM     16  O   UNL A   1      33.198  25.399  21.010  1.00  0.00    -0.272 OA
BRANCH  14  17
ATOM     17  C   UNL A   1      33.845  24.345  23.100  1.00  0.00     0.237 C 
ATOM     18  O   UNL A   1      34.342  25.126  24.203  1.00  0.00    -0.363 OA
ATOM     19  C   UNL A   1      33.284  22.960  23.431  1.00  0.00    -0.007 A 
ATOM     20  C   UNL A   1      34.161  24.552  25.486  1.00  0.00     0.166 C 
ATOM     21  C   UNL A   1      33.780  22.313  24.582  1.00  0.00    -0.039 A 
ATOM     22  C   UNL A   1      32.491  22.218  22.543  1.00  0.00     0.007 A 
ATOM     23  C   UNL A   1      34.650  23.112  25.514  1.00  0.00     0.064 C 
ATOM     24  C   UNL A   1      33.516  20.961  24.819  1.00  0.00     0.004 A 
ATOM     25  C   UNL A   1      32.204  20.873  22.797  1.00  0.00     0.000 A 
ATOM     26  C   UNL A   1      32.726  20.242  23.926  1.00  0.00     0.000 A 
ENDBRANCH  14  17
ENDBRANCH   9  13
ENDBRANCH   7   9
ENDBRANCH   6   7
ENDBRANCH   5   6
ENDBRANCH   4   5
ENDBRANCH   3   4
ENDBRANCH   2   3
ENDBRANCH   1   2
BRANCH   1  27
ATOM     27  O   UNL A   1      34.840  32.824  27.582  1.00  0.00    -0.376 OA
BRANCH  27  28
ATOM     28  C   UNL A   1      34.384  34.143  27.889  1.00  0.00     0.202 C 
BRANCH  28  29
ATOM     29  C   UNL A   1      34.061  34.340  29.377  1.00  0.00     0.261 C 
BRANCH  29  30
ATOM     30  O   UNL A   1      35.219  34.082  30.189  1.00  0.00    -0.460 OA
BRANCH  30  31
ATOM     31  C   UNL A   1      35.110  33.004  31.010  1.00  0.00     0.338 C 
ATOM     32  O   UNL A   1      34.135  32.695  31.676  1.00  0.00    -0.246 OA
BRANCH  31  33
ATOM     33  C   UNL A   1      36.280  32.110  30.801  1.00  0.00     0.060 A 
ATOM     34  C   UNL A   1      36.210  30.809  31.324  1.00  0.00     0.016 A 
ATOM     35  C   UNL A   1      37.390  32.496  30.037  1.00  0.00     0.016 A 
ATOM     36  C   UNL A   1      37.268  29.919  31.148  1.00  0.00     0.010 A 
ATOM     37  C   UNL A   1      38.456  31.609  29.868  1.00  0.00     0.010 A 
ATOM     38  C   UNL A   1      38.422  30.341  30.477  1.00  0.00    -0.014 A 
BRANCH  38  39
ATOM     39  C   UNL A   1      39.695  29.624  30.729  1.00  0.00     0.031 A 
ATOM     40  C   UNL A   1      40.494  30.077  31.926  1.00  0.00     0.074 A 
ATOM     41  C   UNL A   1      40.112  28.602  29.964  1.00  0.00     0.049 A 
ATOM     42  N   UNL A   1      41.648  29.658  32.370  1.00  0.00    -0.248 NA
ATOM     43  C   UNL A   1      39.904  31.167  32.722  1.00  0.00     0.031 C 
ATOM     44  C   UNL A   1      39.396  28.052  28.814  1.00  0.00     0.029 A 
ATOM     45  N   UNL A   1      41.251  27.840  30.046  1.00  0.00    -0.354 N 
ATOM     46  C   UNL A   1      41.923  30.438  33.489  1.00  0.00     0.074 A 
ATOM     47  C   UNL A   1      40.843  31.386  33.625  1.00  0.00     0.031 C 
ATOM     48  C   UNL A   1      40.116  27.039  28.297  1.00  0.00     0.029 A 
ATOM     49  C   UNL A   1      41.356  26.889  29.059  1.00  0.00     0.049 A 
ATOM     50  H   UNL A   1      41.929  27.962  30.750  1.00  0.00     0.167 HD
ATOM     51  C   UNL A   1      42.977  30.364  34.336  1.00  0.00     0.034 A 
ATOM     52  C   UNL A   1      42.349  26.013  28.802  1.00  0.00     0.034 A 
ATOM     53  C   UNL A   1      44.052  29.421  34.173  1.00  0.00     0.049 A 
ATOM     54  C   UNL A   1      43.555  25.996  29.717  1.00  0.00     0.074 A 
ATOM     55  C   UNL A   1      45.177  29.248  34.957  1.00  0.00     0.029 A 
ATOM     56  N   UNL A   1      44.141  28.494  33.140  1.00  0.00    -0.354 N 
ATOM     57  N   UNL A   1      43.803  26.733  30.777  1.00  0.00    -0.248 NA
ATOM     58  C   UNL A   1      44.603  25.016  29.410  1.00  0.00     0.031 C 
ATOM     59  C   UNL A   1      45.980  28.273  34.359  1.00  0.00     0.029 A 
ATOM     60  C   UNL A   1      45.314  27.766  33.253  1.00  0.00     0.049 A 
ATOM     61  H   UNL A   1      43.467  28.374  32.432  1.00  0.00     0.167 HD
ATOM     62  C   UNL A   1      45.014  26.269  31.290  1.00  0.00     0.074 A 
ATOM     63  C   UNL A   1      45.436  25.185  30.425  1.00  0.00     0.031 C 
ATOM     64  C   UNL A   1      45.711  26.688  32.379  1.00  0.00     0.034 A 
BRANCH  51  65
ATOM     65  C   UNL A   1      43.033  31.375  35.457  1.00  0.00     0.023 A 
ATOM     66  C   UNL A   1      43.468  32.697  35.248  1.00  0.00     0.031 A 
ATOM     67  C   UNL A   1      42.711  30.991  36.770  1.00  0.00     0.131 A 
ATOM     68  C   UNL A   1      43.650  33.557  36.342  1.00  0.00     0.055 A 
ATOM     69  C   UNL A   1      42.808  31.879  37.843  1.00  0.00     0.041 A 
ATOM     70  F   UNL A   1      42.323  29.735  37.040  1.00  0.00    -0.206 F 
ATOM     71  C   UNL A   1      43.296  33.165  37.636  1.00  0.00     0.022 A 
BRANCH  68  72
ATOM     72  S   UNL A   1      44.511  35.132  36.077  1.00  0.00     0.124 S 
ATOM     73  O   UNL A   1      44.467  35.719  37.415  1.00  0.00    -0.237 OA
ATOM     74  O   UNL A   1      45.824  34.700  35.612  1.00  0.00    -0.237 OA
ATOM     75  O   UNL A   1      43.686  35.810  35.080  1.00  0.00    -0.744 OA
ENDBRANCH  68  72
ENDBRANCH  51  65
BRANCH  52  76
ATOM     76  C   UNL A   1      42.273  25.090  27.630  1.00  0.00     0.023 A 
ATOM     77  C   UNL A   1      41.511  23.910  27.682  1.00  0.00     0.031 A 
ATOM     78  C   UNL A   1      43.019  25.337  26.463  1.00  0.00     0.131 A 
ATOM     79  C   UNL A   1      41.553  22.998  26.613  1.00  0.00     0.055 A 
ATOM     80  C   UNL A   1      43.013  24.455  25.381  1.00  0.00     0.041 A 
ATOM     81  F   UNL A   1      43.770  26.444  26.360  1.00  0.00    -0.206 F 
ATOM     82  C   UNL A   1      42.289  23.269  25.458  1.00  0.00     0.022 A 
BRANCH  79  83
ATOM     83  S   UNL A   1      40.706  21.404  26.795  1.00  0.00     0.124 S 
ATOM     84  O   UNL A   1      40.713  21.228  28.244  1.00  0.00    -0.237 OA
ATOM     85  O   UNL A   1      39.409  21.680  26.187  1.00  0.00    -0.237 OA
ATOM     86  O   UNL A   1      41.557  20.479  26.049  1.00  0.00    -0.744 OA
ENDBRANCH  79  83
ENDBRANCH  52  76
BRANCH  64  87
ATOM     87  C   UNL A   1      46.962  25.918  32.735  1.00  0.00     0.023 A 
ATOM     88  C   UNL A   1      46.948  24.851  33.649  1.00  0.00     0.031 A 
ATOM     89  C   UNL A   1      48.194  26.276  32.157  1.00  0.00     0.131 A 
ATOM     90  C   UNL A   1      48.152  24.230  34.016  1.00  0.00     0.055 A 
ATOM     91  C   UNL A   1      49.376  25.606  32.468  1.00  0.00     0.041 A 
ATOM     92  F   UNL A   1      48.268  27.288  31.277  1.00  0.00    -0.206 F 
ATOM     93  C   UNL A   1      49.364  24.588  33.417  1.00  0.00     0.022 A 
BRANCH  90  94
ATOM     94  S   UNL A   1      48.134  23.037  35.381  1.00  0.00     0.124 S 
ATOM     95  O   UNL A   1      46.722  23.019  35.749  1.00  0.00    -0.237 OA
ATOM     96  O   UNL A   1      48.642  21.827  34.744  1.00  0.00    -0.237 OA
ATOM     97  O   UNL A   1      49.025  23.637  36.373  1.00  0.00    -0.744 OA
ENDBRANCH  90  94
ENDBRANCH  64  87
ENDBRANCH  38  39
ENDBRANCH  31  33
ENDBRANCH  30  31
ENDBRANCH  29  30
ENDBRANCH  28  29
ENDBRANCH  27  28
ENDBRANCH   1  27
TORSDOF 23
ENDMDL
MODEL 2
REMARK VINA RESULT:      -9.9      4.465      9.922
REMARK SMILES CC[C@@](C)(NC(=O)[C@H]1OCCc2ccccc21)C(=O)OCCOCCOCCOC(=O)c1ccc(-c2c3nc(c(-c4cc(S(=O)(=O)[O-])ccc4F)c4ccc([nH]4)c(-c4cc(S(=O)(=O)[O-])ccc4F)c4nc(c(-c5cc(S(=O)(=O)[O-])ccc5F)c5ccc2[nH]5)C=C4)C=C3)cc1
REMARK SMILES IDX 25 1 24 2 23 3 22 4 21 5 20 6 18 7 19 8 3 9 4 10 2 11 1 12
REMARK SMILES IDX 5 13 6 14 7 16 8 17 9 18 17 19 10 20 12 21 16 22 11 23 13 24
REMARK SMILES IDX 15 25 14 26 26 27 27 28 28 29 29 30 30 31 31 32 32 33 33 34
REMARK SMILES IDX 94 35 34 36 93 37 35 38 36 39 37 40 87 41 38 42 92 43 86 44
REMARK SMILES IDX 88 45 39 46 91 47 85 48 84 49 40 51 72 52 52 53 71 54 53 55
REMARK SMILES IDX 56 56 70 57 89 58 54 59 55 60 69 62 90 63 57 64 41 65 42 66
REMARK SMILES IDX 50 67 43 68 49 69 51 70 48 71 44 72 45 73 46 74 47 75 73 76
REMARK SMILES IDX 74 77 82 78 75 79 81 80 83 81 80 82 76 83 77 84 78 85 79 86
REMARK SMILES IDX 58 87 59 88 67 89 60 90 66 91 68 92 65 93 61 94 62 95 63 96
REMARK SMILES IDX 64 97
REMARK H PARENT 5 15 88 50 56 61
REMARK Flexibility Score: inf
ROOT
ATOM      1  C   UNL A   1      39.500  21.724  26.495  1.00  0.00     0.188 C 
ENDROOT
BRANCH   1   2
ATOM      2  C   UNL A   1      38.815  23.062  26.341  1.00  0.00     0.188 C 
BRANCH   2   3
ATOM      3  O   UNL A   1      37.774  23.073  25.370  1.00  0.00    -0.376 OA
BRANCH   3   4
ATOM      4  C   UNL A   1      36.461  23.309  25.893  1.00  0.00     0.202 C 
BRANCH   4   5
ATOM      5  C   UNL A   1      35.351  23.016  24.873  1.00  0.00     0.261 C 
BRANCH   5   6
ATOM      6  O   UNL A   1      34.324  24.015  25.019  1.00  0.00    -0.462 OA
BRANCH   6   7
ATOM      7  C   UNL A   1      33.483  24.255  23.993  1.00  0.00     0.331 C 
ATOM      8  O   UNL A   1      33.810  24.928  23.022  1.00  0.00    -0.249 OA
BRANCH   7   9
ATOM      9  C   UNL A   1      32.035  23.667  24.229  1.00  0.00     0.135 C 
ATOM     10  C   UNL A   1      31.186  24.265  23.097  1.00  0.00     0.047 C 
BRANCH   9  11
ATOM     11  C   UNL A   1      32.110  22.100  24.083  1.00  0.00     0.037 C 
ATOM     12  C   UNL A   1      32.159  21.466  22.701  1.00  0.00     0.007 C 
ENDBRANCH   9  11
BRANCH   9  13
ATOM     13  N   UNL A   1      31.250  23.806  25.530  1.00  0.00    -0.338 N 
ATOM     14  C   UNL A   1      30.541  24.779  26.185  1.00  0.00     0.254 C 
ATOM     15  H   UNL A   1      31.254  22.964  26.040  1.00  0.00     0.164 HD
ATOM     16  O   UNL A   1      29.602  24.391  26.886  1.00  0.00    -0.272 OA
BRANCH  14  17
ATOM     17  C   UNL A   1      30.981  26.234  26.112  1.00  0.00     0.237 C 
ATOM     18  O   UNL A   1      32.340  26.267  26.585  1.00  0.00    -0.363 OA
ATOM     19  C   UNL A   1      30.663  27.065  24.866  1.00  0.00    -0.007 A 
ATOM     20  C   UNL A   1      33.250  26.995  25.777  1.00  0.00     0.166 C 
ATOM     21  C   UNL A   1      31.467  28.195  24.613  1.00  0.00    -0.039 A 
ATOM     22  C   UNL A   1      29.494  26.897  24.108  1.00  0.00     0.007 A 
ATOM     23  C   UNL A   1      32.704  28.376  25.450  1.00  0.00     0.064 C 
ATOM     24  C   UNL A   1      31.097  29.142  23.654  1.00  0.00     0.004 A 
ATOM     25  C   UNL A   1      29.142  27.832  23.129  1.00  0.00     0.000 A 
ATOM     26  C   UNL A   1      29.933  28.958  22.911  1.00  0.00     0.000 A 
ENDBRANCH  14  17
ENDBRANCH   9  13
ENDBRANCH   7   9
ENDBRANCH   6   7
ENDBRANCH   5   6
ENDBRANCH   4   5
ENDBRANCH   3   4
ENDBRANCH   2   3
ENDBRANCH   1   2
BRANCH   1  27
ATOM     27  O   UNL A   1      38.973  20.738  25.605  1.00  0.00    -0.376 OA
BRANCH  27  28
ATOM     28  C   UNL A   1      39.610  19.466  25.743  1.00  0.00     0.202 C 
BRANCH  28  29
ATOM     29  C   UNL A   1      41.004  19.552  26.379  1.00  0.00     0.261 C 
BRANCH  29  30
ATOM     30  O   UNL A   1      42.029  19.477  25.374  1.00  0.00    -0.460 OA
BRANCH  30  31
ATOM     31  C   UNL A   1      43.214  20.044  25.725  1.00  0.00     0.338 C 
ATOM     32  O   UNL A   1      44.327  19.598  25.495  1.00  0.00    -0.246 OA
BRANCH  31  33
ATOM     33  C   UNL A   1      42.968  21.420  26.230  1.00  0.00     0.060 A 
ATOM     34  C   UNL A   1      42.672  22.418  25.287  1.00  0.00     0.016 A 
ATOM     35  C   UNL A   1      42.939  21.722  27.598  1.00  0.00     0.016 A 
ATOM     36  C   UNL A   1      42.418  23.725  25.699  1.00  0.00     0.010 A 
ATOM     37  C   UNL A   1      42.694  23.033  28.012  1.00  0.00     0.010 A 
ATOM     38  C   UNL A   1      42.495  24.049  27.059  1.00  0.00    -0.014 A 
BRANCH  38  39
ATOM     39  C   UNL A   1      42.738  25.460  27.443  1.00  0.00     0.031 A 
ATOM     40  C   UNL A   1      44.122  25.999  27.178  1.00  0.00     0.074 A 
ATOM     41  C   UNL A   1      41.779  26.242  27.967  1.00  0.00     0.049 A 
ATOM     42  N   UNL A   1      44.626  27.175  27.433  1.00  0.00    -0.248 NA
ATOM     43  C   UNL A   1      45.069  25.064  26.545  1.00  0.00     0.031 C 
ATOM     44  C   UNL A   1      40.397  25.839  28.220  1.00  0.00     0.029 A 
ATOM     45  N   UNL A   1      41.829  27.550  28.381  1.00  0.00    -0.354 N 
ATOM     46  C   UNL A   1      45.948  27.117  27.000  1.00  0.00     0.074 A 
ATOM     47  C   UNL A   1      46.180  25.778  26.515  1.00  0.00     0.031 C 
ATOM     48  C   UNL A   1      39.730  26.882  28.749  1.00  0.00     0.029 A 
ATOM     49  C   UNL A   1      40.644  28.014  28.900  1.00  0.00     0.049 A 
ATOM     50  H   UNL A   1      42.640  28.104  28.311  1.00  0.00     0.167 HD
ATOM     51  C   UNL A   1      46.883  28.097  26.997  1.00  0.00     0.034 A 
ATOM     52  C   UNL A   1      40.346  29.213  29.442  1.00  0.00     0.034 A 
ATOM     53  C   UNL A   1      46.635  29.423  27.501  1.00  0.00     0.049 A 
ATOM     54  C   UNL A   1      41.427  30.271  29.497  1.00  0.00     0.074 A 
ATOM     55  C   UNL A   1      47.498  30.501  27.559  1.00  0.00     0.029 A 
ATOM     56  N   UNL A   1      45.430  29.847  28.049  1.00  0.00    -0.354 N 
ATOM     57  N   UNL A   1      42.672  30.210  29.079  1.00  0.00    -0.248 NA
ATOM     58  C   UNL A   1      41.055  31.565  30.081  1.00  0.00     0.031 C 
ATOM     59  C   UNL A   1      46.841  31.550  28.209  1.00  0.00     0.029 A 
ATOM     60  C   UNL A   1      45.536  31.161  28.472  1.00  0.00     0.049 A 
ATOM     61  H   UNL A   1      44.620  29.293  28.127  1.00  0.00     0.167 HD
ATOM     62  C   UNL A   1      43.213  31.474  29.306  1.00  0.00     0.074 A 
ATOM     63  C   UNL A   1      42.155  32.275  29.888  1.00  0.00     0.031 C 
ATOM     64  C   UNL A   1      44.465  31.940  29.048  1.00  0.00     0.034 A 
BRANCH  51  65
ATOM     65  C   UNL A   1      48.261  27.733  26.496  1.00  0.00     0.023 A 
ATOM     66  C   UNL A   1      49.336  27.502  27.373  1.00  0.00     0.031 A 
ATOM     67  C   UNL A   1      48.518  27.684  25.115  1.00  0.00     0.131 A 
ATOM     68  C   UNL A   1      50.631  27.318  26.862  1.00  0.00     0.055 A 
ATOM     69  C   UNL A   1      49.792  27.410  24.612  1.00  0.00     0.041 A 
ATOM     70  F   UNL A   1      47.542  27.929  24.227  1.00  0.00    -0.206 F 
ATOM     71  C   UNL A   1      50.861  27.243  25.486  1.00  0.00     0.022 A 
BRANCH  68  72
ATOM     72  S   UNL A   1      52.033  27.347  28.014  1.00  0.00     0.124 S 
ATOM     73  O   UNL A   1      51.925  26.030  28.638  1.00  0.00    -0.237 OA
ATOM     74  O   UNL A   1      53.171  27.540  27.122  1.00  0.00    -0.237 OA
ATOM     75  O   UNL A   1      51.730  28.472  28.895  1.00  0.00    -0.744 OA
ENDBRANCH  68  72
ENDBRANCH  51  65
BRANCH  52  76
ATOM     76  C   UNL A   1      38.985  29.488  29.994  1.00  0.00     0.023 A 
ATOM     77  C   UNL A   1      38.032  30.207  29.253  1.00  0.00     0.031 A 
ATOM     78  C   UNL A   1      38.641  29.098  31.301  1.00  0.00     0.131 A 
ATOM     79  C   UNL A   1      36.805  30.558  29.840  1.00  0.00     0.055 A 
ATOM     80  C   UNL A   1      37.398  29.401  31.860  1.00  0.00     0.041 A 
ATOM     81  F   UNL A   1      39.514  28.414  32.057  1.00  0.00    -0.206 F 
ATOM     82  C   UNL A   1      36.476  30.149  31.134  1.00  0.00     0.022 A 
BRANCH  79  83
ATOM     83  S   UNL A   1      35.678  31.643  28.920  1.00  0.00     0.124 S 
ATOM     84  O   UNL A   1      36.605  32.609  28.340  1.00  0.00    -0.237 OA
ATOM     85  O   UNL A   1      35.054  30.711  27.988  1.00  0.00    -0.237 OA
ATOM     86  O   UNL A   1      34.792  32.172  29.956  1.00  0.00    -0.744 OA
ENDBRANCH  79  83
ENDBRANCH  52  76
BRANCH  64  87
ATOM     87  C   UNL A   1      44.728  33.401  29.326  1.00  0.00     0.023 A 
ATOM     88  C   UNL A   1      44.629  34.383  28.325  1.00  0.00     0.031 A 
ATOM     89  C   UNL A   1      45.102  33.813  30.618  1.00  0.00     0.131 A 
ATOM     90  C   UNL A   1      44.974  35.712  28.614  1.00  0.00     0.055 A 
ATOM     91  C   UNL A   1      45.371  35.148  30.918  1.00  0.00     0.041 A 
ATOM     92  F   UNL A   1      45.213  32.919  31.615  1.00  0.00    -0.206 F 
ATOM     93  C   UNL A   1      45.326  36.104  29.908  1.00  0.00     0.022 A 
BRANCH  90  94
ATOM     94  S   UNL A   1      45.083  36.898  27.246  1.00  0.00     0.124 S 
ATOM     95  O   UNL A   1      43.678  37.122  26.925  1.00  0.00    -0.237 OA
ATOM     96  O   UNL A   1      45.783  38.020  27.862  1.00  0.00    -0.237 OA
ATOM     97  O   UNL A   1      45.844  36.176  26.227  1.00  0.00    -0.744 OA
ENDBRANCH  90  94
ENDBRANCH  64  87
ENDBRANCH  38  39
ENDBRANCH  31  33
ENDBRANCH  30  31
ENDBRANCH  29  30
ENDBRANCH  28  29
ENDBRANCH  27  28
ENDBRANCH   1  27
TORSDOF 23
ENDMDL
MODEL 3
REMARK VINA RESULT:      -9.7      4.047      9.509
REMARK SMILES CC[C@@](C)(NC(=O)[C@H]1OCCc2ccccc21)C(=O)OCCOCCOCCOC(=O)c1ccc(-c2c3nc(c(-c4cc(S(=O)(=O)[O-])ccc4F)c4ccc([nH]4)c(-c4cc(S(=O)(=O)[O-])ccc4F)c4nc(c(-c5cc(S(=O)(=O)[O-])ccc5F)c5ccc2[nH]5)C=C4)C=C3)cc1
REMARK SMILES IDX 25 1 24 2 23 3 22 4 21 5 20 6 18 7 19 8 3 9 4 10 2 11 1 12
REMARK SMILES IDX 5 13 6 14 7 16 8 17 9 18 17 19 10 20 12 21 16 22 11 23 13 24
REMARK SMILES IDX 15 25 14 26 26 27 27 28 28 29 29 30 30 31 31 32 32 33 33 34
REMARK SMILES IDX 94 35 34 36 93 37 35 38 36 39 37 40 87 41 38 42 92 43 86 44
REMARK SMILES IDX 88 45 39 46 91 47 85 48 84 49 40 51 72 52 52 53 71 54 53 55
REMARK SMILES IDX 56 56 70 57 89 58 54 59 55 60 69 62 90 63 57 64 41 65 42 66
REMARK SMILES IDX 50 67 43 68 49 69 51 70 48 71 44 72 45 73 46 74 47 75 73 76
REMARK SMILES IDX 74 77 82 78 75 79 81 80 83 81 80 82 76 83 77 84 78 85 79 86
REMARK SMILES IDX 58 87 59 88 67 89 60 90 66 91 68 92 65 93 61 94 62 95 63 96
REMARK SMILES IDX 64 97
REMARK H PARENT 5 15 88 50 56 61
REMARK Flexibility Score: inf
ROOT
ATOM      1  C   UNL A   1      39.157  21.413  26.322  1.00  0.00     0.188 C 
ENDROOT
BRANCH   1   2
ATOM      2  C   UNL A   1      38.539  22.750  25.984  1.00  0.00     0.188 C 
BRANCH   2   3
ATOM      3  O   UNL A   1      37.305  22.656  25.279  1.00  0.00    -0.376 OA
BRANCH   3   4
ATOM      4  C   UNL A   1      36.852  23.880  24.687  1.00  0.00     0.202 C 
BRANCH   4   5
ATOM      5  C   UNL A   1      35.409  23.795  24.169  1.00  0.00     0.261 C 
BRANCH   5   6
ATOM      6  O   UNL A   1      34.686  24.945  24.644  1.00  0.00    -0.462 OA
BRANCH   6   7
ATOM      7  C   UNL A   1      33.628  25.399  23.942  1.00  0.00     0.331 C 
ATOM      8  O   UNL A   1      33.467  25.136  22.755  1.00  0.00    -0.249 OA
BRANCH   7   9
ATOM      9  C   UNL A   1      32.697  26.363  24.780  1.00  0.00     0.135 C 
ATOM     10  C   UNL A   1      33.439  26.555  26.111  1.00  0.00     0.047 C 
BRANCH   9  11
ATOM     11  C   UNL A   1      32.591  27.736  24.014  1.00  0.00     0.037 C 
ATOM     12  C   UNL A   1      33.852  28.444  23.543  1.00  0.00     0.007 C 
ENDBRANCH   9  11
BRANCH   9  13
ATOM     13  N   UNL A   1      31.230  26.084  25.095  1.00  0.00    -0.338 N 
ATOM     14  C   UNL A   1      30.482  25.056  25.608  1.00  0.00     0.254 C 
ATOM     15  H   UNL A   1      30.664  26.857  24.867  1.00  0.00     0.164 HD
ATOM     16  O   UNL A   1      29.468  25.378  26.233  1.00  0.00    -0.272 OA
BRANCH  14  17
ATOM     17  C   UNL A   1      30.855  23.611  25.311  1.00  0.00     0.237 C 
ATOM     18  O   UNL A   1      30.714  23.443  23.889  1.00  0.00    -0.363 OA
ATOM     19  C   UNL A   1      32.097  22.996  25.960  1.00  0.00    -0.007 A 
ATOM     20  C   UNL A   1      31.802  22.806  23.239  1.00  0.00     0.166 C 
ATOM     21  C   UNL A   1      32.682  21.882  25.323  1.00  0.00    -0.039 A 
ATOM     22  C   UNL A   1      32.538  23.332  27.249  1.00  0.00     0.007 A 
ATOM     23  C   UNL A   1      32.184  21.518  23.952  1.00  0.00     0.064 C 
ATOM     24  C   UNL A   1      33.653  21.111  25.969  1.00  0.00     0.004 A 
ATOM     25  C   UNL A   1      33.531  22.575  27.881  1.00  0.00     0.000 A 
ATOM     26  C   UNL A   1      34.078  21.461  27.249  1.00  0.00     0.000 A 
ENDBRANCH  14  17
ENDBRANCH   9  13
ENDBRANCH   7   9
ENDBRANCH   6   7
ENDBRANCH   5   6
ENDBRANCH   4   5
ENDBRANCH   3   4
ENDBRANCH   2   3
ENDBRANCH   1   2
BRANCH   1  27
ATOM     27  O   UNL A   1      38.832  20.405  25.364  1.00  0.00    -0.376 OA
BRANCH  27  28
ATOM     28  C   UNL A   1      39.480  19.158  25.625  1.00  0.00     0.202 C 
BRANCH  28  29
ATOM     29  C   UNL A   1      40.845  19.316  26.309  1.00  0.00     0.261 C 
BRANCH  29  30
ATOM     30  O   UNL A   1      41.896  19.413  25.334  1.00  0.00    -0.460 OA
BRANCH  30  31
ATOM     31  C   UNL A   1      43.063  19.931  25.802  1.00  0.00     0.338 C 
ATOM     32  O   UNL A   1      44.175  19.447  25.670  1.00  0.00    -0.246 OA
BRANCH  31  33
ATOM     33  C   UNL A   1      42.820  21.310  26.302  1.00  0.00     0.060 A 
ATOM     34  C   UNL A   1      42.585  22.318  25.353  1.00  0.00     0.016 A 
ATOM     35  C   UNL A   1      42.735  21.606  27.669  1.00  0.00     0.016 A 
ATOM     36  C   UNL A   1      42.337  23.627  25.761  1.00  0.00     0.010 A 
ATOM     37  C   UNL A   1      42.496  22.920  28.080  1.00  0.00     0.010 A 
ATOM     38  C   UNL A   1      42.359  23.943  27.124  1.00  0.00    -0.014 A 
BRANCH  38  39
ATOM     39  C   UNL A   1      42.610  25.348  27.526  1.00  0.00     0.031 A 
ATOM     40  C   UNL A   1      44.004  25.875  27.288  1.00  0.00     0.074 A 
ATOM     41  C   UNL A   1      41.652  26.135  28.043  1.00  0.00     0.049 A 
ATOM     42  N   UNL A   1      44.516  27.043  27.562  1.00  0.00    -0.248 NA
ATOM     43  C   UNL A   1      44.950  24.936  26.660  1.00  0.00     0.031 C 
ATOM     44  C   UNL A   1      40.262  25.743  28.271  1.00  0.00     0.029 A 
ATOM     45  N   UNL A   1      41.709  27.437  28.471  1.00  0.00    -0.354 N 
ATOM     46  C   UNL A   1      45.844  26.975  27.150  1.00  0.00     0.074 A 
ATOM     47  C   UNL A   1      46.070  25.638  26.654  1.00  0.00     0.031 C 
ATOM     48  C   UNL A   1      39.597  26.788  28.800  1.00  0.00     0.029 A 
ATOM     49  C   UNL A   1      40.521  27.909  28.976  1.00  0.00     0.049 A 
ATOM     50  H   UNL A   1      42.527  27.984  28.420  1.00  0.00     0.167 HD
ATOM     51  C   UNL A   1      46.789  27.945  27.170  1.00  0.00     0.034 A 
ATOM     52  C   UNL A   1      40.227  29.105  29.527  1.00  0.00     0.034 A 
ATOM     53  C   UNL A   1      46.547  29.268  27.684  1.00  0.00     0.049 A 
ATOM     54  C   UNL A   1      41.318  30.152  29.609  1.00  0.00     0.074 A 
ATOM     55  C   UNL A   1      47.420  30.336  27.767  1.00  0.00     0.029 A 
ATOM     56  N   UNL A   1      45.338  29.699  28.219  1.00  0.00    -0.354 N 
ATOM     57  N   UNL A   1      42.568  30.081  29.209  1.00  0.00    -0.248 NA
ATOM     58  C   UNL A   1      40.950  31.444  30.200  1.00  0.00     0.031 C 
ATOM     59  C   UNL A   1      46.765  31.386  28.417  1.00  0.00     0.029 A 
ATOM     60  C   UNL A   1      45.452  31.009  28.656  1.00  0.00     0.049 A 
ATOM     61  H   UNL A   1      44.521  29.153  28.278  1.00  0.00     0.167 HD
ATOM     62  C   UNL A   1      43.120  31.338  29.457  1.00  0.00     0.074 A 
ATOM     63  C   UNL A   1      42.061  32.143  30.031  1.00  0.00     0.031 C 
ATOM     64  C   UNL A   1      44.380  31.792  29.224  1.00  0.00     0.034 A 
BRANCH  51  65
ATOM     65  C   UNL A   1      48.171  27.572  26.687  1.00  0.00     0.023 A 
ATOM     66  C   UNL A   1      49.197  27.203  27.575  1.00  0.00     0.031 A 
ATOM     67  C   UNL A   1      48.485  27.652  25.319  1.00  0.00     0.131 A 
ATOM     68  C   UNL A   1      50.504  27.013  27.098  1.00  0.00     0.055 A 
ATOM     69  C   UNL A   1      49.766  27.374  24.839  1.00  0.00     0.041 A 
ATOM     70  F   UNL A   1      47.558  28.032  24.425  1.00  0.00    -0.206 F 
ATOM     71  C   UNL A   1      50.789  27.069  25.732  1.00  0.00     0.022 A 
BRANCH  68  72
ATOM     72  S   UNL A   1      51.855  26.859  28.299  1.00  0.00     0.124 S 
ATOM     73  O   UNL A   1      52.857  26.135  27.520  1.00  0.00    -0.237 OA
ATOM     74  O   UNL A   1      52.166  28.251  28.605  1.00  0.00    -0.237 OA
ATOM     75  O   UNL A   1      51.257  26.096  29.393  1.00  0.00    -0.744 OA
ENDBRANCH  68  72
ENDBRANCH  51  65
BRANCH  52  76
ATOM     76  C   UNL A   1      38.861  29.389  30.060  1.00  0.00     0.023 A 
ATOM     77  C   UNL A   1      37.923  30.117  29.308  1.00  0.00     0.031 A 
ATOM     78  C   UNL A   1      38.496  28.999  31.361  1.00  0.00     0.131 A 
ATOM     79  C   UNL A   1      36.690  30.476  29.879  1.00  0.00     0.055 A 
ATOM     80  C   UNL A   1      37.248  29.310  31.904  1.00  0.00     0.041 A 
ATOM     81  F   UNL A   1      39.353  28.308  32.128  1.00  0.00    -0.206 F 
ATOM     82  C   UNL A   1      36.342  30.066  31.167  1.00  0.00     0.022 A 
BRANCH  79  83
ATOM     83  S   UNL A   1      35.585  31.571  28.946  1.00  0.00     0.124 S 
ATOM     84  O   UNL A   1      34.731  32.102  30.003  1.00  0.00    -0.237 OA
ATOM     85  O   UNL A   1      36.525  32.511  28.346  1.00  0.00    -0.237 OA
ATOM     86  O   UNL A   1      34.925  30.667  28.004  1.00  0.00    -0.744 OA
ENDBRANCH  79  83
ENDBRANCH  52  76
BRANCH  64  87
ATOM     87  C   UNL A   1      44.654  33.248  29.521  1.00  0.00     0.023 A 
ATOM     88  C   UNL A   1      45.136  33.680  30.768  1.00  0.00     0.031 A 
ATOM     89  C   UNL A   1      44.407  34.222  28.536  1.00  0.00     0.131 A 
ATOM     90  C   UNL A   1      45.284  35.051  31.023  1.00  0.00     0.055 A 
ATOM     91  C   UNL A   1      44.629  35.579  28.770  1.00  0.00     0.041 A 
ATOM     92  F   UNL A   1      43.946  33.869  27.325  1.00  0.00    -0.206 F 
ATOM     93  C   UNL A   1      45.052  36.003  30.025  1.00  0.00     0.022 A 
BRANCH  90  94
ATOM     94  S   UNL A   1      45.659  35.585  32.715  1.00  0.00     0.124 S 
ATOM     95  O   UNL A   1      45.100  34.495  33.508  1.00  0.00    -0.237 OA
ATOM     96  O   UNL A   1      47.115  35.679  32.697  1.00  0.00    -0.237 OA
ATOM     97  O   UNL A   1      44.957  36.862  32.835  1.00  0.00    -0.744 OA
ENDBRANCH  90  94
ENDBRANCH  64  87
ENDBRANCH  38  39
ENDBRANCH  31  33
ENDBRANCH  30  31
ENDBRANCH  29  30
ENDBRANCH  28  29
ENDBRANCH  27  28
ENDBRANCH   1  27
TORSDOF 23
ENDMDL
