MODEL 1
REMARK VINA RESULT:     -12.7      0.000      0.000
REMARK SMILES O=C(OCCOCCOCCOC(=O)c1ccc(-c2c3nc(c(-c4cc(S(=O)(=O)[O-])ccc4F)c4ccc([nH]4)c(-c4cc(S(=O)(=O)[O-])ccc4F)c4nc(c(-c5cc(S(=O)(=O)[O-])ccc5F)c5ccc2[nH]5)C=C4)C=C3)cc1)C1=Cc2cc(Cl)cc(-c3ccccc3)c2O[C@@H]1C(F)(F)F
REMARK SMILES IDX 8 1 7 2 6 3 5 4 4 5 3 6 2 7 1 8 78 9 79 10 94 11 80 12 93 13
REMARK SMILES IDX 81 14 92 15 82 16 85 17 83 18 84 19 95 20 96 21 97 22 98 23
REMARK SMILES IDX 86 24 87 25 91 26 88 27 90 28 89 29 9 30 10 31 11 32 12 33
REMARK SMILES IDX 13 34 14 35 15 36 16 37 77 38 17 39 76 40 18 41 19 42 20 43
REMARK SMILES IDX 70 44 21 45 75 46 69 47 71 48 22 49 74 50 68 51 67 52 23 54
REMARK SMILES IDX 55 55 35 56 54 57 36 58 39 59 53 60 72 61 37 62 38 63 52 65
REMARK SMILES IDX 73 66 40 67 24 68 25 69 33 70 26 71 32 72 34 73 31 74 27 75
REMARK SMILES IDX 28 76 29 77 30 78 56 79 57 80 65 81 58 82 64 83 66 84 63 85
REMARK SMILES IDX 59 86 60 87 61 88 62 89 41 90 42 91 50 92 43 93 49 94 51 95
REMARK SMILES IDX 48 96 44 97 45 98 46 99 47 100
REMARK H PARENT 71 53 39 64
REMARK Flexibility Score: inf
ROOT
ATOM      1  C   UNL A   1      35.215  32.277  27.988  1.00  0.00     0.188 C 
ENDROOT
BRANCH   1   2
ATOM      2  C   UNL A   1      34.120  31.210  28.115  1.00  0.00     0.188 C 
BRANCH   2   3
ATOM      3  O   UNL A   1      33.565  30.393  26.949  1.00  0.00    -0.376 OA
BRANCH   3   4
ATOM      4  C   UNL A   1      31.940  29.691  26.815  1.00  0.00     0.202 C 
BRANCH   4   5
ATOM      5  C   UNL A   1      31.635  27.564  26.487  1.00  0.00     0.261 C 
BRANCH   5   6
ATOM      6  O   UNL A   1      32.664  26.466  26.664  1.00  0.00    -0.460 OA
BRANCH   6   7
ATOM      7  C   UNL A   1      32.133  25.256  26.440  1.00  0.00     0.338 C 
ATOM      8  O   UNL A   1      31.648  24.499  27.245  1.00  0.00    -0.246 OA
BRANCH   7   9
ATOM      9  C   UNL A   1      32.751  25.011  25.142  1.00  0.00     0.087 C 
ATOM     10  C   UNL A   1      34.175  24.756  25.146  1.00  0.00     0.027 C 
ATOM     11  C   UNL A   1      31.430  23.724  24.656  1.00  0.00     0.316 C 
ATOM     12  C   UNL A   1      34.918  23.141  25.021  1.00  0.00     0.019 A 
ATOM     13  O   UNL A   1      32.186  21.900  24.686  1.00  0.00    -0.475 OA
ATOM     14  C   UNL A   1      36.266  23.065  25.260  1.00  0.00     0.032 A 
ATOM     15  C   UNL A   1      34.000  21.682  24.867  1.00  0.00     0.135 A 
ATOM     16  C   UNL A   1      36.790  21.771  25.312  1.00  0.00     0.042 A 
ATOM     17  C   UNL A   1      34.620  20.441  24.870  1.00  0.00     0.026 A 
ATOM     18  Cl  UNL A   1      38.475  21.610  25.682  1.00  0.00    -0.084 Cl
ATOM     19  C   UNL A   1      36.028  20.560  25.109  1.00  0.00     0.033 A 
BRANCH  11  20
ATOM     20  C   UNL A   1      30.930  24.782  23.362  1.00  0.00     0.430 C 
ATOM     21  F   UNL A   1      30.904  26.112  23.493  1.00  0.00    -0.167 F 
ATOM     22  F   UNL A   1      31.740  24.522  22.299  1.00  0.00    -0.167 F 
ATOM     23  F   UNL A   1      29.672  24.485  22.905  1.00  0.00    -0.167 F 
ENDBRANCH  11  20
BRANCH  17  24
ATOM     24  C   UNL A   1      34.122  19.088  24.653  1.00  0.00    -0.015 A 
ATOM     25  C   UNL A   1      32.787  18.756  24.902  1.00  0.00     0.009 A 
ATOM     26  C   UNL A   1      35.024  18.033  24.411  1.00  0.00     0.009 A 
ATOM     27  C   UNL A   1      32.348  17.430  24.801  1.00  0.00     0.001 A 
ATOM     28  C   UNL A   1      34.582  16.711  24.278  1.00  0.00     0.001 A 
ATOM     29  C   UNL A   1      33.237  16.414  24.453  1.00  0.00     0.000 A 
ENDBRANCH  17  24
ENDBRANCH   7   9
ENDBRANCH   6   7
ENDBRANCH   5   6
ENDBRANCH   4   5
ENDBRANCH   3   4
ENDBRANCH   2   3
ENDBRANCH   1   2
BRANCH   1  30
ATOM     30  O   UNL A   1      34.852  33.579  27.634  1.00  0.00    -0.376 OA
BRANCH  30  31
ATOM     31  C   UNL A   1      33.541  33.939  28.011  1.00  0.00     0.202 C 
BRANCH  31  32
ATOM     32  C   UNL A   1      33.296  35.120  28.952  1.00  0.00     0.261 C 
BRANCH  32  33
ATOM     33  O   UNL A   1      32.669  34.782  30.195  1.00  0.00    -0.460 OA
BRANCH  33  34
ATOM     34  C   UNL A   1      33.348  35.150  31.309  1.00  0.00     0.338 C 
ATOM     35  O   UNL A   1      32.981  35.924  32.174  1.00  0.00    -0.246 OA
BRANCH  34  36
ATOM     36  C   UNL A   1      34.546  34.299  31.429  1.00  0.00     0.060 A 
ATOM     37  C   UNL A   1      34.432  33.027  32.007  1.00  0.00     0.016 A 
ATOM     38  C   UNL A   1      35.786  34.793  31.027  1.00  0.00     0.016 A 
ATOM     39  C   UNL A   1      35.562  32.240  32.188  1.00  0.00     0.010 A 
ATOM     40  C   UNL A   1      36.928  34.025  31.257  1.00  0.00     0.010 A 
ATOM     41  C   UNL A   1      36.819  32.763  31.867  1.00  0.00    -0.014 A 
BRANCH  41  42
ATOM     42  C   UNL A   1      38.013  32.096  32.429  1.00  0.00     0.031 A 
ATOM     43  C   UNL A   1      38.647  31.006  31.611  1.00  0.00     0.074 A 
ATOM     44  C   UNL A   1      38.561  32.506  33.586  1.00  0.00     0.049 A 
ATOM     45  N   UNL A   1      39.702  30.281  31.869  1.00  0.00    -0.248 NA
ATOM     46  C   UNL A   1      37.999  30.696  30.325  1.00  0.00     0.031 C 
ATOM     47  C   UNL A   1      38.055  33.594  34.419  1.00  0.00     0.029 A 
ATOM     48  N   UNL A   1      39.669  32.054  34.252  1.00  0.00    -0.354 N 
ATOM     49  C   UNL A   1      39.856  29.444  30.770  1.00  0.00     0.074 A 
ATOM     50  C   UNL A   1      38.752  29.706  29.874  1.00  0.00     0.031 C 
ATOM     51  C   UNL A   1      38.848  33.718  35.498  1.00  0.00     0.029 A 
ATOM     52  C   UNL A   1      39.895  32.697  35.447  1.00  0.00     0.049 A 
ATOM     53  H   UNL A   1      40.250  31.336  33.910  1.00  0.00     0.167 HD
ATOM     54  C   UNL A   1      40.843  28.549  30.524  1.00  0.00     0.034 A 
ATOM     55  C   UNL A   1      40.825  32.464  36.395  1.00  0.00     0.034 A 
ATOM     56  C   UNL A   1      41.913  28.278  31.449  1.00  0.00     0.049 A 
ATOM     57  C   UNL A   1      41.844  31.372  36.153  1.00  0.00     0.074 A 
ATOM     58  C   UNL A   1      42.953  27.375  31.321  1.00  0.00     0.029 A 
ATOM     59  N   UNL A   1      42.075  28.900  32.681  1.00  0.00    -0.354 N 
ATOM     60  N   UNL A   1      41.982  30.583  35.111  1.00  0.00    -0.248 NA
ATOM     61  C   UNL A   1      42.840  31.150  37.207  1.00  0.00     0.031 C 
ATOM     62  C   UNL A   1      43.690  27.388  32.509  1.00  0.00     0.029 A 
ATOM     63  C   UNL A   1      43.177  28.376  33.336  1.00  0.00     0.049 A 
ATOM     64  H   UNL A   1      41.492  29.610  33.035  1.00  0.00     0.167 HD
ATOM     65  C   UNL A   1      43.106  29.800  35.371  1.00  0.00     0.074 A 
ATOM     66  C   UNL A   1      43.618  30.233  36.655  1.00  0.00     0.031 C 
ATOM     67  C   UNL A   1      43.668  28.815  34.621  1.00  0.00     0.034 A 
BRANCH  54  68
ATOM     68  C   UNL A   1      40.773  27.779  29.230  1.00  0.00     0.023 A 
ATOM     69  C   UNL A   1      41.653  28.047  28.166  1.00  0.00     0.031 A 
ATOM     70  C   UNL A   1      39.799  26.784  29.044  1.00  0.00     0.131 A 
ATOM     71  C   UNL A   1      41.498  27.379  26.945  1.00  0.00     0.055 A 
ATOM     72  C   UNL A   1      39.707  26.059  27.854  1.00  0.00     0.041 A 
ATOM     73  F   UNL A   1      38.909  26.507  30.010  1.00  0.00    -0.206 F 
ATOM     74  C   UNL A   1      40.552  26.363  26.791  1.00  0.00     0.022 A 
BRANCH  71  75
ATOM     75  S   UNL A   1      42.446  27.962  25.512  1.00  0.00     0.124 S 
ATOM     76  O   UNL A   1      43.750  28.231  26.113  1.00  0.00    -0.237 OA
ATOM     77  O   UNL A   1      42.384  26.821  24.606  1.00  0.00    -0.237 OA
ATOM     78  O   UNL A   1      41.713  29.148  25.076  1.00  0.00    -0.744 OA
ENDBRANCH  71  75
ENDBRANCH  54  68
BRANCH  55  79
ATOM     79  C   UNL A   1      40.815  33.226  37.680  1.00  0.00     0.023 A 
ATOM     80  C   UNL A   1      40.122  32.758  38.808  1.00  0.00     0.031 A 
ATOM     81  C   UNL A   1      41.426  34.492  37.767  1.00  0.00     0.131 A 
ATOM     82  C   UNL A   1      39.998  33.576  39.944  1.00  0.00     0.055 A 
ATOM     83  C   UNL A   1      41.365  35.266  38.925  1.00  0.00     0.041 A 
ATOM     84  F   UNL A   1      42.088  35.000  36.715  1.00  0.00    -0.206 F 
ATOM     85  C   UNL A   1      40.631  34.818  40.017  1.00  0.00     0.022 A 
BRANCH  82  86
ATOM     86  S   UNL A   1      38.870  33.058  41.268  1.00  0.00     0.124 S 
ATOM     87  O   UNL A   1      37.611  33.650  40.831  1.00  0.00    -0.237 OA
ATOM     88  O   UNL A   1      38.957  31.604  41.190  1.00  0.00    -0.237 OA
ATOM     89  O   UNL A   1      39.457  33.653  42.467  1.00  0.00    -0.744 OA
ENDBRANCH  82  86
ENDBRANCH  55  79
BRANCH  67  90
ATOM     90  C   UNL A   1      44.936  28.184  35.150  1.00  0.00     0.023 A 
ATOM     91  C   UNL A   1      44.911  27.022  35.942  1.00  0.00     0.031 A 
ATOM     92  C   UNL A   1      46.185  28.772  34.883  1.00  0.00     0.131 A 
ATOM     93  C   UNL A   1      46.099  26.540  36.511  1.00  0.00     0.055 A 
ATOM     94  C   UNL A   1      47.374  28.232  35.375  1.00  0.00     0.041 A 
ATOM     95  F   UNL A   1      46.274  29.885  34.137  1.00  0.00    -0.206 F 
ATOM     96  C   UNL A   1      47.334  27.123  36.214  1.00  0.00     0.022 A 
BRANCH  93  97
ATOM     97  S   UNL A   1      45.988  25.240  37.770  1.00  0.00     0.124 S 
ATOM     98  O   UNL A   1      46.025  24.029  36.956  1.00  0.00    -0.237 OA
ATOM     99  O   UNL A   1      47.169  25.495  38.589  1.00  0.00    -0.237 OA
ATOM    100  O   UNL A   1      44.709  25.508  38.427  1.00  0.00    -0.744 OA
ENDBRANCH  93  97
ENDBRANCH  67  90
ENDBRANCH  41  42
ENDBRANCH  34  36
ENDBRANCH  33  34
ENDBRANCH  32  33
ENDBRANCH  31  32
ENDBRANCH  30  31
ENDBRANCH   1  30
TORSDOF 22
ENDMDL
MODEL 2
REMARK VINA RESULT:     -12.7      1.285      7.286
REMARK SMILES O=C(OCCOCCOCCOC(=O)c1ccc(-c2c3nc(c(-c4cc(S(=O)(=O)[O-])ccc4F)c4ccc([nH]4)c(-c4cc(S(=O)(=O)[O-])ccc4F)c4nc(c(-c5cc(S(=O)(=O)[O-])ccc5F)c5ccc2[nH]5)C=C4)C=C3)cc1)C1=Cc2cc(Cl)cc(-c3ccccc3)c2O[C@@H]1C(F)(F)F
REMARK SMILES IDX 8 1 7 2 6 3 5 4 4 5 3 6 2 7 1 8 78 9 79 10 94 11 80 12 93 13
REMARK SMILES IDX 81 14 92 15 82 16 85 17 83 18 84 19 95 20 96 21 97 22 98 23
REMARK SMILES IDX 86 24 87 25 91 26 88 27 90 28 89 29 9 30 10 31 11 32 12 33
REMARK SMILES IDX 13 34 14 35 15 36 16 37 77 38 17 39 76 40 18 41 19 42 20 43
REMARK SMILES IDX 70 44 21 45 75 46 69 47 71 48 22 49 74 50 68 51 67 52 23 54
REMARK SMILES IDX 55 55 35 56 54 57 36 58 39 59 53 60 72 61 37 62 38 63 52 65
REMARK SMILES IDX 73 66 40 67 24 68 25 69 33 70 26 71 32 72 34 73 31 74 27 75
REMARK SMILES IDX 28 76 29 77 30 78 56 79 57 80 65 81 58 82 64 83 66 84 63 85
REMARK SMILES IDX 59 86 60 87 61 88 62 89 41 90 42 91 50 92 43 93 49 94 51 95
REMARK SMILES IDX 48 96 44 97 45 98 46 99 47 100
REMARK H PARENT 71 53 39 64
REMARK Flexibility Score: inf
ROOT
ATOM      1  C   UNL A   1      35.217  32.171  27.672  1.00  0.00     0.188 C 
ENDROOT
BRANCH   1   2
ATOM      2  C   UNL A   1      34.113  31.144  27.953  1.00  0.00     0.188 C 
BRANCH   2   3
ATOM      3  O   UNL A   1      33.488  30.231  26.900  1.00  0.00    -0.376 OA
BRANCH   3   4
ATOM      4  C   UNL A   1      31.893  29.455  26.971  1.00  0.00     0.202 C 
BRANCH   4   5
ATOM      5  C   UNL A   1      31.607  27.373  26.416  1.00  0.00     0.261 C 
BRANCH   5   6
ATOM      6  O   UNL A   1      32.522  26.213  26.756  1.00  0.00    -0.460 OA
BRANCH   6   7
ATOM      7  C   UNL A   1      31.937  25.036  26.498  1.00  0.00     0.338 C 
ATOM      8  O   UNL A   1      31.413  24.281  27.279  1.00  0.00    -0.246 OA
BRANCH   7   9
ATOM      9  C   UNL A   1      32.550  24.798  25.196  1.00  0.00     0.087 C 
ATOM     10  C   UNL A   1      33.981  24.578  25.190  1.00  0.00     0.027 C 
ATOM     11  C   UNL A   1      31.259  23.475  24.729  1.00  0.00     0.316 C 
ATOM     12  C   UNL A   1      34.763  22.982  25.070  1.00  0.00     0.019 A 
ATOM     13  O   UNL A   1      32.060  21.671  24.764  1.00  0.00    -0.475 OA
ATOM     14  C   UNL A   1      36.114  22.941  25.299  1.00  0.00     0.032 A 
ATOM     15  C   UNL A   1      33.880  21.499  24.932  1.00  0.00     0.135 A 
ATOM     16  C   UNL A   1      36.670  21.661  25.355  1.00  0.00     0.042 A 
ATOM     17  C   UNL A   1      34.530  20.274  24.939  1.00  0.00     0.026 A 
ATOM     18  Cl  UNL A   1      38.362  21.544  25.713  1.00  0.00    -0.084 Cl
ATOM     19  C   UNL A   1      35.937  20.429  25.166  1.00  0.00     0.033 A 
BRANCH  11  20
ATOM     20  C   UNL A   1      30.723  24.512  23.432  1.00  0.00     0.430 C 
ATOM     21  F   UNL A   1      30.295  25.760  23.642  1.00  0.00    -0.167 F 
ATOM     22  F   UNL A   1      31.753  24.609  22.547  1.00  0.00    -0.167 F 
ATOM     23  F   UNL A   1      29.706  23.949  22.704  1.00  0.00    -0.167 F 
ENDBRANCH  11  20
BRANCH  17  24
ATOM     24  C   UNL A   1      34.065  18.908  24.734  1.00  0.00    -0.015 A 
ATOM     25  C   UNL A   1      32.752  18.535  25.034  1.00  0.00     0.009 A 
ATOM     26  C   UNL A   1      34.988  17.881  24.452  1.00  0.00     0.009 A 
ATOM     27  C   UNL A   1      32.348  17.197  24.944  1.00  0.00     0.001 A 
ATOM     28  C   UNL A   1      34.581  16.547  24.329  1.00  0.00     0.001 A 
ATOM     29  C   UNL A   1      33.253  16.209  24.556  1.00  0.00     0.000 A 
ENDBRANCH  17  24
ENDBRANCH   7   9
ENDBRANCH   6   7
ENDBRANCH   5   6
ENDBRANCH   4   5
ENDBRANCH   3   4
ENDBRANCH   2   3
ENDBRANCH   1   2
BRANCH   1  30
ATOM     30  O   UNL A   1      34.870  33.519  27.547  1.00  0.00    -0.376 OA
BRANCH  30  31
ATOM     31  C   UNL A   1      33.537  33.811  27.905  1.00  0.00     0.202 C 
BRANCH  31  32
ATOM     32  C   UNL A   1      33.201  35.070  28.706  1.00  0.00     0.261 C 
BRANCH  32  33
ATOM     33  O   UNL A   1      32.628  34.829  29.997  1.00  0.00    -0.460 OA
BRANCH  33  34
ATOM     34  C   UNL A   1      33.402  35.178  31.053  1.00  0.00     0.338 C 
ATOM     35  O   UNL A   1      33.133  35.974  31.934  1.00  0.00    -0.246 OA
BRANCH  34  36
ATOM     36  C   UNL A   1      34.570  34.279  31.095  1.00  0.00     0.060 A 
ATOM     37  C   UNL A   1      34.447  33.019  31.699  1.00  0.00     0.016 A 
ATOM     38  C   UNL A   1      35.794  34.714  30.592  1.00  0.00     0.016 A 
ATOM     39  C   UNL A   1      35.555  32.187  31.805  1.00  0.00     0.010 A 
ATOM     40  C   UNL A   1      36.918  33.901  30.745  1.00  0.00     0.010 A 
ATOM     41  C   UNL A   1      36.804  32.652  31.381  1.00  0.00    -0.014 A 
BRANCH  41  42
ATOM     42  C   UNL A   1      38.008  31.942  31.861  1.00  0.00     0.031 A 
ATOM     43  C   UNL A   1      38.547  32.325  33.210  1.00  0.00     0.074 A 
ATOM     44  C   UNL A   1      38.549  30.933  31.157  1.00  0.00     0.049 A 
ATOM     45  N   UNL A   1      39.574  31.848  33.861  1.00  0.00    -0.248 NA
ATOM     46  C   UNL A   1      37.824  33.395  33.921  1.00  0.00     0.031 C 
ATOM     47  C   UNL A   1      38.062  30.447  29.869  1.00  0.00     0.029 A 
ATOM     48  N   UNL A   1      39.627  30.134  31.436  1.00  0.00    -0.354 N 
ATOM     49  C   UNL A   1      39.608  32.544  35.064  1.00  0.00     0.074 A 
ATOM     50  C   UNL A   1      38.541  33.517  35.026  1.00  0.00     0.031 C 
ATOM     51  C   UNL A   1      38.849  29.436  29.460  1.00  0.00     0.029 A 
ATOM     52  C   UNL A   1      39.914  29.228  30.441  1.00  0.00     0.049 A 
ATOM     53  H   UNL A   1      40.149  30.201  32.269  1.00  0.00     0.167 HD
ATOM     54  C   UNL A   1      40.447  32.370  36.114  1.00  0.00     0.034 A 
ATOM     55  C   UNL A   1      40.935  28.354  30.332  1.00  0.00     0.034 A 
ATOM     56  C   UNL A   1      41.527  31.418  36.115  1.00  0.00     0.049 A 
ATOM     57  C   UNL A   1      41.934  28.267  31.466  1.00  0.00     0.074 A 
ATOM     58  C   UNL A   1      42.457  31.173  37.108  1.00  0.00     0.029 A 
ATOM     59  N   UNL A   1      41.831  30.562  35.064  1.00  0.00    -0.354 N 
ATOM     60  N   UNL A   1      41.960  28.930  32.602  1.00  0.00    -0.248 NA
ATOM     61  C   UNL A   1      43.029  27.303  31.311  1.00  0.00     0.031 C 
ATOM     62  C   UNL A   1      43.373  30.234  36.626  1.00  0.00     0.029 A 
ATOM     63  C   UNL A   1      42.954  29.812  35.373  1.00  0.00     0.049 A 
ATOM     64  H   UNL A   1      41.322  30.497  34.223  1.00  0.00     0.167 HD
ATOM     65  C   UNL A   1      43.053  28.431  33.309  1.00  0.00     0.074 A 
ATOM     66  C   UNL A   1      43.640  27.398  32.481  1.00  0.00     0.031 C 
ATOM     67  C   UNL A   1      43.530  28.790  34.530  1.00  0.00     0.034 A 
BRANCH  54  68
ATOM     68  C   UNL A   1      40.246  33.259  37.314  1.00  0.00     0.023 A 
ATOM     69  C   UNL A   1      41.115  34.330  37.592  1.00  0.00     0.031 A 
ATOM     70  C   UNL A   1      39.189  33.021  38.210  1.00  0.00     0.131 A 
ATOM     71  C   UNL A   1      40.954  35.075  38.767  1.00  0.00     0.055 A 
ATOM     72  C   UNL A   1      38.982  33.824  39.333  1.00  0.00     0.041 A 
ATOM     73  F   UNL A   1      38.347  31.993  38.018  1.00  0.00    -0.206 F 
ATOM     74  C   UNL A   1      39.875  34.851  39.625  1.00  0.00     0.022 A 
BRANCH  71  75
ATOM     75  S   UNL A   1      42.263  36.239  39.240  1.00  0.00     0.124 S 
ATOM     76  O   UNL A   1      43.394  35.339  39.453  1.00  0.00    -0.237 OA
ATOM     77  O   UNL A   1      42.350  37.108  38.073  1.00  0.00    -0.237 OA
ATOM     78  O   UNL A   1      41.741  36.868  40.451  1.00  0.00    -0.744 OA
ENDBRANCH  71  75
ENDBRANCH  54  68
BRANCH  55  79
ATOM     79  C   UNL A   1      41.111  27.533  29.096  1.00  0.00     0.023 A 
ATOM     80  C   UNL A   1      42.100  27.837  28.146  1.00  0.00     0.031 A 
ATOM     81  C   UNL A   1      40.222  26.482  28.803  1.00  0.00     0.131 A 
ATOM     82  C   UNL A   1      42.131  27.146  26.923  1.00  0.00     0.055 A 
ATOM     83  C   UNL A   1      40.306  25.749  27.619  1.00  0.00     0.041 A 
ATOM     84  F   UNL A   1      39.244  26.158  29.665  1.00  0.00    -0.206 F 
ATOM     85  C   UNL A   1      41.253  26.092  26.661  1.00  0.00     0.022 A 
BRANCH  82  86
ATOM     86  S   UNL A   1      43.237  27.747  25.615  1.00  0.00     0.124 S 
ATOM     87  O   UNL A   1      43.960  28.808  26.305  1.00  0.00    -0.237 OA
ATOM     88  O   UNL A   1      44.006  26.550  25.294  1.00  0.00    -0.237 OA
ATOM     89  O   UNL A   1      42.317  28.194  24.571  1.00  0.00    -0.744 OA
ENDBRANCH  82  86
ENDBRANCH  55  79
BRANCH  67  90
ATOM     90  C   UNL A   1      44.712  28.013  35.064  1.00  0.00     0.023 A 
ATOM     91  C   UNL A   1      44.548  26.880  35.880  1.00  0.00     0.031 A 
ATOM     92  C   UNL A   1      46.024  28.431  34.776  1.00  0.00     0.131 A 
ATOM     93  C   UNL A   1      45.670  26.262  36.451  1.00  0.00     0.055 A 
ATOM     94  C   UNL A   1      47.139  27.754  35.272  1.00  0.00     0.041 A 
ATOM     95  F   UNL A   1      46.246  29.509  34.007  1.00  0.00    -0.206 F 
ATOM     96  C   UNL A   1      46.965  26.676  36.133  1.00  0.00     0.022 A 
BRANCH  93  97
ATOM     97  S   UNL A   1      45.406  25.012  37.738  1.00  0.00     0.124 S 
ATOM     98  O   UNL A   1      46.114  25.594  38.873  1.00  0.00    -0.237 OA
ATOM     99  O   UNL A   1      43.950  24.975  37.844  1.00  0.00    -0.237 OA
ATOM    100  O   UNL A   1      46.017  23.808  37.176  1.00  0.00    -0.744 OA
ENDBRANCH  93  97
ENDBRANCH  67  90
ENDBRANCH  41  42
ENDBRANCH  34  36
ENDBRANCH  33  34
ENDBRANCH  32  33
ENDBRANCH  31  32
ENDBRANCH  30  31
ENDBRANCH   1  30
TORSDOF 22
ENDMDL
MODEL 3
REMARK VINA RESULT:     -12.6      1.310      7.301
REMARK SMILES O=C(OCCOCCOCCOC(=O)c1ccc(-c2c3nc(c(-c4cc(S(=O)(=O)[O-])ccc4F)c4ccc([nH]4)c(-c4cc(S(=O)(=O)[O-])ccc4F)c4nc(c(-c5cc(S(=O)(=O)[O-])ccc5F)c5ccc2[nH]5)C=C4)C=C3)cc1)C1=Cc2cc(Cl)cc(-c3ccccc3)c2O[C@@H]1C(F)(F)F
REMARK SMILES IDX 8 1 7 2 6 3 5 4 4 5 3 6 2 7 1 8 78 9 79 10 94 11 80 12 93 13
REMARK SMILES IDX 81 14 92 15 82 16 85 17 83 18 84 19 95 20 96 21 97 22 98 23
REMARK SMILES IDX 86 24 87 25 91 26 88 27 90 28 89 29 9 30 10 31 11 32 12 33
REMARK SMILES IDX 13 34 14 35 15 36 16 37 77 38 17 39 76 40 18 41 19 42 20 43
REMARK SMILES IDX 70 44 21 45 75 46 69 47 71 48 22 49 74 50 68 51 67 52 23 54
REMARK SMILES IDX 55 55 35 56 54 57 36 58 39 59 53 60 72 61 37 62 38 63 52 65
REMARK SMILES IDX 73 66 40 67 24 68 25 69 33 70 26 71 32 72 34 73 31 74 27 75
REMARK SMILES IDX 28 76 29 77 30 78 56 79 57 80 65 81 58 82 64 83 66 84 63 85
REMARK SMILES IDX 59 86 60 87 61 88 62 89 41 90 42 91 50 92 43 93 49 94 51 95
REMARK SMILES IDX 48 96 44 97 45 98 46 99 47 100
REMARK H PARENT 71 53 39 64
REMARK Flexibility Score: inf
ROOT
ATOM      1  C   UNL A   1      35.066  32.174  27.899  1.00  0.00     0.188 C 
ENDROOT
BRANCH   1   2
ATOM      2  C   UNL A   1      34.091  30.996  28.023  1.00  0.00     0.188 C 
BRANCH   2   3
ATOM      3  O   UNL A   1      33.353  30.352  26.850  1.00  0.00    -0.376 OA
BRANCH   3   4
ATOM      4  C   UNL A   1      31.767  29.557  26.893  1.00  0.00     0.202 C 
BRANCH   4   5
ATOM      5  C   UNL A   1      31.539  27.435  26.483  1.00  0.00     0.261 C 
BRANCH   5   6
ATOM      6  O   UNL A   1      32.632  26.385  26.518  1.00  0.00    -0.460 OA
BRANCH   6   7
ATOM      7  C   UNL A   1      32.127  25.149  26.407  1.00  0.00     0.338 C 
ATOM      8  O   UNL A   1      31.728  24.428  27.288  1.00  0.00    -0.246 OA
BRANCH   7   9
ATOM      9  C   UNL A   1      32.656  24.844  25.083  1.00  0.00     0.087 C 
ATOM     10  C   UNL A   1      34.076  24.576  25.004  1.00  0.00     0.027 C 
ATOM     11  C   UNL A   1      31.299  23.548  24.740  1.00  0.00     0.316 C 
ATOM     12  C   UNL A   1      34.800  22.951  24.900  1.00  0.00     0.019 A 
ATOM     13  O   UNL A   1      32.044  21.721  24.799  1.00  0.00    -0.475 OA
ATOM     14  C   UNL A   1      36.160  22.874  25.053  1.00  0.00     0.032 A 
ATOM     15  C   UNL A   1      33.864  21.495  24.869  1.00  0.00     0.135 A 
ATOM     16  C   UNL A   1      36.678  21.579  25.126  1.00  0.00     0.042 A 
ATOM     17  C   UNL A   1      34.476  20.250  24.885  1.00  0.00     0.026 A 
ATOM     18  Cl  UNL A   1      38.384  21.419  25.391  1.00  0.00    -0.084 Cl
ATOM     19  C   UNL A   1      35.898  20.367  25.025  1.00  0.00     0.033 A 
BRANCH  11  20
ATOM     20  C   UNL A   1      30.721  24.555  23.437  1.00  0.00     0.430 C 
ATOM     21  F   UNL A   1      31.529  25.031  22.486  1.00  0.00    -0.167 F 
ATOM     22  F   UNL A   1      29.749  23.852  22.792  1.00  0.00    -0.167 F 
ATOM     23  F   UNL A   1      30.077  25.676  23.894  1.00  0.00    -0.167 F 
ENDBRANCH  11  20
BRANCH  17  24
ATOM     24  C   UNL A   1      33.957  18.894  24.760  1.00  0.00    -0.015 A 
ATOM     25  C   UNL A   1      32.822  18.481  25.463  1.00  0.00     0.009 A 
ATOM     26  C   UNL A   1      34.719  17.901  24.110  1.00  0.00     0.009 A 
ATOM     27  C   UNL A   1      32.401  17.146  25.426  1.00  0.00     0.001 A 
ATOM     28  C   UNL A   1      34.284  16.573  24.044  1.00  0.00     0.001 A 
ATOM     29  C   UNL A   1      33.110  16.201  24.686  1.00  0.00     0.000 A 
ENDBRANCH  17  24
ENDBRANCH   7   9
ENDBRANCH   6   7
ENDBRANCH   5   6
ENDBRANCH   4   5
ENDBRANCH   3   4
ENDBRANCH   2   3
ENDBRANCH   1   2
BRANCH   1  30
ATOM     30  O   UNL A   1      34.570  33.426  27.526  1.00  0.00    -0.376 OA
BRANCH  30  31
ATOM     31  C   UNL A   1      33.283  33.713  28.026  1.00  0.00     0.202 C 
BRANCH  31  32
ATOM     32  C   UNL A   1      33.013  35.011  28.790  1.00  0.00     0.261 C 
BRANCH  32  33
ATOM     33  O   UNL A   1      32.612  34.837  30.155  1.00  0.00    -0.460 OA
BRANCH  33  34
ATOM     34  C   UNL A   1      33.510  35.249  31.083  1.00  0.00     0.338 C 
ATOM     35  O   UNL A   1      33.362  36.125  31.914  1.00  0.00    -0.246 OA
BRANCH  34  36
ATOM     36  C   UNL A   1      34.654  34.319  31.073  1.00  0.00     0.060 A 
ATOM     37  C   UNL A   1      34.549  33.091  31.742  1.00  0.00     0.016 A 
ATOM     38  C   UNL A   1      35.844  34.696  30.454  1.00  0.00     0.016 A 
ATOM     39  C   UNL A   1      35.640  32.233  31.798  1.00  0.00     0.010 A 
ATOM     40  C   UNL A   1      36.956  33.858  30.554  1.00  0.00     0.010 A 
ATOM     41  C   UNL A   1      36.862  32.642  31.254  1.00  0.00    -0.014 A 
BRANCH  41  42
ATOM     42  C   UNL A   1      38.083  31.919  31.669  1.00  0.00     0.031 A 
ATOM     43  C   UNL A   1      38.658  32.248  33.018  1.00  0.00     0.074 A 
ATOM     44  C   UNL A   1      38.608  30.944  30.907  1.00  0.00     0.049 A 
ATOM     45  N   UNL A   1      39.705  31.749  33.618  1.00  0.00    -0.248 NA
ATOM     46  C   UNL A   1      37.951  33.281  33.794  1.00  0.00     0.031 C 
ATOM     47  C   UNL A   1      38.086  30.511  29.613  1.00  0.00     0.029 A 
ATOM     48  N   UNL A   1      39.698  30.140  31.121  1.00  0.00    -0.354 N 
ATOM     49  C   UNL A   1      39.771  32.392  34.849  1.00  0.00     0.074 A 
ATOM     50  C   UNL A   1      38.698  33.360  34.883  1.00  0.00     0.031 C 
ATOM     51  C   UNL A   1      38.867  29.524  29.139  1.00  0.00     0.029 A 
ATOM     52  C   UNL A   1      39.960  29.280  30.080  1.00  0.00     0.049 A 
ATOM     53  H   UNL A   1      40.242  30.175  31.941  1.00  0.00     0.167 HD
ATOM     54  C   UNL A   1      40.640  32.179  35.866  1.00  0.00     0.034 A 
ATOM     55  C   UNL A   1      40.982  28.418  29.905  1.00  0.00     0.034 A 
ATOM     56  C   UNL A   1      41.724  31.234  35.795  1.00  0.00     0.049 A 
ATOM     57  C   UNL A   1      42.013  28.288  31.005  1.00  0.00     0.074 A 
ATOM     58  C   UNL A   1      42.683  30.952  36.750  1.00  0.00     0.029 A 
ATOM     59  N   UNL A   1      42.002  30.425  34.700  1.00  0.00    -0.354 N 
ATOM     60  N   UNL A   1      42.068  28.901  32.167  1.00  0.00    -0.248 NA
ATOM     61  C   UNL A   1      43.108  27.338  30.778  1.00  0.00     0.031 C 
ATOM     62  C   UNL A   1      43.589  30.040  36.202  1.00  0.00     0.029 A 
ATOM     63  C   UNL A   1      43.137  29.669  34.944  1.00  0.00     0.049 A 
ATOM     64  H   UNL A   1      41.470  30.394  33.872  1.00  0.00     0.167 HD
ATOM     65  C   UNL A   1      43.184  28.379  32.821  1.00  0.00     0.074 A 
ATOM     66  C   UNL A   1      43.751  27.386  31.933  1.00  0.00     0.031 C 
ATOM     67  C   UNL A   1      43.693  28.688  34.042  1.00  0.00     0.034 A 
BRANCH  54  68
ATOM     68  C   UNL A   1      40.469  33.014  37.109  1.00  0.00     0.023 A 
ATOM     69  C   UNL A   1      39.788  32.524  38.237  1.00  0.00     0.031 A 
ATOM     70  C   UNL A   1      40.968  34.327  37.161  1.00  0.00     0.131 A 
ATOM     71  C   UNL A   1      39.565  33.361  39.339  1.00  0.00     0.055 A 
ATOM     72  C   UNL A   1      40.819  35.126  38.296  1.00  0.00     0.041 A 
ATOM     73  F   UNL A   1      41.596  34.863  36.102  1.00  0.00    -0.206 F 
ATOM     74  C   UNL A   1      40.104  34.649  39.390  1.00  0.00     0.022 A 
BRANCH  71  75
ATOM     75  S   UNL A   1      38.430  32.799  40.638  1.00  0.00     0.124 S 
ATOM     76  O   UNL A   1      37.457  33.889  40.669  1.00  0.00    -0.237 OA
ATOM     77  O   UNL A   1      37.949  31.529  40.110  1.00  0.00    -0.237 OA
ATOM     78  O   UNL A   1      39.284  32.702  41.820  1.00  0.00    -0.744 OA
ENDBRANCH  71  75
ENDBRANCH  54  68
BRANCH  55  79
ATOM     79  C   UNL A   1      41.127  27.652  28.630  1.00  0.00     0.023 A 
ATOM     80  C   UNL A   1      40.798  26.289  28.549  1.00  0.00     0.031 A 
ATOM     81  C   UNL A   1      41.691  28.258  27.491  1.00  0.00     0.131 A 
ATOM     82  C   UNL A   1      41.100  25.564  27.384  1.00  0.00     0.055 A 
ATOM     83  C   UNL A   1      41.916  27.550  26.310  1.00  0.00     0.041 A 
ATOM     84  F   UNL A   1      42.042  29.554  27.514  1.00  0.00    -0.206 F 
ATOM     85  C   UNL A   1      41.638  26.190  26.258  1.00  0.00     0.022 A 
BRANCH  82  86
ATOM     86  S   UNL A   1      40.918  23.758  27.414  1.00  0.00     0.124 S 
ATOM     87  O   UNL A   1      41.408  23.391  26.090  1.00  0.00    -0.237 OA
ATOM     88  O   UNL A   1      41.769  23.386  28.539  1.00  0.00    -0.237 OA
ATOM     89  O   UNL A   1      39.485  23.565  27.626  1.00  0.00    -0.744 OA
ENDBRANCH  82  86
ENDBRANCH  55  79
BRANCH  67  90
ATOM     90  C   UNL A   1      44.894  27.896  34.509  1.00  0.00     0.023 A 
ATOM     91  C   UNL A   1      44.758  26.654  35.154  1.00  0.00     0.031 A 
ATOM     92  C   UNL A   1      46.192  28.406  34.330  1.00  0.00     0.131 A 
ATOM     93  C   UNL A   1      45.890  26.012  35.677  1.00  0.00     0.055 A 
ATOM     94  C   UNL A   1      47.322  27.715  34.770  1.00  0.00     0.041 A 
ATOM     95  F   UNL A   1      46.387  29.589  33.726  1.00  0.00    -0.206 F 
ATOM     96  C   UNL A   1      47.174  26.522  35.468  1.00  0.00     0.022 A 
BRANCH  93  97
ATOM     97  S   UNL A   1      45.645  24.585  36.769  1.00  0.00     0.124 S 
ATOM     98  O   UNL A   1      46.780  23.738  36.415  1.00  0.00    -0.237 OA
ATOM     99  O   UNL A   1      45.692  25.194  38.095  1.00  0.00    -0.237 OA
ATOM    100  O   UNL A   1      44.337  24.069  36.369  1.00  0.00    -0.744 OA
ENDBRANCH  93  97
ENDBRANCH  67  90
ENDBRANCH  41  42
ENDBRANCH  34  36
ENDBRANCH  33  34
ENDBRANCH  32  33
ENDBRANCH  31  32
ENDBRANCH  30  31
ENDBRANCH   1  30
TORSDOF 22
ENDMDL
