MODEL 1
REMARK VINA RESULT:     -10.2      0.000      0.000
REMARK SMILES O=C(Cc1c(C(=O)c2cc3c(cn2)CCCC3)[nH]c2cc(Cl)ccc12)OCCOCCOCCOC(=O)c1ccc(-c2c3nc(c(-c4cc(S(=O)(=O)[O-])ccc4F)c4ccc([nH]4)c(-c4cc(S(=O)(=O)[O-])ccc4F)c4nc(c(-c5cc(S(=O)(=O)[O-])ccc5F)c5ccc2[nH]5)C=C4)C=C3)cc1
REMARK SMILES IDX 30 1 29 2 28 3 27 4 26 5 2 6 1 7 3 8 4 9 5 10 25 11 18 12
REMARK SMILES IDX 19 13 24 14 20 16 23 17 21 18 22 19 6 20 7 21 8 22 9 23
REMARK SMILES IDX 13 24 10 25 12 26 11 27 17 28 14 29 16 30 15 31 31 32 32 33
REMARK SMILES IDX 33 34 34 35 35 36 36 37 37 38 38 39 39 40 100 41 40 42 99 43
REMARK SMILES IDX 41 44 42 45 43 46 93 47 44 48 98 49 92 50 94 51 45 52 97 53
REMARK SMILES IDX 91 54 90 55 46 57 78 58 58 59 77 60 59 61 62 62 76 63 95 64
REMARK SMILES IDX 60 65 61 66 75 68 96 69 63 70 47 71 48 72 56 73 49 74 55 75
REMARK SMILES IDX 57 76 54 77 50 78 51 79 52 80 53 81 79 82 80 83 88 84 81 85
REMARK SMILES IDX 87 86 89 87 86 88 82 89 83 90 84 91 85 92 64 93 65 94 73 95
REMARK SMILES IDX 66 96 72 97 74 98 71 99 67 100 68 101 69 102 70 103
REMARK H PARENT 18 15 94 56 62 67
REMARK Flexibility Score: inf
ROOT
ATOM      1  C   UNL A   1      40.974  22.431  27.854  1.00  0.00     0.188 C 
ENDROOT
BRANCH   1   2
ATOM      2  O   UNL A   1      40.443  22.882  26.619  1.00  0.00    -0.376 OA
BRANCH   2   3
ATOM      3  C   UNL A   1      39.142  22.418  26.318  1.00  0.00     0.202 C 
BRANCH   3   4
ATOM      4  C   UNL A   1      38.141  23.550  26.160  1.00  0.00     0.261 C 
BRANCH   4   5
ATOM      5  O   UNL A   1      37.163  23.426  25.096  1.00  0.00    -0.463 OA
BRANCH   5   6
ATOM      6  C   UNL A   1      35.826  23.568  25.011  1.00  0.00     0.310 C 
ATOM      7  O   UNL A   1      35.379  24.269  24.097  1.00  0.00    -0.252 OA
BRANCH   6   8
ATOM      8  C   UNL A   1      34.864  23.048  26.053  1.00  0.00     0.161 C 
BRANCH   8   9
ATOM      9  C   UNL A   1      33.769  22.112  25.662  1.00  0.00     0.000 A 
ATOM     10  C   UNL A   1      32.406  22.302  25.828  1.00  0.00     0.093 A 
ATOM     11  C   UNL A   1      33.957  20.774  25.181  1.00  0.00     0.004 A 
ATOM     12  N   UNL A   1      31.776  21.196  25.303  1.00  0.00    -0.351 N 
ATOM     13  C   UNL A   1      32.694  20.215  25.011  1.00  0.00     0.048 A 
ATOM     14  C   UNL A   1      35.090  19.973  24.925  1.00  0.00     0.012 A 
ATOM     15  H   UNL A   1      30.805  21.120  25.155  1.00  0.00     0.167 HD
ATOM     16  C   UNL A   1      32.502  18.878  24.639  1.00  0.00     0.047 A 
ATOM     17  C   UNL A   1      34.923  18.628  24.569  1.00  0.00     0.021 A 
ATOM     18  C   UNL A   1      33.644  18.093  24.445  1.00  0.00     0.043 A 
ATOM     19  Cl  UNL A   1      33.455  16.425  24.057  1.00  0.00    -0.084 Cl
BRANCH  10  20
ATOM     20  C   UNL A   1      31.758  23.426  26.473  1.00  0.00     0.227 C 
ATOM     21  O   UNL A   1      31.416  23.441  27.652  1.00  0.00    -0.285 OA
BRANCH  20  22
ATOM     22  C   UNL A   1      31.368  24.575  25.659  1.00  0.00     0.113 A 
ATOM     23  C   UNL A   1      31.705  25.805  26.178  1.00  0.00     0.036 A 
ATOM     24  N   UNL A   1      30.728  24.358  24.483  1.00  0.00    -0.252 NA
ATOM     25  C   UNL A   1      31.389  26.925  25.432  1.00  0.00    -0.041 A 
ATOM     26  C   UNL A   1      30.477  25.464  23.754  1.00  0.00     0.115 A 
ATOM     27  C   UNL A   1      30.767  26.760  24.183  1.00  0.00    -0.026 A 
ATOM     28  C   UNL A   1      31.679  28.270  26.028  1.00  0.00     0.036 C 
ATOM     29  C   UNL A   1      30.492  27.942  23.296  1.00  0.00     0.037 C 
ATOM     30  C   UNL A   1      31.662  29.383  24.991  1.00  0.00     0.005 C 
ATOM     31  C   UNL A   1      30.442  29.251  24.085  1.00  0.00     0.005 C 
ENDBRANCH  20  22
ENDBRANCH  10  20
ENDBRANCH   8   9
ENDBRANCH   6   8
ENDBRANCH   5   6
ENDBRANCH   4   5
ENDBRANCH   3   4
ENDBRANCH   2   3
ENDBRANCH   1   2
BRANCH   1  32
ATOM     32  C   UNL A   1      42.005  21.290  27.746  1.00  0.00     0.188 C 
BRANCH  32  33
ATOM     33  O   UNL A   1      41.607  20.009  27.273  1.00  0.00    -0.376 OA
BRANCH  33  34
ATOM     34  C   UNL A   1      41.960  19.607  25.962  1.00  0.00     0.202 C 
BRANCH  34  35
ATOM     35  C   UNL A   1      43.418  19.798  25.522  1.00  0.00     0.261 C 
BRANCH  35  36
ATOM     36  O   UNL A   1      43.737  21.106  25.009  1.00  0.00    -0.460 OA
BRANCH  36  37
ATOM     37  C   UNL A   1      45.054  21.470  25.059  1.00  0.00     0.338 C 
ATOM     38  O   UNL A   1      45.984  20.876  24.573  1.00  0.00    -0.246 OA
BRANCH  37  39
ATOM     39  C   UNL A   1      45.166  22.843  25.640  1.00  0.00     0.060 A 
ATOM     40  C   UNL A   1      45.038  23.988  24.851  1.00  0.00     0.016 A 
ATOM     41  C   UNL A   1      45.432  22.971  27.012  1.00  0.00     0.016 A 
ATOM     42  C   UNL A   1      45.130  25.256  25.446  1.00  0.00     0.010 A 
ATOM     43  C   UNL A   1      45.541  24.239  27.601  1.00  0.00     0.010 A 
ATOM     44  C   UNL A   1      45.364  25.396  26.828  1.00  0.00    -0.014 A 
BRANCH  44  45
ATOM     45  C   UNL A   1      45.204  26.725  27.486  1.00  0.00     0.031 A 
ATOM     46  C   UNL A   1      43.885  27.223  28.006  1.00  0.00     0.074 A 
ATOM     47  C   UNL A   1      46.294  27.511  27.585  1.00  0.00     0.049 A 
ATOM     48  N   UNL A   1      43.631  28.324  28.667  1.00  0.00    -0.248 NA
ATOM     49  C   UNL A   1      42.702  26.389  27.756  1.00  0.00     0.031 C 
ATOM     50  C   UNL A   1      47.619  27.156  27.078  1.00  0.00     0.029 A 
ATOM     51  N   UNL A   1      46.470  28.760  28.132  1.00  0.00    -0.354 N 
ATOM     52  C   UNL A   1      42.267  28.311  28.936  1.00  0.00     0.074 A 
ATOM     53  C   UNL A   1      41.739  27.107  28.326  1.00  0.00     0.031 C 
ATOM     54  C   UNL A   1      48.472  28.155  27.342  1.00  0.00     0.029 A 
ATOM     55  C   UNL A   1      47.754  29.240  28.009  1.00  0.00     0.049 A 
ATOM     56  H   UNL A   1      45.746  29.264  28.569  1.00  0.00     0.167 HD
ATOM     57  C   UNL A   1      41.536  29.213  29.638  1.00  0.00     0.034 A 
ATOM     58  C   UNL A   1      48.301  30.417  28.381  1.00  0.00     0.034 A 
ATOM     59  C   UNL A   1      42.079  30.418  30.222  1.00  0.00     0.049 A 
ATOM     60  C   UNL A   1      47.456  31.419  29.128  1.00  0.00     0.074 A 
ATOM     61  C   UNL A   1      41.422  31.351  31.009  1.00  0.00     0.029 A 
ATOM     62  N   UNL A   1      43.380  30.875  30.075  1.00  0.00    -0.354 N 
ATOM     63  N   UNL A   1      46.203  31.319  29.503  1.00  0.00    -0.248 NA
ATOM     64  C   UNL A   1      48.095  32.683  29.520  1.00  0.00     0.031 C 
ATOM     65  C   UNL A   1      42.296  32.406  31.264  1.00  0.00     0.029 A 
ATOM     66  C   UNL A   1      43.529  32.095  30.719  1.00  0.00     0.049 A 
ATOM     67  H   UNL A   1      44.092  30.402  29.587  1.00  0.00     0.167 HD
ATOM     68  C   UNL A   1      45.914  32.491  30.197  1.00  0.00     0.074 A 
ATOM     69  C   UNL A   1      47.130  33.276  30.211  1.00  0.00     0.031 C 
ATOM     70  C   UNL A   1      44.744  32.875  30.763  1.00  0.00     0.034 A 
BRANCH  57  71
ATOM     71  C   UNL A   1      40.066  28.953  29.878  1.00  0.00     0.023 A 
ATOM     72  C   UNL A   1      39.104  29.436  28.968  1.00  0.00     0.031 A 
ATOM     73  C   UNL A   1      39.617  28.434  31.106  1.00  0.00     0.131 A 
ATOM     74  C   UNL A   1      37.749  29.448  29.327  1.00  0.00     0.055 A 
ATOM     75  C   UNL A   1      38.263  28.413  31.441  1.00  0.00     0.041 A 
ATOM     76  F   UNL A   1      40.494  27.964  32.009  1.00  0.00    -0.206 F 
ATOM     77  C   UNL A   1      37.324  28.938  30.557  1.00  0.00     0.022 A 
BRANCH  74  78
ATOM     78  S   UNL A   1      36.498  30.207  28.252  1.00  0.00     0.124 S 
ATOM     79  O   UNL A   1      35.369  29.295  28.417  1.00  0.00    -0.237 OA
ATOM     80  O   UNL A   1      36.330  31.523  28.861  1.00  0.00    -0.237 OA
ATOM     81  O   UNL A   1      37.117  30.194  26.931  1.00  0.00    -0.744 OA
ENDBRANCH  74  78
ENDBRANCH  57  71
BRANCH  58  82
ATOM     82  C   UNL A   1      49.742  30.671  28.085  1.00  0.00     0.023 A 
ATOM     83  C   UNL A   1      50.139  31.196  26.841  1.00  0.00     0.031 A 
ATOM     84  C   UNL A   1      50.747  30.308  28.998  1.00  0.00     0.131 A 
ATOM     85  C   UNL A   1      51.500  31.278  26.519  1.00  0.00     0.055 A 
ATOM     86  C   UNL A   1      52.102  30.462  28.701  1.00  0.00     0.041 A 
ATOM     87  F   UNL A   1      50.421  29.788  30.191  1.00  0.00    -0.206 F 
ATOM     88  C   UNL A   1      52.484  30.933  27.449  1.00  0.00     0.022 A 
BRANCH  85  89
ATOM     89  S   UNL A   1      52.031  31.698  24.836  1.00  0.00     0.124 S 
ATOM     90  O   UNL A   1      53.466  31.894  25.011  1.00  0.00    -0.237 OA
ATOM     91  O   UNL A   1      51.643  30.502  24.093  1.00  0.00    -0.237 OA
ATOM     92  O   UNL A   1      51.263  32.898  24.522  1.00  0.00    -0.744 OA
ENDBRANCH  85  89
ENDBRANCH  58  82
BRANCH  70  93
ATOM     93  C   UNL A   1      44.669  34.207  31.476  1.00  0.00     0.023 A 
ATOM     94  C   UNL A   1      44.857  34.268  32.871  1.00  0.00     0.031 A 
ATOM     95  C   UNL A   1      44.225  35.366  30.817  1.00  0.00     0.131 A 
ATOM     96  C   UNL A   1      44.538  35.440  33.570  1.00  0.00     0.055 A 
ATOM     97  C   UNL A   1      43.962  36.549  31.510  1.00  0.00     0.041 A 
ATOM     98  F   UNL A   1      44.022  35.361  29.489  1.00  0.00    -0.206 F 
ATOM     99  C   UNL A   1      44.099  36.583  32.896  1.00  0.00     0.022 A 
BRANCH  96 100
ATOM    100  S   UNL A   1      44.581  35.491  35.384  1.00  0.00     0.124 S 
ATOM    101  O   UNL A   1      45.795  36.263  35.638  1.00  0.00    -0.237 OA
ATOM    102  O   UNL A   1      43.330  36.176  35.700  1.00  0.00    -0.237 OA
ATOM    103  O   UNL A   1      44.646  34.087  35.775  1.00  0.00    -0.744 OA
ENDBRANCH  96 100
ENDBRANCH  70  93
ENDBRANCH  44  45
ENDBRANCH  37  39
ENDBRANCH  36  37
ENDBRANCH  35  36
ENDBRANCH  34  35
ENDBRANCH  33  34
ENDBRANCH  32  33
ENDBRANCH   1  32
TORSDOF 23
ENDMDL
MODEL 2
REMARK VINA RESULT:     -10.1      5.441     10.846
REMARK SMILES O=C(Cc1c(C(=O)c2cc3c(cn2)CCCC3)[nH]c2cc(Cl)ccc12)OCCOCCOCCOC(=O)c1ccc(-c2c3nc(c(-c4cc(S(=O)(=O)[O-])ccc4F)c4ccc([nH]4)c(-c4cc(S(=O)(=O)[O-])ccc4F)c4nc(c(-c5cc(S(=O)(=O)[O-])ccc5F)c5ccc2[nH]5)C=C4)C=C3)cc1
REMARK SMILES IDX 30 1 29 2 28 3 27 4 26 5 2 6 1 7 3 8 4 9 5 10 25 11 18 12
REMARK SMILES IDX 19 13 24 14 20 16 23 17 21 18 22 19 6 20 7 21 8 22 9 23
REMARK SMILES IDX 13 24 10 25 12 26 11 27 17 28 14 29 16 30 15 31 31 32 32 33
REMARK SMILES IDX 33 34 34 35 35 36 36 37 37 38 38 39 39 40 100 41 40 42 99 43
REMARK SMILES IDX 41 44 42 45 43 46 93 47 44 48 98 49 92 50 94 51 45 52 97 53
REMARK SMILES IDX 91 54 90 55 46 57 78 58 58 59 77 60 59 61 62 62 76 63 95 64
REMARK SMILES IDX 60 65 61 66 75 68 96 69 63 70 47 71 48 72 56 73 49 74 55 75
REMARK SMILES IDX 57 76 54 77 50 78 51 79 52 80 53 81 79 82 80 83 88 84 81 85
REMARK SMILES IDX 87 86 89 87 86 88 82 89 83 90 84 91 85 92 64 93 65 94 73 95
REMARK SMILES IDX 66 96 72 97 74 98 71 99 67 100 68 101 69 102 70 103
REMARK H PARENT 18 15 94 56 62 67
REMARK Flexibility Score: inf
ROOT
ATOM      1  C   UNL A   1      33.731  37.747  32.122  1.00  0.00     0.188 C 
ENDROOT
BRANCH   1   2
ATOM      2  O   UNL A   1      32.755  37.340  31.178  1.00  0.00    -0.376 OA
BRANCH   2   3
ATOM      3  C   UNL A   1      33.266  36.869  29.948  1.00  0.00     0.202 C 
BRANCH   3   4
ATOM      4  C   UNL A   1      32.902  35.418  29.681  1.00  0.00     0.261 C 
BRANCH   4   5
ATOM      5  O   UNL A   1      33.450  34.806  28.486  1.00  0.00    -0.463 OA
BRANCH   5   6
ATOM      6  C   UNL A   1      34.341  33.827  28.241  1.00  0.00     0.310 C 
ATOM      7  O   UNL A   1      35.146  33.999  27.320  1.00  0.00    -0.252 OA
BRANCH   6   8
ATOM      8  C   UNL A   1      34.308  32.479  28.923  1.00  0.00     0.161 C 
BRANCH   8   9
ATOM      9  C   UNL A   1      34.523  31.232  28.130  1.00  0.00     0.000 A 
ATOM     10  C   UNL A   1      35.705  30.521  27.993  1.00  0.00     0.093 A 
ATOM     11  C   UNL A   1      33.565  30.641  27.243  1.00  0.00     0.004 A 
ATOM     12  N   UNL A   1      35.432  29.433  27.194  1.00  0.00    -0.351 N 
ATOM     13  C   UNL A   1      34.179  29.548  26.639  1.00  0.00     0.048 A 
ATOM     14  C   UNL A   1      32.247  30.972  26.860  1.00  0.00     0.012 A 
ATOM     15  H   UNL A   1      36.047  28.679  27.043  1.00  0.00     0.167 HD
ATOM     16  C   UNL A   1      33.559  28.790  25.638  1.00  0.00     0.047 A 
ATOM     17  C   UNL A   1      31.614  30.238  25.849  1.00  0.00     0.021 A 
ATOM     18  C   UNL A   1      32.273  29.174  25.241  1.00  0.00     0.043 A 
ATOM     19  Cl  UNL A   1      31.502  28.313  23.964  1.00  0.00    -0.084 Cl
BRANCH  10  20
ATOM     20  C   UNL A   1      36.998  30.871  28.544  1.00  0.00     0.227 C 
ATOM     21  O   UNL A   1      37.374  32.023  28.742  1.00  0.00    -0.285 OA
BRANCH  20  22
ATOM     22  C   UNL A   1      37.978  29.811  28.770  1.00  0.00     0.113 A 
ATOM     23  C   UNL A   1      39.113  29.884  27.993  1.00  0.00     0.036 A 
ATOM     24  N   UNL A   1      37.714  28.862  29.702  1.00  0.00    -0.252 NA
ATOM     25  C   UNL A   1      40.088  28.925  28.191  1.00  0.00    -0.041 A 
ATOM     26  C   UNL A   1      38.703  27.969  29.908  1.00  0.00     0.115 A 
ATOM     27  C   UNL A   1      39.892  27.944  29.177  1.00  0.00    -0.026 A 
ATOM     28  C   UNL A   1      41.290  28.951  27.294  1.00  0.00     0.036 C 
ATOM     29  C   UNL A   1      40.965  26.940  29.491  1.00  0.00     0.037 C 
ATOM     30  C   UNL A   1      42.445  28.127  27.842  1.00  0.00     0.005 C 
ATOM     31  C   UNL A   1      41.948  26.770  28.332  1.00  0.00     0.005 C 
ENDBRANCH  20  22
ENDBRANCH  10  20
ENDBRANCH   8   9
ENDBRANCH   6   8
ENDBRANCH   5   6
ENDBRANCH   4   5
ENDBRANCH   3   4
ENDBRANCH   2   3
ENDBRANCH   1   2
BRANCH   1  32
ATOM     32  C   UNL A   1      33.956  36.771  33.293  1.00  0.00     0.188 C 
BRANCH  32  33
ATOM     33  O   UNL A   1      33.577  35.406  33.170  1.00  0.00    -0.376 OA
BRANCH  33  34
ATOM     34  C   UNL A   1      34.508  34.464  32.668  1.00  0.00     0.202 C 
BRANCH  34  35
ATOM     35  C   UNL A   1      35.819  34.271  33.441  1.00  0.00     0.261 C 
BRANCH  35  36
ATOM     36  O   UNL A   1      36.314  32.918  33.480  1.00  0.00    -0.460 OA
BRANCH  36  37
ATOM     37  C   UNL A   1      37.203  32.628  34.477  1.00  0.00     0.338 C 
ATOM     38  O   UNL A   1      37.029  32.774  35.662  1.00  0.00    -0.246 OA
BRANCH  37  39
ATOM     39  C   UNL A   1      38.374  31.900  33.900  1.00  0.00     0.060 A 
ATOM     40  C   UNL A   1      38.214  30.774  33.089  1.00  0.00     0.016 A 
ATOM     41  C   UNL A   1      39.665  32.355  34.208  1.00  0.00     0.016 A 
ATOM     42  C   UNL A   1      39.343  30.137  32.552  1.00  0.00     0.010 A 
ATOM     43  C   UNL A   1      40.793  31.706  33.685  1.00  0.00     0.010 A 
ATOM     44  C   UNL A   1      40.642  30.606  32.829  1.00  0.00    -0.014 A 
BRANCH  44  45
ATOM     45  C   UNL A   1      41.808  30.087  32.056  1.00  0.00     0.031 A 
ATOM     46  C   UNL A   1      42.511  28.806  32.403  1.00  0.00     0.074 A 
ATOM     47  C   UNL A   1      42.253  30.826  31.020  1.00  0.00     0.049 A 
ATOM     48  N   UNL A   1      43.484  28.209  31.763  1.00  0.00    -0.248 NA
ATOM     49  C   UNL A   1      42.074  28.104  33.618  1.00  0.00     0.031 C 
ATOM     50  C   UNL A   1      41.681  32.109  30.614  1.00  0.00     0.029 A 
ATOM     51  N   UNL A   1      43.280  30.621  30.129  1.00  0.00    -0.354 N 
ATOM     52  C   UNL A   1      43.767  27.049  32.477  1.00  0.00     0.074 A 
ATOM     53  C   UNL A   1      42.885  27.050  33.628  1.00  0.00     0.031 C 
ATOM     54  C   UNL A   1      42.355  32.574  29.553  1.00  0.00     0.029 A 
ATOM     55  C   UNL A   1      43.430  31.642  29.217  1.00  0.00     0.049 A 
ATOM     56  H   UNL A   1      43.854  29.822  30.142  1.00  0.00     0.167 HD
ATOM     57  C   UNL A   1      44.664  26.076  32.186  1.00  0.00     0.034 A 
ATOM     58  C   UNL A   1      44.329  31.820  28.226  1.00  0.00     0.034 A 
ATOM     59  C   UNL A   1      45.549  26.103  31.043  1.00  0.00     0.049 A 
ATOM     60  C   UNL A   1      45.343  30.738  27.946  1.00  0.00     0.074 A 
ATOM     61  C   UNL A   1      46.440  25.124  30.635  1.00  0.00     0.029 A 
ATOM     62  N   UNL A   1      45.678  27.152  30.144  1.00  0.00    -0.354 N 
ATOM     63  N   UNL A   1      45.492  29.580  28.543  1.00  0.00    -0.248 NA
ATOM     64  C   UNL A   1      46.296  30.972  26.853  1.00  0.00     0.031 C 
ATOM     65  C   UNL A   1      47.164  25.611  29.548  1.00  0.00     0.029 A 
ATOM     66  C   UNL A   1      46.664  26.858  29.214  1.00  0.00     0.049 A 
ATOM     67  H   UNL A   1      45.147  27.980  30.163  1.00  0.00     0.167 HD
ATOM     68  C   UNL A   1      46.535  28.938  27.881  1.00  0.00     0.074 A 
ATOM     69  C   UNL A   1      46.965  29.826  26.822  1.00  0.00     0.031 C 
ATOM     70  C   UNL A   1      47.083  27.724  28.137  1.00  0.00     0.034 A 
BRANCH  57  71
ATOM     71  C   UNL A   1      44.746  24.850  33.068  1.00  0.00     0.023 A 
ATOM     72  C   UNL A   1      45.527  24.874  34.241  1.00  0.00     0.031 A 
ATOM     73  C   UNL A   1      44.240  23.612  32.631  1.00  0.00     0.131 A 
ATOM     74  C   UNL A   1      45.833  23.674  34.898  1.00  0.00     0.055 A 
ATOM     75  C   UNL A   1      44.515  22.427  33.313  1.00  0.00     0.041 A 
ATOM     76  F   UNL A   1      43.492  23.536  31.518  1.00  0.00    -0.206 F 
ATOM     77  C   UNL A   1      45.330  22.452  34.442  1.00  0.00     0.022 A 
BRANCH  74  78
ATOM     78  S   UNL A   1      46.966  23.641  36.317  1.00  0.00     0.124 S 
ATOM     79  O   UNL A   1      48.180  23.092  35.717  1.00  0.00    -0.237 OA
ATOM     80  O   UNL A   1      47.036  25.053  36.684  1.00  0.00    -0.237 OA
ATOM     81  O   UNL A   1      46.300  22.769  37.277  1.00  0.00    -0.744 OA
ENDBRANCH  74  78
ENDBRANCH  57  71
BRANCH  58  82
ATOM     82  C   UNL A   1      44.261  33.063  27.403  1.00  0.00     0.023 A 
ATOM     83  C   UNL A   1      44.591  34.314  27.959  1.00  0.00     0.031 A 
ATOM     84  C   UNL A   1      43.778  33.037  26.083  1.00  0.00     0.131 A 
ATOM     85  C   UNL A   1      44.369  35.486  27.225  1.00  0.00     0.055 A 
ATOM     86  C   UNL A   1      43.630  34.202  25.329  1.00  0.00     0.041 A 
ATOM     87  F   UNL A   1      43.435  31.872  25.512  1.00  0.00    -0.206 F 
ATOM     88  C   UNL A   1      43.910  35.436  25.906  1.00  0.00     0.022 A 
BRANCH  85  89
ATOM     89  S   UNL A   1      44.533  37.115  28.007  1.00  0.00     0.124 S 
ATOM     90  O   UNL A   1      44.301  38.016  26.883  1.00  0.00    -0.237 OA
ATOM     91  O   UNL A   1      43.474  37.072  29.012  1.00  0.00    -0.237 OA
ATOM     92  O   UNL A   1      45.891  37.106  28.539  1.00  0.00    -0.744 OA
ENDBRANCH  85  89
ENDBRANCH  58  82
BRANCH  70  93
ATOM     93  C   UNL A   1      48.219  27.229  27.270  1.00  0.00     0.023 A 
ATOM     94  C   UNL A   1      49.547  27.584  27.582  1.00  0.00     0.031 A 
ATOM     95  C   UNL A   1      47.977  26.582  26.045  1.00  0.00     0.131 A 
ATOM     96  C   UNL A   1      50.570  27.351  26.653  1.00  0.00     0.055 A 
ATOM     97  C   UNL A   1      49.010  26.302  25.147  1.00  0.00     0.041 A 
ATOM     98  F   UNL A   1      46.730  26.229  25.695  1.00  0.00    -0.206 F 
ATOM     99  C   UNL A   1      50.310  26.705  25.441  1.00  0.00     0.022 A 
BRANCH  96 100
ATOM    100  S   UNL A   1      52.253  27.970  26.937  1.00  0.00     0.124 S 
ATOM    101  O   UNL A   1      52.984  26.740  27.232  1.00  0.00    -0.237 OA
ATOM    102  O   UNL A   1      52.570  28.592  25.655  1.00  0.00    -0.237 OA
ATOM    103  O   UNL A   1      52.105  28.887  28.063  1.00  0.00    -0.744 OA
ENDBRANCH  96 100
ENDBRANCH  70  93
ENDBRANCH  44  45
ENDBRANCH  37  39
ENDBRANCH  36  37
ENDBRANCH  35  36
ENDBRANCH  34  35
ENDBRANCH  33  34
ENDBRANCH  32  33
ENDBRANCH   1  32
TORSDOF 23
ENDMDL
MODEL 3
REMARK VINA RESULT:     -10.1      5.225      8.813
REMARK SMILES O=C(Cc1c(C(=O)c2cc3c(cn2)CCCC3)[nH]c2cc(Cl)ccc12)OCCOCCOCCOC(=O)c1ccc(-c2c3nc(c(-c4cc(S(=O)(=O)[O-])ccc4F)c4ccc([nH]4)c(-c4cc(S(=O)(=O)[O-])ccc4F)c4nc(c(-c5cc(S(=O)(=O)[O-])ccc5F)c5ccc2[nH]5)C=C4)C=C3)cc1
REMARK SMILES IDX 30 1 29 2 28 3 27 4 26 5 2 6 1 7 3 8 4 9 5 10 25 11 18 12
REMARK SMILES IDX 19 13 24 14 20 16 23 17 21 18 22 19 6 20 7 21 8 22 9 23
REMARK SMILES IDX 13 24 10 25 12 26 11 27 17 28 14 29 16 30 15 31 31 32 32 33
REMARK SMILES IDX 33 34 34 35 35 36 36 37 37 38 38 39 39 40 100 41 40 42 99 43
REMARK SMILES IDX 41 44 42 45 43 46 93 47 44 48 98 49 92 50 94 51 45 52 97 53
REMARK SMILES IDX 91 54 90 55 46 57 78 58 58 59 77 60 59 61 62 62 76 63 95 64
REMARK SMILES IDX 60 65 61 66 75 68 96 69 63 70 47 71 48 72 56 73 49 74 55 75
REMARK SMILES IDX 57 76 54 77 50 78 51 79 52 80 53 81 79 82 80 83 88 84 81 85
REMARK SMILES IDX 87 86 89 87 86 88 82 89 83 90 84 91 85 92 64 93 65 94 73 95
REMARK SMILES IDX 66 96 72 97 74 98 71 99 67 100 68 101 69 102 70 103
REMARK H PARENT 18 15 94 56 62 67
REMARK Flexibility Score: inf
ROOT
ATOM      1  C   UNL A   1      39.874  26.752  27.918  1.00  0.00     0.188 C 
ENDROOT
BRANCH   1   2
ATOM      2  O   UNL A   1      38.948  25.799  27.426  1.00  0.00    -0.376 OA
BRANCH   2   3
ATOM      3  C   UNL A   1      39.519  24.697  26.749  1.00  0.00     0.202 C 
BRANCH   3   4
ATOM      4  C   UNL A   1      38.482  23.675  26.317  1.00  0.00     0.261 C 
BRANCH   4   5
ATOM      5  O   UNL A   1      37.091  24.083  26.362  1.00  0.00    -0.463 OA
BRANCH   5   6
ATOM      6  C   UNL A   1      35.953  23.653  25.783  1.00  0.00     0.310 C 
ATOM      7  O   UNL A   1      35.804  23.869  24.576  1.00  0.00    -0.252 OA
BRANCH   6   8
ATOM      8  C   UNL A   1      34.796  23.064  26.555  1.00  0.00     0.161 C 
BRANCH   8   9
ATOM      9  C   UNL A   1      33.778  22.226  25.856  1.00  0.00     0.000 A 
ATOM     10  C   UNL A   1      32.411  22.447  25.793  1.00  0.00     0.093 A 
ATOM     11  C   UNL A   1      34.030  20.949  25.253  1.00  0.00     0.004 A 
ATOM     12  N   UNL A   1      31.871  21.438  25.027  1.00  0.00    -0.351 N 
ATOM     13  C   UNL A   1      32.811  20.464  24.787  1.00  0.00     0.048 A 
ATOM     14  C   UNL A   1      35.178  20.141  25.111  1.00  0.00     0.012 A 
ATOM     15  H   UNL A   1      30.944  21.419  24.696  1.00  0.00     0.167 HD
ATOM     16  C   UNL A   1      32.671  19.190  24.222  1.00  0.00     0.047 A 
ATOM     17  C   UNL A   1      35.058  18.857  24.565  1.00  0.00     0.021 A 
ATOM     18  C   UNL A   1      33.817  18.390  24.143  1.00  0.00     0.043 A 
ATOM     19  Cl  UNL A   1      33.676  16.790  23.520  1.00  0.00    -0.084 Cl
BRANCH  10  20
ATOM     20  C   UNL A   1      31.673  23.511  26.444  1.00  0.00     0.227 C 
ATOM     21  O   UNL A   1      31.207  23.432  27.578  1.00  0.00    -0.285 OA
BRANCH  20  22
ATOM     22  C   UNL A   1      31.345  24.711  25.679  1.00  0.00     0.113 A 
ATOM     23  C   UNL A   1      31.762  25.898  26.240  1.00  0.00     0.036 A 
ATOM     24  N   UNL A   1      30.680  24.579  24.504  1.00  0.00    -0.252 NA
ATOM     25  C   UNL A   1      31.508  27.062  25.540  1.00  0.00    -0.041 A 
ATOM     26  C   UNL A   1      30.490  25.725  23.820  1.00  0.00     0.115 A 
ATOM     27  C   UNL A   1      30.864  26.984  24.294  1.00  0.00    -0.026 A 
ATOM     28  C   UNL A   1      31.887  28.364  26.181  1.00  0.00     0.036 C 
ATOM     29  C   UNL A   1      30.653  28.213  23.455  1.00  0.00     0.037 C 
ATOM     30  C   UNL A   1      31.927  29.514  25.188  1.00  0.00     0.005 C 
ATOM     31  C   UNL A   1      30.692  29.492  24.293  1.00  0.00     0.005 C 
ENDBRANCH  20  22
ENDBRANCH  10  20
ENDBRANCH   8   9
ENDBRANCH   6   8
ENDBRANCH   5   6
ENDBRANCH   4   5
ENDBRANCH   3   4
ENDBRANCH   2   3
ENDBRANCH   1   2
BRANCH   1  32
ATOM     32  C   UNL A   1      39.282  28.141  28.229  1.00  0.00     0.188 C 
BRANCH  32  33
ATOM     33  O   UNL A   1      37.875  28.341  28.199  1.00  0.00    -0.376 OA
BRANCH  33  34
ATOM     34  C   UNL A   1      37.356  29.659  28.207  1.00  0.00     0.202 C 
BRANCH  34  35
ATOM     35  C   UNL A   1      38.117  30.724  29.008  1.00  0.00     0.261 C 
BRANCH  35  36
ATOM     36  O   UNL A   1      37.403  31.271  30.134  1.00  0.00    -0.460 OA
BRANCH  36  37
ATOM     37  C   UNL A   1      37.181  30.420  31.181  1.00  0.00     0.338 C 
ATOM     38  O   UNL A   1      36.109  30.045  31.589  1.00  0.00    -0.246 OA
BRANCH  37  39
ATOM     39  C   UNL A   1      38.483  29.847  31.637  1.00  0.00     0.060 A 
ATOM     40  C   UNL A   1      38.655  28.474  31.830  1.00  0.00     0.016 A 
ATOM     41  C   UNL A   1      39.547  30.723  31.900  1.00  0.00     0.016 A 
ATOM     42  C   UNL A   1      39.903  27.980  32.239  1.00  0.00     0.010 A 
ATOM     43  C   UNL A   1      40.788  30.229  32.327  1.00  0.00     0.010 A 
ATOM     44  C   UNL A   1      40.987  28.848  32.474  1.00  0.00    -0.014 A 
BRANCH  44  45
ATOM     45  C   UNL A   1      42.363  28.300  32.655  1.00  0.00     0.031 A 
ATOM     46  C   UNL A   1      42.981  28.081  34.006  1.00  0.00     0.074 A 
ATOM     47  C   UNL A   1      43.078  28.021  31.547  1.00  0.00     0.049 A 
ATOM     48  N   UNL A   1      44.136  27.538  34.298  1.00  0.00    -0.248 NA
ATOM     49  C   UNL A   1      42.215  28.524  35.180  1.00  0.00     0.031 C 
ATOM     50  C   UNL A   1      42.602  28.233  30.181  1.00  0.00     0.029 A 
ATOM     51  N   UNL A   1      44.344  27.510  31.384  1.00  0.00    -0.354 N 
ATOM     52  C   UNL A   1      44.233  27.550  35.685  1.00  0.00     0.074 A 
ATOM     53  C   UNL A   1      43.032  28.195  36.176  1.00  0.00     0.031 C 
ATOM     54  C   UNL A   1      43.555  27.851  29.320  1.00  0.00     0.029 A 
ATOM     55  C   UNL A   1      44.726  27.394  30.067  1.00  0.00     0.049 A 
ATOM     56  H   UNL A   1      44.922  27.253  32.138  1.00  0.00     0.167 HD
ATOM     57  C   UNL A   1      45.224  27.053  36.466  1.00  0.00     0.034 A 
ATOM     58  C   UNL A   1      45.884  26.977  29.513  1.00  0.00     0.034 A 
ATOM     59  C   UNL A   1      46.424  26.430  35.956  1.00  0.00     0.049 A 
ATOM     60  C   UNL A   1      46.986  26.464  30.406  1.00  0.00     0.074 A 
ATOM     61  C   UNL A   1      47.447  25.837  36.680  1.00  0.00     0.029 A 
ATOM     62  N   UNL A   1      46.781  26.334  34.620  1.00  0.00    -0.354 N 
ATOM     63  N   UNL A   1      46.995  26.346  31.713  1.00  0.00    -0.248 NA
ATOM     64  C   UNL A   1      48.226  26.012  29.760  1.00  0.00     0.031 C 
ATOM     65  C   UNL A   1      48.454  25.461  35.793  1.00  0.00     0.029 A 
ATOM     66  C   UNL A   1      48.026  25.732  34.504  1.00  0.00     0.049 A 
ATOM     67  H   UNL A   1      46.232  26.645  33.864  1.00  0.00     0.167 HD
ATOM     68  C   UNL A   1      48.225  25.781  32.039  1.00  0.00     0.074 A 
ATOM     69  C   UNL A   1      48.925  25.559  30.793  1.00  0.00     0.031 C 
ATOM     70  C   UNL A   1      48.723  25.481  33.265  1.00  0.00     0.034 A 
BRANCH  57  71
ATOM     71  C   UNL A   1      45.081  27.102  37.971  1.00  0.00     0.023 A 
ATOM     72  C   UNL A   1      45.649  28.165  38.702  1.00  0.00     0.031 A 
ATOM     73  C   UNL A   1      44.586  25.995  38.684  1.00  0.00     0.131 A 
ATOM     74  C   UNL A   1      45.767  28.068  40.095  1.00  0.00     0.055 A 
ATOM     75  C   UNL A   1      44.669  25.923  40.075  1.00  0.00     0.041 A 
ATOM     76  F   UNL A   1      44.037  24.955  38.034  1.00  0.00    -0.206 F 
ATOM     77  C   UNL A   1      45.279  26.954  40.785  1.00  0.00     0.022 A 
BRANCH  74  78
ATOM     78  S   UNL A   1      46.636  29.340  41.056  1.00  0.00     0.124 S 
ATOM     79  O   UNL A   1      47.538  29.905  40.056  1.00  0.00    -0.237 OA
ATOM     80  O   UNL A   1      45.540  30.211  41.470  1.00  0.00    -0.237 OA
ATOM     81  O   UNL A   1      47.287  28.589  42.124  1.00  0.00    -0.744 OA
ENDBRANCH  74  78
ENDBRANCH  57  71
BRANCH  58  82
ATOM     82  C   UNL A   1      46.021  26.988  28.027  1.00  0.00     0.023 A 
ATOM     83  C   UNL A   1      45.877  25.802  27.282  1.00  0.00     0.031 A 
ATOM     84  C   UNL A   1      46.390  28.156  27.339  1.00  0.00     0.131 A 
ATOM     85  C   UNL A   1      46.166  25.797  25.912  1.00  0.00     0.055 A 
ATOM     86  C   UNL A   1      46.604  28.163  25.959  1.00  0.00     0.041 A 
ATOM     87  F   UNL A   1      46.556  29.309  28.005  1.00  0.00    -0.206 F 
ATOM     88  C   UNL A   1      46.509  26.975  25.242  1.00  0.00     0.022 A 
BRANCH  85  89
ATOM     89  S   UNL A   1      46.245  24.239  24.985  1.00  0.00     0.124 S 
ATOM     90  O   UNL A   1      46.599  23.283  26.029  1.00  0.00    -0.237 OA
ATOM     91  O   UNL A   1      44.883  24.131  24.467  1.00  0.00    -0.237 OA
ATOM     92  O   UNL A   1      47.271  24.488  23.979  1.00  0.00    -0.744 OA
ENDBRANCH  85  89
ENDBRANCH  58  82
BRANCH  70  93
ATOM     93  C   UNL A   1      50.099  24.862  33.373  1.00  0.00     0.023 A 
ATOM     94  C   UNL A   1      50.237  23.460  33.415  1.00  0.00     0.031 A 
ATOM     95  C   UNL A   1      51.237  25.647  33.628  1.00  0.00     0.131 A 
ATOM     96  C   UNL A   1      51.465  22.889  33.772  1.00  0.00     0.055 A 
ATOM     97  C   UNL A   1      52.473  25.071  33.928  1.00  0.00     0.041 A 
ATOM     98  F   UNL A   1      51.159  26.987  33.607  1.00  0.00    -0.206 F 
ATOM     99  C   UNL A   1      52.586  23.686  34.021  1.00  0.00     0.022 A 
BRANCH  96 100
ATOM    100  S   UNL A   1      51.628  21.099  34.027  1.00  0.00     0.124 S 
ATOM    101  O   UNL A   1      50.662  20.566  33.069  1.00  0.00    -0.237 OA
ATOM    102  O   UNL A   1      53.030  20.868  33.693  1.00  0.00    -0.237 OA
ATOM    103  O   UNL A   1      51.276  20.910  35.431  1.00  0.00    -0.744 OA
ENDBRANCH  96 100
ENDBRANCH  70  93
ENDBRANCH  44  45
ENDBRANCH  37  39
ENDBRANCH  36  37
ENDBRANCH  35  36
ENDBRANCH  34  35
ENDBRANCH  33  34
ENDBRANCH  32  33
ENDBRANCH   1  32
TORSDOF 23
ENDMDL
