MODEL 1
REMARK VINA RESULT:      -9.5      0.000      0.000
REMARK SMILES Cc1cc(NC(=O)CC(C)(C)CC(=O)OCCOCCOCCOC(=O)c2ccc(-c3c4nc(c(-c5cc(S(=O)(=O)[O-])ccc5F)c5ccc([nH]5)c(-c5cc(S(=O)(=O)[O-])ccc5F)c5nc(c(-c6cc(S(=O)(=O)[O-])ccc6F)c6ccc3[nH]6)C=C5)C=C4)cc2)ncc1Br
REMARK SMILES IDX 19 1 18 2 17 3 16 4 15 5 13 6 14 7 12 8 9 9 10 10 11 11 8 12
REMARK SMILES IDX 6 13 5 14 7 16 4 17 1 18 2 19 3 20 92 21 91 22 93 23 90 24
REMARK SMILES IDX 20 25 21 26 22 27 23 28 24 29 25 30 26 31 27 32 28 33 89 34
REMARK SMILES IDX 29 35 88 36 30 37 31 38 32 39 82 40 33 41 87 42 81 43 83 44
REMARK SMILES IDX 34 45 86 46 80 47 79 48 35 50 67 51 47 52 66 53 48 54 51 55
REMARK SMILES IDX 65 56 84 57 49 58 50 59 64 61 85 62 52 63 36 64 37 65 45 66
REMARK SMILES IDX 38 67 44 68 46 69 43 70 39 71 40 72 41 73 42 74 68 75 69 76
REMARK SMILES IDX 77 77 70 78 76 79 78 80 75 81 71 82 72 83 73 84 74 85 53 86
REMARK SMILES IDX 54 87 62 88 55 89 61 90 63 91 60 92 56 93 57 94 58 95 59 96
REMARK H PARENT 5 15 83 49 51 60
REMARK Flexibility Score: inf
ROOT
ATOM      1  C   UNL A   1      40.639  21.872  26.133  1.00  0.00     0.188 C 
ENDROOT
BRANCH   1   2
ATOM      2  O   UNL A   1      39.251  22.104  26.345  1.00  0.00    -0.376 OA
BRANCH   2   3
ATOM      3  C   UNL A   1      38.349  21.348  25.533  1.00  0.00     0.202 C 
BRANCH   3   4
ATOM      4  C   UNL A   1      37.049  22.054  25.109  1.00  0.00     0.261 C 
BRANCH   4   5
ATOM      5  O   UNL A   1      35.993  21.873  26.073  1.00  0.00    -0.463 OA
BRANCH   5   6
ATOM      6  C   UNL A   1      34.879  21.222  25.634  1.00  0.00     0.306 C 
ATOM      7  O   UNL A   1      34.844  20.453  24.684  1.00  0.00    -0.252 OA
BRANCH   6   8
ATOM      8  C   UNL A   1      33.690  21.519  26.532  1.00  0.00     0.129 C 
BRANCH   8   9
ATOM      9  C   UNL A   1      32.655  22.568  26.038  1.00  0.00    -0.016 C 
ATOM     10  C   UNL A   1      31.811  21.922  24.923  1.00  0.00     0.012 C 
ATOM     11  C   UNL A   1      33.327  23.816  25.433  1.00  0.00     0.012 C 
BRANCH   9  12
ATOM     12  C   UNL A   1      31.761  23.062  27.218  1.00  0.00     0.107 C 
BRANCH  12  13
ATOM     13  C   UNL A   1      30.295  23.268  26.878  1.00  0.00     0.226 C 
ATOM     14  N   UNL A   1      29.795  24.351  26.253  1.00  0.00    -0.311 N 
ATOM     15  H   UNL A   1      28.855  24.262  25.973  1.00  0.00     0.171 HD
ATOM     16  O   UNL A   1      29.483  22.364  27.094  1.00  0.00    -0.275 OA
BRANCH  14  17
ATOM     17  C   UNL A   1      30.372  25.568  25.936  1.00  0.00     0.132 A 
ATOM     18  C   UNL A   1      30.671  27.641  22.789  1.00  0.00     0.046 C 
ATOM     19  C   UNL A   1      30.794  27.215  24.221  1.00  0.00    -0.032 A 
ATOM     20  C   UNL A   1      30.271  25.976  24.609  1.00  0.00     0.051 A 
ATOM     21  C   UNL A   1      31.401  28.001  25.202  1.00  0.00     0.039 A 
ATOM     22  C   UNL A   1      31.458  27.512  26.499  1.00  0.00     0.129 A 
ATOM     23  Br  UNL A   1      32.145  29.702  24.841  1.00  0.00    -0.049 Br
ATOM     24  N   UNL A   1      30.965  26.312  26.879  1.00  0.00    -0.238 NA
ENDBRANCH  14  17
ENDBRANCH  12  13
ENDBRANCH   9  12
ENDBRANCH   8   9
ENDBRANCH   6   8
ENDBRANCH   5   6
ENDBRANCH   4   5
ENDBRANCH   3   4
ENDBRANCH   2   3
ENDBRANCH   1   2
BRANCH   1  25
ATOM     25  C   UNL A   1      41.427  21.254  27.297  1.00  0.00     0.188 C 
BRANCH  25  26
ATOM     26  O   UNL A   1      41.250  19.855  27.506  1.00  0.00    -0.376 OA
BRANCH  26  27
ATOM     27  C   UNL A   1      42.403  19.056  27.223  1.00  0.00     0.202 C 
BRANCH  27  28
ATOM     28  C   UNL A   1      42.682  18.835  25.724  1.00  0.00     0.261 C 
BRANCH  28  29
ATOM     29  O   UNL A   1      44.078  18.712  25.381  1.00  0.00    -0.460 OA
BRANCH  29  30
ATOM     30  C   UNL A   1      44.504  19.507  24.367  1.00  0.00     0.338 C 
ATOM     31  O   UNL A   1      44.528  19.217  23.191  1.00  0.00    -0.246 OA
BRANCH  30  32
ATOM     32  C   UNL A   1      44.643  20.887  24.893  1.00  0.00     0.060 A 
ATOM     33  C   UNL A   1      45.194  21.208  26.126  1.00  0.00     0.016 A 
ATOM     34  C   UNL A   1      44.156  21.902  24.077  1.00  0.00     0.016 A 
ATOM     35  C   UNL A   1      45.266  22.560  26.508  1.00  0.00     0.010 A 
ATOM     36  C   UNL A   1      44.258  23.245  24.429  1.00  0.00     0.010 A 
ATOM     37  C   UNL A   1      44.820  23.596  25.653  1.00  0.00    -0.014 A 
BRANCH  37  38
ATOM     38  C   UNL A   1      45.059  25.031  25.979  1.00  0.00     0.031 A 
ATOM     39  C   UNL A   1      43.977  25.934  26.515  1.00  0.00     0.074 A 
ATOM     40  C   UNL A   1      46.273  25.548  25.702  1.00  0.00     0.049 A 
ATOM     41  N   UNL A   1      44.083  27.160  26.966  1.00  0.00    -0.248 NA
ATOM     42  C   UNL A   1      42.598  25.423  26.512  1.00  0.00     0.031 C 
ATOM     43  C   UNL A   1      47.347  24.824  25.019  1.00  0.00     0.029 A 
ATOM     44  N   UNL A   1      46.817  26.783  25.958  1.00  0.00    -0.354 N 
ATOM     45  C   UNL A   1      42.795  27.558  27.313  1.00  0.00     0.074 A 
ATOM     46  C   UNL A   1      41.913  26.474  26.941  1.00  0.00     0.031 C 
ATOM     47  C   UNL A   1      48.441  25.595  24.979  1.00  0.00     0.029 A 
ATOM     48  C   UNL A   1      48.145  26.879  25.609  1.00  0.00     0.049 A 
ATOM     49  H   UNL A   1      46.306  27.526  26.354  1.00  0.00     0.167 HD
ATOM     50  C   UNL A   1      42.396  28.703  27.921  1.00  0.00     0.034 A 
ATOM     51  C   UNL A   1      49.038  27.870  25.808  1.00  0.00     0.034 A 
ATOM     52  C   UNL A   1      43.304  29.763  28.288  1.00  0.00     0.049 A 
ATOM     53  C   UNL A   1      48.605  29.090  26.578  1.00  0.00     0.074 A 
ATOM     54  C   UNL A   1      43.026  30.924  28.989  1.00  0.00     0.029 A 
ATOM     55  N   UNL A   1      44.659  29.794  27.990  1.00  0.00    -0.354 N 
ATOM     56  N   UNL A   1      47.418  29.381  27.058  1.00  0.00    -0.248 NA
ATOM     57  C   UNL A   1      49.629  30.102  26.867  1.00  0.00     0.031 C 
ATOM     58  C   UNL A   1      44.195  31.683  29.059  1.00  0.00     0.029 A 
ATOM     59  C   UNL A   1      45.226  30.958  28.480  1.00  0.00     0.049 A 
ATOM     60  H   UNL A   1      45.145  29.090  27.503  1.00  0.00     0.167 HD
ATOM     61  C   UNL A   1      47.563  30.588  27.736  1.00  0.00     0.074 A 
ATOM     62  C   UNL A   1      48.956  30.962  27.621  1.00  0.00     0.031 C 
ATOM     63  C   UNL A   1      46.622  31.314  28.393  1.00  0.00     0.034 A 
BRANCH  50  64
ATOM     64  C   UNL A   1      40.940  28.868  28.302  1.00  0.00     0.023 A 
ATOM     65  C   UNL A   1      40.510  28.625  29.621  1.00  0.00     0.031 A 
ATOM     66  C   UNL A   1      39.957  29.106  27.323  1.00  0.00     0.131 A 
ATOM     67  C   UNL A   1      39.138  28.587  29.914  1.00  0.00     0.055 A 
ATOM     68  C   UNL A   1      38.595  29.118  27.630  1.00  0.00     0.041 A 
ATOM     69  F   UNL A   1      40.306  29.328  26.044  1.00  0.00    -0.206 F 
ATOM     70  C   UNL A   1      38.180  28.841  28.928  1.00  0.00     0.022 A 
BRANCH  67  71
ATOM     71  S   UNL A   1      38.537  28.124  31.563  1.00  0.00     0.124 S 
ATOM     72  O   UNL A   1      39.690  28.441  32.403  1.00  0.00    -0.237 OA
ATOM     73  O   UNL A   1      37.385  29.007  31.728  1.00  0.00    -0.237 OA
ATOM     74  O   UNL A   1      38.231  26.703  31.441  1.00  0.00    -0.744 OA
ENDBRANCH  67  71
ENDBRANCH  50  64
BRANCH  51  75
ATOM     75  C   UNL A   1      50.456  27.651  25.393  1.00  0.00     0.023 A 
ATOM     76  C   UNL A   1      50.862  27.858  24.062  1.00  0.00     0.031 A 
ATOM     77  C   UNL A   1      51.384  27.094  26.288  1.00  0.00     0.131 A 
ATOM     78  C   UNL A   1      52.138  27.445  23.652  1.00  0.00     0.055 A 
ATOM     79  C   UNL A   1      52.679  26.753  25.893  1.00  0.00     0.041 A 
ATOM     80  F   UNL A   1      51.036  26.853  27.562  1.00  0.00    -0.206 F 
ATOM     81  C   UNL A   1      53.054  26.911  24.562  1.00  0.00     0.022 A 
BRANCH  78  82
ATOM     82  S   UNL A   1      52.595  27.446  21.895  1.00  0.00     0.124 S 
ATOM     83  O   UNL A   1      51.302  27.263  21.245  1.00  0.00    -0.237 OA
ATOM     84  O   UNL A   1      53.195  28.770  21.745  1.00  0.00    -0.237 OA
ATOM     85  O   UNL A   1      53.524  26.328  21.780  1.00  0.00    -0.744 OA
ENDBRANCH  78  82
ENDBRANCH  51  75
BRANCH  63  86
ATOM     86  C   UNL A   1      47.039  32.592  29.084  1.00  0.00     0.023 A 
ATOM     87  C   UNL A   1      47.351  32.568  30.458  1.00  0.00     0.031 A 
ATOM     88  C   UNL A   1      46.962  33.839  28.443  1.00  0.00     0.131 A 
ATOM     89  C   UNL A   1      47.529  33.769  31.156  1.00  0.00     0.055 A 
ATOM     90  C   UNL A   1      47.192  35.032  29.131  1.00  0.00     0.041 A 
ATOM     91  F   UNL A   1      46.650  33.919  27.139  1.00  0.00    -0.206 F 
ATOM     92  C   UNL A   1      47.460  35.001  30.496  1.00  0.00     0.022 A 
BRANCH  89  93
ATOM     93  S   UNL A   1      47.745  33.783  32.956  1.00  0.00     0.124 S 
ATOM     94  O   UNL A   1      47.026  34.996  33.337  1.00  0.00    -0.237 OA
ATOM     95  O   UNL A   1      47.107  32.530  33.353  1.00  0.00    -0.237 OA
ATOM     96  O   UNL A   1      49.192  33.835  33.138  1.00  0.00    -0.744 OA
ENDBRANCH  89  93
ENDBRANCH  63  86
ENDBRANCH  37  38
ENDBRANCH  30  32
ENDBRANCH  29  30
ENDBRANCH  28  29
ENDBRANCH  27  28
ENDBRANCH  26  27
ENDBRANCH  25  26
ENDBRANCH   1  25
TORSDOF 24
ENDMDL
MODEL 2
REMARK VINA RESULT:      -9.4      1.256      7.743
REMARK SMILES Cc1cc(NC(=O)CC(C)(C)CC(=O)OCCOCCOCCOC(=O)c2ccc(-c3c4nc(c(-c5cc(S(=O)(=O)[O-])ccc5F)c5ccc([nH]5)c(-c5cc(S(=O)(=O)[O-])ccc5F)c5nc(c(-c6cc(S(=O)(=O)[O-])ccc6F)c6ccc3[nH]6)C=C5)C=C4)cc2)ncc1Br
REMARK SMILES IDX 19 1 18 2 17 3 16 4 15 5 13 6 14 7 12 8 9 9 10 10 11 11 8 12
REMARK SMILES IDX 6 13 5 14 7 16 4 17 1 18 2 19 3 20 92 21 91 22 93 23 90 24
REMARK SMILES IDX 20 25 21 26 22 27 23 28 24 29 25 30 26 31 27 32 28 33 89 34
REMARK SMILES IDX 29 35 88 36 30 37 31 38 32 39 82 40 33 41 87 42 81 43 83 44
REMARK SMILES IDX 34 45 86 46 80 47 79 48 35 50 67 51 47 52 66 53 48 54 51 55
REMARK SMILES IDX 65 56 84 57 49 58 50 59 64 61 85 62 52 63 36 64 37 65 45 66
REMARK SMILES IDX 38 67 44 68 46 69 43 70 39 71 40 72 41 73 42 74 68 75 69 76
REMARK SMILES IDX 77 77 70 78 76 79 78 80 75 81 71 82 72 83 73 84 74 85 53 86
REMARK SMILES IDX 54 87 62 88 55 89 61 90 63 91 60 92 56 93 57 94 58 95 59 96
REMARK H PARENT 5 15 83 49 51 60
REMARK Flexibility Score: inf
ROOT
ATOM      1  C   UNL A   1      40.856  22.471  26.391  1.00  0.00     0.188 C 
ENDROOT
BRANCH   1   2
ATOM      2  O   UNL A   1      39.464  22.492  26.689  1.00  0.00    -0.376 OA
BRANCH   2   3
ATOM      3  C   UNL A   1      38.615  21.753  25.806  1.00  0.00     0.202 C 
BRANCH   3   4
ATOM      4  C   UNL A   1      37.278  22.413  25.426  1.00  0.00     0.261 C 
BRANCH   4   5
ATOM      5  O   UNL A   1      36.182  21.917  26.221  1.00  0.00    -0.463 OA
BRANCH   5   6
ATOM      6  C   UNL A   1      35.030  21.633  25.551  1.00  0.00     0.306 C 
ATOM      7  O   UNL A   1      34.249  20.739  25.844  1.00  0.00    -0.252 OA
BRANCH   6   8
ATOM      8  C   UNL A   1      34.798  22.630  24.427  1.00  0.00     0.129 C 
BRANCH   8   9
ATOM      9  C   UNL A   1      33.841  23.823  24.707  1.00  0.00    -0.016 C 
ATOM     10  C   UNL A   1      33.785  24.700  23.442  1.00  0.00     0.012 C 
ATOM     11  C   UNL A   1      34.338  24.718  25.859  1.00  0.00     0.012 C 
BRANCH   9  12
ATOM     12  C   UNL A   1      32.422  23.311  25.110  1.00  0.00     0.107 C 
BRANCH  12  13
ATOM     13  C   UNL A   1      31.893  23.842  26.431  1.00  0.00     0.226 C 
ATOM     14  N   UNL A   1      31.115  24.932  26.566  1.00  0.00    -0.311 N 
ATOM     15  H   UNL A   1      30.735  25.053  27.466  1.00  0.00     0.171 HD
ATOM     16  O   UNL A   1      32.095  23.208  27.470  1.00  0.00    -0.275 OA
BRANCH  14  17
ATOM     17  C   UNL A   1      30.756  25.914  25.659  1.00  0.00     0.132 A 
ATOM     18  C   UNL A   1      31.806  29.493  25.046  1.00  0.00     0.046 C 
ATOM     19  C   UNL A   1      31.110  28.175  24.887  1.00  0.00    -0.032 A 
ATOM     20  C   UNL A   1      31.390  27.145  25.794  1.00  0.00     0.051 A 
ATOM     21  C   UNL A   1      30.194  27.912  23.868  1.00  0.00     0.039 A 
ATOM     22  C   UNL A   1      29.610  26.656  23.812  1.00  0.00     0.129 A 
ATOM     23  Br  UNL A   1      29.718  29.193  22.560  1.00  0.00    -0.049 Br
ATOM     24  N   UNL A   1      29.866  25.661  24.689  1.00  0.00    -0.238 NA
ENDBRANCH  14  17
ENDBRANCH  12  13
ENDBRANCH   9  12
ENDBRANCH   8   9
ENDBRANCH   6   8
ENDBRANCH   5   6
ENDBRANCH   4   5
ENDBRANCH   3   4
ENDBRANCH   2   3
ENDBRANCH   1   2
BRANCH   1  25
ATOM     25  C   UNL A   1      41.740  21.571  27.266  1.00  0.00     0.188 C 
BRANCH  25  26
ATOM     26  O   UNL A   1      41.309  20.222  27.422  1.00  0.00    -0.376 OA
BRANCH  26  27
ATOM     27  C   UNL A   1      42.285  19.236  27.069  1.00  0.00     0.202 C 
BRANCH  27  28
ATOM     28  C   UNL A   1      42.672  19.216  25.578  1.00  0.00     0.261 C 
BRANCH  28  29
ATOM     29  O   UNL A   1      44.091  19.246  25.322  1.00  0.00    -0.460 OA
BRANCH  29  30
ATOM     30  C   UNL A   1      44.502  20.154  24.401  1.00  0.00     0.338 C 
ATOM     31  O   UNL A   1      44.461  20.023  23.198  1.00  0.00    -0.246 OA
BRANCH  30  32
ATOM     32  C   UNL A   1      44.719  21.447  25.096  1.00  0.00     0.060 A 
ATOM     33  C   UNL A   1      45.319  21.581  26.340  1.00  0.00     0.016 A 
ATOM     34  C   UNL A   1      44.254  22.579  24.436  1.00  0.00     0.016 A 
ATOM     35  C   UNL A   1      45.463  22.867  26.891  1.00  0.00     0.010 A 
ATOM     36  C   UNL A   1      44.426  23.859  24.955  1.00  0.00     0.010 A 
ATOM     37  C   UNL A   1      45.039  24.023  26.194  1.00  0.00    -0.014 A 
BRANCH  37  38
ATOM     38  C   UNL A   1      45.353  25.393  26.695  1.00  0.00     0.031 A 
ATOM     39  C   UNL A   1      46.714  26.021  26.540  1.00  0.00     0.074 A 
ATOM     40  C   UNL A   1      44.398  26.048  27.383  1.00  0.00     0.049 A 
ATOM     41  N   UNL A   1      47.083  27.251  26.807  1.00  0.00    -0.248 NA
ATOM     42  C   UNL A   1      47.812  25.165  26.065  1.00  0.00     0.031 C 
ATOM     43  C   UNL A   1      43.102  25.477  27.754  1.00  0.00     0.029 A 
ATOM     44  N   UNL A   1      44.352  27.325  27.887  1.00  0.00    -0.354 N 
ATOM     45  C   UNL A   1      48.443  27.318  26.518  1.00  0.00     0.074 A 
ATOM     46  C   UNL A   1      48.853  25.984  26.138  1.00  0.00     0.031 C 
ATOM     47  C   UNL A   1      42.362  26.417  28.354  1.00  0.00     0.029 A 
ATOM     48  C   UNL A   1      43.134  27.654  28.438  1.00  0.00     0.049 A 
ATOM     49  H   UNL A   1      45.117  27.944  27.857  1.00  0.00     0.167 HD
ATOM     50  C   UNL A   1      49.261  28.400  26.532  1.00  0.00     0.034 A 
ATOM     51  C   UNL A   1      42.673  28.826  28.918  1.00  0.00     0.034 A 
ATOM     52  C   UNL A   1      48.819  29.722  26.910  1.00  0.00     0.049 A 
ATOM     53  C   UNL A   1      43.557  30.042  28.830  1.00  0.00     0.074 A 
ATOM     54  C   UNL A   1      49.534  30.907  26.873  1.00  0.00     0.029 A 
ATOM     55  N   UNL A   1      47.554  30.036  27.388  1.00  0.00    -0.354 N 
ATOM     56  N   UNL A   1      44.791  30.132  28.390  1.00  0.00    -0.248 NA
ATOM     57  C   UNL A   1      42.986  31.323  29.266  1.00  0.00     0.031 C 
ATOM     58  C   UNL A   1      48.725  31.921  27.387  1.00  0.00     0.029 A 
ATOM     59  C   UNL A   1      47.475  31.391  27.661  1.00  0.00     0.049 A 
ATOM     60  H   UNL A   1      46.822  29.389  27.512  1.00  0.00     0.167 HD
ATOM     61  C   UNL A   1      45.128  31.480  28.461  1.00  0.00     0.074 A 
ATOM     62  C   UNL A   1      43.962  32.171  28.968  1.00  0.00     0.031 C 
ATOM     63  C   UNL A   1      46.300  32.084  28.135  1.00  0.00     0.034 A 
BRANCH  50  64
ATOM     64  C   UNL A   1      50.695  28.250  26.071  1.00  0.00     0.023 A 
ATOM     65  C   UNL A   1      50.998  28.107  24.702  1.00  0.00     0.031 A 
ATOM     66  C   UNL A   1      51.742  28.082  26.997  1.00  0.00     0.131 A 
ATOM     67  C   UNL A   1      52.300  27.769  24.305  1.00  0.00     0.055 A 
ATOM     68  C   UNL A   1      53.047  27.797  26.593  1.00  0.00     0.041 A 
ATOM     69  F   UNL A   1      51.509  28.190  28.316  1.00  0.00    -0.206 F 
ATOM     70  C   UNL A   1      53.328  27.624  25.242  1.00  0.00     0.022 A 
BRANCH  67  71
ATOM     71  S   UNL A   1      52.699  27.424  22.568  1.00  0.00     0.124 S 
ATOM     72  O   UNL A   1      53.210  26.056  22.643  1.00  0.00    -0.237 OA
ATOM     73  O   UNL A   1      51.397  27.568  21.921  1.00  0.00    -0.237 OA
ATOM     74  O   UNL A   1      53.690  28.438  22.226  1.00  0.00    -0.744 OA
ENDBRANCH  67  71
ENDBRANCH  50  64
BRANCH  51  75
ATOM     75  C   UNL A   1      41.254  28.905  29.376  1.00  0.00     0.023 A 
ATOM     76  C   UNL A   1      40.925  28.801  30.740  1.00  0.00     0.031 A 
ATOM     77  C   UNL A   1      40.203  28.936  28.444  1.00  0.00     0.131 A 
ATOM     78  C   UNL A   1      39.583  28.664  31.124  1.00  0.00     0.055 A 
ATOM     79  C   UNL A   1      38.865  28.874  28.836  1.00  0.00     0.041 A 
ATOM     80  F   UNL A   1      40.467  29.007  27.129  1.00  0.00    -0.206 F 
ATOM     81  C   UNL A   1      38.551  28.718  30.182  1.00  0.00     0.022 A 
BRANCH  78  82
ATOM     82  S   UNL A   1      39.143  28.259  32.837  1.00  0.00     0.124 S 
ATOM     83  O   UNL A   1      38.215  27.148  32.658  1.00  0.00    -0.237 OA
ATOM     84  O   UNL A   1      40.444  27.910  33.404  1.00  0.00    -0.237 OA
ATOM     85  O   UNL A   1      38.557  29.495  33.345  1.00  0.00    -0.744 OA
ENDBRANCH  78  82
ENDBRANCH  51  75
BRANCH  63  86
ATOM     86  C   UNL A   1      46.411  33.584  28.275  1.00  0.00     0.023 A 
ATOM     87  C   UNL A   1      46.730  34.143  29.529  1.00  0.00     0.031 A 
ATOM     88  C   UNL A   1      46.040  34.454  27.236  1.00  0.00     0.131 A 
ATOM     89  C   UNL A   1      46.626  35.526  29.725  1.00  0.00     0.055 A 
ATOM     90  C   UNL A   1      45.989  35.837  27.421  1.00  0.00     0.041 A 
ATOM     91  F   UNL A   1      45.709  33.972  26.027  1.00  0.00    -0.206 F 
ATOM     92  C   UNL A   1      46.267  36.376  28.674  1.00  0.00     0.022 A 
BRANCH  89  93
ATOM     93  S   UNL A   1      46.846  36.257  31.370  1.00  0.00     0.124 S 
ATOM     94  O   UNL A   1      48.047  35.576  31.845  1.00  0.00    -0.237 OA
ATOM     95  O   UNL A   1      47.017  37.674  31.056  1.00  0.00    -0.237 OA
ATOM     96  O   UNL A   1      45.616  35.916  32.076  1.00  0.00    -0.744 OA
ENDBRANCH  89  93
ENDBRANCH  63  86
ENDBRANCH  37  38
ENDBRANCH  30  32
ENDBRANCH  29  30
ENDBRANCH  28  29
ENDBRANCH  27  28
ENDBRANCH  26  27
ENDBRANCH  25  26
ENDBRANCH   1  25
TORSDOF 24
ENDMDL
MODEL 3
REMARK VINA RESULT:      -9.0      5.705     10.196
REMARK SMILES Cc1cc(NC(=O)CC(C)(C)CC(=O)OCCOCCOCCOC(=O)c2ccc(-c3c4nc(c(-c5cc(S(=O)(=O)[O-])ccc5F)c5ccc([nH]5)c(-c5cc(S(=O)(=O)[O-])ccc5F)c5nc(c(-c6cc(S(=O)(=O)[O-])ccc6F)c6ccc3[nH]6)C=C5)C=C4)cc2)ncc1Br
REMARK SMILES IDX 19 1 18 2 17 3 16 4 15 5 13 6 14 7 12 8 9 9 10 10 11 11 8 12
REMARK SMILES IDX 6 13 5 14 7 16 4 17 1 18 2 19 3 20 92 21 91 22 93 23 90 24
REMARK SMILES IDX 20 25 21 26 22 27 23 28 24 29 25 30 26 31 27 32 28 33 89 34
REMARK SMILES IDX 29 35 88 36 30 37 31 38 32 39 82 40 33 41 87 42 81 43 83 44
REMARK SMILES IDX 34 45 86 46 80 47 79 48 35 50 67 51 47 52 66 53 48 54 51 55
REMARK SMILES IDX 65 56 84 57 49 58 50 59 64 61 85 62 52 63 36 64 37 65 45 66
REMARK SMILES IDX 38 67 44 68 46 69 43 70 39 71 40 72 41 73 42 74 68 75 69 76
REMARK SMILES IDX 77 77 70 78 76 79 78 80 75 81 71 82 72 83 73 84 74 85 53 86
REMARK SMILES IDX 54 87 62 88 55 89 61 90 63 91 60 92 56 93 57 94 58 95 59 96
REMARK H PARENT 5 15 83 49 51 60
REMARK Flexibility Score: inf
ROOT
ATOM      1  C   UNL A   1      34.254  32.133  27.915  1.00  0.00     0.188 C 
ENDROOT
BRANCH   1   2
ATOM      2  O   UNL A   1      34.023  30.795  27.489  1.00  0.00    -0.376 OA
BRANCH   2   3
ATOM      3  C   UNL A   1      32.730  30.517  26.944  1.00  0.00     0.202 C 
BRANCH   3   4
ATOM      4  C   UNL A   1      32.695  29.723  25.626  1.00  0.00     0.261 C 
BRANCH   4   5
ATOM      5  O   UNL A   1      31.351  29.521  25.149  1.00  0.00    -0.463 OA
BRANCH   5   6
ATOM      6  C   UNL A   1      31.213  28.736  24.044  1.00  0.00     0.306 C 
ATOM      7  O   UNL A   1      31.609  29.024  22.923  1.00  0.00    -0.252 OA
BRANCH   6   8
ATOM      8  C   UNL A   1      30.567  27.407  24.402  1.00  0.00     0.129 C 
BRANCH   8   9
ATOM      9  C   UNL A   1      31.503  26.188  24.633  1.00  0.00    -0.016 C 
ATOM     10  C   UNL A   1      30.669  24.904  24.470  1.00  0.00     0.012 C 
ATOM     11  C   UNL A   1      32.098  26.165  26.055  1.00  0.00     0.012 C 
BRANCH   9  12
ATOM     12  C   UNL A   1      32.706  26.218  23.638  1.00  0.00     0.107 C 
BRANCH  12  13
ATOM     13  C   UNL A   1      32.511  25.417  22.362  1.00  0.00     0.226 C 
ATOM     14  N   UNL A   1      33.018  24.189  22.140  1.00  0.00    -0.311 N 
ATOM     15  H   UNL A   1      32.675  23.749  21.329  1.00  0.00     0.171 HD
ATOM     16  O   UNL A   1      31.770  25.849  21.476  1.00  0.00    -0.275 OA
BRANCH  14  17
ATOM     17  C   UNL A   1      33.937  23.439  22.852  1.00  0.00     0.132 A 
ATOM     18  C   UNL A   1      33.732  20.441  25.145  1.00  0.00     0.046 C 
ATOM     19  C   UNL A   1      34.300  21.565  24.331  1.00  0.00    -0.032 A 
ATOM     20  C   UNL A   1      33.427  22.394  23.616  1.00  0.00     0.051 A 
ATOM     21  C   UNL A   1      35.667  21.828  24.240  1.00  0.00     0.039 A 
ATOM     22  C   UNL A   1      36.085  22.893  23.455  1.00  0.00     0.129 A 
ATOM     23  Br  UNL A   1      36.974  20.794  25.136  1.00  0.00    -0.049 Br
ATOM     24  N   UNL A   1      35.249  23.704  22.771  1.00  0.00    -0.238 NA
ENDBRANCH  14  17
ENDBRANCH  12  13
ENDBRANCH   9  12
ENDBRANCH   8   9
ENDBRANCH   6   8
ENDBRANCH   5   6
ENDBRANCH   4   5
ENDBRANCH   3   4
ENDBRANCH   2   3
ENDBRANCH   1   2
BRANCH   1  25
ATOM     25  C   UNL A   1      35.317  32.341  29.004  1.00  0.00     0.188 C 
BRANCH  25  26
ATOM     26  O   UNL A   1      36.317  31.332  29.111  1.00  0.00    -0.376 OA
BRANCH  26  27
ATOM     27  C   UNL A   1      36.995  31.290  30.371  1.00  0.00     0.202 C 
BRANCH  27  28
ATOM     28  C   UNL A   1      36.575  32.390  31.366  1.00  0.00     0.261 C 
BRANCH  28  29
ATOM     29  O   UNL A   1      37.656  32.953  32.136  1.00  0.00    -0.460 OA
BRANCH  29  30
ATOM     30  C   UNL A   1      37.904  34.270  31.921  1.00  0.00     0.338 C 
ATOM     31  O   UNL A   1      37.436  35.198  32.543  1.00  0.00    -0.246 OA
BRANCH  30  32
ATOM     32  C   UNL A   1      39.072  34.374  31.012  1.00  0.00     0.060 A 
ATOM     33  C   UNL A   1      38.990  34.633  29.651  1.00  0.00     0.016 A 
ATOM     34  C   UNL A   1      40.318  34.170  31.595  1.00  0.00     0.016 A 
ATOM     35  C   UNL A   1      40.177  34.705  28.899  1.00  0.00     0.010 A 
ATOM     36  C   UNL A   1      41.500  34.277  30.867  1.00  0.00     0.010 A 
ATOM     37  C   UNL A   1      41.447  34.551  29.503  1.00  0.00    -0.014 A 
BRANCH  37  38
ATOM     38  C   UNL A   1      42.705  34.805  28.744  1.00  0.00     0.031 A 
ATOM     39  C   UNL A   1      43.110  36.181  28.279  1.00  0.00     0.074 A 
ATOM     40  C   UNL A   1      43.459  33.743  28.396  1.00  0.00     0.049 A 
ATOM     41  N   UNL A   1      44.238  36.561  27.732  1.00  0.00    -0.248 NA
ATOM     42  C   UNL A   1      42.120  37.262  28.404  1.00  0.00     0.031 C 
ATOM     43  C   UNL A   1      43.084  32.347  28.632  1.00  0.00     0.029 A 
ATOM     44  N   UNL A   1      44.686  33.658  27.785  1.00  0.00    -0.354 N 
ATOM     45  C   UNL A   1      44.100  37.920  27.463  1.00  0.00     0.074 A 
ATOM     46  C   UNL A   1      42.748  38.279  27.829  1.00  0.00     0.031 C 
ATOM     47  C   UNL A   1      44.089  31.551  28.243  1.00  0.00     0.029 A 
ATOM     48  C   UNL A   1      45.171  32.372  27.707  1.00  0.00     0.049 A 
ATOM     49  H   UNL A   1      45.170  34.441  27.437  1.00  0.00     0.167 HD
ATOM     50  C   UNL A   1      45.028  38.790  26.993  1.00  0.00     0.034 A 
ATOM     51  C   UNL A   1      46.366  31.906  27.291  1.00  0.00     0.034 A 
ATOM     52  C   UNL A   1      46.374  38.402  26.644  1.00  0.00     0.049 A 
ATOM     53  C   UNL A   1      47.422  32.894  26.871  1.00  0.00     0.074 A 
ATOM     54  C   UNL A   1      47.424  39.211  26.246  1.00  0.00     0.029 A 
ATOM     55  N   UNL A   1      46.858  37.100  26.653  1.00  0.00    -0.354 N 
ATOM     56  N   UNL A   1      47.337  34.201  26.786  1.00  0.00    -0.248 NA
ATOM     57  C   UNL A   1      48.744  32.359  26.523  1.00  0.00     0.031 C 
ATOM     58  C   UNL A   1      48.518  38.397  25.955  1.00  0.00     0.029 A 
ATOM     59  C   UNL A   1      48.184  37.086  26.254  1.00  0.00     0.049 A 
ATOM     60  H   UNL A   1      46.334  36.306  26.906  1.00  0.00     0.167 HD
ATOM     61  C   UNL A   1      48.602  34.646  26.414  1.00  0.00     0.074 A 
ATOM     62  C   UNL A   1      49.439  33.470  26.309  1.00  0.00     0.031 C 
ATOM     63  C   UNL A   1      49.026  35.915  26.182  1.00  0.00     0.034 A 
BRANCH  50  64
ATOM     64  C   UNL A   1      44.676  40.258  26.884  1.00  0.00     0.023 A 
ATOM     65  C   UNL A   1      44.149  40.784  25.687  1.00  0.00     0.031 A 
ATOM     66  C   UNL A   1      45.015  41.164  27.907  1.00  0.00     0.131 A 
ATOM     67  C   UNL A   1      44.015  42.172  25.532  1.00  0.00     0.055 A 
ATOM     68  C   UNL A   1      44.831  42.541  27.766  1.00  0.00     0.041 A 
ATOM     69  F   UNL A   1      45.537  40.723  29.064  1.00  0.00    -0.206 F 
ATOM     70  C   UNL A   1      44.344  43.051  26.567  1.00  0.00     0.022 A 
BRANCH  67  71
ATOM     71  S   UNL A   1      43.489  42.898  23.954  1.00  0.00     0.124 S 
ATOM     72  O   UNL A   1      44.464  42.334  23.023  1.00  0.00    -0.237 OA
ATOM     73  O   UNL A   1      42.128  42.384  23.818  1.00  0.00    -0.237 OA
ATOM     74  O   UNL A   1      43.601  44.336  24.174  1.00  0.00    -0.744 OA
ENDBRANCH  67  71
ENDBRANCH  50  64
BRANCH  51  75
ATOM     75  C   UNL A   1      46.645  30.443  27.408  1.00  0.00     0.023 A 
ATOM     76  C   UNL A   1      46.414  29.572  26.327  1.00  0.00     0.031 A 
ATOM     77  C   UNL A   1      47.005  29.882  28.644  1.00  0.00     0.131 A 
ATOM     78  C   UNL A   1      46.479  28.185  26.526  1.00  0.00     0.055 A 
ATOM     79  C   UNL A   1      47.141  28.503  28.818  1.00  0.00     0.041 A 
ATOM     80  F   UNL A   1      47.209  30.670  29.712  1.00  0.00    -0.206 F 
ATOM     81  C   UNL A   1      46.859  27.646  27.759  1.00  0.00     0.022 A 
BRANCH  78  82
ATOM     82  S   UNL A   1      45.927  27.035  25.235  1.00  0.00     0.124 S 
ATOM     83  O   UNL A   1      46.040  27.852  24.032  1.00  0.00    -0.237 OA
ATOM     84  O   UNL A   1      46.905  25.956  25.359  1.00  0.00    -0.237 OA
ATOM     85  O   UNL A   1      44.569  26.690  25.639  1.00  0.00    -0.744 OA
ENDBRANCH  78  82
ENDBRANCH  51  75
BRANCH  63  86
ATOM     86  C   UNL A   1      50.473  36.145  25.814  1.00  0.00     0.023 A 
ATOM     87  C   UNL A   1      51.443  36.230  26.833  1.00  0.00     0.031 A 
ATOM     88  C   UNL A   1      50.864  36.447  24.499  1.00  0.00     0.131 A 
ATOM     89  C   UNL A   1      52.742  36.654  26.527  1.00  0.00     0.055 A 
ATOM     90  C   UNL A   1      52.174  36.817  24.191  1.00  0.00     0.041 A 
ATOM     91  F   UNL A   1      49.974  36.398  23.494  1.00  0.00    -0.206 F 
ATOM     92  C   UNL A   1      53.115  36.938  25.209  1.00  0.00     0.022 A 
BRANCH  89  93
ATOM     93  S   UNL A   1      53.961  36.955  27.836  1.00  0.00     0.124 S 
ATOM     94  O   UNL A   1      53.282  37.953  28.657  1.00  0.00    -0.237 OA
ATOM     95  O   UNL A   1      54.092  35.633  28.445  1.00  0.00    -0.237 OA
ATOM     96  O   UNL A   1      55.138  37.435  27.119  1.00  0.00    -0.744 OA
ENDBRANCH  89  93
ENDBRANCH  63  86
ENDBRANCH  37  38
ENDBRANCH  30  32
ENDBRANCH  29  30
ENDBRANCH  28  29
ENDBRANCH  27  28
ENDBRANCH  26  27
ENDBRANCH  25  26
ENDBRANCH   1  25
TORSDOF 24
ENDMDL
