MODEL 1
REMARK VINA RESULT:     -10.4      0.000      0.000
REMARK SMILES O=C(OCCOCCOCCOC(=O)c1cc(-c2cc(Cl)ccc2Cl)cc([N+](=O)[O-])c1)c1ccc(-c2c3nc(c(-c4cc(S(=O)(=O)[O-])ccc4F)c4ccc([nH]4)c(-c4cc(S(=O)(=O)[O-])ccc4F)c4nc(c(-c5cc(S(=O)(=O)[O-])ccc5F)c5ccc2[nH]5)C=C4)C=C3)cc1
REMARK SMILES IDX 7 1 6 2 5 3 4 4 3 5 2 6 1 7 32 8 33 9 94 10 34 11 93 12
REMARK SMILES IDX 35 13 36 14 37 15 87 16 38 17 92 18 86 19 88 20 39 21 91 22
REMARK SMILES IDX 85 23 84 24 40 26 72 27 52 28 71 29 53 30 56 31 70 32 89 33
REMARK SMILES IDX 54 34 55 35 69 37 90 38 57 39 41 40 42 41 50 42 43 43 49 44
REMARK SMILES IDX 51 45 48 46 44 47 45 48 46 49 47 50 73 51 74 52 82 53 75 54
REMARK SMILES IDX 81 55 83 56 80 57 76 58 77 59 78 60 79 61 58 62 59 63 67 64
REMARK SMILES IDX 60 65 66 66 68 67 65 68 61 69 62 70 63 71 64 72 8 73 9 74
REMARK SMILES IDX 10 75 11 76 12 77 13 78 14 79 15 80 16 81 31 82 17 83 27 84
REMARK SMILES IDX 26 85 18 86 19 87 24 88 20 89 23 90 25 91 21 92 22 93 28 94
REMARK SMILES IDX 29 95 30 96
REMARK H PARENT 88 25 56 36
REMARK Flexibility Score: inf
ROOT
ATOM      1  C   UNL A   1      35.074  19.608  24.929  1.00  0.00     0.188 C 
ENDROOT
BRANCH   1   2
ATOM      2  O   UNL A   1      35.016  21.004  25.251  1.00  0.00    -0.376 OA
BRANCH   2   3
ATOM      3  C   UNL A   1      36.289  21.584  25.544  1.00  0.00     0.202 C 
BRANCH   3   4
ATOM      4  C   UNL A   1      37.467  20.645  25.264  1.00  0.00     0.261 C 
BRANCH   4   5
ATOM      5  O   UNL A   1      38.718  21.352  25.307  1.00  0.00    -0.460 OA
BRANCH   5   6
ATOM      6  C   UNL A   1      39.513  21.553  26.388  1.00  0.00     0.338 C 
ATOM      7  O   UNL A   1      39.889  20.578  27.036  1.00  0.00    -0.246 OA
BRANCH   6   8
ATOM      8  C   UNL A   1      40.019  22.899  26.796  1.00  0.00     0.060 A 
ATOM      9  C   UNL A   1      39.509  24.115  26.337  1.00  0.00     0.016 A 
ATOM     10  C   UNL A   1      41.031  22.933  27.769  1.00  0.00     0.016 A 
ATOM     11  C   UNL A   1      40.070  25.328  26.738  1.00  0.00     0.010 A 
ATOM     12  C   UNL A   1      41.551  24.149  28.227  1.00  0.00     0.010 A 
ATOM     13  C   UNL A   1      41.095  25.357  27.687  1.00  0.00    -0.014 A 
BRANCH  13  14
ATOM     14  C   UNL A   1      41.707  26.655  28.058  1.00  0.00     0.031 A 
ATOM     15  C   UNL A   1      40.869  27.700  28.738  1.00  0.00     0.074 A 
ATOM     16  C   UNL A   1      43.022  26.863  27.855  1.00  0.00     0.049 A 
ATOM     17  N   UNL A   1      41.195  28.912  29.107  1.00  0.00    -0.248 NA
ATOM     18  C   UNL A   1      39.481  27.325  29.055  1.00  0.00     0.031 C 
ATOM     19  C   UNL A   1      43.956  25.889  27.281  1.00  0.00     0.029 A 
ATOM     20  N   UNL A   1      43.806  27.956  28.121  1.00  0.00    -0.354 N 
ATOM     21  C   UNL A   1      40.058  29.444  29.703  1.00  0.00     0.074 A 
ATOM     22  C   UNL A   1      39.023  28.435  29.616  1.00  0.00     0.031 C 
ATOM     23  C   UNL A   1      45.183  26.436  27.239  1.00  0.00     0.029 A 
ATOM     24  C   UNL A   1      45.111  27.809  27.715  1.00  0.00     0.049 A 
ATOM     25  H   UNL A   1      43.466  28.770  28.561  1.00  0.00     0.167 HD
ATOM     26  C   UNL A   1      39.894  30.661  30.277  1.00  0.00     0.034 A 
ATOM     27  C   UNL A   1      46.124  28.694  27.685  1.00  0.00     0.034 A 
ATOM     28  C   UNL A   1      40.928  31.663  30.343  1.00  0.00     0.049 A 
ATOM     29  C   UNL A   1      45.881  30.084  28.207  1.00  0.00     0.074 A 
ATOM     30  C   UNL A   1      40.871  32.935  30.887  1.00  0.00     0.029 A 
ATOM     31  N   UNL A   1      42.211  31.508  29.833  1.00  0.00    -0.354 N 
ATOM     32  N   UNL A   1      44.789  30.585  28.734  1.00  0.00    -0.248 NA
ATOM     33  C   UNL A   1      47.005  31.024  28.124  1.00  0.00     0.031 C 
ATOM     34  C   UNL A   1      42.101  33.566  30.657  1.00  0.00     0.029 A 
ATOM     35  C   UNL A   1      42.941  32.671  30.016  1.00  0.00     0.049 A 
ATOM     36  H   UNL A   1      42.551  30.690  29.404  1.00  0.00     0.167 HD
ATOM     37  C   UNL A   1      45.097  31.902  29.051  1.00  0.00     0.074 A 
ATOM     38  C   UNL A   1      46.482  32.108  28.678  1.00  0.00     0.031 C 
ATOM     39  C   UNL A   1      44.309  32.859  29.603  1.00  0.00     0.034 A 
BRANCH  26  40
ATOM     40  C   UNL A   1      38.525  30.981  30.815  1.00  0.00     0.023 A 
ATOM     41  C   UNL A   1      37.592  31.722  30.067  1.00  0.00     0.031 A 
ATOM     42  C   UNL A   1      38.169  30.588  32.116  1.00  0.00     0.131 A 
ATOM     43  C   UNL A   1      36.374  32.100  30.651  1.00  0.00     0.055 A 
ATOM     44  C   UNL A   1      36.930  30.914  32.668  1.00  0.00     0.041 A 
ATOM     45  F   UNL A   1      39.033  29.902  32.881  1.00  0.00    -0.206 F 
ATOM     46  C   UNL A   1      36.028  31.685  31.940  1.00  0.00     0.022 A 
BRANCH  43  47
ATOM     47  S   UNL A   1      35.291  33.242  29.747  1.00  0.00     0.124 S 
ATOM     48  O   UNL A   1      36.027  33.419  28.498  1.00  0.00    -0.237 OA
ATOM     49  O   UNL A   1      34.045  32.489  29.652  1.00  0.00    -0.237 OA
ATOM     50  O   UNL A   1      35.242  34.422  30.607  1.00  0.00    -0.744 OA
ENDBRANCH  43  47
ENDBRANCH  26  40
BRANCH  27  51
ATOM     51  C   UNL A   1      47.421  28.354  27.036  1.00  0.00     0.023 A 
ATOM     52  C   UNL A   1      47.522  28.155  25.651  1.00  0.00     0.031 A 
ATOM     53  C   UNL A   1      48.562  28.123  27.825  1.00  0.00     0.131 A 
ATOM     54  C   UNL A   1      48.728  27.687  25.102  1.00  0.00     0.055 A 
ATOM     55  C   UNL A   1      49.765  27.686  27.271  1.00  0.00     0.041 A 
ATOM     56  F   UNL A   1      48.521  28.325  29.153  1.00  0.00    -0.206 F 
ATOM     57  C   UNL A   1      49.850  27.458  25.901  1.00  0.00     0.022 A 
BRANCH  54  58
ATOM     58  S   UNL A   1      48.779  27.286  23.332  1.00  0.00     0.124 S 
ATOM     59  O   UNL A   1      50.214  27.309  23.066  1.00  0.00    -0.237 OA
ATOM     60  O   UNL A   1      48.146  25.972  23.295  1.00  0.00    -0.237 OA
ATOM     61  O   UNL A   1      48.014  28.365  22.712  1.00  0.00    -0.744 OA
ENDBRANCH  54  58
ENDBRANCH  27  51
BRANCH  39  62
ATOM     62  C   UNL A   1      44.958  34.196  29.833  1.00  0.00     0.023 A 
ATOM     63  C   UNL A   1      44.877  35.216  28.870  1.00  0.00     0.031 A 
ATOM     64  C   UNL A   1      45.710  34.429  30.995  1.00  0.00     0.131 A 
ATOM     65  C   UNL A   1      45.590  36.408  29.060  1.00  0.00     0.055 A 
ATOM     66  C   UNL A   1      46.376  35.636  31.203  1.00  0.00     0.041 A 
ATOM     67  F   UNL A   1      45.820  33.480  31.939  1.00  0.00    -0.206 F 
ATOM     68  C   UNL A   1      46.329  36.629  30.227  1.00  0.00     0.022 A 
BRANCH  65  69
ATOM     69  S   UNL A   1      45.606  37.634  27.725  1.00  0.00     0.124 S 
ATOM     70  O   UNL A   1      45.503  38.887  28.464  1.00  0.00    -0.237 OA
ATOM     71  O   UNL A   1      46.888  37.377  27.078  1.00  0.00    -0.237 OA
ATOM     72  O   UNL A   1      44.431  37.285  26.927  1.00  0.00    -0.744 OA
ENDBRANCH  65  69
ENDBRANCH  39  62
ENDBRANCH  13  14
ENDBRANCH   6   8
ENDBRANCH   5   6
ENDBRANCH   4   5
ENDBRANCH   3   4
ENDBRANCH   2   3
ENDBRANCH   1   2
BRANCH   1  73
ATOM     73  C   UNL A   1      33.689  19.116  24.504  1.00  0.00     0.188 C 
BRANCH  73  74
ATOM     74  O   UNL A   1      32.712  20.156  24.379  1.00  0.00    -0.376 OA
BRANCH  74  75
ATOM     75  C   UNL A   1      32.127  20.331  23.091  1.00  0.00     0.202 C 
BRANCH  75  76
ATOM     76  C   UNL A   1      32.360  21.686  22.417  1.00  0.00     0.261 C 
BRANCH  76  77
ATOM     77  O   UNL A   1      33.277  22.562  23.092  1.00  0.00    -0.460 OA
BRANCH  77  78
ATOM     78  C   UNL A   1      33.060  23.873  22.845  1.00  0.00     0.338 C 
ATOM     79  O   UNL A   1      33.395  24.518  21.861  1.00  0.00    -0.246 OA
BRANCH  78  80
ATOM     80  C   UNL A   1      32.445  24.522  24.008  1.00  0.00     0.067 A 
ATOM     81  C   UNL A   1      32.686  25.876  24.283  1.00  0.00     0.025 A 
ATOM     82  C   UNL A   1      31.861  23.685  24.956  1.00  0.00     0.101 A 
ATOM     83  C   UNL A   1      32.342  26.416  25.538  1.00  0.00    -0.009 A 
ATOM     84  C   UNL A   1      31.527  24.221  26.197  1.00  0.00     0.270 A 
ATOM     85  C   UNL A   1      31.725  25.578  26.483  1.00  0.00     0.094 A 
BRANCH  83  86
ATOM     86  C   UNL A   1      32.729  27.787  25.919  1.00  0.00     0.002 A 
ATOM     87  C   UNL A   1      33.800  27.999  26.806  1.00  0.00     0.030 A 
ATOM     88  C   UNL A   1      32.061  28.925  25.407  1.00  0.00     0.048 A 
ATOM     89  C   UNL A   1      34.195  29.296  27.150  1.00  0.00     0.041 A 
ATOM     90  C   UNL A   1      32.471  30.220  25.747  1.00  0.00     0.023 A 
ATOM     91  Cl  UNL A   1      30.679  28.797  24.369  1.00  0.00    -0.084 Cl
ATOM     92  Cl  UNL A   1      35.503  29.533  28.242  1.00  0.00    -0.084 Cl
ATOM     93  C   UNL A   1      33.540  30.405  26.618  1.00  0.00     0.022 A 
ENDBRANCH  83  86
BRANCH  84  94
ATOM     94  N   UNL A   1      31.097  23.321  27.260  1.00  0.00     0.062 N 
ATOM     95  O   UNL A   1      31.982  22.707  27.872  1.00  0.00    -0.258 OA
ATOM     96  O   UNL A   1      29.879  23.199  27.434  1.00  0.00    -0.258 OA
ENDBRANCH  84  94
ENDBRANCH  78  80
ENDBRANCH  77  78
ENDBRANCH  76  77
ENDBRANCH  75  76
ENDBRANCH  74  75
ENDBRANCH  73  74
ENDBRANCH   1  73
TORSDOF 22
ENDMDL
MODEL 2
REMARK VINA RESULT:     -10.4      2.695      8.384
REMARK SMILES O=C(OCCOCCOCCOC(=O)c1cc(-c2cc(Cl)ccc2Cl)cc([N+](=O)[O-])c1)c1ccc(-c2c3nc(c(-c4cc(S(=O)(=O)[O-])ccc4F)c4ccc([nH]4)c(-c4cc(S(=O)(=O)[O-])ccc4F)c4nc(c(-c5cc(S(=O)(=O)[O-])ccc5F)c5ccc2[nH]5)C=C4)C=C3)cc1
REMARK SMILES IDX 7 1 6 2 5 3 4 4 3 5 2 6 1 7 32 8 33 9 94 10 34 11 93 12
REMARK SMILES IDX 35 13 36 14 37 15 87 16 38 17 92 18 86 19 88 20 39 21 91 22
REMARK SMILES IDX 85 23 84 24 40 26 72 27 52 28 71 29 53 30 56 31 70 32 89 33
REMARK SMILES IDX 54 34 55 35 69 37 90 38 57 39 41 40 42 41 50 42 43 43 49 44
REMARK SMILES IDX 51 45 48 46 44 47 45 48 46 49 47 50 73 51 74 52 82 53 75 54
REMARK SMILES IDX 81 55 83 56 80 57 76 58 77 59 78 60 79 61 58 62 59 63 67 64
REMARK SMILES IDX 60 65 66 66 68 67 65 68 61 69 62 70 63 71 64 72 8 73 9 74
REMARK SMILES IDX 10 75 11 76 12 77 13 78 14 79 15 80 16 81 31 82 17 83 27 84
REMARK SMILES IDX 26 85 18 86 19 87 24 88 20 89 23 90 25 91 21 92 22 93 28 94
REMARK SMILES IDX 29 95 30 96
REMARK H PARENT 88 25 56 36
REMARK Flexibility Score: inf
ROOT
ATOM      1  C   UNL A   1      36.841  21.900  25.569  1.00  0.00     0.188 C 
ENDROOT
BRANCH   1   2
ATOM      2  O   UNL A   1      38.210  21.497  25.427  1.00  0.00    -0.376 OA
BRANCH   2   3
ATOM      3  C   UNL A   1      38.372  20.181  24.894  1.00  0.00     0.202 C 
BRANCH   3   4
ATOM      4  C   UNL A   1      39.073  19.216  25.855  1.00  0.00     0.261 C 
BRANCH   4   5
ATOM      5  O   UNL A   1      40.489  19.174  25.612  1.00  0.00    -0.460 OA
BRANCH   5   6
ATOM      6  C   UNL A   1      41.477  19.640  26.418  1.00  0.00     0.338 C 
ATOM      7  O   UNL A   1      42.251  18.835  26.932  1.00  0.00    -0.246 OA
BRANCH   6   8
ATOM      8  C   UNL A   1      41.723  21.095  26.657  1.00  0.00     0.060 A 
ATOM      9  C   UNL A   1      41.531  22.103  25.710  1.00  0.00     0.016 A 
ATOM     10  C   UNL A   1      42.100  21.473  27.956  1.00  0.00     0.016 A 
ATOM     11  C   UNL A   1      41.825  23.433  26.005  1.00  0.00     0.010 A 
ATOM     12  C   UNL A   1      42.330  22.816  28.278  1.00  0.00     0.010 A 
ATOM     13  C   UNL A   1      42.226  23.804  27.291  1.00  0.00    -0.014 A 
BRANCH  13  14
ATOM     14  C   UNL A   1      42.581  25.216  27.565  1.00  0.00     0.031 A 
ATOM     15  C   UNL A   1      43.930  25.734  27.153  1.00  0.00     0.074 A 
ATOM     16  C   UNL A   1      41.671  26.047  28.110  1.00  0.00     0.049 A 
ATOM     17  N   UNL A   1      44.454  26.918  27.335  1.00  0.00    -0.248 NA
ATOM     18  C   UNL A   1      44.800  24.793  26.429  1.00  0.00     0.031 C 
ATOM     19  C   UNL A   1      40.299  25.680  28.472  1.00  0.00     0.029 A 
ATOM     20  N   UNL A   1      41.757  27.375  28.440  1.00  0.00    -0.354 N 
ATOM     21  C   UNL A   1      45.712  26.869  26.746  1.00  0.00     0.074 A 
ATOM     22  C   UNL A   1      45.886  25.527  26.230  1.00  0.00     0.031 C 
ATOM     23  C   UNL A   1      39.679  26.761  28.976  1.00  0.00     0.029 A 
ATOM     24  C   UNL A   1      40.621  27.868  29.035  1.00  0.00     0.049 A 
ATOM     25  H   UNL A   1      42.558  27.923  28.268  1.00  0.00     0.167 HD
ATOM     26  C   UNL A   1      46.635  27.856  26.639  1.00  0.00     0.034 A 
ATOM     27  C   UNL A   1      40.379  29.063  29.607  1.00  0.00     0.034 A 
ATOM     28  C   UNL A   1      46.456  29.184  27.171  1.00  0.00     0.049 A 
ATOM     29  C   UNL A   1      41.468  30.100  29.593  1.00  0.00     0.074 A 
ATOM     30  C   UNL A   1      47.328  30.258  27.134  1.00  0.00     0.029 A 
ATOM     31  N   UNL A   1      45.325  29.615  27.853  1.00  0.00    -0.354 N 
ATOM     32  N   UNL A   1      42.667  30.027  29.064  1.00  0.00    -0.248 NA
ATOM     33  C   UNL A   1      41.171  31.374  30.257  1.00  0.00     0.031 C 
ATOM     34  C   UNL A   1      46.746  31.319  27.841  1.00  0.00     0.029 A 
ATOM     35  C   UNL A   1      45.491  30.925  28.272  1.00  0.00     0.049 A 
ATOM     36  H   UNL A   1      44.522  29.068  28.014  1.00  0.00     0.167 HD
ATOM     37  C   UNL A   1      43.267  31.252  29.329  1.00  0.00     0.074 A 
ATOM     38  C   UNL A   1      42.289  32.051  30.041  1.00  0.00     0.031 C 
ATOM     39  C   UNL A   1      44.514  31.684  29.011  1.00  0.00     0.034 A 
BRANCH  26  40
ATOM     40  C   UNL A   1      47.938  27.500  25.974  1.00  0.00     0.023 A 
ATOM     41  C   UNL A   1      48.130  27.665  24.591  1.00  0.00     0.031 A 
ATOM     42  C   UNL A   1      48.982  26.935  26.727  1.00  0.00     0.131 A 
ATOM     43  C   UNL A   1      49.316  27.211  23.993  1.00  0.00     0.055 A 
ATOM     44  C   UNL A   1      50.183  26.542  26.135  1.00  0.00     0.041 A 
ATOM     45  F   UNL A   1      48.839  26.732  28.046  1.00  0.00    -0.206 F 
ATOM     46  C   UNL A   1      50.352  26.668  24.759  1.00  0.00     0.022 A 
BRANCH  43  47
ATOM     47  S   UNL A   1      49.442  27.230  22.183  1.00  0.00     0.124 S 
ATOM     48  O   UNL A   1      48.875  28.537  21.862  1.00  0.00    -0.237 OA
ATOM     49  O   UNL A   1      50.877  27.087  21.964  1.00  0.00    -0.237 OA
ATOM     50  O   UNL A   1      48.632  26.086  21.770  1.00  0.00    -0.744 OA
ENDBRANCH  43  47
ENDBRANCH  26  40
BRANCH  27  51
ATOM     51  C   UNL A   1      39.113  29.316  30.349  1.00  0.00     0.023 A 
ATOM     52  C   UNL A   1      38.131  30.190  29.858  1.00  0.00     0.031 A 
ATOM     53  C   UNL A   1      38.922  28.753  31.625  1.00  0.00     0.131 A 
ATOM     54  C   UNL A   1      37.026  30.516  30.660  1.00  0.00     0.055 A 
ATOM     55  C   UNL A   1      37.808  29.058  32.405  1.00  0.00     0.041 A 
ATOM     56  F   UNL A   1      39.821  27.891  32.127  1.00  0.00    -0.206 F 
ATOM     57  C   UNL A   1      36.854  29.951  31.927  1.00  0.00     0.022 A 
BRANCH  54  58
ATOM     58  S   UNL A   1      35.858  31.771  30.063  1.00  0.00     0.124 S 
ATOM     59  O   UNL A   1      36.734  32.921  29.871  1.00  0.00    -0.237 OA
ATOM     60  O   UNL A   1      35.340  31.156  28.845  1.00  0.00    -0.237 OA
ATOM     61  O   UNL A   1      34.896  31.895  31.156  1.00  0.00    -0.744 OA
ENDBRANCH  54  58
ENDBRANCH  27  51
BRANCH  39  62
ATOM     62  C   UNL A   1      44.854  33.085  29.435  1.00  0.00     0.023 A 
ATOM     63  C   UNL A   1      45.464  33.340  30.675  1.00  0.00     0.031 A 
ATOM     64  C   UNL A   1      44.514  34.176  28.619  1.00  0.00     0.131 A 
ATOM     65  C   UNL A   1      45.661  34.663  31.093  1.00  0.00     0.055 A 
ATOM     66  C   UNL A   1      44.760  35.489  29.018  1.00  0.00     0.041 A 
ATOM     67  F   UNL A   1      43.924  33.980  27.429  1.00  0.00    -0.206 F 
ATOM     68  C   UNL A   1      45.324  35.740  30.266  1.00  0.00     0.022 A 
BRANCH  65  69
ATOM     69  S   UNL A   1      46.290  34.961  32.767  1.00  0.00     0.124 S 
ATOM     70  O   UNL A   1      47.687  35.296  32.510  1.00  0.00    -0.237 OA
ATOM     71  O   UNL A   1      45.446  36.059  33.229  1.00  0.00    -0.237 OA
ATOM     72  O   UNL A   1      46.071  33.686  33.447  1.00  0.00    -0.744 OA
ENDBRANCH  65  69
ENDBRANCH  39  62
ENDBRANCH  13  14
ENDBRANCH   6   8
ENDBRANCH   5   6
ENDBRANCH   4   5
ENDBRANCH   3   4
ENDBRANCH   2   3
ENDBRANCH   1   2
BRANCH   1  73
ATOM     73  C   UNL A   1      36.761  23.423  25.703  1.00  0.00     0.188 C 
BRANCH  73  74
ATOM     74  O   UNL A   1      35.808  24.039  24.829  1.00  0.00    -0.376 OA
BRANCH  74  75
ATOM     75  C   UNL A   1      34.898  24.959  25.424  1.00  0.00     0.202 C 
BRANCH  75  76
ATOM     76  C   UNL A   1      34.069  25.815  24.462  1.00  0.00     0.261 C 
BRANCH  76  77
ATOM     77  O   UNL A   1      33.738  25.191  23.211  1.00  0.00    -0.460 OA
BRANCH  77  78
ATOM     78  C   UNL A   1      32.456  24.770  23.135  1.00  0.00     0.338 C 
ATOM     79  O   UNL A   1      31.537  25.271  22.500  1.00  0.00    -0.246 OA
BRANCH  78  80
ATOM     80  C   UNL A   1      32.227  23.643  24.045  1.00  0.00     0.067 A 
ATOM     81  C   UNL A   1      32.669  22.353  23.715  1.00  0.00     0.025 A 
ATOM     82  C   UNL A   1      31.327  23.853  25.087  1.00  0.00     0.101 A 
ATOM     83  C   UNL A   1      32.199  21.238  24.436  1.00  0.00    -0.009 A 
ATOM     84  C   UNL A   1      30.861  22.748  25.794  1.00  0.00     0.270 A 
ATOM     85  C   UNL A   1      31.314  21.454  25.506  1.00  0.00     0.094 A 
BRANCH  83  86
ATOM     86  C   UNL A   1      32.512  19.860  24.012  1.00  0.00     0.002 A 
ATOM     87  C   UNL A   1      33.010  18.930  24.942  1.00  0.00     0.030 A 
ATOM     88  C   UNL A   1      32.317  19.422  22.681  1.00  0.00     0.048 A 
ATOM     89  C   UNL A   1      33.282  17.613  24.558  1.00  0.00     0.041 A 
ATOM     90  C   UNL A   1      32.580  18.099  22.307  1.00  0.00     0.023 A 
ATOM     91  Cl  UNL A   1      31.785  20.491  21.424  1.00  0.00    -0.084 Cl
ATOM     92  Cl  UNL A   1      33.896  16.492  25.710  1.00  0.00    -0.084 Cl
ATOM     93  C   UNL A   1      33.061  17.193  23.247  1.00  0.00     0.022 A 
ENDBRANCH  83  86
BRANCH  84  94
ATOM     94  N   UNL A   1      29.778  22.930  26.753  1.00  0.00     0.062 N 
ATOM     95  O   UNL A   1      29.068  21.945  26.995  1.00  0.00    -0.258 OA
ATOM     96  O   UNL A   1      29.619  24.068  27.209  1.00  0.00    -0.258 OA
ENDBRANCH  84  94
ENDBRANCH  78  80
ENDBRANCH  77  78
ENDBRANCH  76  77
ENDBRANCH  75  76
ENDBRANCH  74  75
ENDBRANCH  73  74
ENDBRANCH   1  73
TORSDOF 22
ENDMDL
MODEL 3
REMARK VINA RESULT:     -10.3      4.459      8.239
REMARK SMILES O=C(OCCOCCOCCOC(=O)c1cc(-c2cc(Cl)ccc2Cl)cc([N+](=O)[O-])c1)c1ccc(-c2c3nc(c(-c4cc(S(=O)(=O)[O-])ccc4F)c4ccc([nH]4)c(-c4cc(S(=O)(=O)[O-])ccc4F)c4nc(c(-c5cc(S(=O)(=O)[O-])ccc5F)c5ccc2[nH]5)C=C4)C=C3)cc1
REMARK SMILES IDX 7 1 6 2 5 3 4 4 3 5 2 6 1 7 32 8 33 9 94 10 34 11 93 12
REMARK SMILES IDX 35 13 36 14 37 15 87 16 38 17 92 18 86 19 88 20 39 21 91 22
REMARK SMILES IDX 85 23 84 24 40 26 72 27 52 28 71 29 53 30 56 31 70 32 89 33
REMARK SMILES IDX 54 34 55 35 69 37 90 38 57 39 41 40 42 41 50 42 43 43 49 44
REMARK SMILES IDX 51 45 48 46 44 47 45 48 46 49 47 50 73 51 74 52 82 53 75 54
REMARK SMILES IDX 81 55 83 56 80 57 76 58 77 59 78 60 79 61 58 62 59 63 67 64
REMARK SMILES IDX 60 65 66 66 68 67 65 68 61 69 62 70 63 71 64 72 8 73 9 74
REMARK SMILES IDX 10 75 11 76 12 77 13 78 14 79 15 80 16 81 31 82 17 83 27 84
REMARK SMILES IDX 26 85 18 86 19 87 24 88 20 89 23 90 25 91 21 92 22 93 28 94
REMARK SMILES IDX 29 95 30 96
REMARK H PARENT 88 25 56 36
REMARK Flexibility Score: inf
ROOT
ATOM      1  C   UNL A   1      32.447  28.260  25.518  1.00  0.00     0.188 C 
ENDROOT
BRANCH   1   2
ATOM      2  O   UNL A   1      32.084  29.575  25.076  1.00  0.00    -0.376 OA
BRANCH   2   3
ATOM      3  C   UNL A   1      31.936  30.520  26.138  1.00  0.00     0.202 C 
BRANCH   3   4
ATOM      4  C   UNL A   1      32.896  30.282  27.307  1.00  0.00     0.261 C 
BRANCH   4   5
ATOM      5  O   UNL A   1      33.983  31.223  27.290  1.00  0.00    -0.460 OA
BRANCH   5   6
ATOM      6  C   UNL A   1      34.658  31.720  28.357  1.00  0.00     0.338 C 
ATOM      7  O   UNL A   1      34.152  32.635  29.005  1.00  0.00    -0.246 OA
BRANCH   6   8
ATOM      8  C   UNL A   1      35.960  31.164  28.837  1.00  0.00     0.060 A 
ATOM      9  C   UNL A   1      37.210  31.739  28.596  1.00  0.00     0.016 A 
ATOM     10  C   UNL A   1      35.905  30.021  29.651  1.00  0.00     0.016 A 
ATOM     11  C   UNL A   1      38.381  31.130  29.046  1.00  0.00     0.010 A 
ATOM     12  C   UNL A   1      37.073  29.444  30.164  1.00  0.00     0.010 A 
ATOM     13  C   UNL A   1      38.324  29.978  29.835  1.00  0.00    -0.014 A 
BRANCH  13  14
ATOM     14  C   UNL A   1      39.584  29.322  30.257  1.00  0.00     0.031 A 
ATOM     15  C   UNL A   1      40.314  29.833  31.467  1.00  0.00     0.074 A 
ATOM     16  C   UNL A   1      40.029  28.230  29.605  1.00  0.00     0.049 A 
ATOM     17  N   UNL A   1      41.448  29.433  31.981  1.00  0.00    -0.248 NA
ATOM     18  C   UNL A   1      39.673  30.934  32.204  1.00  0.00     0.031 C 
ATOM     19  C   UNL A   1      39.359  27.591  28.469  1.00  0.00     0.029 A 
ATOM     20  N   UNL A   1      41.141  27.456  29.813  1.00  0.00    -0.354 N 
ATOM     21  C   UNL A   1      41.657  30.228  33.102  1.00  0.00     0.074 A 
ATOM     22  C   UNL A   1      40.548  31.156  33.174  1.00  0.00     0.031 C 
ATOM     23  C   UNL A   1      40.080  26.524  28.084  1.00  0.00     0.029 A 
ATOM     24  C   UNL A   1      41.286  26.445  28.893  1.00  0.00     0.049 A 
ATOM     25  H   UNL A   1      41.776  27.609  30.551  1.00  0.00     0.167 HD
ATOM     26  C   UNL A   1      42.677  30.182  33.993  1.00  0.00     0.034 A 
ATOM     27  C   UNL A   1      42.299  25.580  28.694  1.00  0.00     0.034 A 
ATOM     28  C   UNL A   1      43.784  29.264  33.901  1.00  0.00     0.049 A 
ATOM     29  C   UNL A   1      43.485  25.637  29.617  1.00  0.00     0.074 A 
ATOM     30  C   UNL A   1      44.879  29.137  34.737  1.00  0.00     0.029 A 
ATOM     31  N   UNL A   1      43.942  28.317  32.896  1.00  0.00    -0.354 N 
ATOM     32  N   UNL A   1      43.686  26.419  30.652  1.00  0.00    -0.248 NA
ATOM     33  C   UNL A   1      44.578  24.698  29.342  1.00  0.00     0.031 C 
ATOM     34  C   UNL A   1      45.724  28.153  34.208  1.00  0.00     0.029 A 
ATOM     35  C   UNL A   1      45.131  27.629  33.071  1.00  0.00     0.049 A 
ATOM     36  H   UNL A   1      43.300  28.158  32.166  1.00  0.00     0.167 HD
ATOM     37  C   UNL A   1      44.930  26.062  31.155  1.00  0.00     0.074 A 
ATOM     38  C   UNL A   1      45.421  24.980  30.324  1.00  0.00     0.031 C 
ATOM     39  C   UNL A   1      45.611  26.579  32.209  1.00  0.00     0.034 A 
BRANCH  26  40
ATOM     40  C   UNL A   1      42.660  31.203  35.100  1.00  0.00     0.023 A 
ATOM     41  C   UNL A   1      43.089  32.526  34.892  1.00  0.00     0.031 A 
ATOM     42  C   UNL A   1      42.261  30.830  36.395  1.00  0.00     0.131 A 
ATOM     43  C   UNL A   1      43.168  33.411  35.977  1.00  0.00     0.055 A 
ATOM     44  C   UNL A   1      42.284  31.734  37.458  1.00  0.00     0.041 A 
ATOM     45  F   UNL A   1      41.868  29.573  36.652  1.00  0.00    -0.206 F 
ATOM     46  C   UNL A   1      42.750  33.030  37.256  1.00  0.00     0.022 A 
BRANCH  43  47
ATOM     47  S   UNL A   1      43.936  35.035  35.723  1.00  0.00     0.124 S 
ATOM     48  O   UNL A   1      44.656  34.828  34.469  1.00  0.00    -0.237 OA
ATOM     49  O   UNL A   1      42.781  35.924  35.655  1.00  0.00    -0.237 OA
ATOM     50  O   UNL A   1      44.783  35.204  36.901  1.00  0.00    -0.744 OA
ENDBRANCH  43  47
ENDBRANCH  26  40
BRANCH  27  51
ATOM     51  C   UNL A   1      42.311  24.672  27.513  1.00  0.00     0.023 A 
ATOM     52  C   UNL A   1      41.596  23.465  27.503  1.00  0.00     0.031 A 
ATOM     53  C   UNL A   1      43.135  24.965  26.411  1.00  0.00     0.131 A 
ATOM     54  C   UNL A   1      41.758  22.570  26.433  1.00  0.00     0.055 A 
ATOM     55  C   UNL A   1      43.269  24.085  25.338  1.00  0.00     0.041 A 
ATOM     56  F   UNL A   1      43.819  26.120  26.364  1.00  0.00    -0.206 F 
ATOM     57  C   UNL A   1      42.584  22.875  25.349  1.00  0.00     0.022 A 
BRANCH  54  58
ATOM     58  S   UNL A   1      40.945  20.949  26.526  1.00  0.00     0.124 S 
ATOM     59  O   UNL A   1      41.858  20.117  25.750  1.00  0.00    -0.237 OA
ATOM     60  O   UNL A   1      40.921  20.698  27.963  1.00  0.00    -0.237 OA
ATOM     61  O   UNL A   1      39.640  21.182  25.911  1.00  0.00    -0.744 OA
ENDBRANCH  54  58
ENDBRANCH  27  51
BRANCH  39  62
ATOM     62  C   UNL A   1      46.945  25.952  32.503  1.00  0.00     0.023 A 
ATOM     63  C   UNL A   1      48.074  26.249  31.721  1.00  0.00     0.031 A 
ATOM     64  C   UNL A   1      47.074  25.009  33.536  1.00  0.00     0.131 A 
ATOM     65  C   UNL A   1      49.275  25.560  31.946  1.00  0.00     0.055 A 
ATOM     66  C   UNL A   1      48.285  24.365  33.787  1.00  0.00     0.041 A 
ATOM     67  F   UNL A   1      46.021  24.690  34.304  1.00  0.00    -0.206 F 
ATOM     68  C   UNL A   1      49.390  24.629  32.982  1.00  0.00     0.022 A 
BRANCH  65  69
ATOM     69  S   UNL A   1      50.661  25.839  30.812  1.00  0.00     0.124 S 
ATOM     70  O   UNL A   1      50.651  27.291  30.672  1.00  0.00    -0.237 OA
ATOM     71  O   UNL A   1      51.788  25.277  31.549  1.00  0.00    -0.237 OA
ATOM     72  O   UNL A   1      50.277  25.096  29.612  1.00  0.00    -0.744 OA
ENDBRANCH  65  69
ENDBRANCH  39  62
ENDBRANCH  13  14
ENDBRANCH   6   8
ENDBRANCH   5   6
ENDBRANCH   4   5
ENDBRANCH   3   4
ENDBRANCH   2   3
ENDBRANCH   1   2
BRANCH   1  73
ATOM     73  C   UNL A   1      31.266  27.305  25.327  1.00  0.00     0.188 C 
BRANCH  73  74
ATOM     74  O   UNL A   1      31.551  26.183  24.485  1.00  0.00    -0.376 OA
BRANCH  74  75
ATOM     75  C   UNL A   1      32.392  26.426  23.360  1.00  0.00     0.202 C 
BRANCH  75  76
ATOM     76  C   UNL A   1      33.885  26.141  23.552  1.00  0.00     0.261 C 
BRANCH  76  77
ATOM     77  O   UNL A   1      34.255  24.753  23.538  1.00  0.00    -0.460 OA
BRANCH  77  78
ATOM     78  C   UNL A   1      34.665  24.286  24.738  1.00  0.00     0.338 C 
ATOM     79  O   UNL A   1      35.660  24.614  25.372  1.00  0.00    -0.246 OA
BRANCH  78  80
ATOM     80  C   UNL A   1      33.808  23.184  25.184  1.00  0.00     0.067 A 
ATOM     81  C   UNL A   1      33.982  21.888  24.676  1.00  0.00     0.025 A 
ATOM     82  C   UNL A   1      32.662  23.531  25.898  1.00  0.00     0.101 A 
ATOM     83  C   UNL A   1      32.990  20.909  24.877  1.00  0.00    -0.009 A 
ATOM     84  C   UNL A   1      31.681  22.562  26.089  1.00  0.00     0.270 A 
ATOM     85  C   UNL A   1      31.848  21.253  25.622  1.00  0.00     0.094 A 
BRANCH  83  86
ATOM     86  C   UNL A   1      33.065  19.591  24.219  1.00  0.00     0.002 A 
ATOM     87  C   UNL A   1      33.687  18.510  24.869  1.00  0.00     0.030 A 
ATOM     88  C   UNL A   1      32.513  19.361  22.936  1.00  0.00     0.048 A 
ATOM     89  C   UNL A   1      33.738  17.249  24.267  1.00  0.00     0.041 A 
ATOM     90  C   UNL A   1      32.557  18.092  22.346  1.00  0.00     0.023 A 
ATOM     91  Cl  UNL A   1      31.791  20.627  21.999  1.00  0.00    -0.084 Cl
ATOM     92  Cl  UNL A   1      34.509  15.942  25.077  1.00  0.00    -0.084 Cl
ATOM     93  C   UNL A   1      33.168  17.035  23.013  1.00  0.00     0.022 A 
ENDBRANCH  83  86
BRANCH  84  94
ATOM     94  N   UNL A   1      30.400  22.960  26.661  1.00  0.00     0.062 N 
ATOM     95  O   UNL A   1      30.310  24.119  27.088  1.00  0.00    -0.258 OA
ATOM     96  O   UNL A   1      29.520  22.094  26.723  1.00  0.00    -0.258 OA
ENDBRANCH  84  94
ENDBRANCH  78  80
ENDBRANCH  77  78
ENDBRANCH  76  77
ENDBRANCH  75  76
ENDBRANCH  74  75
ENDBRANCH  73  74
ENDBRANCH   1  73
TORSDOF 22
ENDMDL
