MODEL 1
REMARK VINA RESULT:     -10.6      0.000      0.000
REMARK SMILES C[C@H]1[C@@H](C(=O)OCCOCCOCCOC(=O)c2ccc(-c3c4nc(c(-c5cc(S(=O)(=O)[O-])ccc5F)c5ccc([nH]5)c(-c5cc(S(=O)(=O)[O-])ccc5F)c5nc(c(-c6cc(S(=O)(=O)[O-])ccc6F)c6ccc3[nH]6)C=C5)C=C4)cc2)CCN1C(=O)NC1CCCCC1
REMARK SMILES IDX 11 1 10 2 9 3 8 4 7 5 6 6 4 7 5 8 3 9 1 10 2 11 83 12 81 13
REMARK SMILES IDX 82 14 84 15 85 16 86 17 87 19 88 20 92 21 89 22 91 23 90 24
REMARK SMILES IDX 12 25 13 26 14 27 15 28 16 29 17 30 18 31 19 32 80 33 20 34
REMARK SMILES IDX 79 35 21 36 22 37 23 38 73 39 24 40 78 41 72 42 74 43 25 44
REMARK SMILES IDX 77 45 71 46 70 47 26 49 58 50 38 51 57 52 39 53 42 54 56 55
REMARK SMILES IDX 75 56 40 57 41 58 55 60 76 61 43 62 27 63 28 64 36 65 29 66
REMARK SMILES IDX 35 67 37 68 34 69 30 70 31 71 32 72 33 73 59 74 60 75 68 76
REMARK SMILES IDX 61 77 67 78 69 79 66 80 62 81 63 82 64 83 65 84 44 85 45 86
REMARK SMILES IDX 53 87 46 88 52 89 54 90 51 91 47 92 48 93 49 94 50 95
REMARK H PARENT 86 18 74 48 42 59
REMARK Flexibility Score: inf
ROOT
ATOM      1  C   UNL A   1      32.443  29.873  25.412  1.00  0.00     0.188 C 
ENDROOT
BRANCH   1   2
ATOM      2  C   UNL A   1      33.672  28.953  25.363  1.00  0.00     0.188 C 
BRANCH   2   3
ATOM      3  O   UNL A   1      34.151  28.478  24.115  1.00  0.00    -0.376 OA
BRANCH   3   4
ATOM      4  C   UNL A   1      33.234  28.240  23.056  1.00  0.00     0.202 C 
BRANCH   4   5
ATOM      5  C   UNL A   1      32.738  26.808  22.857  1.00  0.00     0.261 C 
BRANCH   5   6
ATOM      6  O   UNL A   1      31.363  26.807  22.448  1.00  0.00    -0.463 OA
BRANCH   6   7
ATOM      7  C   UNL A   1      30.408  26.961  23.388  1.00  0.00     0.311 C 
ATOM      8  O   UNL A   1      29.863  28.027  23.646  1.00  0.00    -0.252 OA
BRANCH   7   9
ATOM      9  C   UNL A   1      30.038  25.668  24.088  1.00  0.00     0.123 C 
ATOM     10  C   UNL A   1      31.421  26.298  26.301  1.00  0.00     0.032 C 
ATOM     11  C   UNL A   1      30.397  25.423  25.561  1.00  0.00     0.098 C 
ATOM     12  N   UNL A   1      30.690  24.007  25.709  1.00  0.00    -0.321 N 
ATOM     13  C   UNL A   1      30.442  24.397  23.346  1.00  0.00     0.039 C 
ATOM     14  C   UNL A   1      30.905  23.401  24.406  1.00  0.00     0.122 C 
BRANCH  12  15
ATOM     15  C   UNL A   1      30.792  23.214  26.811  1.00  0.00     0.317 C 
ATOM     16  O   UNL A   1      29.820  23.075  27.567  1.00  0.00    -0.249 OA
ATOM     17  N   UNL A   1      31.896  22.556  27.213  1.00  0.00    -0.335 N 
ATOM     18  H   UNL A   1      31.702  22.123  28.076  1.00  0.00     0.165 HD
BRANCH  17  19
ATOM     19  C   UNL A   1      33.298  22.239  26.834  1.00  0.00     0.083 C 
ATOM     20  C   UNL A   1      33.451  21.269  25.678  1.00  0.00     0.025 C 
ATOM     21  C   UNL A   1      34.052  23.541  26.485  1.00  0.00     0.025 C 
ATOM     22  C   UNL A   1      34.816  21.059  25.076  1.00  0.00     0.002 C 
ATOM     23  C   UNL A   1      35.463  23.281  25.937  1.00  0.00     0.002 C 
ATOM     24  C   UNL A   1      35.448  22.372  24.715  1.00  0.00     0.000 C 
ENDBRANCH  17  19
ENDBRANCH  12  15
ENDBRANCH   7   9
ENDBRANCH   6   7
ENDBRANCH   5   6
ENDBRANCH   4   5
ENDBRANCH   3   4
ENDBRANCH   2   3
ENDBRANCH   1   2
BRANCH   1  25
ATOM     25  O   UNL A   1      32.060  30.536  26.603  1.00  0.00    -0.376 OA
BRANCH  25  26
ATOM     26  C   UNL A   1      31.204  31.660  26.498  1.00  0.00     0.202 C 
BRANCH  26  27
ATOM     27  C   UNL A   1      31.775  33.051  26.796  1.00  0.00     0.261 C 
BRANCH  27  28
ATOM     28  O   UNL A   1      33.209  33.101  26.835  1.00  0.00    -0.460 OA
BRANCH  28  29
ATOM     29  C   UNL A   1      33.749  33.619  27.970  1.00  0.00     0.338 C 
ATOM     30  O   UNL A   1      33.296  34.527  28.651  1.00  0.00    -0.246 OA
BRANCH  29  31
ATOM     31  C   UNL A   1      34.874  32.761  28.394  1.00  0.00     0.060 A 
ATOM     32  C   UNL A   1      34.673  31.375  28.512  1.00  0.00     0.016 A 
ATOM     33  C   UNL A   1      36.116  33.321  28.678  1.00  0.00     0.016 A 
ATOM     34  C   UNL A   1      35.719  30.542  28.915  1.00  0.00     0.010 A 
ATOM     35  C   UNL A   1      37.147  32.494  29.123  1.00  0.00     0.010 A 
ATOM     36  C   UNL A   1      36.949  31.107  29.264  1.00  0.00    -0.014 A 
BRANCH  36  37
ATOM     37  C   UNL A   1      37.968  30.323  29.999  1.00  0.00     0.031 A 
ATOM     38  C   UNL A   1      38.184  30.656  31.447  1.00  0.00     0.074 A 
ATOM     39  C   UNL A   1      38.723  29.392  29.391  1.00  0.00     0.049 A 
ATOM     40  N   UNL A   1      39.175  30.340  32.235  1.00  0.00    -0.248 NA
ATOM     41  C   UNL A   1      37.142  31.478  32.080  1.00  0.00     0.031 C 
ATOM     42  C   UNL A   1      38.539  28.913  28.023  1.00  0.00     0.029 A 
ATOM     43  N   UNL A   1      39.824  28.706  29.844  1.00  0.00    -0.354 N 
ATOM     44  C   UNL A   1      38.893  30.952  33.452  1.00  0.00     0.074 A 
ATOM     45  C   UNL A   1      37.645  31.666  33.289  1.00  0.00     0.031 C 
ATOM     46  C   UNL A   1      39.518  28.035  27.736  1.00  0.00     0.029 A 
ATOM     47  C   UNL A   1      40.435  27.948  28.873  1.00  0.00     0.049 A 
ATOM     48  H   UNL A   1      40.143  28.753  30.775  1.00  0.00     0.167 HD
ATOM     49  C   UNL A   1      39.623  30.928  34.593  1.00  0.00     0.034 A 
ATOM     50  C   UNL A   1      41.626  27.314  28.884  1.00  0.00     0.034 A 
ATOM     51  C   UNL A   1      40.871  30.220  34.719  1.00  0.00     0.049 A 
ATOM     52  C   UNL A   1      42.487  27.397  30.127  1.00  0.00     0.074 A 
ATOM     53  C   UNL A   1      41.704  30.131  35.820  1.00  0.00     0.029 A 
ATOM     54  N   UNL A   1      41.475  29.490  33.703  1.00  0.00    -0.354 N 
ATOM     55  N   UNL A   1      42.246  28.017  31.261  1.00  0.00    -0.248 NA
ATOM     56  C   UNL A   1      43.784  26.705  30.091  1.00  0.00     0.031 C 
ATOM     57  C   UNL A   1      42.845  29.417  35.446  1.00  0.00     0.029 A 
ATOM     58  C   UNL A   1      42.682  28.974  34.143  1.00  0.00     0.049 A 
ATOM     59  H   UNL A   1      41.097  29.357  32.803  1.00  0.00     0.167 HD
ATOM     60  C   UNL A   1      43.337  27.747  32.085  1.00  0.00     0.074 A 
ATOM     61  C   UNL A   1      44.242  26.918  31.317  1.00  0.00     0.031 C 
ATOM     62  C   UNL A   1      43.565  28.136  33.364  1.00  0.00     0.034 A 
BRANCH  49  63
ATOM     63  C   UNL A   1      39.123  31.752  35.753  1.00  0.00     0.023 A 
ATOM     64  C   UNL A   1      38.430  31.178  36.832  1.00  0.00     0.031 A 
ATOM     65  C   UNL A   1      39.311  33.146  35.758  1.00  0.00     0.131 A 
ATOM     66  C   UNL A   1      37.887  32.001  37.831  1.00  0.00     0.055 A 
ATOM     67  C   UNL A   1      38.844  33.949  36.798  1.00  0.00     0.041 A 
ATOM     68  F   UNL A   1      39.940  33.755  34.739  1.00  0.00    -0.206 F 
ATOM     69  C   UNL A   1      38.114  33.380  37.836  1.00  0.00     0.022 A 
BRANCH  66  70
ATOM     70  S   UNL A   1      36.753  31.263  39.038  1.00  0.00     0.124 S 
ATOM     71  O   UNL A   1      35.668  32.242  39.060  1.00  0.00    -0.237 OA
ATOM     72  O   UNL A   1      36.440  29.975  38.429  1.00  0.00    -0.237 OA
ATOM     73  O   UNL A   1      37.550  31.198  40.262  1.00  0.00    -0.744 OA
ENDBRANCH  66  70
ENDBRANCH  49  63
BRANCH  50  74
ATOM     74  C   UNL A   1      42.122  26.604  27.666  1.00  0.00     0.023 A 
ATOM     75  C   UNL A   1      41.877  25.235  27.475  1.00  0.00     0.031 A 
ATOM     76  C   UNL A   1      42.902  27.272  26.705  1.00  0.00     0.131 A 
ATOM     77  C   UNL A   1      42.446  24.568  26.377  1.00  0.00     0.055 A 
ATOM     78  C   UNL A   1      43.414  26.618  25.582  1.00  0.00     0.041 A 
ATOM     79  F   UNL A   1      43.179  28.579  26.841  1.00  0.00    -0.206 F 
ATOM     80  C   UNL A   1      43.198  25.253  25.421  1.00  0.00     0.022 A 
BRANCH  77  81
ATOM     81  S   UNL A   1      42.274  22.765  26.274  1.00  0.00     0.124 S 
ATOM     82  O   UNL A   1      43.143  22.323  27.360  1.00  0.00    -0.237 OA
ATOM     83  O   UNL A   1      40.843  22.584  26.481  1.00  0.00    -0.237 OA
ATOM     84  O   UNL A   1      42.752  22.455  24.928  1.00  0.00    -0.744 OA
ENDBRANCH  77  81
ENDBRANCH  50  74
BRANCH  62  85
ATOM     85  C   UNL A   1      44.794  27.599  34.057  1.00  0.00     0.023 A 
ATOM     86  C   UNL A   1      44.802  26.367  34.733  1.00  0.00     0.031 A 
ATOM     87  C   UNL A   1      46.000  28.322  33.981  1.00  0.00     0.131 A 
ATOM     88  C   UNL A   1      45.988  25.907  35.327  1.00  0.00     0.055 A 
ATOM     89  C   UNL A   1      47.187  27.833  34.525  1.00  0.00     0.041 A 
ATOM     90  F   UNL A   1      46.047  29.506  33.349  1.00  0.00    -0.206 F 
ATOM     91  C   UNL A   1      47.184  26.621  35.209  1.00  0.00     0.022 A 
BRANCH  88  92
ATOM     92  S   UNL A   1      45.944  24.380  36.305  1.00  0.00     0.124 S 
ATOM     93  O   UNL A   1      44.547  23.980  36.180  1.00  0.00    -0.237 OA
ATOM     94  O   UNL A   1      46.914  23.536  35.614  1.00  0.00    -0.237 OA
ATOM     95  O   UNL A   1      46.347  24.815  37.642  1.00  0.00    -0.744 OA
ENDBRANCH  88  92
ENDBRANCH  62  85
ENDBRANCH  36  37
ENDBRANCH  29  31
ENDBRANCH  28  29
ENDBRANCH  27  28
ENDBRANCH  26  27
ENDBRANCH  25  26
ENDBRANCH   1  25
TORSDOF 22
ENDMDL
MODEL 2
REMARK VINA RESULT:     -10.3      3.189      4.517
REMARK SMILES C[C@H]1[C@@H](C(=O)OCCOCCOCCOC(=O)c2ccc(-c3c4nc(c(-c5cc(S(=O)(=O)[O-])ccc5F)c5ccc([nH]5)c(-c5cc(S(=O)(=O)[O-])ccc5F)c5nc(c(-c6cc(S(=O)(=O)[O-])ccc6F)c6ccc3[nH]6)C=C5)C=C4)cc2)CCN1C(=O)NC1CCCCC1
REMARK SMILES IDX 11 1 10 2 9 3 8 4 7 5 6 6 4 7 5 8 3 9 1 10 2 11 83 12 81 13
REMARK SMILES IDX 82 14 84 15 85 16 86 17 87 19 88 20 92 21 89 22 91 23 90 24
REMARK SMILES IDX 12 25 13 26 14 27 15 28 16 29 17 30 18 31 19 32 80 33 20 34
REMARK SMILES IDX 79 35 21 36 22 37 23 38 73 39 24 40 78 41 72 42 74 43 25 44
REMARK SMILES IDX 77 45 71 46 70 47 26 49 58 50 38 51 57 52 39 53 42 54 56 55
REMARK SMILES IDX 75 56 40 57 41 58 55 60 76 61 43 62 27 63 28 64 36 65 29 66
REMARK SMILES IDX 35 67 37 68 34 69 30 70 31 71 32 72 33 73 59 74 60 75 68 76
REMARK SMILES IDX 61 77 67 78 69 79 66 80 62 81 63 82 64 83 65 84 44 85 45 86
REMARK SMILES IDX 53 87 46 88 52 89 54 90 51 91 47 92 48 93 49 94 50 95
REMARK H PARENT 86 18 74 48 42 59
REMARK Flexibility Score: inf
ROOT
ATOM      1  C   UNL A   1      34.664  33.615  29.188  1.00  0.00     0.188 C 
ENDROOT
BRANCH   1   2
ATOM      2  C   UNL A   1      35.683  32.769  28.408  1.00  0.00     0.188 C 
BRANCH   2   3
ATOM      3  O   UNL A   1      35.231  31.763  27.516  1.00  0.00    -0.376 OA
BRANCH   3   4
ATOM      4  C   UNL A   1      35.007  30.445  27.998  1.00  0.00     0.202 C 
BRANCH   4   5
ATOM      5  C   UNL A   1      34.517  29.399  26.998  1.00  0.00     0.261 C 
BRANCH   5   6
ATOM      6  O   UNL A   1      33.523  29.963  26.131  1.00  0.00    -0.463 OA
BRANCH   6   7
ATOM      7  C   UNL A   1      33.061  29.220  25.104  1.00  0.00     0.311 C 
ATOM      8  O   UNL A   1      33.597  29.159  24.004  1.00  0.00    -0.252 OA
BRANCH   7   9
ATOM      9  C   UNL A   1      31.815  28.428  25.446  1.00  0.00     0.123 C 
ATOM     10  C   UNL A   1      33.198  26.180  25.936  1.00  0.00     0.032 C 
ATOM     11  C   UNL A   1      31.901  27.001  26.006  1.00  0.00     0.098 C 
ATOM     12  N   UNL A   1      30.764  26.259  25.487  1.00  0.00    -0.321 N 
ATOM     13  C   UNL A   1      30.761  28.378  24.343  1.00  0.00     0.039 C 
ATOM     14  C   UNL A   1      30.171  26.971  24.367  1.00  0.00     0.122 C 
BRANCH  12  15
ATOM     15  C   UNL A   1      30.209  25.073  25.862  1.00  0.00     0.317 C 
ATOM     16  O   UNL A   1      29.316  25.050  26.720  1.00  0.00    -0.249 OA
ATOM     17  N   UNL A   1      30.561  23.855  25.406  1.00  0.00    -0.335 N 
ATOM     18  H   UNL A   1      30.045  23.179  25.901  1.00  0.00     0.165 HD
BRANCH  17  19
ATOM     19  C   UNL A   1      31.439  23.156  24.431  1.00  0.00     0.083 C 
ATOM     20  C   UNL A   1      31.860  23.985  23.232  1.00  0.00     0.025 C 
ATOM     21  C   UNL A   1      32.709  22.645  25.144  1.00  0.00     0.025 C 
ATOM     22  C   UNL A   1      32.921  23.447  22.308  1.00  0.00     0.002 C 
ATOM     23  C   UNL A   1      33.735  22.045  24.172  1.00  0.00     0.002 C 
ATOM     24  C   UNL A   1      34.140  23.029  23.081  1.00  0.00     0.000 C 
ENDBRANCH  17  19
ENDBRANCH  12  15
ENDBRANCH   7   9
ENDBRANCH   6   7
ENDBRANCH   5   6
ENDBRANCH   4   5
ENDBRANCH   3   4
ENDBRANCH   2   3
ENDBRANCH   1   2
BRANCH   1  25
ATOM     25  O   UNL A   1      34.494  34.995  28.929  1.00  0.00    -0.376 OA
BRANCH  25  26
ATOM     26  C   UNL A   1      33.181  35.525  28.958  1.00  0.00     0.202 C 
BRANCH  26  27
ATOM     27  C   UNL A   1      32.858  36.639  29.960  1.00  0.00     0.261 C 
BRANCH  27  28
ATOM     28  O   UNL A   1      32.090  36.204  31.093  1.00  0.00    -0.460 OA
BRANCH  28  29
ATOM     29  C   UNL A   1      32.661  36.423  32.308  1.00  0.00     0.338 C 
ATOM     30  O   UNL A   1      32.276  37.195  33.172  1.00  0.00    -0.246 OA
BRANCH  29  31
ATOM     31  C   UNL A   1      33.711  35.408  32.526  1.00  0.00     0.060 A 
ATOM     32  C   UNL A   1      33.343  34.117  32.942  1.00  0.00     0.016 A 
ATOM     33  C   UNL A   1      35.051  35.730  32.328  1.00  0.00     0.016 A 
ATOM     34  C   UNL A   1      34.317  33.141  33.160  1.00  0.00     0.010 A 
ATOM     35  C   UNL A   1      36.026  34.767  32.588  1.00  0.00     0.010 A 
ATOM     36  C   UNL A   1      35.667  33.478  33.025  1.00  0.00    -0.014 A 
BRANCH  36  37
ATOM     37  C   UNL A   1      36.732  32.593  33.553  1.00  0.00     0.031 A 
ATOM     38  C   UNL A   1      37.355  32.971  34.867  1.00  0.00     0.074 A 
ATOM     39  C   UNL A   1      37.178  31.528  32.866  1.00  0.00     0.049 A 
ATOM     40  N   UNL A   1      38.465  32.556  35.411  1.00  0.00    -0.248 NA
ATOM     41  C   UNL A   1      36.625  33.973  35.660  1.00  0.00     0.031 C 
ATOM     42  C   UNL A   1      36.587  31.006  31.636  1.00  0.00     0.029 A 
ATOM     43  N   UNL A   1      38.260  30.714  33.094  1.00  0.00    -0.354 N 
ATOM     44  C   UNL A   1      38.588  33.270  36.598  1.00  0.00     0.074 A 
ATOM     45  C   UNL A   1      37.443  34.151  36.684  1.00  0.00     0.031 C 
ATOM     46  C   UNL A   1      37.337  29.979  31.198  1.00  0.00     0.029 A 
ATOM     47  C   UNL A   1      38.497  29.821  32.075  1.00  0.00     0.049 A 
ATOM     48  H   UNL A   1      38.812  30.765  33.908  1.00  0.00     0.167 HD
ATOM     49  C   UNL A   1      39.578  33.203  37.521  1.00  0.00     0.034 A 
ATOM     50  C   UNL A   1      39.558  29.019  31.849  1.00  0.00     0.034 A 
ATOM     51  C   UNL A   1      40.715  32.326  37.398  1.00  0.00     0.049 A 
ATOM     52  C   UNL A   1      40.714  29.042  32.828  1.00  0.00     0.074 A 
ATOM     53  C   UNL A   1      41.785  32.176  38.263  1.00  0.00     0.029 A 
ATOM     54  N   UNL A   1      40.936  31.459  36.335  1.00  0.00    -0.354 N 
ATOM     55  N   UNL A   1      40.855  29.754  33.925  1.00  0.00    -0.248 NA
ATOM     56  C   UNL A   1      41.857  28.166  32.536  1.00  0.00     0.031 C 
ATOM     57  C   UNL A   1      42.689  31.281  37.685  1.00  0.00     0.029 A 
ATOM     58  C   UNL A   1      42.140  30.796  36.509  1.00  0.00     0.049 A 
ATOM     59  H   UNL A   1      40.326  31.333  35.573  1.00  0.00     0.167 HD
ATOM     60  C   UNL A   1      42.078  29.372  34.474  1.00  0.00     0.074 A 
ATOM     61  C   UNL A   1      42.640  28.377  33.586  1.00  0.00     0.031 C 
ATOM     62  C   UNL A   1      42.676  29.794  35.616  1.00  0.00     0.034 A 
BRANCH  49  63
ATOM     63  C   UNL A   1      39.505  34.155  38.688  1.00  0.00     0.023 A 
ATOM     64  C   UNL A   1      40.197  35.378  38.696  1.00  0.00     0.031 A 
ATOM     65  C   UNL A   1      38.760  33.812  39.830  1.00  0.00     0.131 A 
ATOM     66  C   UNL A   1      40.188  36.178  39.850  1.00  0.00     0.055 A 
ATOM     67  C   UNL A   1      38.685  34.652  40.942  1.00  0.00     0.041 A 
ATOM     68  F   UNL A   1      38.103  32.642  39.893  1.00  0.00    -0.206 F 
ATOM     69  C   UNL A   1      39.414  35.837  40.962  1.00  0.00     0.022 A 
BRANCH  66  70
ATOM     70  S   UNL A   1      41.323  37.589  39.932  1.00  0.00     0.124 S 
ATOM     71  O   UNL A   1      42.191  37.338  38.784  1.00  0.00    -0.237 OA
ATOM     72  O   UNL A   1      40.420  38.727  39.814  1.00  0.00    -0.237 OA
ATOM     73  O   UNL A   1      41.966  37.435  41.237  1.00  0.00    -0.744 OA
ENDBRANCH  66  70
ENDBRANCH  49  63
BRANCH  50  74
ATOM     74  C   UNL A   1      39.628  28.177  30.617  1.00  0.00     0.023 A 
ATOM     75  C   UNL A   1      40.319  28.616  29.477  1.00  0.00     0.031 A 
ATOM     76  C   UNL A   1      38.951  26.946  30.540  1.00  0.00     0.131 A 
ATOM     77  C   UNL A   1      40.279  27.856  28.296  1.00  0.00     0.055 A 
ATOM     78  C   UNL A   1      38.966  26.164  29.383  1.00  0.00     0.041 A 
ATOM     79  F   UNL A   1      38.263  26.480  31.595  1.00  0.00    -0.206 F 
ATOM     80  C   UNL A   1      39.622  26.625  28.247  1.00  0.00     0.022 A 
BRANCH  77  81
ATOM     81  S   UNL A   1      41.013  28.553  26.791  1.00  0.00     0.124 S 
ATOM     82  O   UNL A   1      39.919  29.372  26.280  1.00  0.00    -0.237 OA
ATOM     83  O   UNL A   1      42.164  29.275  27.320  1.00  0.00    -0.237 OA
ATOM     84  O   UNL A   1      41.334  27.371  25.992  1.00  0.00    -0.744 OA
ENDBRANCH  77  81
ENDBRANCH  50  74
BRANCH  62  85
ATOM     85  C   UNL A   1      43.962  29.120  36.030  1.00  0.00     0.023 A 
ATOM     86  C   UNL A   1      43.989  27.998  36.875  1.00  0.00     0.031 A 
ATOM     87  C   UNL A   1      45.185  29.588  35.509  1.00  0.00     0.131 A 
ATOM     88  C   UNL A   1      45.217  27.397  37.194  1.00  0.00     0.055 A 
ATOM     89  C   UNL A   1      46.394  28.952  35.785  1.00  0.00     0.041 A 
ATOM     90  F   UNL A   1      45.216  30.658  34.698  1.00  0.00    -0.206 F 
ATOM     91  C   UNL A   1      46.416  27.853  36.637  1.00  0.00     0.022 A 
BRANCH  88  92
ATOM     92  S   UNL A   1      45.241  26.033  38.389  1.00  0.00     0.124 S 
ATOM     93  O   UNL A   1      46.672  25.811  38.567  1.00  0.00    -0.237 OA
ATOM     94  O   UNL A   1      44.538  26.604  39.534  1.00  0.00    -0.237 OA
ATOM     95  O   UNL A   1      44.528  24.958  37.700  1.00  0.00    -0.744 OA
ENDBRANCH  88  92
ENDBRANCH  62  85
ENDBRANCH  36  37
ENDBRANCH  29  31
ENDBRANCH  28  29
ENDBRANCH  27  28
ENDBRANCH  26  27
ENDBRANCH  25  26
ENDBRANCH   1  25
TORSDOF 22
ENDMDL
MODEL 3
REMARK VINA RESULT:     -10.1      2.819      4.227
REMARK SMILES C[C@H]1[C@@H](C(=O)OCCOCCOCCOC(=O)c2ccc(-c3c4nc(c(-c5cc(S(=O)(=O)[O-])ccc5F)c5ccc([nH]5)c(-c5cc(S(=O)(=O)[O-])ccc5F)c5nc(c(-c6cc(S(=O)(=O)[O-])ccc6F)c6ccc3[nH]6)C=C5)C=C4)cc2)CCN1C(=O)NC1CCCCC1
REMARK SMILES IDX 11 1 10 2 9 3 8 4 7 5 6 6 4 7 5 8 3 9 1 10 2 11 83 12 81 13
REMARK SMILES IDX 82 14 84 15 85 16 86 17 87 19 88 20 92 21 89 22 91 23 90 24
REMARK SMILES IDX 12 25 13 26 14 27 15 28 16 29 17 30 18 31 19 32 80 33 20 34
REMARK SMILES IDX 79 35 21 36 22 37 23 38 73 39 24 40 78 41 72 42 74 43 25 44
REMARK SMILES IDX 77 45 71 46 70 47 26 49 58 50 38 51 57 52 39 53 42 54 56 55
REMARK SMILES IDX 75 56 40 57 41 58 55 60 76 61 43 62 27 63 28 64 36 65 29 66
REMARK SMILES IDX 35 67 37 68 34 69 30 70 31 71 32 72 33 73 59 74 60 75 68 76
REMARK SMILES IDX 61 77 67 78 69 79 66 80 62 81 63 82 64 83 65 84 44 85 45 86
REMARK SMILES IDX 53 87 46 88 52 89 54 90 51 91 47 92 48 93 49 94 50 95
REMARK H PARENT 86 18 74 48 42 59
REMARK Flexibility Score: inf
ROOT
ATOM      1  C   UNL A   1      34.616  33.559  29.191  1.00  0.00     0.188 C 
ENDROOT
BRANCH   1   2
ATOM      2  C   UNL A   1      35.642  32.712  28.423  1.00  0.00     0.188 C 
BRANCH   2   3
ATOM      3  O   UNL A   1      35.201  31.684  27.551  1.00  0.00    -0.376 OA
BRANCH   3   4
ATOM      4  C   UNL A   1      35.228  30.332  27.989  1.00  0.00     0.202 C 
BRANCH   4   5
ATOM      5  C   UNL A   1      34.655  29.273  27.049  1.00  0.00     0.261 C 
BRANCH   5   6
ATOM      6  O   UNL A   1      33.221  29.285  27.097  1.00  0.00    -0.463 OA
BRANCH   6   7
ATOM      7  C   UNL A   1      32.532  29.053  25.960  1.00  0.00     0.311 C 
ATOM      8  O   UNL A   1      31.814  29.879  25.411  1.00  0.00    -0.252 OA
BRANCH   7   9
ATOM      9  C   UNL A   1      32.752  27.663  25.396  1.00  0.00     0.123 C 
ATOM     10  C   UNL A   1      34.059  28.585  23.239  1.00  0.00     0.032 C 
ATOM     11  C   UNL A   1      33.634  27.430  24.160  1.00  0.00     0.098 C 
ATOM     12  N   UNL A   1      33.054  26.328  23.412  1.00  0.00    -0.321 N 
ATOM     13  C   UNL A   1      31.478  26.858  25.154  1.00  0.00     0.039 C 
ATOM     14  C   UNL A   1      31.693  26.081  23.858  1.00  0.00     0.122 C 
BRANCH  12  15
ATOM     15  C   UNL A   1      33.556  25.546  22.417  1.00  0.00     0.317 C 
ATOM     16  O   UNL A   1      33.338  25.833  21.232  1.00  0.00    -0.249 OA
ATOM     17  N   UNL A   1      34.272  24.417  22.582  1.00  0.00    -0.335 N 
ATOM     18  H   UNL A   1      34.440  24.023  21.696  1.00  0.00     0.165 HD
BRANCH  17  19
ATOM     19  C   UNL A   1      34.905  23.548  23.609  1.00  0.00     0.083 C 
ATOM     20  C   UNL A   1      36.349  23.172  23.336  1.00  0.00     0.025 C 
ATOM     21  C   UNL A   1      34.829  24.232  24.992  1.00  0.00     0.025 C 
ATOM     22  C   UNL A   1      37.143  22.486  24.417  1.00  0.00     0.002 C 
ATOM     23  C   UNL A   1      35.597  23.464  26.077  1.00  0.00     0.002 C 
ATOM     24  C   UNL A   1      37.060  23.251  25.707  1.00  0.00     0.000 C 
ENDBRANCH  17  19
ENDBRANCH  12  15
ENDBRANCH   7   9
ENDBRANCH   6   7
ENDBRANCH   5   6
ENDBRANCH   4   5
ENDBRANCH   3   4
ENDBRANCH   2   3
ENDBRANCH   1   2
BRANCH   1  25
ATOM     25  O   UNL A   1      34.466  34.945  28.947  1.00  0.00    -0.376 OA
BRANCH  25  26
ATOM     26  C   UNL A   1      33.162  35.496  28.993  1.00  0.00     0.202 C 
BRANCH  26  27
ATOM     27  C   UNL A   1      32.835  36.525  30.081  1.00  0.00     0.261 C 
BRANCH  27  28
ATOM     28  O   UNL A   1      32.322  35.955  31.295  1.00  0.00    -0.460 OA
BRANCH  28  29
ATOM     29  C   UNL A   1      33.017  36.253  32.425  1.00  0.00     0.338 C 
ATOM     30  O   UNL A   1      32.727  37.089  33.266  1.00  0.00    -0.246 OA
BRANCH  29  31
ATOM     31  C   UNL A   1      34.083  35.246  32.604  1.00  0.00     0.060 A 
ATOM     32  C   UNL A   1      33.741  33.957  33.045  1.00  0.00     0.016 A 
ATOM     33  C   UNL A   1      35.411  35.575  32.344  1.00  0.00     0.016 A 
ATOM     34  C   UNL A   1      34.730  32.988  33.228  1.00  0.00     0.010 A 
ATOM     35  C   UNL A   1      36.402  34.620  32.569  1.00  0.00     0.010 A 
ATOM     36  C   UNL A   1      36.070  33.332  33.031  1.00  0.00    -0.014 A 
BRANCH  36  37
ATOM     37  C   UNL A   1      37.163  32.458  33.519  1.00  0.00     0.031 A 
ATOM     38  C   UNL A   1      37.800  32.816  34.831  1.00  0.00     0.074 A 
ATOM     39  C   UNL A   1      37.620  31.421  32.797  1.00  0.00     0.049 A 
ATOM     40  N   UNL A   1      38.928  32.412  35.346  1.00  0.00    -0.248 NA
ATOM     41  C   UNL A   1      37.063  33.781  35.662  1.00  0.00     0.031 C 
ATOM     42  C   UNL A   1      37.020  30.917  31.564  1.00  0.00     0.029 A 
ATOM     43  N   UNL A   1      38.723  30.625  32.986  1.00  0.00    -0.354 N 
ATOM     44  C   UNL A   1      39.056  33.098  36.549  1.00  0.00     0.074 A 
ATOM     45  C   UNL A   1      37.894  33.951  36.676  1.00  0.00     0.031 C 
ATOM     46  C   UNL A   1      37.783  29.918  31.087  1.00  0.00     0.029 A 
ATOM     47  C   UNL A   1      38.961  29.763  31.941  1.00  0.00     0.049 A 
ATOM     48  H   UNL A   1      39.287  30.667  33.792  1.00  0.00     0.167 HD
ATOM     49  C   UNL A   1      40.063  33.029  37.453  1.00  0.00     0.034 A 
ATOM     50  C   UNL A   1      40.036  28.990  31.677  1.00  0.00     0.034 A 
ATOM     51  C   UNL A   1      41.216  32.180  37.289  1.00  0.00     0.049 A 
ATOM     52  C   UNL A   1      41.207  29.015  32.637  1.00  0.00     0.074 A 
ATOM     53  C   UNL A   1      42.303  32.033  38.132  1.00  0.00     0.029 A 
ATOM     54  N   UNL A   1      41.438  31.345  36.201  1.00  0.00    -0.354 N 
ATOM     55  N   UNL A   1      41.352  29.701  33.749  1.00  0.00    -0.248 NA
ATOM     56  C   UNL A   1      42.364  28.171  32.304  1.00  0.00     0.031 C 
ATOM     57  C   UNL A   1      43.217  31.172  37.516  1.00  0.00     0.029 A 
ATOM     58  C   UNL A   1      42.658  30.705  36.337  1.00  0.00     0.049 A 
ATOM     59  H   UNL A   1      40.817  31.226  35.446  1.00  0.00     0.167 HD
ATOM     60  C   UNL A   1      42.592  29.332  34.268  1.00  0.00     0.074 A 
ATOM     61  C   UNL A   1      43.160  28.372  33.345  1.00  0.00     0.031 C 
ATOM     62  C   UNL A   1      43.200  29.738  35.411  1.00  0.00     0.034 A 
BRANCH  49  63
ATOM     63  C   UNL A   1      39.990  33.950  38.645  1.00  0.00     0.023 A 
ATOM     64  C   UNL A   1      39.426  33.544  39.867  1.00  0.00     0.031 A 
ATOM     65  C   UNL A   1      40.457  35.272  38.542  1.00  0.00     0.131 A 
ATOM     66  C   UNL A   1      39.279  34.472  40.910  1.00  0.00     0.055 A 
ATOM     67  C   UNL A   1      40.386  36.165  39.611  1.00  0.00     0.041 A 
ATOM     68  F   UNL A   1      40.977  35.726  37.390  1.00  0.00    -0.206 F 
ATOM     69  C   UNL A   1      39.780  35.771  40.800  1.00  0.00     0.022 A 
BRANCH  66  70
ATOM     70  S   UNL A   1      38.286  34.001  42.352  1.00  0.00     0.124 S 
ATOM     71  O   UNL A   1      37.688  32.746  41.902  1.00  0.00    -0.237 OA
ATOM     72  O   UNL A   1      39.290  33.889  43.403  1.00  0.00    -0.237 OA
ATOM     73  O   UNL A   1      37.348  35.113  42.499  1.00  0.00    -0.744 OA
ENDBRANCH  66  70
ENDBRANCH  49  63
BRANCH  50  74
ATOM     74  C   UNL A   1      40.103  28.181  30.423  1.00  0.00     0.023 A 
ATOM     75  C   UNL A   1      40.944  28.555  29.363  1.00  0.00     0.031 A 
ATOM     76  C   UNL A   1      39.278  27.056  30.240  1.00  0.00     0.131 A 
ATOM     77  C   UNL A   1      40.909  27.841  28.154  1.00  0.00     0.055 A 
ATOM     78  C   UNL A   1      39.292  26.312  29.059  1.00  0.00     0.041 A 
ATOM     79  F   UNL A   1      38.444  26.658  31.214  1.00  0.00    -0.206 F 
ATOM     80  C   UNL A   1      40.102  26.712  28.000  1.00  0.00     0.022 A 
BRANCH  77  81
ATOM     81  S   UNL A   1      41.859  28.474  26.744  1.00  0.00     0.124 S 
ATOM     82  O   UNL A   1      42.602  27.287  26.332  1.00  0.00    -0.237 OA
ATOM     83  O   UNL A   1      40.804  28.917  25.841  1.00  0.00    -0.237 OA
ATOM     84  O   UNL A   1      42.666  29.542  27.331  1.00  0.00    -0.744 OA
ENDBRANCH  77  81
ENDBRANCH  50  74
BRANCH  62  85
ATOM     85  C   UNL A   1      44.507  29.082  35.785  1.00  0.00     0.023 A 
ATOM     86  C   UNL A   1      44.570  27.915  36.565  1.00  0.00     0.031 A 
ATOM     87  C   UNL A   1      45.714  29.618  35.292  1.00  0.00     0.131 A 
ATOM     88  C   UNL A   1      45.817  27.335  36.850  1.00  0.00     0.055 A 
ATOM     89  C   UNL A   1      46.943  29.005  35.532  1.00  0.00     0.041 A 
ATOM     90  F   UNL A   1      45.710  30.733  34.544  1.00  0.00    -0.206 F 
ATOM     91  C   UNL A   1      47.000  27.859  36.320  1.00  0.00     0.022 A 
BRANCH  88  92
ATOM     92  S   UNL A   1      45.886  25.906  37.965  1.00  0.00     0.124 S 
ATOM     93  O   UNL A   1      46.153  24.811  37.038  1.00  0.00    -0.237 OA
ATOM     94  O   UNL A   1      46.979  26.261  38.865  1.00  0.00    -0.237 OA
ATOM     95  O   UNL A   1      44.560  25.886  38.582  1.00  0.00    -0.744 OA
ENDBRANCH  88  92
ENDBRANCH  62  85
ENDBRANCH  36  37
ENDBRANCH  29  31
ENDBRANCH  28  29
ENDBRANCH  27  28
ENDBRANCH  26  27
ENDBRANCH  25  26
ENDBRANCH   1  25
TORSDOF 22
ENDMDL
