MODEL 1
REMARK VINA RESULT:     -10.7      0.000      0.000
REMARK SMILES C[C@@H](C(=O)OCCOCCOCCOC(=O)c1ccc(-c2c3nc(c(-c4cc(S(=O)(=O)[O-])ccc4F)c4ccc([nH]4)c(-c4cc(S(=O)(=O)[O-])ccc4F)c4nc(c(-c5cc(S(=O)(=O)[O-])ccc5F)c5ccc2[nH]5)C=C4)C=C3)cc1)c1cc(C(=O)c2ccccc2)ccc1O
REMARK SMILES IDX 9 1 8 2 7 3 6 4 5 5 3 6 4 7 2 8 1 9 80 10 81 11 93 12 82 13
REMARK SMILES IDX 92 14 91 15 94 16 83 18 84 19 85 20 86 21 90 22 87 23 89 24
REMARK SMILES IDX 88 25 10 26 11 27 12 28 13 29 14 30 15 31 16 32 17 33 18 34
REMARK SMILES IDX 79 35 19 36 78 37 20 38 21 39 22 40 72 41 23 42 77 43 71 44
REMARK SMILES IDX 73 45 24 46 76 47 70 48 69 49 25 51 57 52 37 53 56 54 38 55
REMARK SMILES IDX 41 56 55 57 74 58 39 59 40 60 54 62 75 63 42 64 26 65 27 66
REMARK SMILES IDX 35 67 28 68 34 69 36 70 33 71 29 72 30 73 31 74 32 75 58 76
REMARK SMILES IDX 59 77 67 78 60 79 66 80 68 81 65 82 61 83 62 84 63 85 64 86
REMARK SMILES IDX 43 87 44 88 52 89 45 90 51 91 53 92 50 93 46 94 47 95 48 96
REMARK SMILES IDX 49 97
REMARK H PARENT 94 17 73 50 41 61
REMARK Flexibility Score: inf
ROOT
ATOM      1  C   UNL A   1      28.430  31.347  22.437  1.00  0.00     0.188 C 
ENDROOT
BRANCH   1   2
ATOM      2  O   UNL A   1      27.630  30.290  22.953  1.00  0.00    -0.376 OA
BRANCH   2   3
ATOM      3  C   UNL A   1      28.025  28.948  22.681  1.00  0.00     0.202 C 
BRANCH   3   4
ATOM      4  C   UNL A   1      29.348  28.407  23.264  1.00  0.00     0.261 C 
BRANCH   4   5
ATOM      5  O   UNL A   1      30.262  27.853  22.290  1.00  0.00    -0.463 OA
BRANCH   5   6
ATOM      6  C   UNL A   1      31.407  27.317  22.770  1.00  0.00     0.313 C 
ATOM      7  O   UNL A   1      32.403  27.119  22.074  1.00  0.00    -0.252 OA
BRANCH   6   8
ATOM      8  C   UNL A   1      31.434  27.040  24.282  1.00  0.00     0.130 C 
ATOM      9  C   UNL A   1      32.477  27.892  25.029  1.00  0.00     0.025 C 
BRANCH   8  10
ATOM     10  C   UNL A   1      31.292  25.552  24.675  1.00  0.00     0.009 A 
ATOM     11  C   UNL A   1      32.029  24.525  24.019  1.00  0.00     0.020 A 
ATOM     12  C   UNL A   1      30.547  25.144  25.798  1.00  0.00     0.119 A 
ATOM     13  C   UNL A   1      32.055  23.174  24.475  1.00  0.00     0.023 A 
ATOM     14  C   UNL A   1      30.564  23.821  26.252  1.00  0.00     0.047 A 
ATOM     15  C   UNL A   1      31.339  22.853  25.623  1.00  0.00     0.016 A 
BRANCH  12  16
ATOM     16  O   UNL A   1      29.795  25.953  26.600  1.00  0.00    -0.508 OA
ATOM     17  H   UNL A   1      29.230  25.579  27.247  1.00  0.00     0.293 HD
ENDBRANCH  12  16
BRANCH  13  18
ATOM     18  C   UNL A   1      32.921  22.167  23.767  1.00  0.00     0.193 C 
ATOM     19  O   UNL A   1      32.408  21.529  22.847  1.00  0.00    -0.289 OA
BRANCH  18  20
ATOM     20  C   UNL A   1      34.362  21.891  24.100  1.00  0.00     0.022 A 
ATOM     21  C   UNL A   1      35.336  22.819  23.694  1.00  0.00     0.012 A 
ATOM     22  C   UNL A   1      34.795  20.721  24.729  1.00  0.00     0.012 A 
ATOM     23  C   UNL A   1      36.698  22.593  23.945  1.00  0.00     0.001 A 
ATOM     24  C   UNL A   1      36.151  20.514  25.004  1.00  0.00     0.001 A 
ATOM     25  C   UNL A   1      37.105  21.439  24.605  1.00  0.00     0.000 A 
ENDBRANCH  18  20
ENDBRANCH  13  18
ENDBRANCH   8  10
ENDBRANCH   6   8
ENDBRANCH   5   6
ENDBRANCH   4   5
ENDBRANCH   3   4
ENDBRANCH   2   3
ENDBRANCH   1   2
BRANCH   1  26
ATOM     26  C   UNL A   1      29.137  32.286  23.431  1.00  0.00     0.188 C 
BRANCH  26  27
ATOM     27  O   UNL A   1      29.339  31.754  24.718  1.00  0.00    -0.376 OA
BRANCH  27  28
ATOM     28  C   UNL A   1      30.653  31.518  25.191  1.00  0.00     0.202 C 
BRANCH  28  29
ATOM     29  C   UNL A   1      31.165  31.955  26.579  1.00  0.00     0.261 C 
BRANCH  29  30
ATOM     30  O   UNL A   1      32.544  31.743  26.899  1.00  0.00    -0.460 OA
BRANCH  30  31
ATOM     31  C   UNL A   1      33.188  32.758  27.528  1.00  0.00     0.338 C 
ATOM     32  O   UNL A   1      32.708  33.836  27.845  1.00  0.00    -0.246 OA
BRANCH  31  33
ATOM     33  C   UNL A   1      34.492  32.231  27.991  1.00  0.00     0.060 A 
ATOM     34  C   UNL A   1      34.650  30.849  28.146  1.00  0.00     0.016 A 
ATOM     35  C   UNL A   1      35.562  33.094  28.240  1.00  0.00     0.016 A 
ATOM     36  C   UNL A   1      35.881  30.329  28.545  1.00  0.00     0.010 A 
ATOM     37  C   UNL A   1      36.786  32.570  28.676  1.00  0.00     0.010 A 
ATOM     38  C   UNL A   1      36.949  31.183  28.844  1.00  0.00    -0.014 A 
BRANCH  38  39
ATOM     39  C   UNL A   1      38.144  30.641  29.545  1.00  0.00     0.031 A 
ATOM     40  C   UNL A   1      38.321  30.995  31.000  1.00  0.00     0.074 A 
ATOM     41  C   UNL A   1      38.989  29.776  28.953  1.00  0.00     0.049 A 
ATOM     42  N   UNL A   1      39.255  30.637  31.841  1.00  0.00    -0.248 NA
ATOM     43  C   UNL A   1      37.287  31.867  31.581  1.00  0.00     0.031 C 
ATOM     44  C   UNL A   1      38.810  29.208  27.617  1.00  0.00     0.029 A 
ATOM     45  N   UNL A   1      40.115  29.149  29.434  1.00  0.00    -0.354 N 
ATOM     46  C   UNL A   1      38.946  31.274  33.040  1.00  0.00     0.074 A 
ATOM     47  C   UNL A   1      37.734  32.030  32.816  1.00  0.00     0.031 C 
ATOM     48  C   UNL A   1      39.733  28.248  27.427  1.00  0.00     0.029 A 
ATOM     49  C   UNL A   1      40.616  28.176  28.594  1.00  0.00     0.049 A 
ATOM     50  H   UNL A   1      40.526  29.373  30.300  1.00  0.00     0.167 HD
ATOM     51  C   UNL A   1      39.622  31.248  34.214  1.00  0.00     0.034 A 
ATOM     52  C   UNL A   1      41.642  27.311  28.767  1.00  0.00     0.034 A 
ATOM     53  C   UNL A   1      40.818  30.471  34.433  1.00  0.00     0.049 A 
ATOM     54  C   UNL A   1      42.425  27.353  30.066  1.00  0.00     0.074 A 
ATOM     55  C   UNL A   1      41.607  30.412  35.567  1.00  0.00     0.029 A 
ATOM     56  N   UNL A   1      41.397  29.622  33.500  1.00  0.00    -0.354 N 
ATOM     57  N   UNL A   1      42.164  28.015  31.171  1.00  0.00    -0.248 NA
ATOM     58  C   UNL A   1      43.642  26.531  30.136  1.00  0.00     0.031 C 
ATOM     59  C   UNL A   1      42.711  29.599  35.289  1.00  0.00     0.029 A 
ATOM     60  C   UNL A   1      42.558  29.070  34.019  1.00  0.00     0.049 A 
ATOM     61  H   UNL A   1      41.036  29.438  32.603  1.00  0.00     0.167 HD
ATOM     62  C   UNL A   1      43.180  27.674  32.068  1.00  0.00     0.074 A 
ATOM     63  C   UNL A   1      44.024  26.714  31.391  1.00  0.00     0.031 C 
ATOM     64  C   UNL A   1      43.404  28.121  33.331  1.00  0.00     0.034 A 
BRANCH  51  65
ATOM     65  C   UNL A   1      39.156  32.180  35.308  1.00  0.00     0.023 A 
ATOM     66  C   UNL A   1      39.613  33.503  35.427  1.00  0.00     0.031 A 
ATOM     67  C   UNL A   1      38.251  31.706  36.277  1.00  0.00     0.131 A 
ATOM     68  C   UNL A   1      39.213  34.281  36.525  1.00  0.00     0.055 A 
ATOM     69  C   UNL A   1      37.792  32.512  37.317  1.00  0.00     0.041 A 
ATOM     70  F   UNL A   1      37.805  30.440  36.232  1.00  0.00    -0.206 F 
ATOM     71  C   UNL A   1      38.284  33.805  37.454  1.00  0.00     0.022 A 
BRANCH  68  72
ATOM     72  S   UNL A   1      40.037  35.873  36.813  1.00  0.00     0.124 S 
ATOM     73  O   UNL A   1      39.852  36.537  35.525  1.00  0.00    -0.237 OA
ATOM     74  O   UNL A   1      39.279  36.421  37.931  1.00  0.00    -0.237 OA
ATOM     75  O   UNL A   1      41.415  35.494  37.118  1.00  0.00    -0.744 OA
ENDBRANCH  68  72
ENDBRANCH  51  65
BRANCH  52  76
ATOM     76  C   UNL A   1      42.020  26.329  27.699  1.00  0.00     0.023 A 
ATOM     77  C   UNL A   1      41.488  25.026  27.679  1.00  0.00     0.031 A 
ATOM     78  C   UNL A   1      42.995  26.643  26.733  1.00  0.00     0.131 A 
ATOM     79  C   UNL A   1      41.969  24.081  26.756  1.00  0.00     0.055 A 
ATOM     80  C   UNL A   1      43.411  25.724  25.769  1.00  0.00     0.041 A 
ATOM     81  F   UNL A   1      43.566  27.858  26.714  1.00  0.00    -0.206 F 
ATOM     82  C   UNL A   1      42.910  24.428  25.787  1.00  0.00     0.022 A 
BRANCH  79  83
ATOM     83  S   UNL A   1      41.448  22.349  26.924  1.00  0.00     0.124 S 
ATOM     84  O   UNL A   1      42.101  21.964  28.170  1.00  0.00    -0.237 OA
ATOM     85  O   UNL A   1      39.996  22.473  26.971  1.00  0.00    -0.237 OA
ATOM     86  O   UNL A   1      41.980  21.715  25.719  1.00  0.00    -0.744 OA
ENDBRANCH  79  83
ENDBRANCH  52  76
BRANCH  64  87
ATOM     87  C   UNL A   1      44.603  27.570  34.074  1.00  0.00     0.023 A 
ATOM     88  C   UNL A   1      44.491  26.479  34.955  1.00  0.00     0.031 A 
ATOM     89  C   UNL A   1      45.881  28.125  33.880  1.00  0.00     0.131 A 
ATOM     90  C   UNL A   1      45.620  26.014  35.648  1.00  0.00     0.055 A 
ATOM     91  C   UNL A   1      47.014  27.616  34.520  1.00  0.00     0.041 A 
ATOM     92  F   UNL A   1      46.055  29.169  33.052  1.00  0.00    -0.206 F 
ATOM     93  C   UNL A   1      46.885  26.563  35.420  1.00  0.00     0.022 A 
BRANCH  90  94
ATOM     94  S   UNL A   1      45.399  24.745  36.925  1.00  0.00     0.124 S 
ATOM     95  O   UNL A   1      46.638  24.860  37.686  1.00  0.00    -0.237 OA
ATOM     96  O   UNL A   1      44.189  25.194  37.606  1.00  0.00    -0.237 OA
ATOM     97  O   UNL A   1      45.256  23.508  36.158  1.00  0.00    -0.744 OA
ENDBRANCH  90  94
ENDBRANCH  64  87
ENDBRANCH  38  39
ENDBRANCH  31  33
ENDBRANCH  30  31
ENDBRANCH  29  30
ENDBRANCH  28  29
ENDBRANCH  27  28
ENDBRANCH  26  27
ENDBRANCH   1  26
TORSDOF 24
ENDMDL
MODEL 2
REMARK VINA RESULT:     -10.4      2.277      7.867
REMARK SMILES C[C@@H](C(=O)OCCOCCOCCOC(=O)c1ccc(-c2c3nc(c(-c4cc(S(=O)(=O)[O-])ccc4F)c4ccc([nH]4)c(-c4cc(S(=O)(=O)[O-])ccc4F)c4nc(c(-c5cc(S(=O)(=O)[O-])ccc5F)c5ccc2[nH]5)C=C4)C=C3)cc1)c1cc(C(=O)c2ccccc2)ccc1O
REMARK SMILES IDX 9 1 8 2 7 3 6 4 5 5 3 6 4 7 2 8 1 9 80 10 81 11 93 12 82 13
REMARK SMILES IDX 92 14 91 15 94 16 83 18 84 19 85 20 86 21 90 22 87 23 89 24
REMARK SMILES IDX 88 25 10 26 11 27 12 28 13 29 14 30 15 31 16 32 17 33 18 34
REMARK SMILES IDX 79 35 19 36 78 37 20 38 21 39 22 40 72 41 23 42 77 43 71 44
REMARK SMILES IDX 73 45 24 46 76 47 70 48 69 49 25 51 57 52 37 53 56 54 38 55
REMARK SMILES IDX 41 56 55 57 74 58 39 59 40 60 54 62 75 63 42 64 26 65 27 66
REMARK SMILES IDX 35 67 28 68 34 69 36 70 33 71 29 72 30 73 31 74 32 75 58 76
REMARK SMILES IDX 59 77 67 78 60 79 66 80 68 81 65 82 61 83 62 84 63 85 64 86
REMARK SMILES IDX 43 87 44 88 52 89 45 90 51 91 53 92 50 93 46 94 47 95 48 96
REMARK SMILES IDX 49 97
REMARK H PARENT 94 17 73 50 41 61
REMARK Flexibility Score: inf
ROOT
ATOM      1  C   UNL A   1      32.192  27.503  24.609  1.00  0.00     0.188 C 
ENDROOT
BRANCH   1   2
ATOM      2  O   UNL A   1      31.009  26.740  24.809  1.00  0.00    -0.376 OA
BRANCH   2   3
ATOM      3  C   UNL A   1      30.567  25.886  23.757  1.00  0.00     0.202 C 
BRANCH   3   4
ATOM      4  C   UNL A   1      31.319  25.882  22.409  1.00  0.00     0.261 C 
BRANCH   4   5
ATOM      5  O   UNL A   1      32.264  24.801  22.242  1.00  0.00    -0.463 OA
BRANCH   5   6
ATOM      6  C   UNL A   1      33.551  25.067  22.564  1.00  0.00     0.313 C 
ATOM      7  O   UNL A   1      34.239  25.892  21.963  1.00  0.00    -0.252 OA
BRANCH   6   8
ATOM      8  C   UNL A   1      34.097  24.334  23.800  1.00  0.00     0.130 C 
ATOM      9  C   UNL A   1      35.610  24.064  23.716  1.00  0.00     0.025 C 
BRANCH   8  10
ATOM     10  C   UNL A   1      33.185  23.212  24.348  1.00  0.00     0.009 A 
ATOM     11  C   UNL A   1      33.136  21.921  23.749  1.00  0.00     0.020 A 
ATOM     12  C   UNL A   1      32.472  23.352  25.554  1.00  0.00     0.119 A 
ATOM     13  C   UNL A   1      32.446  20.818  24.335  1.00  0.00     0.023 A 
ATOM     14  C   UNL A   1      31.791  22.278  26.135  1.00  0.00     0.047 A 
ATOM     15  C   UNL A   1      31.808  21.015  25.555  1.00  0.00     0.016 A 
BRANCH  12  16
ATOM     16  O   UNL A   1      32.404  24.480  26.320  1.00  0.00    -0.508 OA
ATOM     17  H   UNL A   1      31.854  24.500  27.079  1.00  0.00     0.293 HD
ENDBRANCH  12  16
BRANCH  13  18
ATOM     18  C   UNL A   1      32.507  19.468  23.674  1.00  0.00     0.193 C 
ATOM     19  O   UNL A   1      32.092  19.386  22.517  1.00  0.00    -0.289 OA
BRANCH  18  20
ATOM     20  C   UNL A   1      33.040  18.219  24.322  1.00  0.00     0.022 A 
ATOM     21  C   UNL A   1      34.388  17.879  24.121  1.00  0.00     0.012 A 
ATOM     22  C   UNL A   1      32.245  17.336  25.058  1.00  0.00     0.012 A 
ATOM     23  C   UNL A   1      34.927  16.706  24.671  1.00  0.00     0.001 A 
ATOM     24  C   UNL A   1      32.794  16.183  25.630  1.00  0.00     0.001 A 
ATOM     25  C   UNL A   1      34.129  15.859  25.431  1.00  0.00     0.000 A 
ENDBRANCH  18  20
ENDBRANCH  13  18
ENDBRANCH   8  10
ENDBRANCH   6   8
ENDBRANCH   5   6
ENDBRANCH   4   5
ENDBRANCH   3   4
ENDBRANCH   2   3
ENDBRANCH   1   2
BRANCH   1  26
ATOM     26  C   UNL A   1      32.055  28.962  24.139  1.00  0.00     0.188 C 
BRANCH  26  27
ATOM     27  O   UNL A   1      30.907  29.635  24.598  1.00  0.00    -0.376 OA
BRANCH  27  28
ATOM     28  C   UNL A   1      31.036  30.804  25.386  1.00  0.00     0.202 C 
BRANCH  28  29
ATOM     29  C   UNL A   1      31.806  30.867  26.721  1.00  0.00     0.261 C 
BRANCH  29  30
ATOM     30  O   UNL A   1      33.234  30.970  26.685  1.00  0.00    -0.460 OA
BRANCH  30  31
ATOM     31  C   UNL A   1      33.793  31.968  27.415  1.00  0.00     0.338 C 
ATOM     32  O   UNL A   1      33.269  33.033  27.710  1.00  0.00    -0.246 OA
BRANCH  31  33
ATOM     33  C   UNL A   1      35.041  31.435  28.005  1.00  0.00     0.060 A 
ATOM     34  C   UNL A   1      35.078  30.101  28.426  1.00  0.00     0.016 A 
ATOM     35  C   UNL A   1      36.179  32.238  28.113  1.00  0.00     0.016 A 
ATOM     36  C   UNL A   1      36.255  29.567  28.950  1.00  0.00     0.010 A 
ATOM     37  C   UNL A   1      37.348  31.709  28.675  1.00  0.00     0.010 A 
ATOM     38  C   UNL A   1      37.389  30.372  29.109  1.00  0.00    -0.014 A 
BRANCH  38  39
ATOM     39  C   UNL A   1      38.525  29.879  29.933  1.00  0.00     0.031 A 
ATOM     40  C   UNL A   1      39.532  28.977  29.267  1.00  0.00     0.074 A 
ATOM     41  C   UNL A   1      38.727  30.299  31.197  1.00  0.00     0.049 A 
ATOM     42  N   UNL A   1      40.618  28.432  29.750  1.00  0.00    -0.248 NA
ATOM     43  C   UNL A   1      39.275  28.658  27.853  1.00  0.00     0.031 C 
ATOM     44  C   UNL A   1      37.933  31.320  31.879  1.00  0.00     0.029 A 
ATOM     45  N   UNL A   1      39.719  29.988  32.099  1.00  0.00    -0.354 N 
ATOM     46  C   UNL A   1      41.152  27.671  28.713  1.00  0.00     0.074 A 
ATOM     47  C   UNL A   1      40.274  27.836  27.575  1.00  0.00     0.031 C 
ATOM     48  C   UNL A   1      38.527  31.620  33.049  1.00  0.00     0.029 A 
ATOM     49  C   UNL A   1      39.702  30.766  33.238  1.00  0.00     0.049 A 
ATOM     50  H   UNL A   1      40.380  29.276  31.946  1.00  0.00     0.167 HD
ATOM     51  C   UNL A   1      42.260  26.892  28.715  1.00  0.00     0.034 A 
ATOM     52  C   UNL A   1      40.556  30.804  34.287  1.00  0.00     0.034 A 
ATOM     53  C   UNL A   1      43.140  26.755  29.849  1.00  0.00     0.049 A 
ATOM     54  C   UNL A   1      41.751  29.869  34.292  1.00  0.00     0.074 A 
ATOM     55  C   UNL A   1      44.262  25.954  29.973  1.00  0.00     0.029 A 
ATOM     56  N   UNL A   1      43.000  27.431  31.052  1.00  0.00    -0.354 N 
ATOM     57  N   UNL A   1      42.207  29.098  33.331  1.00  0.00    -0.248 NA
ATOM     58  C   UNL A   1      42.544  29.809  35.531  1.00  0.00     0.031 C 
ATOM     59  C   UNL A   1      44.744  26.077  31.280  1.00  0.00     0.029 A 
ATOM     60  C   UNL A   1      43.988  27.031  31.939  1.00  0.00     0.049 A 
ATOM     61  H   UNL A   1      42.302  28.098  31.247  1.00  0.00     0.167 HD
ATOM     62  C   UNL A   1      43.347  28.476  33.848  1.00  0.00     0.074 A 
ATOM     63  C   UNL A   1      43.533  29.000  35.183  1.00  0.00     0.031 C 
ATOM     64  C   UNL A   1      44.159  27.549  33.277  1.00  0.00     0.034 A 
BRANCH  51  65
ATOM     65  C   UNL A   1      42.509  26.032  27.498  1.00  0.00     0.023 A 
ATOM     66  C   UNL A   1      42.028  24.717  27.383  1.00  0.00     0.031 A 
ATOM     67  C   UNL A   1      43.285  26.544  26.440  1.00  0.00     0.131 A 
ATOM     68  C   UNL A   1      42.381  23.942  26.267  1.00  0.00     0.055 A 
ATOM     69  C   UNL A   1      43.561  25.797  25.296  1.00  0.00     0.041 A 
ATOM     70  F   UNL A   1      43.799  27.783  26.509  1.00  0.00    -0.206 F 
ATOM     71  C   UNL A   1      43.119  24.482  25.211  1.00  0.00     0.022 A 
BRANCH  68  72
ATOM     72  S   UNL A   1      41.992  22.169  26.278  1.00  0.00     0.124 S 
ATOM     73  O   UNL A   1      40.559  22.180  26.000  1.00  0.00    -0.237 OA
ATOM     74  O   UNL A   1      42.848  21.653  25.217  1.00  0.00    -0.237 OA
ATOM     75  O   UNL A   1      42.353  21.748  27.631  1.00  0.00    -0.744 OA
ENDBRANCH  68  72
ENDBRANCH  51  65
BRANCH  52  76
ATOM     76  C   UNL A   1      40.335  31.740  35.437  1.00  0.00     0.023 A 
ATOM     77  C   UNL A   1      39.290  31.535  36.359  1.00  0.00     0.031 A 
ATOM     78  C   UNL A   1      41.103  32.910  35.581  1.00  0.00     0.131 A 
ATOM     79  C   UNL A   1      39.014  32.504  37.339  1.00  0.00     0.055 A 
ATOM     80  C   UNL A   1      40.874  33.830  36.605  1.00  0.00     0.041 A 
ATOM     81  F   UNL A   1      42.095  33.182  34.718  1.00  0.00    -0.206 F 
ATOM     82  C   UNL A   1      39.813  33.639  37.482  1.00  0.00     0.022 A 
BRANCH  79  83
ATOM     83  S   UNL A   1      37.509  32.331  38.342  1.00  0.00     0.124 S 
ATOM     84  O   UNL A   1      37.303  30.887  38.318  1.00  0.00    -0.237 OA
ATOM     85  O   UNL A   1      37.931  32.899  39.618  1.00  0.00    -0.237 OA
ATOM     86  O   UNL A   1      36.519  33.116  37.608  1.00  0.00    -0.744 OA
ENDBRANCH  79  83
ENDBRANCH  52  76
BRANCH  64  87
ATOM     87  C   UNL A   1      45.334  27.045  34.088  1.00  0.00     0.023 A 
ATOM     88  C   UNL A   1      46.635  27.547  33.899  1.00  0.00     0.031 A 
ATOM     89  C   UNL A   1      45.149  26.067  35.084  1.00  0.00     0.131 A 
ATOM     90  C   UNL A   1      47.705  27.033  34.650  1.00  0.00     0.055 A 
ATOM     91  C   UNL A   1      46.205  25.609  35.876  1.00  0.00     0.041 A 
ATOM     92  F   UNL A   1      43.932  25.548  35.315  1.00  0.00    -0.206 F 
ATOM     93  C   UNL A   1      47.494  26.083  35.652  1.00  0.00     0.022 A 
BRANCH  90  94
ATOM     94  S   UNL A   1      49.392  27.555  34.235  1.00  0.00     0.124 S 
ATOM     95  O   UNL A   1      49.643  26.819  33.001  1.00  0.00    -0.237 OA
ATOM     96  O   UNL A   1      49.246  29.001  34.097  1.00  0.00    -0.237 OA
ATOM     97  O   UNL A   1      50.179  27.120  35.388  1.00  0.00    -0.744 OA
ENDBRANCH  90  94
ENDBRANCH  64  87
ENDBRANCH  38  39
ENDBRANCH  31  33
ENDBRANCH  30  31
ENDBRANCH  29  30
ENDBRANCH  28  29
ENDBRANCH  27  28
ENDBRANCH  26  27
ENDBRANCH   1  26
TORSDOF 24
ENDMDL
MODEL 3
REMARK VINA RESULT:     -10.3      1.363      7.727
REMARK SMILES C[C@@H](C(=O)OCCOCCOCCOC(=O)c1ccc(-c2c3nc(c(-c4cc(S(=O)(=O)[O-])ccc4F)c4ccc([nH]4)c(-c4cc(S(=O)(=O)[O-])ccc4F)c4nc(c(-c5cc(S(=O)(=O)[O-])ccc5F)c5ccc2[nH]5)C=C4)C=C3)cc1)c1cc(C(=O)c2ccccc2)ccc1O
REMARK SMILES IDX 9 1 8 2 7 3 6 4 5 5 3 6 4 7 2 8 1 9 80 10 81 11 93 12 82 13
REMARK SMILES IDX 92 14 91 15 94 16 83 18 84 19 85 20 86 21 90 22 87 23 89 24
REMARK SMILES IDX 88 25 10 26 11 27 12 28 13 29 14 30 15 31 16 32 17 33 18 34
REMARK SMILES IDX 79 35 19 36 78 37 20 38 21 39 22 40 72 41 23 42 77 43 71 44
REMARK SMILES IDX 73 45 24 46 76 47 70 48 69 49 25 51 57 52 37 53 56 54 38 55
REMARK SMILES IDX 41 56 55 57 74 58 39 59 40 60 54 62 75 63 42 64 26 65 27 66
REMARK SMILES IDX 35 67 28 68 34 69 36 70 33 71 29 72 30 73 31 74 32 75 58 76
REMARK SMILES IDX 59 77 67 78 60 79 66 80 68 81 65 82 61 83 62 84 63 85 64 86
REMARK SMILES IDX 43 87 44 88 52 89 45 90 51 91 53 92 50 93 46 94 47 95 48 96
REMARK SMILES IDX 49 97
REMARK H PARENT 94 17 73 50 41 61
REMARK Flexibility Score: inf
ROOT
ATOM      1  C   UNL A   1      29.906  29.585  22.176  1.00  0.00     0.188 C 
ENDROOT
BRANCH   1   2
ATOM      2  O   UNL A   1      30.061  28.381  22.918  1.00  0.00    -0.376 OA
BRANCH   2   3
ATOM      3  C   UNL A   1      28.903  27.593  23.178  1.00  0.00     0.202 C 
BRANCH   3   4
ATOM      4  C   UNL A   1      28.945  26.511  24.278  1.00  0.00     0.261 C 
BRANCH   4   5
ATOM      5  O   UNL A   1      30.271  26.146  24.723  1.00  0.00    -0.463 OA
BRANCH   5   6
ATOM      6  C   UNL A   1      30.865  25.117  24.075  1.00  0.00     0.313 C 
ATOM      7  O   UNL A   1      30.292  24.433  23.228  1.00  0.00    -0.252 OA
BRANCH   6   8
ATOM      8  C   UNL A   1      32.353  24.896  24.394  1.00  0.00     0.130 C 
ATOM      9  C   UNL A   1      33.270  25.165  23.188  1.00  0.00     0.025 C 
BRANCH   8  10
ATOM     10  C   UNL A   1      32.653  23.664  25.279  1.00  0.00     0.009 A 
ATOM     11  C   UNL A   1      33.445  22.576  24.813  1.00  0.00     0.020 A 
ATOM     12  C   UNL A   1      32.293  23.617  26.640  1.00  0.00     0.119 A 
ATOM     13  C   UNL A   1      33.886  21.517  25.661  1.00  0.00     0.023 A 
ATOM     14  C   UNL A   1      32.719  22.582  27.478  1.00  0.00     0.047 A 
ATOM     15  C   UNL A   1      33.538  21.563  27.006  1.00  0.00     0.016 A 
BRANCH  12  16
ATOM     16  O   UNL A   1      31.570  24.560  27.312  1.00  0.00    -0.508 OA
ATOM     17  H   UNL A   1      31.171  25.267  26.844  1.00  0.00     0.293 HD
ENDBRANCH  12  16
BRANCH  13  18
ATOM     18  C   UNL A   1      34.783  20.445  25.105  1.00  0.00     0.193 C 
ATOM     19  O   UNL A   1      35.997  20.656  25.127  1.00  0.00    -0.289 OA
BRANCH  18  20
ATOM     20  C   UNL A   1      34.305  19.139  24.532  1.00  0.00     0.022 A 
ATOM     21  C   UNL A   1      35.143  18.015  24.625  1.00  0.00     0.012 A 
ATOM     22  C   UNL A   1      33.096  18.999  23.844  1.00  0.00     0.012 A 
ATOM     23  C   UNL A   1      34.762  16.782  24.074  1.00  0.00     0.001 A 
ATOM     24  C   UNL A   1      32.707  17.759  23.323  1.00  0.00     0.001 A 
ATOM     25  C   UNL A   1      33.539  16.654  23.426  1.00  0.00     0.000 A 
ENDBRANCH  18  20
ENDBRANCH  13  18
ENDBRANCH   8  10
ENDBRANCH   6   8
ENDBRANCH   5   6
ENDBRANCH   4   5
ENDBRANCH   3   4
ENDBRANCH   2   3
ENDBRANCH   1   2
BRANCH   1  26
ATOM     26  C   UNL A   1      29.252  30.795  22.868  1.00  0.00     0.188 C 
BRANCH  26  27
ATOM     27  O   UNL A   1      29.439  30.863  24.261  1.00  0.00    -0.376 OA
BRANCH  27  28
ATOM     28  C   UNL A   1      30.715  31.172  24.791  1.00  0.00     0.202 C 
BRANCH  28  29
ATOM     29  C   UNL A   1      31.427  30.334  25.874  1.00  0.00     0.261 C 
BRANCH  29  30
ATOM     30  O   UNL A   1      32.825  30.548  26.097  1.00  0.00    -0.460 OA
BRANCH  30  31
ATOM     31  C   UNL A   1      33.162  31.556  26.940  1.00  0.00     0.338 C 
ATOM     32  O   UNL A   1      32.459  32.505  27.254  1.00  0.00    -0.246 OA
BRANCH  31  33
ATOM     33  C   UNL A   1      34.425  31.167  27.608  1.00  0.00     0.060 A 
ATOM     34  C   UNL A   1      34.656  29.816  27.891  1.00  0.00     0.016 A 
ATOM     35  C   UNL A   1      35.389  32.126  27.924  1.00  0.00     0.016 A 
ATOM     36  C   UNL A   1      35.854  29.423  28.485  1.00  0.00     0.010 A 
ATOM     37  C   UNL A   1      36.576  31.732  28.555  1.00  0.00     0.010 A 
ATOM     38  C   UNL A   1      36.811  30.377  28.852  1.00  0.00    -0.014 A 
BRANCH  38  39
ATOM     39  C   UNL A   1      37.934  29.981  29.742  1.00  0.00     0.031 A 
ATOM     40  C   UNL A   1      39.041  29.151  29.144  1.00  0.00     0.074 A 
ATOM     41  C   UNL A   1      38.034  30.427  31.009  1.00  0.00     0.049 A 
ATOM     42  N   UNL A   1      40.137  28.696  29.692  1.00  0.00    -0.248 NA
ATOM     43  C   UNL A   1      38.887  28.799  27.723  1.00  0.00     0.031 C 
ATOM     44  C   UNL A   1      37.129  31.392  31.633  1.00  0.00     0.029 A 
ATOM     45  N   UNL A   1      38.996  30.203  31.967  1.00  0.00    -0.354 N 
ATOM     46  C   UNL A   1      40.783  27.968  28.696  1.00  0.00     0.074 A 
ATOM     47  C   UNL A   1      39.959  28.053  27.510  1.00  0.00     0.031 C 
ATOM     48  C   UNL A   1      37.634  31.748  32.829  1.00  0.00     0.029 A 
ATOM     49  C   UNL A   1      38.858  30.989  33.092  1.00  0.00     0.049 A 
ATOM     50  H   UNL A   1      39.717  29.542  31.860  1.00  0.00     0.167 HD
ATOM     51  C   UNL A   1      41.945  27.275  28.768  1.00  0.00     0.034 A 
ATOM     52  C   UNL A   1      39.649  31.102  34.185  1.00  0.00     0.034 A 
ATOM     53  C   UNL A   1      42.770  27.218  29.950  1.00  0.00     0.049 A 
ATOM     54  C   UNL A   1      40.909  30.262  34.267  1.00  0.00     0.074 A 
ATOM     55  C   UNL A   1      43.941  26.506  30.145  1.00  0.00     0.029 A 
ATOM     56  N   UNL A   1      42.514  27.894  31.134  1.00  0.00    -0.354 N 
ATOM     57  N   UNL A   1      41.474  29.518  33.343  1.00  0.00    -0.248 NA
ATOM     58  C   UNL A   1      41.636  30.276  35.547  1.00  0.00     0.031 C 
ATOM     59  C   UNL A   1      44.341  26.680  31.474  1.00  0.00     0.029 A 
ATOM     60  C   UNL A   1      43.480  27.580  32.078  1.00  0.00     0.049 A 
ATOM     61  H   UNL A   1      41.757  28.507  31.282  1.00  0.00     0.167 HD
ATOM     62  C   UNL A   1      42.628  28.991  33.929  1.00  0.00     0.074 A 
ATOM     63  C   UNL A   1      42.701  29.541  35.265  1.00  0.00     0.031 C 
ATOM     64  C   UNL A   1      43.538  28.123  33.416  1.00  0.00     0.034 A 
BRANCH  51  65
ATOM     65  C   UNL A   1      42.325  26.425  27.579  1.00  0.00     0.023 A 
ATOM     66  C   UNL A   1      42.026  25.055  27.497  1.00  0.00     0.031 A 
ATOM     67  C   UNL A   1      43.040  27.009  26.515  1.00  0.00     0.131 A 
ATOM     68  C   UNL A   1      42.495  24.304  26.407  1.00  0.00     0.055 A 
ATOM     69  C   UNL A   1      43.429  26.275  25.396  1.00  0.00     0.041 A 
ATOM     70  F   UNL A   1      43.381  28.307  26.554  1.00  0.00    -0.206 F 
ATOM     71  C   UNL A   1      43.169  24.910  25.343  1.00  0.00     0.022 A 
BRANCH  68  72
ATOM     72  S   UNL A   1      42.349  22.496  26.464  1.00  0.00     0.124 S 
ATOM     73  O   UNL A   1      40.970  22.298  26.023  1.00  0.00    -0.237 OA
ATOM     74  O   UNL A   1      43.387  22.067  25.535  1.00  0.00    -0.237 OA
ATOM     75  O   UNL A   1      42.597  22.177  27.869  1.00  0.00    -0.744 OA
ENDBRANCH  68  72
ENDBRANCH  51  65
BRANCH  52  76
ATOM     76  C   UNL A   1      39.295  32.030  35.308  1.00  0.00     0.023 A 
ATOM     77  C   UNL A   1      39.825  33.333  35.378  1.00  0.00     0.031 A 
ATOM     78  C   UNL A   1      38.497  31.599  36.384  1.00  0.00     0.131 A 
ATOM     79  C   UNL A   1      39.595  34.128  36.514  1.00  0.00     0.055 A 
ATOM     80  C   UNL A   1      38.208  32.422  37.473  1.00  0.00     0.041 A 
ATOM     81  F   UNL A   1      37.986  30.358  36.396  1.00  0.00    -0.206 F 
ATOM     82  C   UNL A   1      38.771  33.690  37.551  1.00  0.00     0.022 A 
BRANCH  79  83
ATOM     83  S   UNL A   1      40.498  35.696  36.684  1.00  0.00     0.124 S 
ATOM     84  O   UNL A   1      41.799  35.348  36.123  1.00  0.00    -0.237 OA
ATOM     85  O   UNL A   1      39.677  36.603  35.890  1.00  0.00    -0.237 OA
ATOM     86  O   UNL A   1      40.483  35.942  38.124  1.00  0.00    -0.744 OA
ENDBRANCH  79  83
ENDBRANCH  52  76
BRANCH  64  87
ATOM     87  C   UNL A   1      44.702  27.718  34.296  1.00  0.00     0.023 A 
ATOM     88  C   UNL A   1      44.671  26.545  35.072  1.00  0.00     0.031 A 
ATOM     89  C   UNL A   1      45.871  28.501  34.341  1.00  0.00     0.131 A 
ATOM     90  C   UNL A   1      45.759  26.218  35.899  1.00  0.00     0.055 A 
ATOM     91  C   UNL A   1      46.976  28.136  35.112  1.00  0.00     0.041 A 
ATOM     92  F   UNL A   1      45.963  29.633  33.623  1.00  0.00    -0.206 F 
ATOM     93  C   UNL A   1      46.919  26.995  35.907  1.00  0.00     0.022 A 
BRANCH  90  94
ATOM     94  S   UNL A   1      45.599  24.814  37.035  1.00  0.00     0.124 S 
ATOM     95  O   UNL A   1      45.961  23.688  36.181  1.00  0.00    -0.237 OA
ATOM     96  O   UNL A   1      46.556  25.151  38.085  1.00  0.00    -0.237 OA
ATOM     97  O   UNL A   1      44.195  24.858  37.441  1.00  0.00    -0.744 OA
ENDBRANCH  90  94
ENDBRANCH  64  87
ENDBRANCH  38  39
ENDBRANCH  31  33
ENDBRANCH  30  31
ENDBRANCH  29  30
ENDBRANCH  28  29
ENDBRANCH  27  28
ENDBRANCH  26  27
ENDBRANCH   1  26
TORSDOF 24
ENDMDL
