MODEL 1
REMARK VINA RESULT:      -9.8      0.000      0.000
REMARK SMILES O=C(CCc1ccccc1)Nc1ccccc1Oc1ccsc1C(=O)OCCOCCOCCOC(=O)c1ccc(-c2c3nc(c(-c4cc(S(=O)(=O)[O-])ccc4F)c4ccc([nH]4)c(-c4cc(S(=O)(=O)[O-])ccc4F)c4nc(c(-c5cc(S(=O)(=O)[O-])ccc5F)c5ccc2[nH]5)C=C4)C=C3)cc1
REMARK SMILES IDX 29 1 28 2 27 3 26 4 24 5 25 6 23 7 19 8 20 9 21 10 22 11
REMARK SMILES IDX 18 12 17 13 12 14 13 15 14 16 16 17 15 18 11 19 1 20 2 21
REMARK SMILES IDX 3 23 4 24 5 25 6 26 10 27 7 28 9 29 8 30 30 31 31 32 32 33
REMARK SMILES IDX 33 34 34 35 35 36 36 37 37 38 38 39 39 40 100 41 40 42 99 43
REMARK SMILES IDX 41 44 42 45 43 46 93 47 44 48 98 49 92 50 94 51 45 52 97 53
REMARK SMILES IDX 91 54 90 55 46 57 78 58 58 59 77 60 59 61 62 62 76 63 95 64
REMARK SMILES IDX 60 65 61 66 75 68 96 69 63 70 47 71 48 72 56 73 49 74 55 75
REMARK SMILES IDX 57 76 54 77 50 78 51 79 52 80 53 81 79 82 80 83 88 84 81 85
REMARK SMILES IDX 87 86 89 87 86 88 82 89 83 90 84 91 85 92 64 93 65 94 73 95
REMARK SMILES IDX 66 96 72 97 74 98 71 99 67 100 68 101 69 102 70 103
REMARK H PARENT 11 22 94 56 62 67
REMARK Flexibility Score: inf
ROOT
ATOM      1  O   UNL A   1      34.828  32.131  27.480  1.00  0.00    -0.376 OA
ENDROOT
BRANCH   1   2
ATOM      2  C   UNL A   1      33.776  31.233  27.804  1.00  0.00     0.202 C 
BRANCH   2   3
ATOM      3  C   UNL A   1      32.466  31.344  27.005  1.00  0.00     0.261 C 
BRANCH   3   4
ATOM      4  O   UNL A   1      32.315  30.461  25.882  1.00  0.00    -0.459 OA
BRANCH   4   5
ATOM      5  C   UNL A   1      32.060  29.145  26.193  1.00  0.00     0.352 C 
ATOM      6  O   UNL A   1      31.432  28.803  27.179  1.00  0.00    -0.245 OA
BRANCH   5   7
ATOM      7  C   UNL A   1      32.651  28.232  25.214  1.00  0.00     0.155 A 
ATOM      8  C   UNL A   1      32.547  28.150  23.834  1.00  0.00     0.152 A 
ATOM      9  C   UNL A   1      33.376  27.124  23.280  1.00  0.00     0.060 A 
ATOM     10  C   UNL A   1      33.965  26.356  24.259  1.00  0.00     0.070 A 
ATOM     11  S   UNL A   1      33.638  26.956  25.822  1.00  0.00    -0.133 S 
BRANCH   8  12
ATOM     12  O   UNL A   1      31.718  28.987  23.168  1.00  0.00    -0.453 OA
BRANCH  12  13
ATOM     13  C   UNL A   1      30.348  28.911  23.159  1.00  0.00     0.151 A 
ATOM     14  C   UNL A   1      29.538  27.761  23.208  1.00  0.00     0.084 A 
ATOM     15  C   UNL A   1      28.139  27.935  23.225  1.00  0.00     0.030 A 
ATOM     16  C   UNL A   1      27.553  29.202  23.255  1.00  0.00     0.002 A 
ATOM     17  C   UNL A   1      29.743  30.184  23.180  1.00  0.00     0.049 A 
ATOM     18  C   UNL A   1      28.358  30.332  23.231  1.00  0.00     0.004 A 
BRANCH  14  19
ATOM     19  N   UNL A   1      29.943  26.406  23.211  1.00  0.00    -0.323 N 
ATOM     20  O   UNL A   1      29.496  25.723  25.348  1.00  0.00    -0.275 OA
ATOM     21  C   UNL A   1      30.053  25.549  24.271  1.00  0.00     0.224 C 
ATOM     22  H   UNL A   1      30.179  26.029  22.331  1.00  0.00     0.170 HD
BRANCH  21  23
ATOM     23  C   UNL A   1      30.958  24.335  24.087  1.00  0.00     0.105 C 
BRANCH  23  24
ATOM     24  C   UNL A   1      30.845  23.225  25.128  1.00  0.00     0.045 C 
BRANCH  24  25
ATOM     25  C   UNL A   1      32.123  22.648  25.689  1.00  0.00    -0.048 A 
ATOM     26  C   UNL A   1      32.931  23.488  26.469  1.00  0.00     0.004 A 
ATOM     27  C   UNL A   1      32.521  21.318  25.499  1.00  0.00     0.004 A 
ATOM     28  C   UNL A   1      34.061  22.988  27.112  1.00  0.00     0.000 A 
ATOM     29  C   UNL A   1      33.632  20.809  26.171  1.00  0.00     0.000 A 
ATOM     30  C   UNL A   1      34.396  21.642  26.984  1.00  0.00     0.000 A 
ENDBRANCH  24  25
ENDBRANCH  23  24
ENDBRANCH  21  23
ENDBRANCH  14  19
ENDBRANCH  12  13
ENDBRANCH   8  12
ENDBRANCH   5   7
ENDBRANCH   4   5
ENDBRANCH   3   4
ENDBRANCH   2   3
ENDBRANCH   1   2
BRANCH   1  31
ATOM     31  C   UNL A   1      35.542  32.661  28.594  1.00  0.00     0.188 C 
BRANCH  31  32
ATOM     32  C   UNL A   1      34.976  33.943  29.202  1.00  0.00     0.188 C 
BRANCH  32  33
ATOM     33  O   UNL A   1      34.175  33.786  30.372  1.00  0.00    -0.376 OA
BRANCH  33  34
ATOM     34  C   UNL A   1      34.526  32.660  31.182  1.00  0.00     0.202 C 
BRANCH  34  35
ATOM     35  C   UNL A   1      34.797  32.932  32.681  1.00  0.00     0.261 C 
BRANCH  35  36
ATOM     36  O   UNL A   1      36.159  32.741  33.131  1.00  0.00    -0.460 OA
BRANCH  36  37
ATOM     37  C   UNL A   1      37.013  33.778  32.957  1.00  0.00     0.338 C 
ATOM     38  O   UNL A   1      36.868  34.902  33.408  1.00  0.00    -0.246 OA
BRANCH  37  39
ATOM     39  C   UNL A   1      38.280  33.288  32.343  1.00  0.00     0.060 A 
ATOM     40  C   UNL A   1      38.478  33.567  30.987  1.00  0.00     0.016 A 
ATOM     41  C   UNL A   1      39.262  32.581  33.038  1.00  0.00     0.016 A 
ATOM     42  C   UNL A   1      39.604  33.095  30.307  1.00  0.00     0.010 A 
ATOM     43  C   UNL A   1      40.396  32.098  32.351  1.00  0.00     0.010 A 
ATOM     44  C   UNL A   1      40.559  32.317  30.969  1.00  0.00    -0.014 A 
BRANCH  44  45
ATOM     45  C   UNL A   1      41.609  31.616  30.163  1.00  0.00     0.031 A 
ATOM     46  C   UNL A   1      42.939  32.300  29.947  1.00  0.00     0.074 A 
ATOM     47  C   UNL A   1      41.448  30.351  29.722  1.00  0.00     0.049 A 
ATOM     48  N   UNL A   1      43.992  31.891  29.283  1.00  0.00    -0.248 NA
ATOM     49  C   UNL A   1      43.107  33.618  30.579  1.00  0.00     0.031 C 
ATOM     50  C   UNL A   1      40.259  29.527  29.930  1.00  0.00     0.029 A 
ATOM     51  N   UNL A   1      42.299  29.529  29.015  1.00  0.00    -0.354 N 
ATOM     52  C   UNL A   1      44.944  32.898  29.416  1.00  0.00     0.074 A 
ATOM     53  C   UNL A   1      44.328  33.952  30.194  1.00  0.00     0.031 C 
ATOM     54  C   UNL A   1      40.456  28.321  29.368  1.00  0.00     0.029 A 
ATOM     55  C   UNL A   1      41.764  28.295  28.714  1.00  0.00     0.049 A 
ATOM     56  H   UNL A   1      43.207  29.800  28.748  1.00  0.00     0.167 HD
ATOM     57  C   UNL A   1      46.217  32.940  28.948  1.00  0.00     0.034 A 
ATOM     58  C   UNL A   1      42.256  27.275  27.975  1.00  0.00     0.034 A 
ATOM     59  C   UNL A   1      46.835  31.893  28.168  1.00  0.00     0.049 A 
ATOM     60  C   UNL A   1      43.631  27.404  27.354  1.00  0.00     0.074 A 
ATOM     61  C   UNL A   1      48.111  31.860  27.632  1.00  0.00     0.029 A 
ATOM     62  N   UNL A   1      46.228  30.697  27.812  1.00  0.00    -0.354 N 
ATOM     63  N   UNL A   1      44.507  28.377  27.467  1.00  0.00    -0.248 NA
ATOM     64  C   UNL A   1      44.087  26.288  26.511  1.00  0.00     0.031 C 
ATOM     65  C   UNL A   1      48.250  30.682  26.891  1.00  0.00     0.029 A 
ATOM     66  C   UNL A   1      47.092  29.937  27.037  1.00  0.00     0.049 A 
ATOM     67  H   UNL A   1      45.317  30.428  28.070  1.00  0.00     0.167 HD
ATOM     68  C   UNL A   1      45.625  27.968  26.739  1.00  0.00     0.074 A 
ATOM     69  C   UNL A   1      45.327  26.652  26.221  1.00  0.00     0.031 C 
ATOM     70  C   UNL A   1      46.794  28.624  26.516  1.00  0.00     0.034 A 
BRANCH  57  71
ATOM     71  C   UNL A   1      47.020  34.188  29.225  1.00  0.00     0.023 A 
ATOM     72  C   UNL A   1      47.032  35.276  28.335  1.00  0.00     0.031 A 
ATOM     73  C   UNL A   1      47.781  34.293  30.403  1.00  0.00     0.131 A 
ATOM     74  C   UNL A   1      47.827  36.398  28.611  1.00  0.00     0.055 A 
ATOM     75  C   UNL A   1      48.510  35.443  30.710  1.00  0.00     0.041 A 
ATOM     76  F   UNL A   1      47.827  33.277  31.279  1.00  0.00    -0.206 F 
ATOM     77  C   UNL A   1      48.544  36.500  29.806  1.00  0.00     0.022 A 
BRANCH  74  78
ATOM     78  S   UNL A   1      48.006  37.673  27.334  1.00  0.00     0.124 S 
ATOM     79  O   UNL A   1      49.387  38.106  27.541  1.00  0.00    -0.237 OA
ATOM     80  O   UNL A   1      47.748  36.929  26.106  1.00  0.00    -0.237 OA
ATOM     81  O   UNL A   1      46.991  38.661  27.691  1.00  0.00    -0.744 OA
ENDBRANCH  74  78
ENDBRANCH  57  71
BRANCH  58  82
ATOM     82  C   UNL A   1      41.436  26.050  27.701  1.00  0.00     0.023 A 
ATOM     83  C   UNL A   1      41.889  24.770  28.063  1.00  0.00     0.031 A 
ATOM     84  C   UNL A   1      40.248  26.134  26.952  1.00  0.00     0.131 A 
ATOM     85  C   UNL A   1      41.204  23.628  27.611  1.00  0.00     0.055 A 
ATOM     86  C   UNL A   1      39.529  24.999  26.571  1.00  0.00     0.041 A 
ATOM     87  F   UNL A   1      39.775  27.328  26.559  1.00  0.00    -0.206 F 
ATOM     88  C   UNL A   1      40.018  23.735  26.883  1.00  0.00     0.022 A 
BRANCH  85  89
ATOM     89  S   UNL A   1      41.969  21.999  27.859  1.00  0.00     0.124 S 
ATOM     90  O   UNL A   1      40.810  21.178  28.191  1.00  0.00    -0.237 OA
ATOM     91  O   UNL A   1      42.580  21.750  26.557  1.00  0.00    -0.237 OA
ATOM     92  O   UNL A   1      42.909  22.227  28.954  1.00  0.00    -0.744 OA
ENDBRANCH  85  89
ENDBRANCH  58  82
BRANCH  70  93
ATOM     93  C   UNL A   1      47.855  27.897  25.718  1.00  0.00     0.023 A 
ATOM     94  C   UNL A   1      47.963  28.038  24.324  1.00  0.00     0.031 A 
ATOM     95  C   UNL A   1      48.749  27.019  26.360  1.00  0.00     0.131 A 
ATOM     96  C   UNL A   1      48.882  27.255  23.608  1.00  0.00     0.055 A 
ATOM     97  C   UNL A   1      49.712  26.298  25.650  1.00  0.00     0.041 A 
ATOM     98  F   UNL A   1      48.698  26.839  27.689  1.00  0.00    -0.206 F 
ATOM     99  C   UNL A   1      49.769  26.398  24.264  1.00  0.00     0.022 A 
BRANCH  96 100
ATOM    100  S   UNL A   1      48.815  27.273  21.794  1.00  0.00     0.124 S 
ATOM    101  O   UNL A   1      47.582  28.011  21.544  1.00  0.00    -0.237 OA
ATOM    102  O   UNL A   1      50.052  27.962  21.444  1.00  0.00    -0.237 OA
ATOM    103  O   UNL A   1      48.774  25.855  21.437  1.00  0.00    -0.744 OA
ENDBRANCH  96 100
ENDBRANCH  70  93
ENDBRANCH  44  45
ENDBRANCH  37  39
ENDBRANCH  36  37
ENDBRANCH  35  36
ENDBRANCH  34  35
ENDBRANCH  33  34
ENDBRANCH  32  33
ENDBRANCH  31  32
ENDBRANCH   1  31
TORSDOF 26
ENDMDL
MODEL 2
REMARK VINA RESULT:      -9.5      3.407     10.191
REMARK SMILES O=C(CCc1ccccc1)Nc1ccccc1Oc1ccsc1C(=O)OCCOCCOCCOC(=O)c1ccc(-c2c3nc(c(-c4cc(S(=O)(=O)[O-])ccc4F)c4ccc([nH]4)c(-c4cc(S(=O)(=O)[O-])ccc4F)c4nc(c(-c5cc(S(=O)(=O)[O-])ccc5F)c5ccc2[nH]5)C=C4)C=C3)cc1
REMARK SMILES IDX 29 1 28 2 27 3 26 4 24 5 25 6 23 7 19 8 20 9 21 10 22 11
REMARK SMILES IDX 18 12 17 13 12 14 13 15 14 16 16 17 15 18 11 19 1 20 2 21
REMARK SMILES IDX 3 23 4 24 5 25 6 26 10 27 7 28 9 29 8 30 30 31 31 32 32 33
REMARK SMILES IDX 33 34 34 35 35 36 36 37 37 38 38 39 39 40 100 41 40 42 99 43
REMARK SMILES IDX 41 44 42 45 43 46 93 47 44 48 98 49 92 50 94 51 45 52 97 53
REMARK SMILES IDX 91 54 90 55 46 57 78 58 58 59 77 60 59 61 62 62 76 63 95 64
REMARK SMILES IDX 60 65 61 66 75 68 96 69 63 70 47 71 48 72 56 73 49 74 55 75
REMARK SMILES IDX 57 76 54 77 50 78 51 79 52 80 53 81 79 82 80 83 88 84 81 85
REMARK SMILES IDX 87 86 89 87 86 88 82 89 83 90 84 91 85 92 64 93 65 94 73 95
REMARK SMILES IDX 66 96 72 97 74 98 71 99 67 100 68 101 69 102 70 103
REMARK H PARENT 11 22 94 56 62 67
REMARK Flexibility Score: inf
ROOT
ATOM      1  O   UNL A   1      38.112  23.771  26.376  1.00  0.00    -0.376 OA
ENDROOT
BRANCH   1   2
ATOM      2  C   UNL A   1      37.790  22.835  25.357  1.00  0.00     0.202 C 
BRANCH   2   3
ATOM      3  C   UNL A   1      36.814  21.700  25.708  1.00  0.00     0.261 C 
BRANCH   3   4
ATOM      4  O   UNL A   1      35.575  21.662  24.983  1.00  0.00    -0.459 OA
BRANCH   4   5
ATOM      5  C   UNL A   1      34.508  21.115  25.659  1.00  0.00     0.352 C 
ATOM      6  O   UNL A   1      34.265  21.361  26.828  1.00  0.00    -0.245 OA
BRANCH   5   7
ATOM      7  C   UNL A   1      33.737  20.205  24.813  1.00  0.00     0.155 A 
ATOM      8  C   UNL A   1      32.585  20.380  24.061  1.00  0.00     0.152 A 
ATOM      9  C   UNL A   1      32.228  19.210  23.321  1.00  0.00     0.060 A 
ATOM     10  C   UNL A   1      33.022  18.134  23.648  1.00  0.00     0.070 A 
ATOM     11  S   UNL A   1      34.273  18.569  24.723  1.00  0.00    -0.133 S 
BRANCH   8  12
ATOM     12  O   UNL A   1      31.932  21.565  24.094  1.00  0.00    -0.453 OA
BRANCH  12  13
ATOM     13  C   UNL A   1      32.287  22.690  23.392  1.00  0.00     0.151 A 
ATOM     14  C   UNL A   1      32.386  24.015  23.859  1.00  0.00     0.084 A 
ATOM     15  C   UNL A   1      32.810  25.008  22.953  1.00  0.00     0.030 A 
ATOM     16  C   UNL A   1      33.184  24.700  21.643  1.00  0.00     0.002 A 
ATOM     17  C   UNL A   1      32.658  22.396  22.065  1.00  0.00     0.049 A 
ATOM     18  C   UNL A   1      33.107  23.389  21.197  1.00  0.00     0.004 A 
BRANCH  14  19
ATOM     19  N   UNL A   1      32.079  24.512  25.147  1.00  0.00    -0.323 N 
ATOM     20  O   UNL A   1      29.934  25.276  24.921  1.00  0.00    -0.275 OA
ATOM     21  C   UNL A   1      30.987  25.233  25.546  1.00  0.00     0.224 C 
ATOM     22  H   UNL A   1      32.739  24.314  25.850  1.00  0.00     0.170 HD
BRANCH  21  23
ATOM     23  C   UNL A   1      31.128  26.049  26.826  1.00  0.00     0.105 C 
BRANCH  23  24
ATOM     24  C   UNL A   1      31.513  27.518  26.670  1.00  0.00     0.045 C 
BRANCH  24  25
ATOM     25  C   UNL A   1      32.188  27.940  25.388  1.00  0.00    -0.048 A 
ATOM     26  C   UNL A   1      31.372  28.351  24.325  1.00  0.00     0.004 A 
ATOM     27  C   UNL A   1      33.579  27.975  25.219  1.00  0.00     0.004 A 
ATOM     28  C   UNL A   1      31.932  28.864  23.156  1.00  0.00     0.000 A 
ATOM     29  C   UNL A   1      34.139  28.520  24.065  1.00  0.00     0.000 A 
ATOM     30  C   UNL A   1      33.315  28.973  23.038  1.00  0.00     0.000 A 
ENDBRANCH  24  25
ENDBRANCH  23  24
ENDBRANCH  21  23
ENDBRANCH  14  19
ENDBRANCH  12  13
ENDBRANCH   8  12
ENDBRANCH   5   7
ENDBRANCH   4   5
ENDBRANCH   3   4
ENDBRANCH   2   3
ENDBRANCH   1   2
BRANCH   1  31
ATOM     31  C   UNL A   1      39.388  23.592  26.987  1.00  0.00     0.188 C 
BRANCH  31  32
ATOM     32  C   UNL A   1      40.245  22.459  26.424  1.00  0.00     0.188 C 
BRANCH  32  33
ATOM     33  O   UNL A   1      40.113  21.191  27.063  1.00  0.00    -0.376 OA
BRANCH  33  34
ATOM     34  C   UNL A   1      40.765  20.115  26.381  1.00  0.00     0.202 C 
BRANCH  34  35
ATOM     35  C   UNL A   1      42.305  20.198  26.252  1.00  0.00     0.261 C 
BRANCH  35  36
ATOM     36  O   UNL A   1      42.861  19.839  24.965  1.00  0.00    -0.460 OA
BRANCH  36  37
ATOM     37  C   UNL A   1      44.211  19.830  24.862  1.00  0.00     0.338 C 
ATOM     38  O   UNL A   1      44.891  18.882  24.506  1.00  0.00    -0.246 OA
BRANCH  37  39
ATOM     39  C   UNL A   1      44.735  21.218  25.009  1.00  0.00     0.060 A 
ATOM     40  C   UNL A   1      45.348  21.541  26.223  1.00  0.00     0.016 A 
ATOM     41  C   UNL A   1      44.650  22.193  24.014  1.00  0.00     0.016 A 
ATOM     42  C   UNL A   1      45.814  22.834  26.479  1.00  0.00     0.010 A 
ATOM     43  C   UNL A   1      45.113  23.501  24.273  1.00  0.00     0.010 A 
ATOM     44  C   UNL A   1      45.665  23.844  25.524  1.00  0.00    -0.014 A 
BRANCH  44  45
ATOM     45  C   UNL A   1      45.934  25.263  25.921  1.00  0.00     0.031 A 
ATOM     46  C   UNL A   1      44.789  26.105  26.435  1.00  0.00     0.074 A 
ATOM     47  C   UNL A   1      47.181  25.776  25.943  1.00  0.00     0.049 A 
ATOM     48  N   UNL A   1      44.781  27.354  26.832  1.00  0.00    -0.248 NA
ATOM     49  C   UNL A   1      43.479  25.442  26.527  1.00  0.00     0.031 C 
ATOM     50  C   UNL A   1      48.398  25.060  25.565  1.00  0.00     0.029 A 
ATOM     51  N   UNL A   1      47.635  27.023  26.314  1.00  0.00    -0.354 N 
ATOM     52  C   UNL A   1      43.472  27.626  27.218  1.00  0.00     0.074 A 
ATOM     53  C   UNL A   1      42.708  26.421  26.972  1.00  0.00     0.031 C 
ATOM     54  C   UNL A   1      49.456  25.876  25.726  1.00  0.00     0.029 A 
ATOM     55  C   UNL A   1      48.995  27.191  26.170  1.00  0.00     0.049 A 
ATOM     56  H   UNL A   1      47.040  27.732  26.651  1.00  0.00     0.167 HD
ATOM     57  C   UNL A   1      42.952  28.765  27.740  1.00  0.00     0.034 A 
ATOM     58  C   UNL A   1      49.776  28.281  26.347  1.00  0.00     0.034 A 
ATOM     59  C   UNL A   1      43.709  29.971  27.983  1.00  0.00     0.049 A 
ATOM     60  C   UNL A   1      49.144  29.579  26.807  1.00  0.00     0.074 A 
ATOM     61  C   UNL A   1      43.261  31.180  28.488  1.00  0.00     0.029 A 
ATOM     62  N   UNL A   1      45.067  30.125  27.741  1.00  0.00    -0.354 N 
ATOM     63  N   UNL A   1      47.898  29.825  27.141  1.00  0.00    -0.248 NA
ATOM     64  C   UNL A   1      50.033  30.746  26.923  1.00  0.00     0.031 C 
ATOM     65  C   UNL A   1      44.327  32.085  28.481  1.00  0.00     0.029 A 
ATOM     66  C   UNL A   1      45.462  31.418  28.055  1.00  0.00     0.049 A 
ATOM     67  H   UNL A   1      45.662  29.421  27.395  1.00  0.00     0.167 HD
ATOM     68  C   UNL A   1      47.868  31.162  27.538  1.00  0.00     0.074 A 
ATOM     69  C   UNL A   1      49.221  31.658  27.434  1.00  0.00     0.031 C 
ATOM     70  C   UNL A   1      46.814  31.914  27.949  1.00  0.00     0.034 A 
BRANCH  57  71
ATOM     71  C   UNL A   1      41.473  28.781  28.043  1.00  0.00     0.023 A 
ATOM     72  C   UNL A   1      40.979  28.560  29.340  1.00  0.00     0.031 A 
ATOM     73  C   UNL A   1      40.543  29.029  27.016  1.00  0.00     0.131 A 
ATOM     74  C   UNL A   1      39.595  28.540  29.567  1.00  0.00     0.055 A 
ATOM     75  C   UNL A   1      39.171  29.083  27.263  1.00  0.00     0.041 A 
ATOM     76  F   UNL A   1      40.956  29.224  25.754  1.00  0.00    -0.206 F 
ATOM     77  C   UNL A   1      38.688  28.828  28.542  1.00  0.00     0.022 A 
BRANCH  74  78
ATOM     78  S   UNL A   1      38.988  28.017  31.193  1.00  0.00     0.124 S 
ATOM     79  O   UNL A   1      38.625  26.624  30.939  1.00  0.00    -0.237 OA
ATOM     80  O   UNL A   1      40.151  28.226  32.048  1.00  0.00    -0.237 OA
ATOM     81  O   UNL A   1      37.860  28.911  31.444  1.00  0.00    -0.744 OA
ENDBRANCH  74  78
ENDBRANCH  57  71
BRANCH  58  82
ATOM     82  C   UNL A   1      51.240  28.247  26.028  1.00  0.00     0.023 A 
ATOM     83  C   UNL A   1      51.699  28.189  24.700  1.00  0.00     0.031 A 
ATOM     84  C   UNL A   1      52.196  28.137  27.054  1.00  0.00     0.131 A 
ATOM     85  C   UNL A   1      53.058  27.948  24.436  1.00  0.00     0.055 A 
ATOM     86  C   UNL A   1      53.557  27.975  26.785  1.00  0.00     0.041 A 
ATOM     87  F   UNL A   1      51.818  28.164  28.342  1.00  0.00    -0.206 F 
ATOM     88  C   UNL A   1      53.992  27.859  25.470  1.00  0.00     0.022 A 
BRANCH  85  89
ATOM     89  S   UNL A   1      53.566  27.602  22.727  1.00  0.00     0.124 S 
ATOM     90  O   UNL A   1      54.774  28.410  22.609  1.00  0.00    -0.237 OA
ATOM     91  O   UNL A   1      53.760  26.156  22.756  1.00  0.00    -0.237 OA
ATOM     92  O   UNL A   1      52.427  28.061  21.934  1.00  0.00    -0.744 OA
ENDBRANCH  85  89
ENDBRANCH  58  82
BRANCH  70  93
ATOM     93  C   UNL A   1      47.102  33.340  28.368  1.00  0.00     0.023 A 
ATOM     94  C   UNL A   1      47.598  33.654  29.645  1.00  0.00     0.031 A 
ATOM     95  C   UNL A   1      46.839  34.407  27.487  1.00  0.00     0.131 A 
ATOM     96  C   UNL A   1      47.737  34.995  30.035  1.00  0.00     0.055 A 
ATOM     97  C   UNL A   1      47.051  35.737  27.855  1.00  0.00     0.041 A 
ATOM     98  F   UNL A   1      46.364  34.174  26.253  1.00  0.00    -0.206 F 
ATOM     99  C   UNL A   1      47.483  36.039  29.142  1.00  0.00     0.022 A 
BRANCH  96 100
ATOM    100  S   UNL A   1      48.131  35.362  31.769  1.00  0.00     0.124 S 
ATOM    101  O   UNL A   1      48.757  36.676  31.665  1.00  0.00    -0.237 OA
ATOM    102  O   UNL A   1      46.816  35.332  32.399  1.00  0.00    -0.237 OA
ATOM    103  O   UNL A   1      49.028  34.275  32.155  1.00  0.00    -0.744 OA
ENDBRANCH  96 100
ENDBRANCH  70  93
ENDBRANCH  44  45
ENDBRANCH  37  39
ENDBRANCH  36  37
ENDBRANCH  35  36
ENDBRANCH  34  35
ENDBRANCH  33  34
ENDBRANCH  32  33
ENDBRANCH  31  32
ENDBRANCH   1  31
TORSDOF 26
ENDMDL
MODEL 3
REMARK VINA RESULT:      -9.1      3.473      8.612
REMARK SMILES O=C(CCc1ccccc1)Nc1ccccc1Oc1ccsc1C(=O)OCCOCCOCCOC(=O)c1ccc(-c2c3nc(c(-c4cc(S(=O)(=O)[O-])ccc4F)c4ccc([nH]4)c(-c4cc(S(=O)(=O)[O-])ccc4F)c4nc(c(-c5cc(S(=O)(=O)[O-])ccc5F)c5ccc2[nH]5)C=C4)C=C3)cc1
REMARK SMILES IDX 29 1 28 2 27 3 26 4 24 5 25 6 23 7 19 8 20 9 21 10 22 11
REMARK SMILES IDX 18 12 17 13 12 14 13 15 14 16 16 17 15 18 11 19 1 20 2 21
REMARK SMILES IDX 3 23 4 24 5 25 6 26 10 27 7 28 9 29 8 30 30 31 31 32 32 33
REMARK SMILES IDX 33 34 34 35 35 36 36 37 37 38 38 39 39 40 100 41 40 42 99 43
REMARK SMILES IDX 41 44 42 45 43 46 93 47 44 48 98 49 92 50 94 51 45 52 97 53
REMARK SMILES IDX 91 54 90 55 46 57 78 58 58 59 77 60 59 61 62 62 76 63 95 64
REMARK SMILES IDX 60 65 61 66 75 68 96 69 63 70 47 71 48 72 56 73 49 74 55 75
REMARK SMILES IDX 57 76 54 77 50 78 51 79 52 80 53 81 79 82 80 83 88 84 81 85
REMARK SMILES IDX 87 86 89 87 86 88 82 89 83 90 84 91 85 92 64 93 65 94 73 95
REMARK SMILES IDX 66 96 72 97 74 98 71 99 67 100 68 101 69 102 70 103
REMARK H PARENT 11 22 94 56 62 67
REMARK Flexibility Score: inf
ROOT
ATOM      1  O   UNL A   1      35.339  31.797  27.379  1.00  0.00    -0.376 OA
ENDROOT
BRANCH   1   2
ATOM      2  C   UNL A   1      34.501  30.685  27.663  1.00  0.00     0.202 C 
BRANCH   2   3
ATOM      3  C   UNL A   1      33.334  30.402  26.702  1.00  0.00     0.261 C 
BRANCH   3   4
ATOM      4  O   UNL A   1      33.561  29.423  25.675  1.00  0.00    -0.459 OA
BRANCH   4   5
ATOM      5  C   UNL A   1      32.496  28.598  25.396  1.00  0.00     0.352 C 
ATOM      6  O   UNL A   1      31.471  28.588  26.056  1.00  0.00    -0.245 OA
BRANCH   5   7
ATOM      7  C   UNL A   1      32.761  27.740  24.242  1.00  0.00     0.155 A 
ATOM      8  C   UNL A   1      32.326  27.785  22.926  1.00  0.00     0.152 A 
ATOM      9  C   UNL A   1      32.914  26.763  22.117  1.00  0.00     0.060 A 
ATOM     10  C   UNL A   1      33.653  25.877  22.868  1.00  0.00     0.070 A 
ATOM     11  S   UNL A   1      33.757  26.357  24.501  1.00  0.00    -0.133 S 
BRANCH   8  12
ATOM     12  O   UNL A   1      31.434  28.728  22.543  1.00  0.00    -0.453 OA
BRANCH  12  13
ATOM     13  C   UNL A   1      30.082  28.690  22.781  1.00  0.00     0.151 A 
ATOM     14  C   UNL A   1      29.297  27.590  23.174  1.00  0.00     0.084 A 
ATOM     15  C   UNL A   1      27.921  27.803  23.397  1.00  0.00     0.030 A 
ATOM     16  C   UNL A   1      27.345  29.072  23.296  1.00  0.00     0.002 A 
ATOM     17  C   UNL A   1      29.486  29.962  22.673  1.00  0.00     0.049 A 
ATOM     18  C   UNL A   1      28.130  30.156  22.931  1.00  0.00     0.004 A 
BRANCH  14  19
ATOM     19  N   UNL A   1      29.701  26.247  23.352  1.00  0.00    -0.323 N 
ATOM     20  O   UNL A   1      29.542  25.941  25.614  1.00  0.00    -0.275 OA
ATOM     21  C   UNL A   1      29.952  25.577  24.519  1.00  0.00     0.224 C 
ATOM     22  H   UNL A   1      29.818  25.723  22.526  1.00  0.00     0.170 HD
BRANCH  21  23
ATOM     23  C   UNL A   1      30.826  24.331  24.426  1.00  0.00     0.105 C 
BRANCH  23  24
ATOM     24  C   UNL A   1      31.138  23.607  25.732  1.00  0.00     0.045 C 
BRANCH  24  25
ATOM     25  C   UNL A   1      32.145  22.482  25.695  1.00  0.00    -0.048 A 
ATOM     26  C   UNL A   1      32.087  21.589  24.615  1.00  0.00     0.004 A 
ATOM     27  C   UNL A   1      33.147  22.307  26.659  1.00  0.00     0.004 A 
ATOM     28  C   UNL A   1      33.057  20.601  24.459  1.00  0.00     0.000 A 
ATOM     29  C   UNL A   1      34.136  21.341  26.484  1.00  0.00     0.000 A 
ATOM     30  C   UNL A   1      34.096  20.495  25.379  1.00  0.00     0.000 A 
ENDBRANCH  24  25
ENDBRANCH  23  24
ENDBRANCH  21  23
ENDBRANCH  14  19
ENDBRANCH  12  13
ENDBRANCH   8  12
ENDBRANCH   5   7
ENDBRANCH   4   5
ENDBRANCH   3   4
ENDBRANCH   2   3
ENDBRANCH   1   2
BRANCH   1  31
ATOM     31  C   UNL A   1      35.471  32.745  28.436  1.00  0.00     0.188 C 
BRANCH  31  32
ATOM     32  C   UNL A   1      34.165  33.271  29.029  1.00  0.00     0.188 C 
BRANCH  32  33
ATOM     33  O   UNL A   1      34.070  33.263  30.452  1.00  0.00    -0.376 OA
BRANCH  33  34
ATOM     34  C   UNL A   1      35.134  32.571  31.112  1.00  0.00     0.202 C 
BRANCH  34  35
ATOM     35  C   UNL A   1      35.925  33.359  32.183  1.00  0.00     0.261 C 
BRANCH  35  36
ATOM     36  O   UNL A   1      36.871  34.338  31.691  1.00  0.00    -0.460 OA
BRANCH  36  37
ATOM     37  C   UNL A   1      37.925  34.626  32.489  1.00  0.00     0.338 C 
ATOM     38  O   UNL A   1      37.890  34.729  33.704  1.00  0.00    -0.246 OA
BRANCH  37  39
ATOM     39  C   UNL A   1      39.188  34.557  31.699  1.00  0.00     0.060 A 
ATOM     40  C   UNL A   1      40.385  34.505  32.418  1.00  0.00     0.016 A 
ATOM     41  C   UNL A   1      39.235  34.539  30.304  1.00  0.00     0.016 A 
ATOM     42  C   UNL A   1      41.623  34.503  31.768  1.00  0.00     0.010 A 
ATOM     43  C   UNL A   1      40.483  34.544  29.645  1.00  0.00     0.010 A 
ATOM     44  C   UNL A   1      41.691  34.565  30.372  1.00  0.00    -0.014 A 
BRANCH  44  45
ATOM     45  C   UNL A   1      43.015  34.821  29.721  1.00  0.00     0.031 A 
ATOM     46  C   UNL A   1      43.873  33.641  29.328  1.00  0.00     0.074 A 
ATOM     47  C   UNL A   1      43.414  36.062  29.372  1.00  0.00     0.049 A 
ATOM     48  N   UNL A   1      45.053  33.617  28.759  1.00  0.00    -0.248 NA
ATOM     49  C   UNL A   1      43.316  32.307  29.602  1.00  0.00     0.031 C 
ATOM     50  C   UNL A   1      42.656  37.290  29.599  1.00  0.00     0.029 A 
ATOM     51  N   UNL A   1      44.557  36.493  28.735  1.00  0.00    -0.354 N 
ATOM     52  C   UNL A   1      45.380  32.273  28.608  1.00  0.00     0.074 A 
ATOM     53  C   UNL A   1      44.287  31.513  29.180  1.00  0.00     0.031 C 
ATOM     54  C   UNL A   1      43.351  38.333  29.109  1.00  0.00     0.029 A 
ATOM     55  C   UNL A   1      44.628  37.860  28.575  1.00  0.00     0.049 A 
ATOM     56  H   UNL A   1      45.261  35.880  28.422  1.00  0.00     0.167 HD
ATOM     57  C   UNL A   1      46.478  31.716  28.037  1.00  0.00     0.034 A 
ATOM     58  C   UNL A   1      45.614  38.644  28.084  1.00  0.00     0.034 A 
ATOM     59  C   UNL A   1      47.572  32.469  27.470  1.00  0.00     0.049 A 
ATOM     60  C   UNL A   1      46.887  38.001  27.571  1.00  0.00     0.074 A 
ATOM     61  C   UNL A   1      48.735  31.990  26.890  1.00  0.00     0.029 A 
ATOM     62  N   UNL A   1      47.643  33.853  27.407  1.00  0.00    -0.354 N 
ATOM     63  N   UNL A   1      47.190  36.727  27.463  1.00  0.00    -0.248 NA
ATOM     64  C   UNL A   1      47.949  38.907  27.107  1.00  0.00     0.031 C 
ATOM     65  C   UNL A   1      49.540  33.081  26.547  1.00  0.00     0.029 A 
ATOM     66  C   UNL A   1      48.843  34.243  26.830  1.00  0.00     0.049 A 
ATOM     67  H   UNL A   1      46.944  34.469  27.727  1.00  0.00     0.167 HD
ATOM     68  C   UNL A   1      48.459  36.686  26.885  1.00  0.00     0.074 A 
ATOM     69  C   UNL A   1      48.849  38.056  26.639  1.00  0.00     0.031 C 
ATOM     70  C   UNL A   1      49.234  35.611  26.587  1.00  0.00     0.034 A 
BRANCH  57  71
ATOM     71  C   UNL A   1      46.577  30.210  28.040  1.00  0.00     0.023 A 
ATOM     72  C   UNL A   1      46.096  29.433  26.972  1.00  0.00     0.031 A 
ATOM     73  C   UNL A   1      47.170  29.541  29.126  1.00  0.00     0.131 A 
ATOM     74  C   UNL A   1      46.169  28.033  27.036  1.00  0.00     0.055 A 
ATOM     75  C   UNL A   1      47.309  28.153  29.151  1.00  0.00     0.041 A 
ATOM     76  F   UNL A   1      47.626  30.230  30.184  1.00  0.00    -0.206 F 
ATOM     77  C   UNL A   1      46.797  27.390  28.106  1.00  0.00     0.022 A 
BRANCH  74  78
ATOM     78  S   UNL A   1      45.327  27.059  25.760  1.00  0.00     0.124 S 
ATOM     79  O   UNL A   1      44.507  26.158  26.569  1.00  0.00    -0.237 OA
ATOM     80  O   UNL A   1      44.601  28.078  25.010  1.00  0.00    -0.237 OA
ATOM     81  O   UNL A   1      46.423  26.415  25.040  1.00  0.00    -0.744 OA
ENDBRANCH  74  78
ENDBRANCH  57  71
BRANCH  58  82
ATOM     82  C   UNL A   1      45.501  40.138  28.103  1.00  0.00     0.023 A 
ATOM     83  C   UNL A   1      45.651  40.868  29.295  1.00  0.00     0.031 A 
ATOM     84  C   UNL A   1      45.107  40.843  26.952  1.00  0.00     0.131 A 
ATOM     85  C   UNL A   1      45.336  42.238  29.325  1.00  0.00     0.055 A 
ATOM     86  C   UNL A   1      44.869  42.220  26.969  1.00  0.00     0.041 A 
ATOM     87  F   UNL A   1      44.926  40.198  25.788  1.00  0.00    -0.206 F 
ATOM     88  C   UNL A   1      44.963  42.921  28.166  1.00  0.00     0.022 A 
BRANCH  85  89
ATOM     89  S   UNL A   1      45.272  43.082  30.932  1.00  0.00     0.124 S 
ATOM     90  O   UNL A   1      44.864  44.427  30.541  1.00  0.00    -0.237 OA
ATOM     91  O   UNL A   1      44.278  42.292  31.650  1.00  0.00    -0.237 OA
ATOM     92  O   UNL A   1      46.640  42.965  31.433  1.00  0.00    -0.744 OA
ENDBRANCH  85  89
ENDBRANCH  58  82
BRANCH  70  93
ATOM     93  C   UNL A   1      50.562  35.881  25.910  1.00  0.00     0.023 A 
ATOM     94  C   UNL A   1      51.774  35.873  26.622  1.00  0.00     0.031 A 
ATOM     95  C   UNL A   1      50.609  36.189  24.537  1.00  0.00     0.131 A 
ATOM     96  C   UNL A   1      52.967  36.246  25.982  1.00  0.00     0.055 A 
ATOM     97  C   UNL A   1      51.810  36.486  23.889  1.00  0.00     0.041 A 
ATOM     98  F   UNL A   1      49.487  36.214  23.802  1.00  0.00    -0.206 F 
ATOM     99  C   UNL A   1      52.995  36.536  24.616  1.00  0.00     0.022 A 
BRANCH  96 100
ATOM    100  S   UNL A   1      54.460  36.473  26.988  1.00  0.00     0.124 S 
ATOM    101  O   UNL A   1      54.410  37.900  27.287  1.00  0.00    -0.237 OA
ATOM    102  O   UNL A   1      54.218  35.578  28.113  1.00  0.00    -0.237 OA
ATOM    103  O   UNL A   1      55.542  36.065  26.093  1.00  0.00    -0.744 OA
ENDBRANCH  96 100
ENDBRANCH  70  93
ENDBRANCH  44  45
ENDBRANCH  37  39
ENDBRANCH  36  37
ENDBRANCH  35  36
ENDBRANCH  34  35
ENDBRANCH  33  34
ENDBRANCH  32  33
ENDBRANCH  31  32
ENDBRANCH   1  31
TORSDOF 26
ENDMDL
