MODEL 1
REMARK VINA RESULT:      -9.4      0.000      0.000
REMARK SMILES CC[C@](C)(Nc1ncnc(OC)c1[N+](=O)[O-])C(=O)OCCOCCOCCOC(=O)c1ccc(-c2c3nc(c(-c4cc(S(=O)(=O)[O-])ccc4F)c4ccc([nH]4)c(-c4cc(S(=O)(=O)[O-])ccc4F)c4nc(c(-c5cc(S(=O)(=O)[O-])ccc5F)c5ccc2[nH]5)C=C4)C=C3)cc1
REMARK SMILES IDX 23 1 22 2 21 3 20 4 19 5 17 6 18 7 3 8 4 9 2 10 1 11 5 12
REMARK SMILES IDX 6 14 7 15 13 16 8 17 10 18 9 19 14 20 15 21 16 22 11 23
REMARK SMILES IDX 12 24 24 25 25 26 26 27 27 28 28 29 29 30 30 31 31 32 32 33
REMARK SMILES IDX 93 34 33 35 92 36 34 37 35 38 36 39 86 40 37 41 91 42 85 43
REMARK SMILES IDX 87 44 38 45 90 46 84 47 83 48 39 50 71 51 51 52 70 53 52 54
REMARK SMILES IDX 55 55 69 56 88 57 53 58 54 59 68 61 89 62 56 63 40 64 41 65
REMARK SMILES IDX 49 66 42 67 48 68 50 69 47 70 43 71 44 72 45 73 46 74 72 75
REMARK SMILES IDX 73 76 81 77 74 78 80 79 82 80 79 81 75 82 76 83 77 84 78 85
REMARK SMILES IDX 57 86 58 87 66 88 59 89 65 90 67 91 64 92 60 93 61 94 62 95
REMARK SMILES IDX 63 96
REMARK H PARENT 5 13 87 49 55 60
REMARK Flexibility Score: inf
ROOT
ATOM      1  C   UNL A   1      35.638  21.058  25.717  1.00  0.00     0.188 C 
ENDROOT
BRANCH   1   2
ATOM      2  O   UNL A   1      34.438  20.446  25.272  1.00  0.00    -0.376 OA
BRANCH   2   3
ATOM      3  C   UNL A   1      33.222  20.954  25.824  1.00  0.00     0.202 C 
BRANCH   3   4
ATOM      4  C   UNL A   1      32.173  21.398  24.807  1.00  0.00     0.261 C 
BRANCH   4   5
ATOM      5  O   UNL A   1      31.886  22.809  24.950  1.00  0.00    -0.462 OA
BRANCH   5   6
ATOM      6  C   UNL A   1      31.429  23.414  23.823  1.00  0.00     0.331 C 
ATOM      7  O   UNL A   1      30.499  22.959  23.161  1.00  0.00    -0.249 OA
BRANCH   6   8
ATOM      8  C   UNL A   1      32.145  24.735  23.437  1.00  0.00     0.134 C 
ATOM      9  C   UNL A   1      31.064  25.594  22.729  1.00  0.00     0.047 C 
BRANCH   8  10
ATOM     10  C   UNL A   1      33.320  24.380  22.489  1.00  0.00     0.037 C 
ATOM     11  C   UNL A   1      34.648  24.054  23.171  1.00  0.00     0.007 C 
ENDBRANCH   8  10
BRANCH   8  12
ATOM     12  N   UNL A   1      32.673  25.617  24.507  1.00  0.00    -0.349 N 
ATOM     13  H   UNL A   1      33.082  25.096  25.235  1.00  0.00     0.163 HD
BRANCH  12  14
ATOM     14  C   UNL A   1      32.741  26.948  24.749  1.00  0.00     0.213 A 
ATOM     15  N   UNL A   1      33.659  27.521  23.941  1.00  0.00    -0.212 NA
ATOM     16  C   UNL A   1      32.051  27.731  25.637  1.00  0.00     0.372 A 
ATOM     17  C   UNL A   1      33.794  28.860  23.962  1.00  0.00     0.228 A 
ATOM     18  C   UNL A   1      32.238  29.098  25.579  1.00  0.00     0.299 A 
ATOM     19  N   UNL A   1      33.106  29.698  24.744  1.00  0.00    -0.196 NA
BRANCH  16  20
ATOM     20  N   UNL A   1      31.310  27.184  26.724  1.00  0.00     0.072 N 
ATOM     21  O   UNL A   1      31.668  27.477  27.874  1.00  0.00    -0.258 OA
ATOM     22  O   UNL A   1      30.375  26.420  26.448  1.00  0.00    -0.258 OA
ENDBRANCH  16  20
BRANCH  18  23
ATOM     23  O   UNL A   1      31.591  29.943  26.446  1.00  0.00    -0.476 OA
ATOM     24  C   UNL A   1      32.547  30.793  27.081  1.00  0.00     0.280 C 
ENDBRANCH  18  23
ENDBRANCH  12  14
ENDBRANCH   8  12
ENDBRANCH   6   8
ENDBRANCH   5   6
ENDBRANCH   4   5
ENDBRANCH   3   4
ENDBRANCH   2   3
ENDBRANCH   1   2
BRANCH   1  25
ATOM     25  C   UNL A   1      36.661  21.455  24.646  1.00  0.00     0.188 C 
BRANCH  25  26
ATOM     26  O   UNL A   1      37.944  20.841  24.699  1.00  0.00    -0.376 OA
BRANCH  26  27
ATOM     27  C   UNL A   1      37.925  19.464  25.083  1.00  0.00     0.202 C 
BRANCH  27  28
ATOM     28  C   UNL A   1      39.244  19.003  25.722  1.00  0.00     0.261 C 
BRANCH  28  29
ATOM     29  O   UNL A   1      40.139  20.119  25.876  1.00  0.00    -0.460 OA
BRANCH  29  30
ATOM     30  C   UNL A   1      40.654  20.310  27.118  1.00  0.00     0.338 C 
ATOM     31  O   UNL A   1      41.033  19.446  27.892  1.00  0.00    -0.246 OA
BRANCH  30  32
ATOM     32  C   UNL A   1      40.923  21.762  27.292  1.00  0.00     0.060 A 
ATOM     33  C   UNL A   1      40.161  22.670  26.538  1.00  0.00     0.016 A 
ATOM     34  C   UNL A   1      41.817  22.236  28.257  1.00  0.00     0.016 A 
ATOM     35  C   UNL A   1      40.305  24.047  26.736  1.00  0.00     0.010 A 
ATOM     36  C   UNL A   1      41.966  23.613  28.446  1.00  0.00     0.010 A 
ATOM     37  C   UNL A   1      41.227  24.527  27.675  1.00  0.00    -0.014 A 
BRANCH  37  38
ATOM     38  C   UNL A   1      41.566  25.971  27.756  1.00  0.00     0.031 A 
ATOM     39  C   UNL A   1      42.886  26.414  27.187  1.00  0.00     0.074 A 
ATOM     40  C   UNL A   1      40.762  26.856  28.375  1.00  0.00     0.049 A 
ATOM     41  N   UNL A   1      43.496  27.564  27.298  1.00  0.00    -0.248 NA
ATOM     42  C   UNL A   1      43.622  25.411  26.400  1.00  0.00     0.031 C 
ATOM     43  C   UNL A   1      39.440  26.558  28.925  1.00  0.00     0.029 A 
ATOM     44  N   UNL A   1      40.957  28.184  28.674  1.00  0.00    -0.354 N 
ATOM     45  C   UNL A   1      44.701  27.416  26.619  1.00  0.00     0.074 A 
ATOM     46  C   UNL A   1      44.738  26.063  26.109  1.00  0.00     0.031 C 
ATOM     47  C   UNL A   1      38.959  27.662  29.527  1.00  0.00     0.029 A 
ATOM     48  C   UNL A   1      39.959  28.727  29.451  1.00  0.00     0.049 A 
ATOM     49  H   UNL A   1      41.737  28.697  28.361  1.00  0.00     0.167 HD
ATOM     50  C   UNL A   1      45.689  28.326  26.447  1.00  0.00     0.034 A 
ATOM     51  C   UNL A   1      39.888  29.924  30.075  1.00  0.00     0.034 A 
ATOM     52  C   UNL A   1      45.637  29.671  26.958  1.00  0.00     0.049 A 
ATOM     53  C   UNL A   1      41.045  30.893  29.938  1.00  0.00     0.074 A 
ATOM     54  C   UNL A   1      46.556  30.691  26.789  1.00  0.00     0.029 A 
ATOM     55  N   UNL A   1      44.623  30.177  27.759  1.00  0.00    -0.354 N 
ATOM     56  N   UNL A   1      42.164  30.756  29.262  1.00  0.00    -0.248 NA
ATOM     57  C   UNL A   1      40.933  32.173  30.652  1.00  0.00     0.031 C 
ATOM     58  C   UNL A   1      46.139  31.786  27.551  1.00  0.00     0.029 A 
ATOM     59  C   UNL A   1      44.919  31.477  28.134  1.00  0.00     0.049 A 
ATOM     60  H   UNL A   1      43.812  29.684  28.022  1.00  0.00     0.167 HD
ATOM     61  C   UNL A   1      42.871  31.943  29.452  1.00  0.00     0.074 A 
ATOM     62  C   UNL A   1      42.049  32.788  30.291  1.00  0.00     0.031 C 
ATOM     63  C   UNL A   1      44.090  32.304  28.976  1.00  0.00     0.034 A 
BRANCH  50  64
ATOM     64  C   UNL A   1      46.936  27.877  25.730  1.00  0.00     0.023 A 
ATOM     65  C   UNL A   1      47.127  28.097  24.356  1.00  0.00     0.031 A 
ATOM     66  C   UNL A   1      47.949  27.211  26.442  1.00  0.00     0.131 A 
ATOM     67  C   UNL A   1      48.283  27.609  23.727  1.00  0.00     0.055 A 
ATOM     68  C   UNL A   1      49.127  26.790  25.825  1.00  0.00     0.041 A 
ATOM     69  F   UNL A   1      47.806  26.952  27.752  1.00  0.00    -0.206 F 
ATOM     70  C   UNL A   1      49.295  26.979  24.456  1.00  0.00     0.022 A 
BRANCH  67  71
ATOM     71  S   UNL A   1      48.397  27.711  21.920  1.00  0.00     0.124 S 
ATOM     72  O   UNL A   1      48.682  26.323  21.563  1.00  0.00    -0.237 OA
ATOM     73  O   UNL A   1      47.076  28.207  21.549  1.00  0.00    -0.237 OA
ATOM     74  O   UNL A   1      49.499  28.643  21.698  1.00  0.00    -0.744 OA
ENDBRANCH  67  71
ENDBRANCH  50  64
BRANCH  51  75
ATOM     75  C   UNL A   1      38.734  30.261  30.962  1.00  0.00     0.023 A 
ATOM     76  C   UNL A   1      37.690  31.090  30.518  1.00  0.00     0.031 A 
ATOM     77  C   UNL A   1      38.708  29.838  32.304  1.00  0.00     0.131 A 
ATOM     78  C   UNL A   1      36.701  31.517  31.419  1.00  0.00     0.055 A 
ATOM     79  C   UNL A   1      37.688  30.215  33.180  1.00  0.00     0.041 A 
ATOM     80  F   UNL A   1      39.684  29.053  32.788  1.00  0.00    -0.206 F 
ATOM     81  C   UNL A   1      36.685  31.075  32.744  1.00  0.00     0.022 A 
BRANCH  78  82
ATOM     82  S   UNL A   1      35.499  32.760  30.866  1.00  0.00     0.124 S 
ATOM     83  O   UNL A   1      34.378  32.508  31.765  1.00  0.00    -0.237 OA
ATOM     84  O   UNL A   1      36.230  34.004  31.086  1.00  0.00    -0.237 OA
ATOM     85  O   UNL A   1      35.270  32.412  29.466  1.00  0.00    -0.744 OA
ENDBRANCH  78  82
ENDBRANCH  51  75
BRANCH  63  86
ATOM     86  C   UNL A   1      44.586  33.687  29.317  1.00  0.00     0.023 A 
ATOM     87  C   UNL A   1      45.493  33.911  30.366  1.00  0.00     0.031 A 
ATOM     88  C   UNL A   1      44.161  34.795  28.562  1.00  0.00     0.131 A 
ATOM     89  C   UNL A   1      45.916  35.217  30.658  1.00  0.00     0.055 A 
ATOM     90  C   UNL A   1      44.627  36.085  28.820  1.00  0.00     0.041 A 
ATOM     91  F   UNL A   1      43.296  34.638  27.547  1.00  0.00    -0.206 F 
ATOM     92  C   UNL A   1      45.504  36.302  29.879  1.00  0.00     0.022 A 
BRANCH  89  93
ATOM     93  S   UNL A   1      46.972  35.492  32.107  1.00  0.00     0.124 S 
ATOM     94  O   UNL A   1      47.601  36.769  31.785  1.00  0.00    -0.237 OA
ATOM     95  O   UNL A   1      46.005  35.515  33.199  1.00  0.00    -0.237 OA
ATOM     96  O   UNL A   1      47.870  34.338  32.101  1.00  0.00    -0.744 OA
ENDBRANCH  89  93
ENDBRANCH  63  86
ENDBRANCH  37  38
ENDBRANCH  30  32
ENDBRANCH  29  30
ENDBRANCH  28  29
ENDBRANCH  27  28
ENDBRANCH  26  27
ENDBRANCH  25  26
ENDBRANCH   1  25
TORSDOF 25
ENDMDL
MODEL 2
REMARK VINA RESULT:      -8.9      1.941      2.442
REMARK SMILES CC[C@](C)(Nc1ncnc(OC)c1[N+](=O)[O-])C(=O)OCCOCCOCCOC(=O)c1ccc(-c2c3nc(c(-c4cc(S(=O)(=O)[O-])ccc4F)c4ccc([nH]4)c(-c4cc(S(=O)(=O)[O-])ccc4F)c4nc(c(-c5cc(S(=O)(=O)[O-])ccc5F)c5ccc2[nH]5)C=C4)C=C3)cc1
REMARK SMILES IDX 23 1 22 2 21 3 20 4 19 5 17 6 18 7 3 8 4 9 2 10 1 11 5 12
REMARK SMILES IDX 6 14 7 15 13 16 8 17 10 18 9 19 14 20 15 21 16 22 11 23
REMARK SMILES IDX 12 24 24 25 25 26 26 27 27 28 28 29 29 30 30 31 31 32 32 33
REMARK SMILES IDX 93 34 33 35 92 36 34 37 35 38 36 39 86 40 37 41 91 42 85 43
REMARK SMILES IDX 87 44 38 45 90 46 84 47 83 48 39 50 71 51 51 52 70 53 52 54
REMARK SMILES IDX 55 55 69 56 88 57 53 58 54 59 68 61 89 62 56 63 40 64 41 65
REMARK SMILES IDX 49 66 42 67 48 68 50 69 47 70 43 71 44 72 45 73 46 74 72 75
REMARK SMILES IDX 73 76 81 77 74 78 80 79 82 80 79 81 75 82 76 83 77 84 78 85
REMARK SMILES IDX 57 86 58 87 66 88 59 89 65 90 67 91 64 92 60 93 61 94 62 95
REMARK SMILES IDX 63 96
REMARK H PARENT 5 13 87 49 55 60
REMARK Flexibility Score: inf
ROOT
ATOM      1  C   UNL A   1      36.029  21.652  25.751  1.00  0.00     0.188 C 
ENDROOT
BRANCH   1   2
ATOM      2  O   UNL A   1      35.251  21.143  24.678  1.00  0.00    -0.376 OA
BRANCH   2   3
ATOM      3  C   UNL A   1      34.156  21.953  24.246  1.00  0.00     0.202 C 
BRANCH   3   4
ATOM      4  C   UNL A   1      34.506  23.051  23.244  1.00  0.00     0.261 C 
BRANCH   4   5
ATOM      5  O   UNL A   1      34.120  24.350  23.753  1.00  0.00    -0.462 OA
BRANCH   5   6
ATOM      6  C   UNL A   1      32.785  24.598  23.726  1.00  0.00     0.331 C 
ATOM      7  O   UNL A   1      32.119  24.506  22.698  1.00  0.00    -0.249 OA
BRANCH   6   8
ATOM      8  C   UNL A   1      32.149  24.984  25.087  1.00  0.00     0.134 C 
ATOM      9  C   UNL A   1      33.340  25.108  26.075  1.00  0.00     0.047 C 
BRANCH   8  10
ATOM     10  C   UNL A   1      31.170  23.851  25.493  1.00  0.00     0.037 C 
ATOM     11  C   UNL A   1      31.365  23.275  26.894  1.00  0.00     0.007 C 
ENDBRANCH   8  10
BRANCH   8  12
ATOM     12  N   UNL A   1      31.430  26.275  25.216  1.00  0.00    -0.349 N 
ATOM     13  H   UNL A   1      31.564  26.677  26.105  1.00  0.00     0.163 HD
BRANCH  12  14
ATOM     14  C   UNL A   1      30.636  27.048  24.436  1.00  0.00     0.213 A 
ATOM     15  N   UNL A   1      29.435  26.456  24.264  1.00  0.00    -0.212 NA
ATOM     16  C   UNL A   1      30.874  28.262  23.846  1.00  0.00     0.372 A 
ATOM     17  C   UNL A   1      28.473  27.125  23.601  1.00  0.00     0.228 A 
ATOM     18  C   UNL A   1      29.825  28.886  23.200  1.00  0.00     0.299 A 
ATOM     19  N   UNL A   1      28.602  28.342  23.062  1.00  0.00    -0.196 NA
BRANCH  16  20
ATOM     20  N   UNL A   1      32.185  28.803  23.709  1.00  0.00     0.072 N 
ATOM     21  O   UNL A   1      32.597  29.555  24.604  1.00  0.00    -0.258 OA
ATOM     22  O   UNL A   1      32.816  28.513  22.683  1.00  0.00    -0.258 OA
ENDBRANCH  16  20
BRANCH  18  23
ATOM     23  O   UNL A   1      29.993  30.097  22.574  1.00  0.00    -0.476 OA
ATOM     24  C   UNL A   1      28.946  30.286  21.621  1.00  0.00     0.280 C 
ENDBRANCH  18  23
ENDBRANCH  12  14
ENDBRANCH   8  12
ENDBRANCH   6   8
ENDBRANCH   5   6
ENDBRANCH   4   5
ENDBRANCH   3   4
ENDBRANCH   2   3
ENDBRANCH   1   2
BRANCH   1  25
ATOM     25  C   UNL A   1      37.411  22.220  25.407  1.00  0.00     0.188 C 
BRANCH  25  26
ATOM     26  O   UNL A   1      38.551  21.471  25.810  1.00  0.00    -0.376 OA
BRANCH  26  27
ATOM     27  C   UNL A   1      38.609  20.147  25.272  1.00  0.00     0.202 C 
BRANCH  27  28
ATOM     28  C   UNL A   1      39.820  19.348  25.780  1.00  0.00     0.261 C 
BRANCH  28  29
ATOM     29  O   UNL A   1      40.390  19.989  26.934  1.00  0.00    -0.460 OA
BRANCH  29  30
ATOM     30  C   UNL A   1      41.712  20.294  26.861  1.00  0.00     0.338 C 
ATOM     31  O   UNL A   1      42.607  19.569  26.457  1.00  0.00    -0.246 OA
BRANCH  30  32
ATOM     32  C   UNL A   1      41.868  21.751  27.116  1.00  0.00     0.060 A 
ATOM     33  C   UNL A   1      41.823  22.622  26.015  1.00  0.00     0.016 A 
ATOM     34  C   UNL A   1      41.939  22.269  28.412  1.00  0.00     0.016 A 
ATOM     35  C   UNL A   1      41.866  24.007  26.209  1.00  0.00     0.010 A 
ATOM     36  C   UNL A   1      41.991  23.653  28.603  1.00  0.00     0.010 A 
ATOM     37  C   UNL A   1      41.973  24.530  27.504  1.00  0.00    -0.014 A 
BRANCH  37  38
ATOM     38  C   UNL A   1      42.243  25.972  27.734  1.00  0.00     0.031 A 
ATOM     39  C   UNL A   1      43.670  26.440  27.653  1.00  0.00     0.074 A 
ATOM     40  C   UNL A   1      41.264  26.832  28.073  1.00  0.00     0.049 A 
ATOM     41  N   UNL A   1      44.190  27.589  27.993  1.00  0.00    -0.248 NA
ATOM     42  C   UNL A   1      44.644  25.467  27.129  1.00  0.00     0.031 C 
ATOM     43  C   UNL A   1      39.840  26.509  28.140  1.00  0.00     0.029 A 
ATOM     44  N   UNL A   1      41.327  28.151  28.457  1.00  0.00    -0.354 N 
ATOM     45  C   UNL A   1      45.555  27.470  27.753  1.00  0.00     0.074 A 
ATOM     46  C   UNL A   1      45.781  26.134  27.247  1.00  0.00     0.031 C 
ATOM     47  C   UNL A   1      39.168  27.591  28.577  1.00  0.00     0.029 A 
ATOM     48  C   UNL A   1      40.119  28.664  28.871  1.00  0.00     0.049 A 
ATOM     49  H   UNL A   1      42.158  28.678  28.438  1.00  0.00     0.167 HD
ATOM     50  C   UNL A   1      46.529  28.391  27.947  1.00  0.00     0.034 A 
ATOM     51  C   UNL A   1      39.824  29.839  29.468  1.00  0.00     0.034 A 
ATOM     52  C   UNL A   1      46.287  29.719  28.449  1.00  0.00     0.049 A 
ATOM     53  C   UNL A   1      40.945  30.819  29.753  1.00  0.00     0.074 A 
ATOM     54  C   UNL A   1      47.194  30.748  28.626  1.00  0.00     0.029 A 
ATOM     55  N   UNL A   1      45.056  30.192  28.879  1.00  0.00    -0.354 N 
ATOM     56  N   UNL A   1      42.227  30.710  29.488  1.00  0.00    -0.248 NA
ATOM     57  C   UNL A   1      40.580  32.075  30.425  1.00  0.00     0.031 C 
ATOM     58  C   UNL A   1      46.529  31.816  29.236  1.00  0.00     0.029 A 
ATOM     59  C   UNL A   1      45.189  31.482  29.368  1.00  0.00     0.049 A 
ATOM     60  H   UNL A   1      44.212  29.687  28.841  1.00  0.00     0.167 HD
ATOM     61  C   UNL A   1      42.811  31.894  29.937  1.00  0.00     0.074 A 
ATOM     62  C   UNL A   1      41.743  32.707  30.476  1.00  0.00     0.031 C 
ATOM     63  C   UNL A   1      44.113  32.277  29.907  1.00  0.00     0.034 A 
BRANCH  50  64
ATOM     64  C   UNL A   1      47.951  27.971  27.677  1.00  0.00     0.023 A 
ATOM     65  C   UNL A   1      48.502  27.992  26.385  1.00  0.00     0.031 A 
ATOM     66  C   UNL A   1      48.765  27.538  28.738  1.00  0.00     0.131 A 
ATOM     67  C   UNL A   1      49.815  27.538  26.181  1.00  0.00     0.055 A 
ATOM     68  C   UNL A   1      50.091  27.155  28.539  1.00  0.00     0.041 A 
ATOM     69  F   UNL A   1      48.280  27.474  29.989  1.00  0.00    -0.206 F 
ATOM     70  C   UNL A   1      50.621  27.144  27.252  1.00  0.00     0.022 A 
BRANCH  67  71
ATOM     71  S   UNL A   1      50.418  27.367  24.479  1.00  0.00     0.124 S 
ATOM     72  O   UNL A   1      51.684  26.667  24.684  1.00  0.00    -0.237 OA
ATOM     73  O   UNL A   1      49.357  26.594  23.844  1.00  0.00    -0.237 OA
ATOM     74  O   UNL A   1      50.545  28.748  24.020  1.00  0.00    -0.744 OA
ENDBRANCH  67  71
ENDBRANCH  50  64
BRANCH  51  75
ATOM     75  C   UNL A   1      38.434  30.142  29.927  1.00  0.00     0.023 A 
ATOM     76  C   UNL A   1      37.544  30.874  29.124  1.00  0.00     0.031 A 
ATOM     77  C   UNL A   1      38.009  29.786  31.220  1.00  0.00     0.131 A 
ATOM     78  C   UNL A   1      36.302  31.278  29.641  1.00  0.00     0.055 A 
ATOM     79  C   UNL A   1      36.748  30.138  31.708  1.00  0.00     0.041 A 
ATOM     80  F   UNL A   1      38.821  29.096  32.037  1.00  0.00    -0.206 F 
ATOM     81  C   UNL A   1      35.892  30.903  30.923  1.00  0.00     0.022 A 
BRANCH  78  82
ATOM     82  S   UNL A   1      35.276  32.406  28.657  1.00  0.00     0.124 S 
ATOM     83  O   UNL A   1      34.627  33.198  29.697  1.00  0.00    -0.237 OA
ATOM     84  O   UNL A   1      36.277  33.100  27.854  1.00  0.00    -0.237 OA
ATOM     85  O   UNL A   1      34.395  31.507  27.916  1.00  0.00    -0.744 OA
ENDBRANCH  78  82
ENDBRANCH  51  75
BRANCH  63  86
ATOM     86  C   UNL A   1      44.445  33.651  30.433  1.00  0.00     0.023 A 
ATOM     87  C   UNL A   1      44.684  33.884  31.798  1.00  0.00     0.031 A 
ATOM     88  C   UNL A   1      44.546  34.740  29.548  1.00  0.00     0.131 A 
ATOM     89  C   UNL A   1      44.974  35.183  32.244  1.00  0.00     0.055 A 
ATOM     90  C   UNL A   1      44.889  36.018  29.990  1.00  0.00     0.041 A 
ATOM     91  F   UNL A   1      44.328  34.574  28.233  1.00  0.00    -0.206 F 
ATOM     92  C   UNL A   1      45.097  36.246  31.346  1.00  0.00     0.022 A 
BRANCH  89  93
ATOM     93  S   UNL A   1      45.135  35.479  34.026  1.00  0.00     0.124 S 
ATOM     94  O   UNL A   1      43.742  35.464  34.462  1.00  0.00    -0.237 OA
ATOM     95  O   UNL A   1      45.950  34.348  34.460  1.00  0.00    -0.237 OA
ATOM     96  O   UNL A   1      45.796  36.781  34.100  1.00  0.00    -0.744 OA
ENDBRANCH  89  93
ENDBRANCH  63  86
ENDBRANCH  37  38
ENDBRANCH  30  32
ENDBRANCH  29  30
ENDBRANCH  28  29
ENDBRANCH  27  28
ENDBRANCH  26  27
ENDBRANCH  25  26
ENDBRANCH   1  25
TORSDOF 25
ENDMDL
MODEL 3
REMARK VINA RESULT:      -8.9      2.083      2.682
REMARK SMILES CC[C@](C)(Nc1ncnc(OC)c1[N+](=O)[O-])C(=O)OCCOCCOCCOC(=O)c1ccc(-c2c3nc(c(-c4cc(S(=O)(=O)[O-])ccc4F)c4ccc([nH]4)c(-c4cc(S(=O)(=O)[O-])ccc4F)c4nc(c(-c5cc(S(=O)(=O)[O-])ccc5F)c5ccc2[nH]5)C=C4)C=C3)cc1
REMARK SMILES IDX 23 1 22 2 21 3 20 4 19 5 17 6 18 7 3 8 4 9 2 10 1 11 5 12
REMARK SMILES IDX 6 14 7 15 13 16 8 17 10 18 9 19 14 20 15 21 16 22 11 23
REMARK SMILES IDX 12 24 24 25 25 26 26 27 27 28 28 29 29 30 30 31 31 32 32 33
REMARK SMILES IDX 93 34 33 35 92 36 34 37 35 38 36 39 86 40 37 41 91 42 85 43
REMARK SMILES IDX 87 44 38 45 90 46 84 47 83 48 39 50 71 51 51 52 70 53 52 54
REMARK SMILES IDX 55 55 69 56 88 57 53 58 54 59 68 61 89 62 56 63 40 64 41 65
REMARK SMILES IDX 49 66 42 67 48 68 50 69 47 70 43 71 44 72 45 73 46 74 72 75
REMARK SMILES IDX 73 76 81 77 74 78 80 79 82 80 79 81 75 82 76 83 77 84 78 85
REMARK SMILES IDX 57 86 58 87 66 88 59 89 65 90 67 91 64 92 60 93 61 94 62 95
REMARK SMILES IDX 63 96
REMARK H PARENT 5 13 87 49 55 60
REMARK Flexibility Score: inf
ROOT
ATOM      1  C   UNL A   1      36.290  23.217  25.017  1.00  0.00     0.188 C 
ENDROOT
BRANCH   1   2
ATOM      2  O   UNL A   1      35.350  24.054  24.361  1.00  0.00    -0.376 OA
BRANCH   2   3
ATOM      3  C   UNL A   1      34.319  23.396  23.623  1.00  0.00     0.202 C 
BRANCH   3   4
ATOM      4  C   UNL A   1      33.139  24.275  23.216  1.00  0.00     0.261 C 
BRANCH   4   5
ATOM      5  O   UNL A   1      33.082  25.467  24.035  1.00  0.00    -0.462 OA
BRANCH   5   6
ATOM      6  C   UNL A   1      32.949  26.627  23.342  1.00  0.00     0.331 C 
ATOM      7  O   UNL A   1      32.647  26.653  22.152  1.00  0.00    -0.249 OA
BRANCH   6   8
ATOM      8  C   UNL A   1      33.181  27.924  24.161  1.00  0.00     0.134 C 
ATOM      9  C   UNL A   1      33.604  28.995  23.120  1.00  0.00     0.047 C 
BRANCH   8  10
ATOM     10  C   UNL A   1      34.302  27.641  25.195  1.00  0.00     0.037 C 
ATOM     11  C   UNL A   1      34.023  28.108  26.622  1.00  0.00     0.007 C 
ENDBRANCH   8  10
BRANCH   8  12
ATOM     12  N   UNL A   1      32.042  28.544  24.883  1.00  0.00    -0.349 N 
ATOM     13  H   UNL A   1      31.931  28.157  25.781  1.00  0.00     0.163 HD
BRANCH  12  14
ATOM     14  C   UNL A   1      31.114  29.499  24.634  1.00  0.00     0.213 A 
ATOM     15  N   UNL A   1      31.275  30.535  25.485  1.00  0.00    -0.212 NA
ATOM     16  C   UNL A   1      30.112  29.549  23.701  1.00  0.00     0.372 A 
ATOM     17  C   UNL A   1      30.509  31.630  25.323  1.00  0.00     0.228 A 
ATOM     18  C   UNL A   1      29.385  30.718  23.591  1.00  0.00     0.299 A 
ATOM     19  N   UNL A   1      29.562  31.786  24.391  1.00  0.00    -0.196 NA
BRANCH  16  20
ATOM     20  N   UNL A   1      29.673  28.397  22.987  1.00  0.00     0.072 N 
ATOM     21  O   UNL A   1      29.926  28.335  21.775  1.00  0.00    -0.258 OA
ATOM     22  O   UNL A   1      29.033  27.546  23.620  1.00  0.00    -0.258 OA
ENDBRANCH  16  20
BRANCH  18  23
ATOM     23  O   UNL A   1      28.357  30.836  22.689  1.00  0.00    -0.476 OA
ATOM     24  C   UNL A   1      28.715  31.786  21.684  1.00  0.00     0.280 C 
ENDBRANCH  18  23
ENDBRANCH  12  14
ENDBRANCH   8  12
ENDBRANCH   6   8
ENDBRANCH   5   6
ENDBRANCH   4   5
ENDBRANCH   3   4
ENDBRANCH   2   3
ENDBRANCH   1   2
BRANCH   1  25
ATOM     25  C   UNL A   1      36.625  21.880  24.346  1.00  0.00     0.188 C 
BRANCH  25  26
ATOM     26  O   UNL A   1      37.889  21.295  24.637  1.00  0.00    -0.376 OA
BRANCH  26  27
ATOM     27  C   UNL A   1      37.868  20.342  25.703  1.00  0.00     0.202 C 
BRANCH  27  28
ATOM     28  C   UNL A   1      38.980  19.288  25.585  1.00  0.00     0.261 C 
BRANCH  28  29
ATOM     29  O   UNL A   1      40.268  19.899  25.781  1.00  0.00    -0.460 OA
BRANCH  29  30
ATOM     30  C   UNL A   1      40.614  20.172  27.066  1.00  0.00     0.338 C 
ATOM     31  O   UNL A   1      40.796  19.362  27.961  1.00  0.00    -0.246 OA
BRANCH  30  32
ATOM     32  C   UNL A   1      40.988  21.608  27.152  1.00  0.00     0.060 A 
ATOM     33  C   UNL A   1      41.550  22.074  28.351  1.00  0.00     0.016 A 
ATOM     34  C   UNL A   1      40.902  22.459  26.046  1.00  0.00     0.016 A 
ATOM     35  C   UNL A   1      42.009  23.392  28.451  1.00  0.00     0.010 A 
ATOM     36  C   UNL A   1      41.354  23.778  26.150  1.00  0.00     0.010 A 
ATOM     37  C   UNL A   1      41.892  24.259  27.357  1.00  0.00    -0.014 A 
BRANCH  37  38
ATOM     38  C   UNL A   1      42.161  25.713  27.492  1.00  0.00     0.031 A 
ATOM     39  C   UNL A   1      43.517  26.217  27.079  1.00  0.00     0.074 A 
ATOM     40  C   UNL A   1      41.258  26.555  28.029  1.00  0.00     0.049 A 
ATOM     41  N   UNL A   1      44.064  27.388  27.270  1.00  0.00    -0.248 NA
ATOM     42  C   UNL A   1      44.376  25.257  26.366  1.00  0.00     0.031 C 
ATOM     43  C   UNL A   1      39.897  26.196  28.425  1.00  0.00     0.029 A 
ATOM     44  N   UNL A   1      41.365  27.885  28.364  1.00  0.00    -0.354 N 
ATOM     45  C   UNL A   1      45.341  27.299  26.728  1.00  0.00     0.074 A 
ATOM     46  C   UNL A   1      45.489  25.957  26.209  1.00  0.00     0.031 C 
ATOM     47  C   UNL A   1      39.309  27.271  28.983  1.00  0.00     0.029 A 
ATOM     48  C   UNL A   1      40.266  28.376  29.032  1.00  0.00     0.049 A 
ATOM     49  H   UNL A   1      42.153  28.433  28.146  1.00  0.00     0.167 HD
ATOM     50  C   UNL A   1      46.305  28.250  26.678  1.00  0.00     0.034 A 
ATOM     51  C   UNL A   1      40.078  29.558  29.658  1.00  0.00     0.034 A 
ATOM     52  C   UNL A   1      46.141  29.583  27.196  1.00  0.00     0.049 A 
ATOM     53  C   UNL A   1      41.202  30.574  29.662  1.00  0.00     0.074 A 
ATOM     54  C   UNL A   1      47.031  30.641  27.143  1.00  0.00     0.029 A 
ATOM     55  N   UNL A   1      45.025  30.035  27.886  1.00  0.00    -0.354 N 
ATOM     56  N   UNL A   1      42.393  30.492  29.113  1.00  0.00    -0.248 NA
ATOM     57  C   UNL A   1      40.960  31.837  30.376  1.00  0.00     0.031 C 
ATOM     58  C   UNL A   1      46.488  31.705  27.867  1.00  0.00     0.029 A 
ATOM     59  C   UNL A   1      45.225  31.339  28.307  1.00  0.00     0.049 A 
ATOM     60  H   UNL A   1      44.211  29.507  28.051  1.00  0.00     0.167 HD
ATOM     61  C   UNL A   1      43.027  31.702  29.395  1.00  0.00     0.074 A 
ATOM     62  C   UNL A   1      42.083  32.501  30.148  1.00  0.00     0.031 C 
ATOM     63  C   UNL A   1      44.275  32.119  29.062  1.00  0.00     0.034 A 
BRANCH  50  64
ATOM     64  C   UNL A   1      47.640  27.861  26.098  1.00  0.00     0.023 A 
ATOM     65  C   UNL A   1      47.901  27.920  24.719  1.00  0.00     0.031 A 
ATOM     66  C   UNL A   1      48.669  27.419  26.949  1.00  0.00     0.131 A 
ATOM     67  C   UNL A   1      49.145  27.495  24.227  1.00  0.00     0.055 A 
ATOM     68  C   UNL A   1      49.926  27.064  26.460  1.00  0.00     0.041 A 
ATOM     69  F   UNL A   1      48.464  27.319  28.273  1.00  0.00    -0.206 F 
ATOM     70  C   UNL A   1      50.167  27.091  25.090  1.00  0.00     0.022 A 
BRANCH  67  71
ATOM     71  S   UNL A   1      49.372  27.372  22.432  1.00  0.00     0.124 S 
ATOM     72  O   UNL A   1      50.826  27.296  22.323  1.00  0.00    -0.237 OA
ATOM     73  O   UNL A   1      48.642  26.152  22.105  1.00  0.00    -0.237 OA
ATOM     74  O   UNL A   1      48.779  28.608  21.927  1.00  0.00    -0.744 OA
ENDBRANCH  67  71
ENDBRANCH  50  64
BRANCH  51  75
ATOM     75  C   UNL A   1      38.820  29.835  30.416  1.00  0.00     0.023 A 
ATOM     76  C   UNL A   1      37.803  30.637  29.873  1.00  0.00     0.031 A 
ATOM     77  C   UNL A   1      38.659  29.380  31.738  1.00  0.00     0.131 A 
ATOM     78  C   UNL A   1      36.703  31.010  30.665  1.00  0.00     0.055 A 
ATOM     79  C   UNL A   1      37.535  29.702  32.501  1.00  0.00     0.041 A 
ATOM     80  F   UNL A   1      39.603  28.619  32.314  1.00  0.00    -0.206 F 
ATOM     81  C   UNL A   1      36.556  30.536  31.971  1.00  0.00     0.022 A 
BRANCH  78  82
ATOM     82  S   UNL A   1      35.527  32.223  30.004  1.00  0.00     0.124 S 
ATOM     83  O   UNL A   1      36.369  33.407  29.867  1.00  0.00    -0.237 OA
ATOM     84  O   UNL A   1      35.106  31.588  28.760  1.00  0.00    -0.237 OA
ATOM     85  O   UNL A   1      34.501  32.303  31.041  1.00  0.00    -0.744 OA
ENDBRANCH  78  82
ENDBRANCH  51  75
BRANCH  63  86
ATOM     86  C   UNL A   1      44.674  33.515  29.473  1.00  0.00     0.023 A 
ATOM     87  C   UNL A   1      44.339  34.639  28.699  1.00  0.00     0.031 A 
ATOM     88  C   UNL A   1      45.381  33.723  30.671  1.00  0.00     0.131 A 
ATOM     89  C   UNL A   1      44.745  35.917  29.111  1.00  0.00     0.055 A 
ATOM     90  C   UNL A   1      45.734  35.001  31.104  1.00  0.00     0.041 A 
ATOM     91  F   UNL A   1      45.726  32.684  31.449  1.00  0.00    -0.206 F 
ATOM     92  C   UNL A   1      45.423  36.107  30.319  1.00  0.00     0.022 A 
BRANCH  89  93
ATOM     93  S   UNL A   1      44.424  37.331  28.021  1.00  0.00     0.124 S 
ATOM     94  O   UNL A   1      43.381  36.807  27.145  1.00  0.00    -0.237 OA
ATOM     95  O   UNL A   1      44.006  38.365  28.963  1.00  0.00    -0.237 OA
ATOM     96  O   UNL A   1      45.716  37.567  27.377  1.00  0.00    -0.744 OA
ENDBRANCH  89  93
ENDBRANCH  63  86
ENDBRANCH  37  38
ENDBRANCH  30  32
ENDBRANCH  29  30
ENDBRANCH  28  29
ENDBRANCH  27  28
ENDBRANCH  26  27
ENDBRANCH  25  26
ENDBRANCH   1  25
TORSDOF 25
ENDMDL
