MODEL 1
REMARK VINA RESULT:      -9.7      0.000      0.000
REMARK SMILES O=C(OCCOCCOCCOC(=O)c1ccccc1C(=O)Nc1ccc(N2C(=O)[C@H]3[C@@H]4CC[C@@H](C4)[C@@H]3C2=O)cc1)c1ccc(-c2c3nc(c(-c4cc(S(=O)(=O)[O-])ccc4F)c4ccc([nH]4)c(-c4cc(S(=O)(=O)[O-])ccc4F)c4nc(c(-c5cc(S(=O)(=O)[O-])ccc5F)c5ccc2[nH]5)C=C4)C=C3)cc1
REMARK SMILES IDX 7 1 6 2 5 3 4 4 3 5 2 6 1 7 42 8 43 9 104 10 44 11 103 12
REMARK SMILES IDX 45 13 46 14 47 15 97 16 48 17 102 18 96 19 98 20 49 21
REMARK SMILES IDX 101 22 95 23 94 24 50 26 82 27 62 28 81 29 63 30 66 31 80 32
REMARK SMILES IDX 99 33 64 34 65 35 79 37 100 38 67 39 51 40 52 41 60 42 53 43
REMARK SMILES IDX 59 44 61 45 58 46 54 47 55 48 56 49 57 50 83 51 84 52 92 53
REMARK SMILES IDX 85 54 91 55 93 56 90 57 86 58 87 59 88 60 89 61 68 62 69 63
REMARK SMILES IDX 77 64 70 65 76 66 78 67 75 68 71 69 72 70 73 71 74 72 8 73
REMARK SMILES IDX 9 74 10 75 11 76 12 77 13 78 14 79 15 80 16 81 20 82 17 83
REMARK SMILES IDX 19 84 18 85 21 86 22 87 23 88 24 90 25 91 41 92 26 93 40 94
REMARK SMILES IDX 27 95 28 96 29 97 38 98 30 99 31 100 37 101 39 102 32 103
REMARK SMILES IDX 35 104 33 105 36 106 34 107
REMARK H PARENT 98 25 66 36 23 89
REMARK Flexibility Score: inf
ROOT
ATOM      1  C   UNL A   1      49.261  32.981  26.437  1.00  0.00     0.188 C 
ENDROOT
BRANCH   1   2
ATOM      2  O   UNL A   1      49.180  34.415  26.242  1.00  0.00    -0.376 OA
BRANCH   2   3
ATOM      3  C   UNL A   1      48.085  34.882  25.418  1.00  0.00     0.202 C 
BRANCH   3   4
ATOM      4  C   UNL A   1      46.764  35.283  26.072  1.00  0.00     0.261 C 
BRANCH   4   5
ATOM      5  O   UNL A   1      45.663  34.653  25.425  1.00  0.00    -0.460 OA
BRANCH   5   6
ATOM      6  C   UNL A   1      44.955  33.627  25.949  1.00  0.00     0.338 C 
ATOM      7  O   UNL A   1      45.003  32.521  25.417  1.00  0.00    -0.246 OA
BRANCH   6   8
ATOM      8  C   UNL A   1      44.182  33.789  27.209  1.00  0.00     0.060 A 
ATOM      9  C   UNL A   1      43.491  34.954  27.538  1.00  0.00     0.016 A 
ATOM     10  C   UNL A   1      44.090  32.694  28.069  1.00  0.00     0.016 A 
ATOM     11  C   UNL A   1      42.816  35.079  28.749  1.00  0.00     0.010 A 
ATOM     12  C   UNL A   1      43.326  32.781  29.239  1.00  0.00     0.010 A 
ATOM     13  C   UNL A   1      42.696  33.985  29.600  1.00  0.00    -0.014 A 
BRANCH  13  14
ATOM     14  C   UNL A   1      41.993  34.114  30.902  1.00  0.00     0.031 A 
ATOM     15  C   UNL A   1      42.816  34.143  32.151  1.00  0.00     0.074 A 
ATOM     16  C   UNL A   1      40.655  34.251  30.986  1.00  0.00     0.049 A 
ATOM     17  N   UNL A   1      42.467  33.903  33.384  1.00  0.00    -0.248 NA
ATOM     18  C   UNL A   1      44.239  34.466  31.969  1.00  0.00     0.031 C 
ATOM     19  C   UNL A   1      39.751  34.394  29.848  1.00  0.00     0.029 A 
ATOM     20  N   UNL A   1      39.820  34.312  32.072  1.00  0.00    -0.354 N 
ATOM     21  C   UNL A   1      43.645  33.955  34.119  1.00  0.00     0.074 A 
ATOM     22  C   UNL A   1      44.710  34.272  33.191  1.00  0.00     0.031 C 
ATOM     23  C   UNL A   1      38.499  34.578  30.291  1.00  0.00     0.029 A 
ATOM     24  C   UNL A   1      38.489  34.438  31.740  1.00  0.00     0.049 A 
ATOM     25  H   UNL A   1      40.142  34.270  33.002  1.00  0.00     0.167 HD
ATOM     26  C   UNL A   1      43.808  33.721  35.444  1.00  0.00     0.034 A 
ATOM     27  C   UNL A   1      37.386  34.377  32.511  1.00  0.00     0.034 A 
ATOM     28  C   UNL A   1      42.703  33.438  36.328  1.00  0.00     0.049 A 
ATOM     29  C   UNL A   1      37.577  34.078  33.975  1.00  0.00     0.074 A 
ATOM     30  C   UNL A   1      42.714  33.053  37.656  1.00  0.00     0.029 A 
ATOM     31  N   UNL A   1      41.365  33.542  35.958  1.00  0.00    -0.354 N 
ATOM     32  N   UNL A   1      38.698  33.904  34.640  1.00  0.00    -0.248 NA
ATOM     33  C   UNL A   1      36.363  33.922  34.784  1.00  0.00     0.031 C 
ATOM     34  C   UNL A   1      41.385  32.898  38.078  1.00  0.00     0.029 A 
ATOM     35  C   UNL A   1      40.542  33.230  37.028  1.00  0.00     0.049 A 
ATOM     36  H   UNL A   1      41.047  33.800  35.062  1.00  0.00     0.167 HD
ATOM     37  C   UNL A   1      38.325  33.597  35.941  1.00  0.00     0.074 A 
ATOM     38  C   UNL A   1      36.875  33.650  35.977  1.00  0.00     0.031 C 
ATOM     39  C   UNL A   1      39.100  33.277  37.009  1.00  0.00     0.034 A 
BRANCH  26  40
ATOM     40  C   UNL A   1      45.232  33.639  35.933  1.00  0.00     0.023 A 
ATOM     41  C   UNL A   1      45.922  34.765  36.414  1.00  0.00     0.031 A 
ATOM     42  C   UNL A   1      45.958  32.447  35.756  1.00  0.00     0.131 A 
ATOM     43  C   UNL A   1      47.314  34.706  36.594  1.00  0.00     0.055 A 
ATOM     44  C   UNL A   1      47.327  32.371  36.022  1.00  0.00     0.041 A 
ATOM     45  F   UNL A   1      45.360  31.348  35.270  1.00  0.00    -0.206 F 
ATOM     46  C   UNL A   1      48.017  33.512  36.421  1.00  0.00     0.022 A 
BRANCH  43  47
ATOM     47  S   UNL A   1      48.221  36.256  36.859  1.00  0.00     0.124 S 
ATOM     48  O   UNL A   1      47.189  37.102  37.454  1.00  0.00    -0.237 OA
ATOM     49  O   UNL A   1      49.301  35.842  37.747  1.00  0.00    -0.237 OA
ATOM     50  O   UNL A   1      48.636  36.646  35.513  1.00  0.00    -0.744 OA
ENDBRANCH  43  47
ENDBRANCH  26  40
BRANCH  27  51
ATOM     51  C   UNL A   1      36.023  34.489  31.907  1.00  0.00     0.023 A 
ATOM     52  C   UNL A   1      35.170  35.557  32.220  1.00  0.00     0.031 A 
ATOM     53  C   UNL A   1      35.549  33.513  31.009  1.00  0.00     0.131 A 
ATOM     54  C   UNL A   1      33.886  35.621  31.650  1.00  0.00     0.055 A 
ATOM     55  C   UNL A   1      34.292  33.606  30.407  1.00  0.00     0.041 A 
ATOM     56  F   UNL A   1      36.315  32.460  30.679  1.00  0.00    -0.206 F 
ATOM     57  C   UNL A   1      33.450  34.662  30.732  1.00  0.00     0.022 A 
BRANCH  54  58
ATOM     58  S   UNL A   1      32.755  36.942  32.175  1.00  0.00     0.124 S 
ATOM     59  O   UNL A   1      33.292  37.291  33.486  1.00  0.00    -0.237 OA
ATOM     60  O   UNL A   1      32.933  37.936  31.123  1.00  0.00    -0.237 OA
ATOM     61  O   UNL A   1      31.449  36.284  32.193  1.00  0.00    -0.744 OA
ENDBRANCH  54  58
ENDBRANCH  27  51
BRANCH  39  62
ATOM     62  C   UNL A   1      38.366  32.972  38.284  1.00  0.00     0.023 A 
ATOM     63  C   UNL A   1      38.362  33.886  39.351  1.00  0.00     0.031 A 
ATOM     64  C   UNL A   1      37.705  31.745  38.447  1.00  0.00     0.131 A 
ATOM     65  C   UNL A   1      37.746  33.537  40.561  1.00  0.00     0.055 A 
ATOM     66  C   UNL A   1      37.060  31.419  39.639  1.00  0.00     0.041 A 
ATOM     67  F   UNL A   1      37.687  30.843  37.452  1.00  0.00    -0.206 F 
ATOM     68  C   UNL A   1      37.088  32.312  40.708  1.00  0.00     0.022 A 
BRANCH  65  69
ATOM     69  S   UNL A   1      37.878  34.677  41.965  1.00  0.00     0.124 S 
ATOM     70  O   UNL A   1      38.266  35.923  41.311  1.00  0.00    -0.237 OA
ATOM     71  O   UNL A   1      36.530  34.643  42.524  1.00  0.00    -0.237 OA
ATOM     72  O   UNL A   1      38.910  34.069  42.803  1.00  0.00    -0.744 OA
ENDBRANCH  65  69
ENDBRANCH  39  62
ENDBRANCH  13  14
ENDBRANCH   6   8
ENDBRANCH   5   6
ENDBRANCH   4   5
ENDBRANCH   3   4
ENDBRANCH   2   3
ENDBRANCH   1   2
BRANCH   1  73
ATOM     73  C   UNL A   1      48.119  32.152  27.291  1.00  0.00     0.188 C 
BRANCH  73  74
ATOM     74  O   UNL A   1      47.518  30.944  26.723  1.00  0.00    -0.376 OA
BRANCH  74  75
ATOM     75  C   UNL A   1      46.574  30.029  27.410  1.00  0.00     0.202 C 
BRANCH  75  76
ATOM     76  C   UNL A   1      45.602  28.777  26.499  1.00  0.00     0.261 C 
BRANCH  76  77
ATOM     77  O   UNL A   1      44.962  27.015  27.330  1.00  0.00    -0.460 OA
BRANCH  77  78
ATOM     78  C   UNL A   1      44.068  26.098  28.020  1.00  0.00     0.339 C 
ATOM     79  O   UNL A   1      44.564  25.227  28.741  1.00  0.00    -0.246 OA
BRANCH  78  80
ATOM     80  C   UNL A   1      42.536  25.990  27.797  1.00  0.00     0.072 A 
ATOM     81  C   UNL A   1      41.990  24.704  27.558  1.00  0.00     0.016 A 
ATOM     82  C   UNL A   1      41.621  27.062  27.856  1.00  0.00     0.054 A 
ATOM     83  C   UNL A   1      40.602  24.474  27.485  1.00  0.00     0.001 A 
ATOM     84  C   UNL A   1      40.223  26.810  27.813  1.00  0.00     0.015 A 
ATOM     85  C   UNL A   1      39.714  25.526  27.649  1.00  0.00     0.001 A 
BRANCH  82  86
ATOM     86  C   UNL A   1      41.958  28.502  27.946  1.00  0.00     0.256 C 
ATOM     87  O   UNL A   1      42.000  29.175  26.918  1.00  0.00    -0.269 OA
ATOM     88  N   UNL A   1      42.234  29.123  29.135  1.00  0.00    -0.322 N 
ATOM     89  H   UNL A   1      42.458  30.080  29.089  1.00  0.00     0.170 HD
BRANCH  88  90
ATOM     90  C   UNL A   1      42.231  28.548  30.400  1.00  0.00     0.041 A 
ATOM     91  C   UNL A   1      43.866  28.457  31.103  1.00  0.00     0.028 A 
ATOM     92  C   UNL A   1      40.781  28.632  31.465  1.00  0.00     0.028 A 
ATOM     93  C   UNL A   1      44.132  28.530  32.850  1.00  0.00     0.029 A 
ATOM     94  C   UNL A   1      41.063  28.803  33.267  1.00  0.00     0.029 A 
ATOM     95  C   UNL A   1      42.770  28.634  33.973  1.00  0.00     0.052 A 
BRANCH  95  96
ATOM     96  N   UNL A   1      43.087  28.021  35.280  1.00  0.00    -0.250 N 
ATOM     97  C   UNL A   1      43.454  28.695  36.475  1.00  0.00     0.237 C 
ATOM     98  C   UNL A   1      42.642  26.781  35.719  1.00  0.00     0.237 C 
ATOM     99  O   UNL A   1      43.114  29.770  36.933  1.00  0.00    -0.274 OA
ATOM    100  C   UNL A   1      44.291  27.646  37.159  1.00  0.00     0.095 C 
ATOM    101  C   UNL A   1      43.253  26.548  37.101  1.00  0.00     0.095 C 
ATOM    102  O   UNL A   1      41.825  26.033  35.207  1.00  0.00    -0.274 OA
ATOM    103  C   UNL A   1      45.194  27.231  38.329  1.00  0.00     0.002 C 
ATOM    104  C   UNL A   1      44.037  25.382  37.718  1.00  0.00     0.002 C 
ATOM    105  C   UNL A   1      46.298  26.323  37.683  1.00  0.00     0.005 C 
ATOM    106  C   UNL A   1      44.431  26.096  39.038  1.00  0.00     0.009 C 
ATOM    107  C   UNL A   1      45.454  25.138  37.131  1.00  0.00     0.005 C 
ENDBRANCH  95  96
ENDBRANCH  88  90
ENDBRANCH  82  86
ENDBRANCH  78  80
ENDBRANCH  77  78
ENDBRANCH  76  77
ENDBRANCH  75  76
ENDBRANCH  74  75
ENDBRANCH  73  74
ENDBRANCH   1  73
TORSDOF 23
ENDMDL
MODEL 2
REMARK VINA RESULT:      -9.7      4.182     12.064
REMARK SMILES O=C(OCCOCCOCCOC(=O)c1ccccc1C(=O)Nc1ccc(N2C(=O)[C@H]3[C@@H]4CC[C@@H](C4)[C@@H]3C2=O)cc1)c1ccc(-c2c3nc(c(-c4cc(S(=O)(=O)[O-])ccc4F)c4ccc([nH]4)c(-c4cc(S(=O)(=O)[O-])ccc4F)c4nc(c(-c5cc(S(=O)(=O)[O-])ccc5F)c5ccc2[nH]5)C=C4)C=C3)cc1
REMARK SMILES IDX 7 1 6 2 5 3 4 4 3 5 2 6 1 7 42 8 43 9 104 10 44 11 103 12
REMARK SMILES IDX 45 13 46 14 47 15 97 16 48 17 102 18 96 19 98 20 49 21
REMARK SMILES IDX 101 22 95 23 94 24 50 26 82 27 62 28 81 29 63 30 66 31 80 32
REMARK SMILES IDX 99 33 64 34 65 35 79 37 100 38 67 39 51 40 52 41 60 42 53 43
REMARK SMILES IDX 59 44 61 45 58 46 54 47 55 48 56 49 57 50 83 51 84 52 92 53
REMARK SMILES IDX 85 54 91 55 93 56 90 57 86 58 87 59 88 60 89 61 68 62 69 63
REMARK SMILES IDX 77 64 70 65 76 66 78 67 75 68 71 69 72 70 73 71 74 72 8 73
REMARK SMILES IDX 9 74 10 75 11 76 12 77 13 78 14 79 15 80 16 81 20 82 17 83
REMARK SMILES IDX 19 84 18 85 21 86 22 87 23 88 24 90 25 91 41 92 26 93 40 94
REMARK SMILES IDX 27 95 28 96 29 97 38 98 30 99 31 100 37 101 39 102 32 103
REMARK SMILES IDX 35 104 33 105 36 106 34 107
REMARK H PARENT 98 25 66 36 23 89
REMARK Flexibility Score: inf
ROOT
ATOM      1  C   UNL A   1      39.208  34.053  33.238  1.00  0.00     0.188 C 
ENDROOT
BRANCH   1   2
ATOM      2  O   UNL A   1      39.921  34.933  34.144  1.00  0.00    -0.376 OA
BRANCH   2   3
ATOM      3  C   UNL A   1      39.155  35.452  35.257  1.00  0.00     0.202 C 
BRANCH   3   4
ATOM      4  C   UNL A   1      39.645  35.221  36.685  1.00  0.00     0.261 C 
BRANCH   4   5
ATOM      5  O   UNL A   1      39.119  34.008  37.214  1.00  0.00    -0.460 OA
BRANCH   5   6
ATOM      6  C   UNL A   1      39.865  32.920  37.513  1.00  0.00     0.338 C 
ATOM      7  O   UNL A   1      39.695  32.341  38.582  1.00  0.00    -0.246 OA
BRANCH   6   8
ATOM      8  C   UNL A   1      40.835  32.359  36.534  1.00  0.00     0.060 A 
ATOM      9  C   UNL A   1      42.217  32.473  36.675  1.00  0.00     0.016 A 
ATOM     10  C   UNL A   1      40.333  31.624  35.459  1.00  0.00     0.016 A 
ATOM     11  C   UNL A   1      43.088  31.971  35.712  1.00  0.00     0.010 A 
ATOM     12  C   UNL A   1      41.209  31.029  34.544  1.00  0.00     0.010 A 
ATOM     13  C   UNL A   1      42.599  31.214  34.652  1.00  0.00    -0.014 A 
BRANCH  13  14
ATOM     14  C   UNL A   1      43.519  30.689  33.611  1.00  0.00     0.031 A 
ATOM     15  C   UNL A   1      43.914  31.601  32.492  1.00  0.00     0.074 A 
ATOM     16  C   UNL A   1      44.038  29.448  33.670  1.00  0.00     0.049 A 
ATOM     17  N   UNL A   1      44.396  31.314  31.315  1.00  0.00    -0.248 NA
ATOM     18  C   UNL A   1      43.709  33.036  32.737  1.00  0.00     0.031 C 
ATOM     19  C   UNL A   1      43.862  28.514  34.778  1.00  0.00     0.029 A 
ATOM     20  N   UNL A   1      44.835  28.760  32.790  1.00  0.00    -0.354 N 
ATOM     21  C   UNL A   1      44.469  32.526  30.639  1.00  0.00     0.074 A 
ATOM     22  C   UNL A   1      44.001  33.548  31.552  1.00  0.00     0.031 C 
ATOM     23  C   UNL A   1      44.568  27.399  34.541  1.00  0.00     0.029 A 
ATOM     24  C   UNL A   1      45.144  27.484  33.207  1.00  0.00     0.049 A 
ATOM     25  H   UNL A   1      45.155  29.142  31.941  1.00  0.00     0.167 HD
ATOM     26  C   UNL A   1      44.860  32.741  29.359  1.00  0.00     0.034 A 
ATOM     27  C   UNL A   1      45.762  26.477  32.558  1.00  0.00     0.034 A 
ATOM     28  C   UNL A   1      45.346  31.685  28.504  1.00  0.00     0.049 A 
ATOM     29  C   UNL A   1      46.157  26.715  31.124  1.00  0.00     0.074 A 
ATOM     30  C   UNL A   1      45.654  31.714  27.157  1.00  0.00     0.029 A 
ATOM     31  N   UNL A   1      45.621  30.393  28.944  1.00  0.00    -0.354 N 
ATOM     32  N   UNL A   1      46.022  27.806  30.403  1.00  0.00    -0.248 NA
ATOM     33  C   UNL A   1      46.742  25.580  30.401  1.00  0.00     0.031 C 
ATOM     34  C   UNL A   1      46.088  30.435  26.778  1.00  0.00     0.029 A 
ATOM     35  C   UNL A   1      46.095  29.617  27.898  1.00  0.00     0.049 A 
ATOM     36  H   UNL A   1      45.496  30.074  29.867  1.00  0.00     0.167 HD
ATOM     37  C   UNL A   1      46.488  27.485  29.135  1.00  0.00     0.074 A 
ATOM     38  C   UNL A   1      46.944  26.108  29.202  1.00  0.00     0.031 C 
ATOM     39  C   UNL A   1      46.518  28.242  28.009  1.00  0.00     0.034 A 
BRANCH  26  40
ATOM     40  C   UNL A   1      44.636  34.132  28.822  1.00  0.00     0.023 A 
ATOM     41  C   UNL A   1      45.687  35.056  28.684  1.00  0.00     0.031 A 
ATOM     42  C   UNL A   1      43.323  34.588  28.604  1.00  0.00     0.131 A 
ATOM     43  C   UNL A   1      45.396  36.410  28.448  1.00  0.00     0.055 A 
ATOM     44  C   UNL A   1      43.049  35.919  28.283  1.00  0.00     0.041 A 
ATOM     45  F   UNL A   1      42.278  33.759  28.754  1.00  0.00    -0.206 F 
ATOM     46  C   UNL A   1      44.088  36.844  28.227  1.00  0.00     0.022 A 
BRANCH  43  47
ATOM     47  S   UNL A   1      46.730  37.628  28.636  1.00  0.00     0.124 S 
ATOM     48  O   UNL A   1      47.727  37.120  27.696  1.00  0.00    -0.237 OA
ATOM     49  O   UNL A   1      46.074  38.875  28.262  1.00  0.00    -0.237 OA
ATOM     50  O   UNL A   1      47.100  37.517  30.046  1.00  0.00    -0.744 OA
ENDBRANCH  43  47
ENDBRANCH  26  40
BRANCH  27  51
ATOM     51  C   UNL A   1      45.938  25.143  33.207  1.00  0.00     0.023 A 
ATOM     52  C   UNL A   1      47.104  24.825  33.921  1.00  0.00     0.031 A 
ATOM     53  C   UNL A   1      44.938  24.154  33.112  1.00  0.00     0.131 A 
ATOM     54  C   UNL A   1      47.247  23.552  34.502  1.00  0.00     0.055 A 
ATOM     55  C   UNL A   1      45.064  22.910  33.733  1.00  0.00     0.041 A 
ATOM     56  F   UNL A   1      43.805  24.395  32.433  1.00  0.00    -0.206 F 
ATOM     57  C   UNL A   1      46.227  22.601  34.428  1.00  0.00     0.022 A 
BRANCH  54  58
ATOM     58  S   UNL A   1      48.818  23.124  35.305  1.00  0.00     0.124 S 
ATOM     59  O   UNL A   1      49.505  24.412  35.324  1.00  0.00    -0.237 OA
ATOM     60  O   UNL A   1      48.376  22.614  36.597  1.00  0.00    -0.237 OA
ATOM     61  O   UNL A   1      49.398  22.125  34.408  1.00  0.00    -0.744 OA
ENDBRANCH  54  58
ENDBRANCH  27  51
BRANCH  39  62
ATOM     62  C   UNL A   1      47.071  27.572  26.783  1.00  0.00     0.023 A 
ATOM     63  C   UNL A   1      48.427  27.703  26.438  1.00  0.00     0.031 A 
ATOM     64  C   UNL A   1      46.229  26.836  25.935  1.00  0.00     0.131 A 
ATOM     65  C   UNL A   1      48.895  27.143  25.241  1.00  0.00     0.055 A 
ATOM     66  C   UNL A   1      46.708  26.249  24.766  1.00  0.00     0.041 A 
ATOM     67  F   UNL A   1      44.927  26.690  26.227  1.00  0.00    -0.206 F 
ATOM     68  C   UNL A   1      48.045  26.410  24.408  1.00  0.00     0.022 A 
BRANCH  65  69
ATOM     69  S   UNL A   1      50.614  27.447  24.753  1.00  0.00     0.124 S 
ATOM     70  O   UNL A   1      51.357  26.766  25.809  1.00  0.00    -0.237 OA
ATOM     71  O   UNL A   1      50.678  26.832  23.431  1.00  0.00    -0.237 OA
ATOM     72  O   UNL A   1      50.720  28.905  24.763  1.00  0.00    -0.744 OA
ENDBRANCH  65  69
ENDBRANCH  39  62
ENDBRANCH  13  14
ENDBRANCH   6   8
ENDBRANCH   5   6
ENDBRANCH   4   5
ENDBRANCH   3   4
ENDBRANCH   2   3
ENDBRANCH   1   2
BRANCH   1  73
ATOM     73  C   UNL A   1      37.936  34.581  32.332  1.00  0.00     0.188 C 
BRANCH  73  74
ATOM     74  O   UNL A   1      36.656  34.879  32.976  1.00  0.00    -0.376 OA
BRANCH  74  75
ATOM     75  C   UNL A   1      35.313  34.501  32.472  1.00  0.00     0.202 C 
BRANCH  75  76
ATOM     76  C   UNL A   1      34.918  32.794  31.951  1.00  0.00     0.261 C 
BRANCH  76  77
ATOM     77  O   UNL A   1      36.181  31.629  30.832  1.00  0.00    -0.460 OA
BRANCH  77  78
ATOM     78  C   UNL A   1      37.437  31.040  30.397  1.00  0.00     0.339 C 
ATOM     79  O   UNL A   1      37.819  31.256  29.242  1.00  0.00    -0.246 OA
BRANCH  78  80
ATOM     80  C   UNL A   1      38.273  30.002  31.194  1.00  0.00     0.072 A 
ATOM     81  C   UNL A   1      37.578  28.962  31.859  1.00  0.00     0.016 A 
ATOM     82  C   UNL A   1      39.680  29.975  31.280  1.00  0.00     0.054 A 
ATOM     83  C   UNL A   1      38.242  27.891  32.489  1.00  0.00     0.001 A 
ATOM     84  C   UNL A   1      40.336  28.872  31.891  1.00  0.00     0.015 A 
ATOM     85  C   UNL A   1      39.627  27.828  32.474  1.00  0.00     0.001 A 
BRANCH  82  86
ATOM     86  C   UNL A   1      40.611  31.023  30.799  1.00  0.00     0.256 C 
ATOM     87  O   UNL A   1      40.627  32.117  31.360  1.00  0.00    -0.269 OA
ATOM     88  N   UNL A   1      41.461  30.827  29.743  1.00  0.00    -0.322 N 
ATOM     89  H   UNL A   1      42.031  31.589  29.492  1.00  0.00     0.170 HD
BRANCH  88  90
ATOM     90  C   UNL A   1      41.603  29.671  28.986  1.00  0.00     0.041 A 
ATOM     91  C   UNL A   1      42.907  28.621  29.599  1.00  0.00     0.028 A 
ATOM     92  C   UNL A   1      40.218  28.970  28.073  1.00  0.00     0.028 A 
ATOM     93  C   UNL A   1      42.850  26.863  29.412  1.00  0.00     0.029 A 
ATOM     94  C   UNL A   1      40.114  27.145  27.962  1.00  0.00     0.029 A 
ATOM     95  C   UNL A   1      41.519  26.084  28.548  1.00  0.00     0.052 A 
BRANCH  95  96
ATOM     96  N   UNL A   1      41.940  24.817  27.915  1.00  0.00    -0.250 N 
ATOM     97  C   UNL A   1      42.735  23.793  28.496  1.00  0.00     0.237 C 
ATOM     98  C   UNL A   1      41.284  24.179  26.870  1.00  0.00     0.237 C 
ATOM     99  O   UNL A   1      42.811  23.381  29.638  1.00  0.00    -0.274 OA
ATOM    100  C   UNL A   1      43.386  23.197  27.275  1.00  0.00     0.095 C 
ATOM    101  C   UNL A   1      42.103  22.936  26.519  1.00  0.00     0.095 C 
ATOM    102  O   UNL A   1      40.203  24.438  26.370  1.00  0.00    -0.274 OA
ATOM    103  C   UNL A   1      44.380  22.203  26.659  1.00  0.00     0.002 C 
ATOM    104  C   UNL A   1      42.657  22.383  25.199  1.00  0.00     0.002 C 
ATOM    105  C   UNL A   1      45.022  22.971  25.451  1.00  0.00     0.005 C 
ATOM    106  C   UNL A   1      43.515  21.247  25.815  1.00  0.00     0.009 C 
ATOM    107  C   UNL A   1      43.786  23.222  24.539  1.00  0.00     0.005 C 
ENDBRANCH  95  96
ENDBRANCH  88  90
ENDBRANCH  82  86
ENDBRANCH  78  80
ENDBRANCH  77  78
ENDBRANCH  76  77
ENDBRANCH  75  76
ENDBRANCH  74  75
ENDBRANCH  73  74
ENDBRANCH   1  73
TORSDOF 23
ENDMDL
MODEL 3
REMARK VINA RESULT:      -9.5      1.971      2.560
REMARK SMILES O=C(OCCOCCOCCOC(=O)c1ccccc1C(=O)Nc1ccc(N2C(=O)[C@H]3[C@@H]4CC[C@@H](C4)[C@@H]3C2=O)cc1)c1ccc(-c2c3nc(c(-c4cc(S(=O)(=O)[O-])ccc4F)c4ccc([nH]4)c(-c4cc(S(=O)(=O)[O-])ccc4F)c4nc(c(-c5cc(S(=O)(=O)[O-])ccc5F)c5ccc2[nH]5)C=C4)C=C3)cc1
REMARK SMILES IDX 7 1 6 2 5 3 4 4 3 5 2 6 1 7 42 8 43 9 104 10 44 11 103 12
REMARK SMILES IDX 45 13 46 14 47 15 97 16 48 17 102 18 96 19 98 20 49 21
REMARK SMILES IDX 101 22 95 23 94 24 50 26 82 27 62 28 81 29 63 30 66 31 80 32
REMARK SMILES IDX 99 33 64 34 65 35 79 37 100 38 67 39 51 40 52 41 60 42 53 43
REMARK SMILES IDX 59 44 61 45 58 46 54 47 55 48 56 49 57 50 83 51 84 52 92 53
REMARK SMILES IDX 85 54 91 55 93 56 90 57 86 58 87 59 88 60 89 61 68 62 69 63
REMARK SMILES IDX 77 64 70 65 76 66 78 67 75 68 71 69 72 70 73 71 74 72 8 73
REMARK SMILES IDX 9 74 10 75 11 76 12 77 13 78 14 79 15 80 16 81 20 82 17 83
REMARK SMILES IDX 19 84 18 85 21 86 22 87 23 88 24 90 25 91 41 92 26 93 40 94
REMARK SMILES IDX 27 95 28 96 29 97 38 98 30 99 31 100 37 101 39 102 32 103
REMARK SMILES IDX 35 104 33 105 36 106 34 107
REMARK H PARENT 98 25 66 36 23 89
REMARK Flexibility Score: inf
ROOT
ATOM      1  C   UNL A   1      49.777  33.021  26.343  1.00  0.00     0.188 C 
ENDROOT
BRANCH   1   2
ATOM      2  O   UNL A   1      49.490  34.440  26.257  1.00  0.00    -0.376 OA
BRANCH   2   3
ATOM      3  C   UNL A   1      48.294  34.801  25.523  1.00  0.00     0.202 C 
BRANCH   3   4
ATOM      4  C   UNL A   1      47.023  35.170  26.285  1.00  0.00     0.261 C 
BRANCH   4   5
ATOM      5  O   UNL A   1      45.863  34.742  25.579  1.00  0.00    -0.460 OA
BRANCH   5   6
ATOM      6  C   UNL A   1      45.042  33.750  25.993  1.00  0.00     0.338 C 
ATOM      7  O   UNL A   1      44.991  32.699  25.360  1.00  0.00    -0.246 OA
BRANCH   6   8
ATOM      8  C   UNL A   1      44.257  33.874  27.250  1.00  0.00     0.060 A 
ATOM      9  C   UNL A   1      43.601  35.044  27.631  1.00  0.00     0.016 A 
ATOM     10  C   UNL A   1      44.116  32.740  28.052  1.00  0.00     0.016 A 
ATOM     11  C   UNL A   1      42.914  35.130  28.838  1.00  0.00     0.010 A 
ATOM     12  C   UNL A   1      43.340  32.794  29.216  1.00  0.00     0.010 A 
ATOM     13  C   UNL A   1      42.746  33.998  29.630  1.00  0.00    -0.014 A 
BRANCH  13  14
ATOM     14  C   UNL A   1      42.029  34.085  30.929  1.00  0.00     0.031 A 
ATOM     15  C   UNL A   1      42.839  34.059  32.186  1.00  0.00     0.074 A 
ATOM     16  C   UNL A   1      40.692  34.232  31.003  1.00  0.00     0.049 A 
ATOM     17  N   UNL A   1      42.474  33.775  33.405  1.00  0.00    -0.248 NA
ATOM     18  C   UNL A   1      44.266  34.374  32.032  1.00  0.00     0.031 C 
ATOM     19  C   UNL A   1      39.802  34.428  29.862  1.00  0.00     0.029 A 
ATOM     20  N   UNL A   1      39.846  34.261  32.082  1.00  0.00    -0.354 N 
ATOM     21  C   UNL A   1      43.644  33.787  34.155  1.00  0.00     0.074 A 
ATOM     22  C   UNL A   1      44.722  34.129  33.251  1.00  0.00     0.031 C 
ATOM     23  C   UNL A   1      38.547  34.607  30.298  1.00  0.00     0.029 A 
ATOM     24  C   UNL A   1      38.520  34.412  31.740  1.00  0.00     0.049 A 
ATOM     25  H   UNL A   1      40.157  34.180  33.013  1.00  0.00     0.167 HD
ATOM     26  C   UNL A   1      43.789  33.502  35.472  1.00  0.00     0.034 A 
ATOM     27  C   UNL A   1      37.407  34.333  32.497  1.00  0.00     0.034 A 
ATOM     28  C   UNL A   1      42.673  33.197  36.332  1.00  0.00     0.049 A 
ATOM     29  C   UNL A   1      37.580  33.976  33.950  1.00  0.00     0.074 A 
ATOM     30  C   UNL A   1      42.665  32.761  37.644  1.00  0.00     0.029 A 
ATOM     31  N   UNL A   1      41.339  33.328  35.952  1.00  0.00    -0.354 N 
ATOM     32  N   UNL A   1      38.691  33.766  34.619  1.00  0.00    -0.248 NA
ATOM     33  C   UNL A   1      36.355  33.802  34.739  1.00  0.00     0.031 C 
ATOM     34  C   UNL A   1      41.329  32.603  38.046  1.00  0.00     0.029 A 
ATOM     35  C   UNL A   1      40.502  32.984  37.000  1.00  0.00     0.049 A 
ATOM     36  H   UNL A   1      41.034  33.622  35.063  1.00  0.00     0.167 HD
ATOM     37  C   UNL A   1      38.300  33.414  35.905  1.00  0.00     0.074 A 
ATOM     38  C   UNL A   1      36.850  33.480  35.926  1.00  0.00     0.031 C 
ATOM     39  C   UNL A   1      39.060  33.045  36.967  1.00  0.00     0.034 A 
BRANCH  26  40
ATOM     40  C   UNL A   1      45.207  33.387  35.972  1.00  0.00     0.023 A 
ATOM     41  C   UNL A   1      45.956  32.205  35.828  1.00  0.00     0.031 A 
ATOM     42  C   UNL A   1      45.753  34.422  36.753  1.00  0.00     0.131 A 
ATOM     43  C   UNL A   1      47.154  32.048  36.544  1.00  0.00     0.055 A 
ATOM     44  C   UNL A   1      46.988  34.291  37.392  1.00  0.00     0.041 A 
ATOM     45  F   UNL A   1      45.070  35.560  36.953  1.00  0.00    -0.206 F 
ATOM     46  C   UNL A   1      47.685  33.089  37.309  1.00  0.00     0.022 A 
BRANCH  43  47
ATOM     47  S   UNL A   1      47.904  30.396  36.627  1.00  0.00     0.124 S 
ATOM     48  O   UNL A   1      48.932  30.591  37.646  1.00  0.00    -0.237 OA
ATOM     49  O   UNL A   1      46.775  29.556  37.008  1.00  0.00    -0.237 OA
ATOM     50  O   UNL A   1      48.412  30.182  35.273  1.00  0.00    -0.744 OA
ENDBRANCH  43  47
ENDBRANCH  26  40
BRANCH  27  51
ATOM     51  C   UNL A   1      36.053  34.481  31.882  1.00  0.00     0.023 A 
ATOM     52  C   UNL A   1      35.267  35.621  32.110  1.00  0.00     0.031 A 
ATOM     53  C   UNL A   1      35.517  33.470  31.061  1.00  0.00     0.131 A 
ATOM     54  C   UNL A   1      33.988  35.719  31.534  1.00  0.00     0.055 A 
ATOM     55  C   UNL A   1      34.267  33.593  30.451  1.00  0.00     0.041 A 
ATOM     56  F   UNL A   1      36.217  32.350  30.815  1.00  0.00    -0.206 F 
ATOM     57  C   UNL A   1      33.492  34.721  30.692  1.00  0.00     0.022 A 
BRANCH  54  58
ATOM     58  S   UNL A   1      32.942  37.143  31.953  1.00  0.00     0.124 S 
ATOM     59  O   UNL A   1      31.706  36.492  32.374  1.00  0.00    -0.237 OA
ATOM     60  O   UNL A   1      33.714  37.795  33.004  1.00  0.00    -0.237 OA
ATOM     61  O   UNL A   1      32.856  37.884  30.695  1.00  0.00    -0.744 OA
ENDBRANCH  54  58
ENDBRANCH  27  51
BRANCH  39  62
ATOM     62  C   UNL A   1      38.310  32.700  38.222  1.00  0.00     0.023 A 
ATOM     63  C   UNL A   1      38.295  33.577  39.320  1.00  0.00     0.031 A 
ATOM     64  C   UNL A   1      37.643  31.471  38.334  1.00  0.00     0.131 A 
ATOM     65  C   UNL A   1      37.662  33.189  40.509  1.00  0.00     0.055 A 
ATOM     66  C   UNL A   1      36.982  31.106  39.506  1.00  0.00     0.041 A 
ATOM     67  F   UNL A   1      37.635  30.603  37.310  1.00  0.00    -0.206 F 
ATOM     68  C   UNL A   1      36.999  31.962  40.605  1.00  0.00     0.022 A 
BRANCH  65  69
ATOM     69  S   UNL A   1      37.779  34.280  41.952  1.00  0.00     0.124 S 
ATOM     70  O   UNL A   1      36.384  34.649  42.170  1.00  0.00    -0.237 OA
ATOM     71  O   UNL A   1      38.373  33.406  42.959  1.00  0.00    -0.237 OA
ATOM     72  O   UNL A   1      38.642  35.366  41.490  1.00  0.00    -0.744 OA
ENDBRANCH  65  69
ENDBRANCH  39  62
ENDBRANCH  13  14
ENDBRANCH   6   8
ENDBRANCH   5   6
ENDBRANCH   4   5
ENDBRANCH   3   4
ENDBRANCH   2   3
ENDBRANCH   1   2
BRANCH   1  73
ATOM     73  C   UNL A   1      48.882  32.007  27.286  1.00  0.00     0.188 C 
BRANCH  73  74
ATOM     74  O   UNL A   1      47.734  31.304  26.713  1.00  0.00    -0.376 OA
BRANCH  74  75
ATOM     75  C   UNL A   1      46.982  30.192  27.347  1.00  0.00     0.202 C 
BRANCH  75  76
ATOM     76  C   UNL A   1      45.548  29.403  26.532  1.00  0.00     0.261 C 
BRANCH  76  77
ATOM     77  O   UNL A   1      44.961  27.472  26.892  1.00  0.00    -0.460 OA
BRANCH  77  78
ATOM     78  C   UNL A   1      44.191  26.386  27.479  1.00  0.00     0.339 C 
ATOM     79  O   UNL A   1      44.723  25.275  27.576  1.00  0.00    -0.246 OA
BRANCH  78  80
ATOM     80  C   UNL A   1      42.682  26.439  27.839  1.00  0.00     0.072 A 
ATOM     81  C   UNL A   1      41.826  25.478  27.247  1.00  0.00     0.016 A 
ATOM     82  C   UNL A   1      42.087  27.339  28.747  1.00  0.00     0.054 A 
ATOM     83  C   UNL A   1      40.471  25.346  27.611  1.00  0.00     0.001 A 
ATOM     84  C   UNL A   1      40.728  27.173  29.129  1.00  0.00     0.015 A 
ATOM     85  C   UNL A   1      39.930  26.174  28.583  1.00  0.00     0.001 A 
BRANCH  82  86
ATOM     86  C   UNL A   1      42.737  28.513  29.376  1.00  0.00     0.256 C 
ATOM     87  O   UNL A   1      42.799  29.571  28.752  1.00  0.00    -0.269 OA
ATOM     88  N   UNL A   1      43.283  28.471  30.631  1.00  0.00    -0.322 N 
ATOM     89  H   UNL A   1      43.703  29.300  30.954  1.00  0.00     0.170 HD
BRANCH  88  90
ATOM     90  C   UNL A   1      43.310  27.385  31.496  1.00  0.00     0.041 A 
ATOM     91  C   UNL A   1      44.655  26.271  31.139  1.00  0.00     0.028 A 
ATOM     92  C   UNL A   1      42.631  27.495  33.161  1.00  0.00     0.028 A 
ATOM     93  C   UNL A   1      45.422  25.305  32.406  1.00  0.00     0.029 A 
ATOM     94  C   UNL A   1      43.486  26.566  34.487  1.00  0.00     0.029 A 
ATOM     95  C   UNL A   1      44.837  25.363  34.074  1.00  0.00     0.052 A 
BRANCH  95  96
ATOM     96  N   UNL A   1      45.085  24.093  34.788  1.00  0.00    -0.250 N 
ATOM     97  C   UNL A   1      45.605  23.937  36.101  1.00  0.00     0.237 C 
ATOM     98  C   UNL A   1      44.444  22.887  34.537  1.00  0.00     0.237 C 
ATOM     99  O   UNL A   1      45.474  24.611  37.106  1.00  0.00    -0.274 OA
ATOM    100  C   UNL A   1      46.267  22.588  35.997  1.00  0.00     0.095 C 
ATOM    101  C   UNL A   1      45.051  21.851  35.483  1.00  0.00     0.095 C 
ATOM    102  O   UNL A   1      43.493  22.660  33.808  1.00  0.00    -0.274 OA
ATOM    103  C   UNL A   1      47.122  21.483  36.632  1.00  0.00     0.002 C 
ATOM    104  C   UNL A   1      45.639  20.449  35.267  1.00  0.00     0.002 C 
ATOM    105  C   UNL A   1      48.028  20.954  35.464  1.00  0.00     0.005 C 
ATOM    106  C   UNL A   1      46.196  20.254  36.701  1.00  0.00     0.009 C 
ATOM    107  C   UNL A   1      46.971  20.393  34.469  1.00  0.00     0.005 C 
ENDBRANCH  95  96
ENDBRANCH  88  90
ENDBRANCH  82  86
ENDBRANCH  78  80
ENDBRANCH  77  78
ENDBRANCH  76  77
ENDBRANCH  75  76
ENDBRANCH  74  75
ENDBRANCH  73  74
ENDBRANCH   1  73
TORSDOF 23
ENDMDL
