MODEL 1
REMARK VINA RESULT:     -11.1      0.000      0.000
REMARK SMILES C[C@H]1c2ccc(O)cc2OC(=O)[C@@H]1CC(=O)N[C@@H](CC1=c2ccccc2=NC1)C(=O)OCCOCCOCCOC(=O)c1ccc(-c2c3nc(c(-c4cc(S(=O)(=O)[O-])ccc4F)c4ccc([nH]4)c(-c4cc(S(=O)(=O)[O-])ccc4F)c4nc(c(-c5cc(S(=O)(=O)[O-])ccc5F)c5ccc2[nH]5)C=C4)C=C3)cc1
REMARK SMILES IDX 35 1 34 2 33 3 32 4 31 5 29 6 30 7 18 8 17 9 15 10 16 11
REMARK SMILES IDX 14 13 13 14 1 15 2 16 3 17 4 18 9 19 11 20 5 21 8 22 10 23
REMARK SMILES IDX 12 24 6 25 7 26 19 28 20 29 21 30 28 31 22 32 26 33 27 34
REMARK SMILES IDX 23 35 25 36 24 37 36 38 37 39 38 40 39 41 40 42 41 43 42 44
REMARK SMILES IDX 43 45 44 46 105 47 45 48 104 49 46 50 47 51 48 52 98 53
REMARK SMILES IDX 49 54 103 55 97 56 99 57 50 58 102 59 96 60 95 61 51 63
REMARK SMILES IDX 83 64 63 65 82 66 64 67 67 68 81 69 100 70 65 71 66 72 80 74
REMARK SMILES IDX 101 75 68 76 52 77 53 78 61 79 54 80 60 81 62 82 59 83 55 84
REMARK SMILES IDX 56 85 57 86 58 87 84 88 85 89 93 90 86 91 92 92 94 93 91 94
REMARK SMILES IDX 87 95 88 96 89 97 90 98 69 99 70 100 78 101 71 102 77 103
REMARK SMILES IDX 79 104 76 105 72 106 73 107 74 108 75 109
REMARK H PARENT 17 12 7 27 99 62 67 73
REMARK Flexibility Score: inf
ROOT
ATOM      1  C   UNL A   1      41.000  22.539  26.794  1.00  0.00     0.188 C 
ENDROOT
BRANCH   1   2
ATOM      2  O   UNL A   1      39.635  22.546  27.169  1.00  0.00    -0.376 OA
BRANCH   2   3
ATOM      3  C   UNL A   1      38.834  23.689  26.897  1.00  0.00     0.202 C 
BRANCH   3   4
ATOM      4  C   UNL A   1      37.809  23.706  25.755  1.00  0.00     0.261 C 
BRANCH   4   5
ATOM      5  O   UNL A   1      36.532  23.130  26.086  1.00  0.00    -0.462 OA
BRANCH   5   6
ATOM      6  C   UNL A   1      35.494  23.633  25.384  1.00  0.00     0.329 C 
ATOM      7  O   UNL A   1      35.364  24.828  25.114  1.00  0.00    -0.250 OA
BRANCH   6   8
ATOM      8  C   UNL A   1      34.424  22.623  24.953  1.00  0.00     0.196 C 
BRANCH   8   9
ATOM      9  N   UNL A   1      33.393  22.767  23.908  1.00  0.00    -0.342 N 
ATOM     10  C   UNL A   1      32.136  23.316  23.990  1.00  0.00     0.221 C 
ATOM     11  O   UNL A   1      31.302  22.995  23.141  1.00  0.00    -0.275 OA
ATOM     12  H   UNL A   1      33.642  22.416  23.022  1.00  0.00     0.164 HD
BRANCH  10  13
ATOM     13  C   UNL A   1      31.807  24.406  25.018  1.00  0.00     0.116 C 
BRANCH  13  14
ATOM     14  C   UNL A   1      30.438  25.109  24.885  1.00  0.00     0.116 C 
ATOM     15  C   UNL A   1      29.023  26.907  23.732  1.00  0.00     0.014 C 
ATOM     16  C   UNL A   1      30.436  26.339  23.941  1.00  0.00     0.034 C 
ATOM     17  C   UNL A   1      31.295  27.424  24.538  1.00  0.00    -0.001 A 
ATOM     18  C   UNL A   1      31.853  28.445  23.770  1.00  0.00     0.011 A 
ATOM     19  C   UNL A   1      31.486  27.451  25.922  1.00  0.00     0.138 A 
ATOM     20  C   UNL A   1      29.946  25.619  26.209  1.00  0.00     0.315 C 
ATOM     21  C   UNL A   1      32.625  29.428  24.393  1.00  0.00     0.047 A 
ATOM     22  C   UNL A   1      32.348  28.348  26.537  1.00  0.00     0.093 A 
ATOM     23  O   UNL A   1      30.718  26.628  26.766  1.00  0.00    -0.426 OA
ATOM     24  O   UNL A   1      28.970  25.155  26.785  1.00  0.00    -0.251 OA
ATOM     25  C   UNL A   1      32.911  29.342  25.755  1.00  0.00     0.119 A 
BRANCH  25  26
ATOM     26  O   UNL A   1      33.733  30.273  26.309  1.00  0.00    -0.508 OA
ATOM     27  H   UNL A   1      33.922  30.245  27.227  1.00  0.00     0.293 HD
ENDBRANCH  25  26
ENDBRANCH  13  14
ENDBRANCH  10  13
ENDBRANCH   8   9
BRANCH   8  28
ATOM     28  C   UNL A   1      35.192  21.300  24.762  1.00  0.00     0.070 C 
BRANCH  28  29
ATOM     29  C   UNL A   1      34.590  19.978  25.273  1.00  0.00    -0.037 C 
ATOM     30  C   UNL A   1      34.323  18.989  24.412  1.00  0.00     0.001 A 
ATOM     31  C   UNL A   1      33.286  20.295  25.988  1.00  0.00     0.174 C 
ATOM     32  C   UNL A   1      34.804  17.640  24.283  1.00  0.00     0.010 A 
ATOM     33  C   UNL A   1      32.872  19.175  24.190  1.00  0.00     0.065 A 
ATOM     34  N   UNL A   1      32.222  19.918  25.029  1.00  0.00    -0.280 NA
ATOM     35  C   UNL A   1      34.125  16.823  23.452  1.00  0.00     0.001 A 
ATOM     36  C   UNL A   1      32.349  18.456  23.014  1.00  0.00     0.028 A 
ATOM     37  C   UNL A   1      32.999  17.329  22.671  1.00  0.00     0.002 A 
ENDBRANCH  28  29
ENDBRANCH   8  28
ENDBRANCH   6   8
ENDBRANCH   5   6
ENDBRANCH   4   5
ENDBRANCH   3   4
ENDBRANCH   2   3
ENDBRANCH   1   2
BRANCH   1  38
ATOM     38  C   UNL A   1      41.906  21.408  27.299  1.00  0.00     0.188 C 
BRANCH  38  39
ATOM     39  O   UNL A   1      41.486  20.077  27.145  1.00  0.00    -0.376 OA
BRANCH  39  40
ATOM     40  C   UNL A   1      41.916  19.322  26.025  1.00  0.00     0.202 C 
BRANCH  40  41
ATOM     41  C   UNL A   1      43.243  18.540  25.912  1.00  0.00     0.261 C 
BRANCH  41  42
ATOM     42  O   UNL A   1      44.460  19.270  25.725  1.00  0.00    -0.460 OA
BRANCH  42  43
ATOM     43  C   UNL A   1      44.574  19.940  24.543  1.00  0.00     0.338 C 
ATOM     44  O   UNL A   1      44.206  19.556  23.452  1.00  0.00    -0.246 OA
BRANCH  43  45
ATOM     45  C   UNL A   1      44.998  21.328  24.849  1.00  0.00     0.060 A 
ATOM     46  C   UNL A   1      45.048  22.289  23.840  1.00  0.00     0.016 A 
ATOM     47  C   UNL A   1      45.374  21.660  26.160  1.00  0.00     0.016 A 
ATOM     48  C   UNL A   1      45.449  23.591  24.153  1.00  0.00     0.010 A 
ATOM     49  C   UNL A   1      45.809  22.955  26.464  1.00  0.00     0.010 A 
ATOM     50  C   UNL A   1      45.823  23.940  25.466  1.00  0.00    -0.014 A 
BRANCH  50  51
ATOM     51  C   UNL A   1      46.040  25.370  25.810  1.00  0.00     0.031 A 
ATOM     52  C   UNL A   1      44.968  26.233  26.399  1.00  0.00     0.074 A 
ATOM     53  C   UNL A   1      47.274  25.876  25.637  1.00  0.00     0.049 A 
ATOM     54  N   UNL A   1      45.008  27.499  26.730  1.00  0.00    -0.248 NA
ATOM     55  C   UNL A   1      43.684  25.579  26.656  1.00  0.00     0.031 C 
ATOM     56  C   UNL A   1      48.412  25.120  25.118  1.00  0.00     0.029 A 
ATOM     57  N   UNL A   1      47.787  27.115  25.921  1.00  0.00    -0.354 N 
ATOM     58  C   UNL A   1      43.726  27.825  27.166  1.00  0.00     0.074 A 
ATOM     59  C   UNL A   1      42.973  26.592  27.133  1.00  0.00     0.031 C 
ATOM     60  C   UNL A   1      49.507  25.889  25.187  1.00  0.00     0.029 A 
ATOM     61  C   UNL A   1      49.140  27.208  25.704  1.00  0.00     0.049 A 
ATOM     62  H   UNL A   1      47.239  27.864  26.249  1.00  0.00     0.167 HD
ATOM     63  C   UNL A   1      43.228  29.040  27.517  1.00  0.00     0.034 A 
ATOM     64  C   UNL A   1      49.996  28.229  25.914  1.00  0.00     0.034 A 
ATOM     65  C   UNL A   1      44.059  30.210  27.695  1.00  0.00     0.049 A 
ATOM     66  C   UNL A   1      49.480  29.513  26.513  1.00  0.00     0.074 A 
ATOM     67  C   UNL A   1      43.686  31.466  28.146  1.00  0.00     0.029 A 
ATOM     68  N   UNL A   1      45.433  30.255  27.501  1.00  0.00    -0.354 N 
ATOM     69  N   UNL A   1      48.253  29.825  26.857  1.00  0.00    -0.248 NA
ATOM     70  C   UNL A   1      50.461  30.575  26.771  1.00  0.00     0.031 C 
ATOM     71  C   UNL A   1      44.821  32.276  28.191  1.00  0.00     0.029 A 
ATOM     72  C   UNL A   1      45.919  31.505  27.847  1.00  0.00     0.049 A 
ATOM     73  H   UNL A   1      45.981  29.508  27.168  1.00  0.00     0.167 HD
ATOM     74  C   UNL A   1      48.319  31.110  27.390  1.00  0.00     0.074 A 
ATOM     75  C   UNL A   1      49.711  31.504  27.353  1.00  0.00     0.031 C 
ATOM     76  C   UNL A   1      47.311  31.890  27.853  1.00  0.00     0.034 A 
BRANCH  63  77
ATOM     77  C   UNL A   1      41.733  29.221  27.737  1.00  0.00     0.023 A 
ATOM     78  C   UNL A   1      41.228  29.325  29.055  1.00  0.00     0.031 A 
ATOM     79  C   UNL A   1      40.796  29.139  26.693  1.00  0.00     0.131 A 
ATOM     80  C   UNL A   1      39.845  29.299  29.290  1.00  0.00     0.055 A 
ATOM     81  C   UNL A   1      39.418  29.201  26.926  1.00  0.00     0.041 A 
ATOM     82  F   UNL A   1      41.198  28.985  25.421  1.00  0.00    -0.206 F 
ATOM     83  C   UNL A   1      38.937  29.264  28.230  1.00  0.00     0.022 A 
BRANCH  80  84
ATOM     84  S   UNL A   1      39.167  29.183  30.972  1.00  0.00     0.124 S 
ATOM     85  O   UNL A   1      39.687  27.894  31.423  1.00  0.00    -0.237 OA
ATOM     86  O   UNL A   1      39.760  30.351  31.619  1.00  0.00    -0.237 OA
ATOM     87  O   UNL A   1      37.722  29.237  30.776  1.00  0.00    -0.744 OA
ENDBRANCH  80  84
ENDBRANCH  63  77
BRANCH  64  88
ATOM     88  C   UNL A   1      51.443  28.007  25.639  1.00  0.00     0.023 A 
ATOM     89  C   UNL A   1      51.938  28.044  24.324  1.00  0.00     0.031 A 
ATOM     90  C   UNL A   1      52.313  27.601  26.665  1.00  0.00     0.131 A 
ATOM     91  C   UNL A   1      53.237  27.594  24.059  1.00  0.00     0.055 A 
ATOM     92  C   UNL A   1      53.634  27.235  26.406  1.00  0.00     0.041 A 
ATOM     93  F   UNL A   1      51.877  27.529  27.932  1.00  0.00    -0.206 F 
ATOM     94  C   UNL A   1      54.094  27.209  25.094  1.00  0.00     0.022 A 
BRANCH  91  95
ATOM     95  S   UNL A   1      53.792  27.328  22.352  1.00  0.00     0.124 S 
ATOM     96  O   UNL A   1      52.897  26.267  21.903  1.00  0.00    -0.237 OA
ATOM     97  O   UNL A   1      53.563  28.642  21.757  1.00  0.00    -0.237 OA
ATOM     98  O   UNL A   1      55.194  26.953  22.501  1.00  0.00    -0.744 OA
ENDBRANCH  91  95
ENDBRANCH  64  88
BRANCH  76  99
ATOM     99  C   UNL A   1      47.625  33.267  28.395  1.00  0.00     0.023 A 
ATOM    100  C   UNL A   1      47.568  34.386  27.539  1.00  0.00     0.031 A 
ATOM    101  C   UNL A   1      48.166  33.444  29.680  1.00  0.00     0.131 A 
ATOM    102  C   UNL A   1      48.091  35.616  27.959  1.00  0.00     0.055 A 
ATOM    103  C   UNL A   1      48.639  34.684  30.112  1.00  0.00     0.041 A 
ATOM    104  F   UNL A   1      48.261  32.407  30.528  1.00  0.00    -0.206 F 
ATOM    105  C   UNL A   1      48.620  35.772  29.244  1.00  0.00     0.022 A 
BRANCH 102 106
ATOM    106  S   UNL A   1      48.206  37.024  26.821  1.00  0.00     0.124 S 
ATOM    107  O   UNL A   1      46.881  37.026  26.207  1.00  0.00    -0.237 OA
ATOM    108  O   UNL A   1      48.472  38.134  27.733  1.00  0.00    -0.237 OA
ATOM    109  O   UNL A   1      49.303  36.669  25.927  1.00  0.00    -0.744 OA
ENDBRANCH 102 106
ENDBRANCH  76  99
ENDBRANCH  50  51
ENDBRANCH  43  45
ENDBRANCH  42  43
ENDBRANCH  41  42
ENDBRANCH  40  41
ENDBRANCH  39  40
ENDBRANCH  38  39
ENDBRANCH   1  38
TORSDOF 26
ENDMDL
MODEL 2
REMARK VINA RESULT:     -11.0      0.896      7.218
REMARK SMILES C[C@H]1c2ccc(O)cc2OC(=O)[C@@H]1CC(=O)N[C@@H](CC1=c2ccccc2=NC1)C(=O)OCCOCCOCCOC(=O)c1ccc(-c2c3nc(c(-c4cc(S(=O)(=O)[O-])ccc4F)c4ccc([nH]4)c(-c4cc(S(=O)(=O)[O-])ccc4F)c4nc(c(-c5cc(S(=O)(=O)[O-])ccc5F)c5ccc2[nH]5)C=C4)C=C3)cc1
REMARK SMILES IDX 35 1 34 2 33 3 32 4 31 5 29 6 30 7 18 8 17 9 15 10 16 11
REMARK SMILES IDX 14 13 13 14 1 15 2 16 3 17 4 18 9 19 11 20 5 21 8 22 10 23
REMARK SMILES IDX 12 24 6 25 7 26 19 28 20 29 21 30 28 31 22 32 26 33 27 34
REMARK SMILES IDX 23 35 25 36 24 37 36 38 37 39 38 40 39 41 40 42 41 43 42 44
REMARK SMILES IDX 43 45 44 46 105 47 45 48 104 49 46 50 47 51 48 52 98 53
REMARK SMILES IDX 49 54 103 55 97 56 99 57 50 58 102 59 96 60 95 61 51 63
REMARK SMILES IDX 83 64 63 65 82 66 64 67 67 68 81 69 100 70 65 71 66 72 80 74
REMARK SMILES IDX 101 75 68 76 52 77 53 78 61 79 54 80 60 81 62 82 59 83 55 84
REMARK SMILES IDX 56 85 57 86 58 87 84 88 85 89 93 90 86 91 92 92 94 93 91 94
REMARK SMILES IDX 87 95 88 96 89 97 90 98 69 99 70 100 78 101 71 102 77 103
REMARK SMILES IDX 79 104 76 105 72 106 73 107 74 108 75 109
REMARK H PARENT 17 12 7 27 99 62 67 73
REMARK Flexibility Score: inf
ROOT
ATOM      1  C   UNL A   1      40.987  22.487  26.653  1.00  0.00     0.188 C 
ENDROOT
BRANCH   1   2
ATOM      2  O   UNL A   1      39.626  22.559  27.033  1.00  0.00    -0.376 OA
BRANCH   2   3
ATOM      3  C   UNL A   1      38.864  23.716  26.714  1.00  0.00     0.202 C 
BRANCH   3   4
ATOM      4  C   UNL A   1      37.802  23.705  25.607  1.00  0.00     0.261 C 
BRANCH   4   5
ATOM      5  O   UNL A   1      36.575  23.039  25.958  1.00  0.00    -0.462 OA
BRANCH   5   6
ATOM      6  C   UNL A   1      35.465  23.591  25.422  1.00  0.00     0.329 C 
ATOM      7  O   UNL A   1      35.284  24.805  25.322  1.00  0.00    -0.250 OA
BRANCH   6   8
ATOM      8  C   UNL A   1      34.383  22.608  24.960  1.00  0.00     0.196 C 
BRANCH   8   9
ATOM      9  N   UNL A   1      33.363  22.793  23.912  1.00  0.00    -0.342 N 
ATOM     10  C   UNL A   1      32.095  23.316  24.007  1.00  0.00     0.221 C 
ATOM     11  O   UNL A   1      31.277  23.028  23.132  1.00  0.00    -0.275 OA
ATOM     12  H   UNL A   1      33.628  22.496  23.011  1.00  0.00     0.164 HD
BRANCH  10  13
ATOM     13  C   UNL A   1      31.735  24.341  25.090  1.00  0.00     0.116 C 
BRANCH  13  14
ATOM     14  C   UNL A   1      30.404  25.106  24.920  1.00  0.00     0.116 C 
ATOM     15  C   UNL A   1      29.100  26.957  23.719  1.00  0.00     0.014 C 
ATOM     16  C   UNL A   1      30.480  26.325  23.965  1.00  0.00     0.034 C 
ATOM     17  C   UNL A   1      31.377  27.375  24.571  1.00  0.00    -0.001 A 
ATOM     18  C   UNL A   1      31.999  28.361  23.807  1.00  0.00     0.011 A 
ATOM     19  C   UNL A   1      31.538  27.407  25.959  1.00  0.00     0.138 A 
ATOM     20  C   UNL A   1      29.907  25.652  26.228  1.00  0.00     0.315 C 
ATOM     21  C   UNL A   1      32.802  29.313  24.438  1.00  0.00     0.047 A 
ATOM     22  C   UNL A   1      32.428  28.269  26.585  1.00  0.00     0.093 A 
ATOM     23  O   UNL A   1      30.713  26.629  26.793  1.00  0.00    -0.426 OA
ATOM     24  O   UNL A   1      28.899  25.240  26.787  1.00  0.00    -0.251 OA
ATOM     25  C   UNL A   1      33.054  29.227  25.807  1.00  0.00     0.119 A 
BRANCH  25  26
ATOM     26  O   UNL A   1      33.907  30.124  26.371  1.00  0.00    -0.508 OA
ATOM     27  H   UNL A   1      33.622  30.654  27.089  1.00  0.00     0.293 HD
ENDBRANCH  25  26
ENDBRANCH  13  14
ENDBRANCH  10  13
ENDBRANCH   8   9
BRANCH   8  28
ATOM     28  C   UNL A   1      35.132  21.278  24.744  1.00  0.00     0.070 C 
BRANCH  28  29
ATOM     29  C   UNL A   1      34.521  19.958  25.249  1.00  0.00    -0.037 C 
ATOM     30  C   UNL A   1      34.248  18.975  24.384  1.00  0.00     0.001 A 
ATOM     31  C   UNL A   1      33.218  20.281  25.964  1.00  0.00     0.174 C 
ATOM     32  C   UNL A   1      34.720  17.622  24.249  1.00  0.00     0.010 A 
ATOM     33  C   UNL A   1      32.798  19.171  24.161  1.00  0.00     0.065 A 
ATOM     34  N   UNL A   1      32.153  19.915  25.003  1.00  0.00    -0.280 NA
ATOM     35  C   UNL A   1      34.037  16.814  23.415  1.00  0.00     0.001 A 
ATOM     36  C   UNL A   1      32.273  18.460  22.981  1.00  0.00     0.028 A 
ATOM     37  C   UNL A   1      32.915  17.330  22.635  1.00  0.00     0.002 A 
ENDBRANCH  28  29
ENDBRANCH   8  28
ENDBRANCH   6   8
ENDBRANCH   5   6
ENDBRANCH   4   5
ENDBRANCH   3   4
ENDBRANCH   2   3
ENDBRANCH   1   2
BRANCH   1  38
ATOM     38  C   UNL A   1      41.825  21.282  27.102  1.00  0.00     0.188 C 
BRANCH  38  39
ATOM     39  O   UNL A   1      41.336  19.986  26.865  1.00  0.00    -0.376 OA
BRANCH  39  40
ATOM     40  C   UNL A   1      41.807  19.243  25.752  1.00  0.00     0.202 C 
BRANCH  40  41
ATOM     41  C   UNL A   1      43.153  18.492  25.666  1.00  0.00     0.261 C 
BRANCH  41  42
ATOM     42  O   UNL A   1      44.367  19.250  25.666  1.00  0.00    -0.460 OA
BRANCH  42  43
ATOM     43  C   UNL A   1      44.540  20.093  24.609  1.00  0.00     0.338 C 
ATOM     44  O   UNL A   1      44.432  19.815  23.433  1.00  0.00    -0.246 OA
BRANCH  43  45
ATOM     45  C   UNL A   1      44.636  21.474  25.143  1.00  0.00     0.060 A 
ATOM     46  C   UNL A   1      44.946  21.693  26.484  1.00  0.00     0.016 A 
ATOM     47  C   UNL A   1      44.384  22.560  24.290  1.00  0.00     0.016 A 
ATOM     48  C   UNL A   1      45.033  23.003  26.964  1.00  0.00     0.010 A 
ATOM     49  C   UNL A   1      44.436  23.871  24.780  1.00  0.00     0.010 A 
ATOM     50  C   UNL A   1      44.789  24.103  26.117  1.00  0.00    -0.014 A 
BRANCH  50  51
ATOM     51  C   UNL A   1      45.093  25.477  26.597  1.00  0.00     0.031 A 
ATOM     52  C   UNL A   1      46.430  26.123  26.411  1.00  0.00     0.074 A 
ATOM     53  C   UNL A   1      44.095  26.178  27.164  1.00  0.00     0.049 A 
ATOM     54  N   UNL A   1      46.844  27.305  26.794  1.00  0.00    -0.248 NA
ATOM     55  C   UNL A   1      47.431  25.335  25.690  1.00  0.00     0.031 C 
ATOM     56  C   UNL A   1      42.736  25.674  27.354  1.00  0.00     0.029 A 
ATOM     57  N   UNL A   1      44.052  27.465  27.632  1.00  0.00    -0.354 N 
ATOM     58  C   UNL A   1      48.186  27.381  26.431  1.00  0.00     0.074 A 
ATOM     59  C   UNL A   1      48.473  26.155  25.722  1.00  0.00     0.031 C 
ATOM     60  C   UNL A   1      41.973  26.665  27.835  1.00  0.00     0.029 A 
ATOM     61  C   UNL A   1      42.799  27.857  28.037  1.00  0.00     0.049 A 
ATOM     62  H   UNL A   1      44.841  28.051  27.674  1.00  0.00     0.167 HD
ATOM     63  C   UNL A   1      49.089  28.361  26.702  1.00  0.00     0.034 A 
ATOM     64  C   UNL A   1      42.355  29.044  28.500  1.00  0.00     0.034 A 
ATOM     65  C   UNL A   1      48.717  29.640  27.265  1.00  0.00     0.049 A 
ATOM     66  C   UNL A   1      43.314  30.203  28.594  1.00  0.00     0.074 A 
ATOM     67  C   UNL A   1      49.522  30.745  27.489  1.00  0.00     0.029 A 
ATOM     68  N   UNL A   1      47.429  30.012  27.628  1.00  0.00    -0.354 N 
ATOM     69  N   UNL A   1      44.594  30.237  28.309  1.00  0.00    -0.248 NA
ATOM     70  C   UNL A   1      42.771  31.488  29.053  1.00  0.00     0.031 C 
ATOM     71  C   UNL A   1      48.734  31.768  28.016  1.00  0.00     0.029 A 
ATOM     72  C   UNL A   1      47.419  31.332  28.048  1.00  0.00     0.049 A 
ATOM     73  H   UNL A   1      46.640  29.425  27.592  1.00  0.00     0.167 HD
ATOM     74  C   UNL A   1      45.003  31.549  28.534  1.00  0.00     0.074 A 
ATOM     75  C   UNL A   1      43.828  32.285  28.948  1.00  0.00     0.031 C 
ATOM     76  C   UNL A   1      46.244  32.084  28.420  1.00  0.00     0.034 A 
BRANCH  63  77
ATOM     77  C   UNL A   1      50.568  28.139  26.419  1.00  0.00     0.023 A 
ATOM     78  C   UNL A   1      51.101  28.509  25.162  1.00  0.00     0.031 A 
ATOM     79  C   UNL A   1      51.413  27.442  27.297  1.00  0.00     0.131 A 
ATOM     80  C   UNL A   1      52.409  28.143  24.809  1.00  0.00     0.055 A 
ATOM     81  C   UNL A   1      52.744  27.154  26.975  1.00  0.00     0.041 A 
ATOM     82  F   UNL A   1      50.963  27.011  28.487  1.00  0.00    -0.206 F 
ATOM     83  C   UNL A   1      53.241  27.489  25.720  1.00  0.00     0.022 A 
BRANCH  80  84
ATOM     84  S   UNL A   1      53.043  28.381  23.123  1.00  0.00     0.124 S 
ATOM     85  O   UNL A   1      52.203  27.469  22.349  1.00  0.00    -0.237 OA
ATOM     86  O   UNL A   1      52.786  29.801  22.900  1.00  0.00    -0.237 OA
ATOM     87  O   UNL A   1      54.450  28.002  23.217  1.00  0.00    -0.744 OA
ENDBRANCH  80  84
ENDBRANCH  63  77
BRANCH  64  88
ATOM     88  C   UNL A   1      40.904  29.187  28.801  1.00  0.00     0.023 A 
ATOM     89  C   UNL A   1      40.432  29.094  30.121  1.00  0.00     0.031 A 
ATOM     90  C   UNL A   1      39.960  29.261  27.763  1.00  0.00     0.131 A 
ATOM     91  C   UNL A   1      39.057  28.984  30.361  1.00  0.00     0.055 A 
ATOM     92  C   UNL A   1      38.589  29.238  28.013  1.00  0.00     0.041 A 
ATOM     93  F   UNL A   1      40.365  29.329  26.484  1.00  0.00    -0.206 F 
ATOM     94  C   UNL A   1      38.131  29.076  29.317  1.00  0.00     0.022 A 
BRANCH  91  95
ATOM     95  S   UNL A   1      38.439  28.544  32.009  1.00  0.00     0.124 S 
ATOM     96  O   UNL A   1      37.049  28.980  31.940  1.00  0.00    -0.237 OA
ATOM     97  O   UNL A   1      38.648  27.098  32.028  1.00  0.00    -0.237 OA
ATOM     98  O   UNL A   1      39.297  29.303  32.912  1.00  0.00    -0.744 OA
ENDBRANCH  91  95
ENDBRANCH  64  88
BRANCH  76  99
ATOM     99  C   UNL A   1      46.452  33.553  28.717  1.00  0.00     0.023 A 
ATOM    100  C   UNL A   1      46.505  34.480  27.655  1.00  0.00     0.031 A 
ATOM    101  C   UNL A   1      46.791  34.001  30.004  1.00  0.00     0.131 A 
ATOM    102  C   UNL A   1      46.940  35.790  27.892  1.00  0.00     0.055 A 
ATOM    103  C   UNL A   1      47.174  35.322  30.243  1.00  0.00     0.041 A 
ATOM    104  F   UNL A   1      46.775  33.155  31.047  1.00  0.00    -0.206 F 
ATOM    105  C   UNL A   1      47.268  36.218  29.182  1.00  0.00     0.022 A 
BRANCH 102 106
ATOM    106  S   UNL A   1      47.201  36.954  26.524  1.00  0.00     0.124 S 
ATOM    107  O   UNL A   1      48.415  36.426  25.906  1.00  0.00    -0.237 OA
ATOM    108  O   UNL A   1      45.980  36.787  25.741  1.00  0.00    -0.237 OA
ATOM    109  O   UNL A   1      47.353  38.246  27.183  1.00  0.00    -0.744 OA
ENDBRANCH 102 106
ENDBRANCH  76  99
ENDBRANCH  50  51
ENDBRANCH  43  45
ENDBRANCH  42  43
ENDBRANCH  41  42
ENDBRANCH  40  41
ENDBRANCH  39  40
ENDBRANCH  38  39
ENDBRANCH   1  38
TORSDOF 26
ENDMDL
MODEL 3
REMARK VINA RESULT:      -9.6      4.103      6.267
REMARK SMILES C[C@H]1c2ccc(O)cc2OC(=O)[C@@H]1CC(=O)N[C@@H](CC1=c2ccccc2=NC1)C(=O)OCCOCCOCCOC(=O)c1ccc(-c2c3nc(c(-c4cc(S(=O)(=O)[O-])ccc4F)c4ccc([nH]4)c(-c4cc(S(=O)(=O)[O-])ccc4F)c4nc(c(-c5cc(S(=O)(=O)[O-])ccc5F)c5ccc2[nH]5)C=C4)C=C3)cc1
REMARK SMILES IDX 35 1 34 2 33 3 32 4 31 5 29 6 30 7 18 8 17 9 15 10 16 11
REMARK SMILES IDX 14 13 13 14 1 15 2 16 3 17 4 18 9 19 11 20 5 21 8 22 10 23
REMARK SMILES IDX 12 24 6 25 7 26 19 28 20 29 21 30 28 31 22 32 26 33 27 34
REMARK SMILES IDX 23 35 25 36 24 37 36 38 37 39 38 40 39 41 40 42 41 43 42 44
REMARK SMILES IDX 43 45 44 46 105 47 45 48 104 49 46 50 47 51 48 52 98 53
REMARK SMILES IDX 49 54 103 55 97 56 99 57 50 58 102 59 96 60 95 61 51 63
REMARK SMILES IDX 83 64 63 65 82 66 64 67 67 68 81 69 100 70 65 71 66 72 80 74
REMARK SMILES IDX 101 75 68 76 52 77 53 78 61 79 54 80 60 81 62 82 59 83 55 84
REMARK SMILES IDX 56 85 57 86 58 87 84 88 85 89 93 90 86 91 92 92 94 93 91 94
REMARK SMILES IDX 87 95 88 96 89 97 90 98 69 99 70 100 78 101 71 102 77 103
REMARK SMILES IDX 79 104 76 105 72 106 73 107 74 108 75 109
REMARK H PARENT 17 12 7 27 99 62 67 73
REMARK Flexibility Score: inf
ROOT
ATOM      1  C   UNL A   1      40.272  22.124  26.976  1.00  0.00     0.188 C 
ENDROOT
BRANCH   1   2
ATOM      2  O   UNL A   1      38.928  22.015  26.548  1.00  0.00    -0.376 OA
BRANCH   2   3
ATOM      3  C   UNL A   1      38.465  22.807  25.463  1.00  0.00     0.202 C 
BRANCH   3   4
ATOM      4  C   UNL A   1      36.984  22.845  25.063  1.00  0.00     0.261 C 
BRANCH   4   5
ATOM      5  O   UNL A   1      36.192  21.764  25.589  1.00  0.00    -0.462 OA
BRANCH   5   6
ATOM      6  C   UNL A   1      34.948  22.120  25.978  1.00  0.00     0.329 C 
ATOM      7  O   UNL A   1      34.667  22.493  27.117  1.00  0.00    -0.250 OA
BRANCH   6   8
ATOM      8  C   UNL A   1      33.853  21.998  24.911  1.00  0.00     0.196 C 
BRANCH   8   9
ATOM      9  N   UNL A   1      33.510  22.949  23.836  1.00  0.00    -0.342 N 
ATOM     10  C   UNL A   1      32.471  23.844  23.760  1.00  0.00     0.221 C 
ATOM     11  O   UNL A   1      32.133  24.254  22.648  1.00  0.00    -0.275 OA
ATOM     12  H   UNL A   1      34.114  22.939  23.058  1.00  0.00     0.164 HD
BRANCH  10  13
ATOM     13  C   UNL A   1      31.831  24.434  25.023  1.00  0.00     0.116 C 
BRANCH  13  14
ATOM     14  C   UNL A   1      30.511  25.217  24.846  1.00  0.00     0.116 C 
ATOM     15  C   UNL A   1      29.251  27.109  23.664  1.00  0.00     0.014 C 
ATOM     16  C   UNL A   1      30.619  26.458  23.922  1.00  0.00     0.034 C 
ATOM     17  C   UNL A   1      31.513  27.483  24.570  1.00  0.00    -0.001 A 
ATOM     18  C   UNL A   1      32.160  28.481  23.843  1.00  0.00     0.011 A 
ATOM     19  C   UNL A   1      31.647  27.480  25.961  1.00  0.00     0.138 A 
ATOM     20  C   UNL A   1      29.994  25.737  26.156  1.00  0.00     0.315 C 
ATOM     21  C   UNL A   1      32.960  29.409  24.512  1.00  0.00     0.047 A 
ATOM     22  C   UNL A   1      32.532  28.318  26.626  1.00  0.00     0.093 A 
ATOM     23  O   UNL A   1      30.798  26.692  26.760  1.00  0.00    -0.426 OA
ATOM     24  O   UNL A   1      28.970  25.322  26.684  1.00  0.00    -0.251 OA
ATOM     25  C   UNL A   1      33.183  29.288  25.884  1.00  0.00     0.119 A 
BRANCH  25  26
ATOM     26  O   UNL A   1      34.033  30.162  26.486  1.00  0.00    -0.508 OA
ATOM     27  H   UNL A   1      33.775  30.602  27.272  1.00  0.00     0.293 HD
ENDBRANCH  25  26
ENDBRANCH  13  14
ENDBRANCH  10  13
ENDBRANCH   8   9
BRANCH   8  28
ATOM     28  C   UNL A   1      34.030  20.581  24.330  1.00  0.00     0.070 C 
BRANCH  28  29
ATOM     29  C   UNL A   1      32.872  19.569  24.404  1.00  0.00    -0.037 C 
ATOM     30  C   UNL A   1      33.105  18.317  24.815  1.00  0.00     0.001 A 
ATOM     31  C   UNL A   1      32.247  19.462  23.022  1.00  0.00     0.174 C 
ATOM     32  C   UNL A   1      32.622  17.540  25.925  1.00  0.00     0.010 A 
ATOM     33  C   UNL A   1      33.209  17.597  23.527  1.00  0.00     0.065 A 
ATOM     34  N   UNL A   1      32.763  18.190  22.465  1.00  0.00    -0.280 NA
ATOM     35  C   UNL A   1      32.862  16.213  25.896  1.00  0.00     0.001 A 
ATOM     36  C   UNL A   1      33.815  16.257  23.637  1.00  0.00     0.028 A 
ATOM     37  C   UNL A   1      33.645  15.625  24.813  1.00  0.00     0.002 A 
ENDBRANCH  28  29
ENDBRANCH   8  28
ENDBRANCH   6   8
ENDBRANCH   5   6
ENDBRANCH   4   5
ENDBRANCH   3   4
ENDBRANCH   2   3
ENDBRANCH   1   2
BRANCH   1  38
ATOM     38  C   UNL A   1      41.372  21.425  26.164  1.00  0.00     0.188 C 
BRANCH  38  39
ATOM     39  O   UNL A   1      42.691  21.444  26.648  1.00  0.00    -0.376 OA
BRANCH  39  40
ATOM     40  C   UNL A   1      43.458  22.634  26.573  1.00  0.00     0.202 C 
BRANCH  40  41
ATOM     41  C   UNL A   1      43.369  23.703  25.460  1.00  0.00     0.261 C 
BRANCH  41  42
ATOM     42  O   UNL A   1      43.548  25.079  25.811  1.00  0.00    -0.460 OA
BRANCH  42  43
ATOM     43  C   UNL A   1      42.500  25.904  25.531  1.00  0.00     0.338 C 
ATOM     44  O   UNL A   1      41.449  25.592  25.011  1.00  0.00    -0.246 OA
BRANCH  43  45
ATOM     45  C   UNL A   1      42.757  27.204  26.199  1.00  0.00     0.060 A 
ATOM     46  C   UNL A   1      42.036  28.340  25.834  1.00  0.00     0.016 A 
ATOM     47  C   UNL A   1      43.753  27.285  27.185  1.00  0.00     0.016 A 
ATOM     48  C   UNL A   1      42.295  29.553  26.478  1.00  0.00     0.010 A 
ATOM     49  C   UNL A   1      44.035  28.509  27.804  1.00  0.00     0.010 A 
ATOM     50  C   UNL A   1      43.287  29.648  27.474  1.00  0.00    -0.014 A 
BRANCH  50  51
ATOM     51  C   UNL A   1      43.395  30.890  28.284  1.00  0.00     0.031 A 
ATOM     52  C   UNL A   1      42.598  31.115  29.531  1.00  0.00     0.074 A 
ATOM     53  C   UNL A   1      44.295  31.813  27.901  1.00  0.00     0.049 A 
ATOM     54  N   UNL A   1      42.573  32.156  30.326  1.00  0.00    -0.248 NA
ATOM     55  C   UNL A   1      41.719  30.019  29.940  1.00  0.00     0.031 C 
ATOM     56  C   UNL A   1      45.164  31.684  26.732  1.00  0.00     0.029 A 
ATOM     57  N   UNL A   1      44.663  33.003  28.471  1.00  0.00    -0.354 N 
ATOM     58  C   UNL A   1      41.614  31.877  31.297  1.00  0.00     0.074 A 
ATOM     59  C   UNL A   1      41.156  30.534  31.025  1.00  0.00     0.031 C 
ATOM     60  C   UNL A   1      46.014  32.720  26.712  1.00  0.00     0.029 A 
ATOM     61  C   UNL A   1      45.716  33.612  27.833  1.00  0.00     0.049 A 
ATOM     62  H   UNL A   1      44.216  33.384  29.261  1.00  0.00     0.167 HD
ATOM     63  C   UNL A   1      41.142  32.683  32.285  1.00  0.00     0.034 A 
ATOM     64  C   UNL A   1      46.382  34.749  28.123  1.00  0.00     0.034 A 
ATOM     65  C   UNL A   1      41.747  33.953  32.621  1.00  0.00     0.049 A 
ATOM     66  C   UNL A   1      46.000  35.533  29.352  1.00  0.00     0.074 A 
ATOM     67  C   UNL A   1      41.424  34.808  33.663  1.00  0.00     0.029 A 
ATOM     68  N   UNL A   1      42.837  34.519  31.973  1.00  0.00    -0.354 N 
ATOM     69  N   UNL A   1      45.047  35.290  30.220  1.00  0.00    -0.248 NA
ATOM     70  C   UNL A   1      46.790  36.734  29.654  1.00  0.00     0.031 C 
ATOM     71  C   UNL A   1      42.290  35.900  33.625  1.00  0.00     0.029 A 
ATOM     72  C   UNL A   1      43.209  35.692  32.609  1.00  0.00     0.049 A 
ATOM     73  H   UNL A   1      43.281  34.142  31.180  1.00  0.00     0.167 HD
ATOM     74  C   UNL A   1      45.137  36.294  31.181  1.00  0.00     0.074 A 
ATOM     75  C   UNL A   1      46.258  37.129  30.805  1.00  0.00     0.031 C 
ATOM     76  C   UNL A   1      44.350  36.506  32.266  1.00  0.00     0.034 A 
BRANCH  63  77
ATOM     77  C   UNL A   1      39.921  32.269  33.093  1.00  0.00     0.023 A 
ATOM     78  C   UNL A   1      38.634  32.685  32.677  1.00  0.00     0.031 A 
ATOM     79  C   UNL A   1      40.016  31.612  34.331  1.00  0.00     0.131 A 
ATOM     80  C   UNL A   1      37.519  32.480  33.504  1.00  0.00     0.055 A 
ATOM     81  C   UNL A   1      38.889  31.333  35.112  1.00  0.00     0.041 A 
ATOM     82  F   UNL A   1      41.210  31.234  34.817  1.00  0.00    -0.206 F 
ATOM     83  C   UNL A   1      37.637  31.783  34.708  1.00  0.00     0.022 A 
BRANCH  80  84
ATOM     84  S   UNL A   1      35.901  33.214  33.121  1.00  0.00     0.124 S 
ATOM     85  O   UNL A   1      36.278  34.511  32.564  1.00  0.00    -0.237 OA
ATOM     86  O   UNL A   1      35.357  32.260  32.157  1.00  0.00    -0.237 OA
ATOM     87  O   UNL A   1      35.221  33.264  34.411  1.00  0.00    -0.744 OA
ENDBRANCH  80  84
ENDBRANCH  63  77
BRANCH  64  88
ATOM     88  C   UNL A   1      47.542  35.126  27.269  1.00  0.00     0.023 A 
ATOM     89  C   UNL A   1      48.837  34.671  27.574  1.00  0.00     0.031 A 
ATOM     90  C   UNL A   1      47.397  36.069  26.238  1.00  0.00     0.131 A 
ATOM     91  C   UNL A   1      49.941  35.226  26.917  1.00  0.00     0.055 A 
ATOM     92  C   UNL A   1      48.493  36.556  25.527  1.00  0.00     0.041 A 
ATOM     93  F   UNL A   1      46.182  36.548  25.927  1.00  0.00    -0.206 F 
ATOM     94  C   UNL A   1      49.776  36.152  25.882  1.00  0.00     0.022 A 
BRANCH  91  95
ATOM     95  S   UNL A   1      51.626  34.899  27.505  1.00  0.00     0.124 S 
ATOM     96  O   UNL A   1      52.010  33.745  26.700  1.00  0.00    -0.237 OA
ATOM     97  O   UNL A   1      52.303  36.152  27.178  1.00  0.00    -0.237 OA
ATOM     98  O   UNL A   1      51.450  34.646  28.931  1.00  0.00    -0.744 OA
ENDBRANCH  91  95
ENDBRANCH  64  88
BRANCH  76  99
ATOM     99  C   UNL A   1      44.645  37.673  33.181  1.00  0.00     0.023 A 
ATOM    100  C   UNL A   1      45.364  37.461  34.375  1.00  0.00     0.031 A 
ATOM    101  C   UNL A   1      44.053  38.932  32.980  1.00  0.00     0.131 A 
ATOM    102  C   UNL A   1      45.428  38.472  35.343  1.00  0.00     0.055 A 
ATOM    103  C   UNL A   1      44.163  39.953  33.925  1.00  0.00     0.041 A 
ATOM    104  F   UNL A   1      43.341  39.180  31.869  1.00  0.00    -0.206 F 
ATOM    105  C   UNL A   1      44.837  39.720  35.121  1.00  0.00     0.022 A 
BRANCH 102 106
ATOM    106  S   UNL A   1      46.181  38.172  36.966  1.00  0.00     0.124 S 
ATOM    107  O   UNL A   1      47.264  39.153  36.984  1.00  0.00    -0.237 OA
ATOM    108  O   UNL A   1      45.073  38.451  37.876  1.00  0.00    -0.237 OA
ATOM    109  O   UNL A   1      46.609  36.778  36.906  1.00  0.00    -0.744 OA
ENDBRANCH 102 106
ENDBRANCH  76  99
ENDBRANCH  50  51
ENDBRANCH  43  45
ENDBRANCH  42  43
ENDBRANCH  41  42
ENDBRANCH  40  41
ENDBRANCH  39  40
ENDBRANCH  38  39
ENDBRANCH   1  38
TORSDOF 26
ENDMDL
