MODEL 1
REMARK VINA RESULT:     -10.7      0.000      0.000
REMARK SMILES O=C(OCCOCCOCCOC(=O)[C@H]1[C@H]2CC[C@H](C2)[C@@H]1C(=O)Nc1sc2c(c1C(=O)NC1CCCCC1)CCCC2)c1ccc(-c2c3nc(c(-c4cc(S(=O)(=O)[O-])ccc4F)c4ccc([nH]4)c(-c4cc(S(=O)(=O)[O-])ccc4F)c4nc(c(-c5cc(S(=O)(=O)[O-])ccc5F)c5ccc2[nH]5)C=C4)C=C3)cc1
REMARK SMILES IDX 8 1 7 2 6 3 5 4 4 5 3 6 2 7 1 8 43 9 44 10 105 11 45 12
REMARK SMILES IDX 104 13 46 14 47 15 48 16 98 17 49 18 103 19 97 20 99 21
REMARK SMILES IDX 50 22 102 23 96 24 95 25 51 27 83 28 63 29 82 30 64 31 67 32
REMARK SMILES IDX 81 33 100 34 65 35 66 36 80 38 101 39 68 40 52 41 53 42
REMARK SMILES IDX 61 43 54 44 60 45 62 46 59 47 55 48 56 49 57 50 58 51 84 52
REMARK SMILES IDX 85 53 93 54 86 55 92 56 94 57 91 58 87 59 88 60 89 61 90 62
REMARK SMILES IDX 69 63 70 64 78 65 71 66 77 67 79 68 76 69 72 70 73 71 74 72
REMARK SMILES IDX 75 73 9 74 10 75 11 76 12 77 13 78 14 79 15 80 16 81 21 82
REMARK SMILES IDX 17 83 20 84 19 85 18 86 22 87 23 88 24 89 25 91 26 92 29 93
REMARK SMILES IDX 27 94 28 95 42 96 39 97 41 98 40 99 30 100 31 101 32 102
REMARK SMILES IDX 33 104 34 105 38 106 35 107 37 108 36 109
REMARK H PARENT 99 26 67 37 24 90 32 103
REMARK Flexibility Score: inf
ROOT
ATOM      1  C   UNL A   1      33.440  33.152  27.622  1.00  0.00     0.188 C 
ENDROOT
BRANCH   1   2
ATOM      2  C   UNL A   1      32.957  34.240  28.585  1.00  0.00     0.188 C 
BRANCH   2   3
ATOM      3  O   UNL A   1      34.005  34.889  29.305  1.00  0.00    -0.376 OA
BRANCH   3   4
ATOM      4  C   UNL A   1      34.122  34.495  30.677  1.00  0.00     0.202 C 
BRANCH   4   5
ATOM      5  C   UNL A   1      35.117  33.357  30.981  1.00  0.00     0.261 C 
BRANCH   5   6
ATOM      6  O   UNL A   1      36.403  33.812  31.436  1.00  0.00    -0.460 OA
BRANCH   6   7
ATOM      7  C   UNL A   1      37.607  33.186  31.327  1.00  0.00     0.338 C 
ATOM      8  O   UNL A   1      37.691  32.027  31.731  1.00  0.00    -0.246 OA
BRANCH   7   9
ATOM      9  C   UNL A   1      38.828  33.842  30.754  1.00  0.00     0.060 A 
ATOM     10  C   UNL A   1      38.913  34.373  29.470  1.00  0.00     0.016 A 
ATOM     11  C   UNL A   1      39.953  33.983  31.578  1.00  0.00     0.016 A 
ATOM     12  C   UNL A   1      40.097  34.874  28.947  1.00  0.00     0.010 A 
ATOM     13  C   UNL A   1      41.125  34.590  31.092  1.00  0.00     0.010 A 
ATOM     14  C   UNL A   1      41.228  34.975  29.739  1.00  0.00    -0.014 A 
BRANCH  14  15
ATOM     15  C   UNL A   1      42.546  35.211  29.092  1.00  0.00     0.031 A 
ATOM     16  C   UNL A   1      43.549  34.094  29.170  1.00  0.00     0.074 A 
ATOM     17  C   UNL A   1      42.824  36.241  28.263  1.00  0.00     0.049 A 
ATOM     18  N   UNL A   1      44.807  34.077  28.822  1.00  0.00    -0.248 NA
ATOM     19  C   UNL A   1      43.041  32.799  29.656  1.00  0.00     0.031 C 
ATOM     20  C   UNL A   1      41.877  37.238  27.764  1.00  0.00     0.029 A 
ATOM     21  N   UNL A   1      44.022  36.624  27.689  1.00  0.00    -0.354 N 
ATOM     22  C   UNL A   1      45.219  32.764  29.001  1.00  0.00     0.074 A 
ATOM     23  C   UNL A   1      44.126  32.048  29.617  1.00  0.00     0.031 C 
ATOM     24  C   UNL A   1      42.546  38.131  27.014  1.00  0.00     0.029 A 
ATOM     25  C   UNL A   1      43.969  37.898  27.157  1.00  0.00     0.049 A 
ATOM     26  H   UNL A   1      44.824  36.053  27.663  1.00  0.00     0.167 HD
ATOM     27  C   UNL A   1      46.377  32.187  28.606  1.00  0.00     0.034 A 
ATOM     28  C   UNL A   1      44.969  38.791  26.994  1.00  0.00     0.034 A 
ATOM     29  C   UNL A   1      47.450  32.910  27.983  1.00  0.00     0.049 A 
ATOM     30  C   UNL A   1      46.368  38.268  27.023  1.00  0.00     0.074 A 
ATOM     31  C   UNL A   1      48.659  32.435  27.510  1.00  0.00     0.029 A 
ATOM     32  N   UNL A   1      47.447  34.281  27.766  1.00  0.00    -0.354 N 
ATOM     33  N   UNL A   1      46.795  37.061  27.282  1.00  0.00    -0.248 NA
ATOM     34  C   UNL A   1      47.407  39.223  26.619  1.00  0.00     0.031 C 
ATOM     35  C   UNL A   1      49.423  33.530  27.090  1.00  0.00     0.029 A 
ATOM     36  C   UNL A   1      48.658  34.677  27.223  1.00  0.00     0.049 A 
ATOM     37  H   UNL A   1      46.694  34.883  27.967  1.00  0.00     0.167 HD
ATOM     38  C   UNL A   1      48.140  37.077  26.950  1.00  0.00     0.074 A 
ATOM     39  C   UNL A   1      48.464  38.435  26.560  1.00  0.00     0.031 C 
ATOM     40  C   UNL A   1      48.996  36.031  26.880  1.00  0.00     0.034 A 
BRANCH  27  41
ATOM     41  C   UNL A   1      46.526  30.721  28.900  1.00  0.00     0.023 A 
ATOM     42  C   UNL A   1      47.203  30.261  30.045  1.00  0.00     0.031 A 
ATOM     43  C   UNL A   1      46.086  29.776  27.961  1.00  0.00     0.131 A 
ATOM     44  C   UNL A   1      47.514  28.900  30.167  1.00  0.00     0.055 A 
ATOM     45  C   UNL A   1      46.317  28.412  28.136  1.00  0.00     0.041 A 
ATOM     46  F   UNL A   1      45.465  30.167  26.838  1.00  0.00    -0.206 F 
ATOM     47  C   UNL A   1      47.053  27.969  29.232  1.00  0.00     0.022 A 
BRANCH  44  48
ATOM     48  S   UNL A   1      48.688  28.390  31.454  1.00  0.00     0.124 S 
ATOM     49  O   UNL A   1      47.787  27.970  32.526  1.00  0.00    -0.237 OA
ATOM     50  O   UNL A   1      49.439  27.327  30.798  1.00  0.00    -0.237 OA
ATOM     51  O   UNL A   1      49.444  29.610  31.729  1.00  0.00    -0.744 OA
ENDBRANCH  44  48
ENDBRANCH  27  41
BRANCH  28  52
ATOM     52  C   UNL A   1      44.830  40.277  26.918  1.00  0.00     0.023 A 
ATOM     53  C   UNL A   1      44.797  40.985  25.709  1.00  0.00     0.031 A 
ATOM     54  C   UNL A   1      45.018  41.018  28.110  1.00  0.00     0.131 A 
ATOM     55  C   UNL A   1      44.949  42.387  25.724  1.00  0.00     0.055 A 
ATOM     56  C   UNL A   1      45.156  42.407  28.118  1.00  0.00     0.041 A 
ATOM     57  F   UNL A   1      45.109  40.386  29.289  1.00  0.00    -0.206 F 
ATOM     58  C   UNL A   1      45.124  43.100  26.917  1.00  0.00     0.022 A 
BRANCH  55  59
ATOM     59  S   UNL A   1      44.870  43.313  24.164  1.00  0.00     0.124 S 
ATOM     60  O   UNL A   1      45.133  42.269  23.182  1.00  0.00    -0.237 OA
ATOM     61  O   UNL A   1      43.513  43.849  24.189  1.00  0.00    -0.237 OA
ATOM     62  O   UNL A   1      45.924  44.313  24.323  1.00  0.00    -0.744 OA
ENDBRANCH  55  59
ENDBRANCH  28  52
BRANCH  40  63
ATOM     63  C   UNL A   1      50.312  36.328  26.223  1.00  0.00     0.023 A 
ATOM     64  C   UNL A   1      51.409  36.806  26.953  1.00  0.00     0.031 A 
ATOM     65  C   UNL A   1      50.399  36.292  24.821  1.00  0.00     0.131 A 
ATOM     66  C   UNL A   1      52.502  37.352  26.267  1.00  0.00     0.055 A 
ATOM     67  C   UNL A   1      51.535  36.737  24.149  1.00  0.00     0.041 A 
ATOM     68  F   UNL A   1      49.361  35.871  24.080  1.00  0.00    -0.206 F 
ATOM     69  C   UNL A   1      52.583  37.297  24.872  1.00  0.00     0.022 A 
BRANCH  66  70
ATOM     70  S   UNL A   1      53.711  38.316  27.212  1.00  0.00     0.124 S 
ATOM     71  O   UNL A   1      53.019  39.592  27.361  1.00  0.00    -0.237 OA
ATOM     72  O   UNL A   1      53.858  37.527  28.431  1.00  0.00    -0.237 OA
ATOM     73  O   UNL A   1      54.884  38.340  26.342  1.00  0.00    -0.744 OA
ENDBRANCH  66  70
ENDBRANCH  40  63
ENDBRANCH  14  15
ENDBRANCH   7   9
ENDBRANCH   6   7
ENDBRANCH   5   6
ENDBRANCH   4   5
ENDBRANCH   3   4
ENDBRANCH   2   3
ENDBRANCH   1   2
BRANCH   1  74
ATOM     74  O   UNL A   1      32.533  32.111  27.283  1.00  0.00    -0.376 OA
BRANCH  74  75
ATOM     75  C   UNL A   1      33.048  30.787  27.283  1.00  0.00     0.202 C 
BRANCH  75  76
ATOM     76  C   UNL A   1      32.106  29.593  27.001  1.00  0.00     0.261 C 
BRANCH  76  77
ATOM     77  O   UNL A   1      32.233  28.930  25.719  1.00  0.00    -0.463 OA
BRANCH  77  78
ATOM     78  C   UNL A   1      32.436  27.595  25.822  1.00  0.00     0.310 C 
ATOM     79  O   UNL A   1      33.562  27.111  25.938  1.00  0.00    -0.252 OA
BRANCH  78  80
ATOM     80  C   UNL A   1      31.194  26.702  25.678  1.00  0.00     0.115 C 
ATOM     81  C   UNL A   1      30.421  27.361  24.481  1.00  0.00     0.004 C 
ATOM     82  C   UNL A   1      31.214  25.216  25.218  1.00  0.00     0.096 C 
ATOM     83  C   UNL A   1      31.185  27.235  23.139  1.00  0.00     0.005 C 
ATOM     84  C   UNL A   1      29.323  26.365  24.261  1.00  0.00     0.009 C 
ATOM     85  C   UNL A   1      30.287  25.206  23.987  1.00  0.00     0.003 C 
ATOM     86  C   UNL A   1      31.064  25.750  22.790  1.00  0.00     0.005 C 
BRANCH  82  87
ATOM     87  C   UNL A   1      30.865  24.070  26.188  1.00  0.00     0.229 C 
ATOM     88  O   UNL A   1      29.800  24.199  26.807  1.00  0.00    -0.274 OA
ATOM     89  N   UNL A   1      31.566  22.930  26.440  1.00  0.00    -0.317 N 
ATOM     90  H   UNL A   1      31.042  22.225  26.885  1.00  0.00     0.170 HD
BRANCH  89  91
ATOM     91  C   UNL A   1      32.874  22.585  26.183  1.00  0.00     0.108 A 
ATOM     92  S   UNL A   1      34.039  22.677  27.432  1.00  0.00    -0.122 S 
ATOM     93  C   UNL A   1      33.377  21.851  25.117  1.00  0.00     0.078 A 
ATOM     94  C   UNL A   1      35.268  22.446  26.278  1.00  0.00     0.011 A 
ATOM     95  C   UNL A   1      34.806  21.718  25.200  1.00  0.00    -0.019 A 
ATOM     96  C   UNL A   1      36.651  22.983  26.407  1.00  0.00     0.047 C 
ATOM     97  C   UNL A   1      35.747  21.088  24.218  1.00  0.00     0.037 C 
ATOM     98  C   UNL A   1      37.308  22.958  25.014  1.00  0.00     0.006 C 
ATOM     99  C   UNL A   1      37.203  21.553  24.402  1.00  0.00     0.005 C 
BRANCH  93 100
ATOM    100  C   UNL A   1      32.472  21.357  24.122  1.00  0.00     0.254 C 
ATOM    101  O   UNL A   1      31.688  22.148  23.590  1.00  0.00    -0.269 OA
ATOM    102  N   UNL A   1      32.537  20.080  23.656  1.00  0.00    -0.349 N 
ATOM    103  H   UNL A   1      32.085  20.005  22.785  1.00  0.00     0.164 HD
BRANCH 102 104
ATOM    104  C   UNL A   1      33.081  18.792  24.067  1.00  0.00     0.082 C 
ATOM    105  C   UNL A   1      32.222  18.130  25.163  1.00  0.00     0.025 C 
ATOM    106  C   UNL A   1      33.287  17.731  22.993  1.00  0.00     0.025 C 
ATOM    107  C   UNL A   1      32.994  16.995  25.826  1.00  0.00     0.002 C 
ATOM    108  C   UNL A   1      34.174  16.635  23.593  1.00  0.00     0.002 C 
ATOM    109  C   UNL A   1      33.528  15.984  24.818  1.00  0.00     0.000 C 
ENDBRANCH 102 104
ENDBRANCH  93 100
ENDBRANCH  89  91
ENDBRANCH  82  87
ENDBRANCH  78  80
ENDBRANCH  77  78
ENDBRANCH  76  77
ENDBRANCH  75  76
ENDBRANCH  74  75
ENDBRANCH   1  74
TORSDOF 24
ENDMDL
MODEL 2
REMARK VINA RESULT:     -10.0      7.834      9.461
REMARK SMILES O=C(OCCOCCOCCOC(=O)[C@H]1[C@H]2CC[C@H](C2)[C@@H]1C(=O)Nc1sc2c(c1C(=O)NC1CCCCC1)CCCC2)c1ccc(-c2c3nc(c(-c4cc(S(=O)(=O)[O-])ccc4F)c4ccc([nH]4)c(-c4cc(S(=O)(=O)[O-])ccc4F)c4nc(c(-c5cc(S(=O)(=O)[O-])ccc5F)c5ccc2[nH]5)C=C4)C=C3)cc1
REMARK SMILES IDX 8 1 7 2 6 3 5 4 4 5 3 6 2 7 1 8 43 9 44 10 105 11 45 12
REMARK SMILES IDX 104 13 46 14 47 15 48 16 98 17 49 18 103 19 97 20 99 21
REMARK SMILES IDX 50 22 102 23 96 24 95 25 51 27 83 28 63 29 82 30 64 31 67 32
REMARK SMILES IDX 81 33 100 34 65 35 66 36 80 38 101 39 68 40 52 41 53 42
REMARK SMILES IDX 61 43 54 44 60 45 62 46 59 47 55 48 56 49 57 50 58 51 84 52
REMARK SMILES IDX 85 53 93 54 86 55 92 56 94 57 91 58 87 59 88 60 89 61 90 62
REMARK SMILES IDX 69 63 70 64 78 65 71 66 77 67 79 68 76 69 72 70 73 71 74 72
REMARK SMILES IDX 75 73 9 74 10 75 11 76 12 77 13 78 14 79 15 80 16 81 21 82
REMARK SMILES IDX 17 83 20 84 19 85 18 86 22 87 23 88 24 89 25 91 26 92 29 93
REMARK SMILES IDX 27 94 28 95 42 96 39 97 41 98 40 99 30 100 31 101 32 102
REMARK SMILES IDX 33 104 34 105 38 106 35 107 37 108 36 109
REMARK H PARENT 99 26 67 37 24 90 32 103
REMARK Flexibility Score: inf
ROOT
ATOM      1  C   UNL A   1      34.773  31.900  27.808  1.00  0.00     0.188 C 
ENDROOT
BRANCH   1   2
ATOM      2  C   UNL A   1      34.126  32.910  28.759  1.00  0.00     0.188 C 
BRANCH   2   3
ATOM      3  O   UNL A   1      35.008  33.417  29.761  1.00  0.00    -0.376 OA
BRANCH   3   4
ATOM      4  C   UNL A   1      34.407  33.605  31.047  1.00  0.00     0.202 C 
BRANCH   4   5
ATOM      5  C   UNL A   1      34.794  32.589  32.140  1.00  0.00     0.261 C 
BRANCH   5   6
ATOM      6  O   UNL A   1      36.185  32.224  32.131  1.00  0.00    -0.460 OA
BRANCH   6   7
ATOM      7  C   UNL A   1      36.734  30.991  31.946  1.00  0.00     0.338 C 
ATOM      8  O   UNL A   1      35.993  30.083  31.572  1.00  0.00    -0.246 OA
BRANCH   7   9
ATOM      9  C   UNL A   1      38.183  30.690  32.185  1.00  0.00     0.060 A 
ATOM     10  C   UNL A   1      39.237  31.522  31.817  1.00  0.00     0.016 A 
ATOM     11  C   UNL A   1      38.510  29.514  32.874  1.00  0.00     0.016 A 
ATOM     12  C   UNL A   1      40.567  31.151  31.963  1.00  0.00     0.010 A 
ATOM     13  C   UNL A   1      39.854  29.182  33.125  1.00  0.00     0.010 A 
ATOM     14  C   UNL A   1      40.900  29.968  32.601  1.00  0.00    -0.014 A 
BRANCH  14  15
ATOM     15  C   UNL A   1      42.284  29.442  32.471  1.00  0.00     0.031 A 
ATOM     16  C   UNL A   1      42.543  28.486  31.340  1.00  0.00     0.074 A 
ATOM     17  C   UNL A   1      43.357  29.920  33.139  1.00  0.00     0.049 A 
ATOM     18  N   UNL A   1      43.603  27.774  31.075  1.00  0.00    -0.248 NA
ATOM     19  C   UNL A   1      41.471  28.365  30.336  1.00  0.00     0.031 C 
ATOM     20  C   UNL A   1      43.387  31.091  34.015  1.00  0.00     0.029 A 
ATOM     21  N   UNL A   1      44.659  29.455  33.183  1.00  0.00    -0.354 N 
ATOM     22  C   UNL A   1      43.342  27.165  29.856  1.00  0.00     0.074 A 
ATOM     23  C   UNL A   1      41.977  27.477  29.502  1.00  0.00     0.031 C 
ATOM     24  C   UNL A   1      44.621  31.208  34.537  1.00  0.00     0.029 A 
ATOM     25  C   UNL A   1      45.386  30.022  34.213  1.00  0.00     0.049 A 
ATOM     26  H   UNL A   1      45.026  28.794  32.553  1.00  0.00     0.167 HD
ATOM     27  C   UNL A   1      44.194  26.478  29.061  1.00  0.00     0.034 A 
ATOM     28  C   UNL A   1      46.435  29.509  34.892  1.00  0.00     0.034 A 
ATOM     29  C   UNL A   1      45.554  26.187  29.423  1.00  0.00     0.049 A 
ATOM     30  C   UNL A   1      47.173  28.374  34.260  1.00  0.00     0.074 A 
ATOM     31  C   UNL A   1      46.525  25.527  28.693  1.00  0.00     0.029 A 
ATOM     32  N   UNL A   1      46.129  26.524  30.640  1.00  0.00    -0.354 N 
ATOM     33  N   UNL A   1      46.900  27.716  33.164  1.00  0.00    -0.248 NA
ATOM     34  C   UNL A   1      48.432  27.998  34.913  1.00  0.00     0.031 C 
ATOM     35  C   UNL A   1      47.658  25.386  29.503  1.00  0.00     0.029 A 
ATOM     36  C   UNL A   1      47.421  26.031  30.706  1.00  0.00     0.049 A 
ATOM     37  H   UNL A   1      45.683  27.038  31.352  1.00  0.00     0.167 HD
ATOM     38  C   UNL A   1      48.017  26.933  32.928  1.00  0.00     0.074 A 
ATOM     39  C   UNL A   1      48.922  27.138  34.041  1.00  0.00     0.031 C 
ATOM     40  C   UNL A   1      48.302  26.194  31.829  1.00  0.00     0.034 A 
BRANCH  27  41
ATOM     41  C   UNL A   1      43.633  25.969  27.764  1.00  0.00     0.023 A 
ATOM     42  C   UNL A   1      43.165  24.648  27.627  1.00  0.00     0.031 A 
ATOM     43  C   UNL A   1      43.678  26.781  26.621  1.00  0.00     0.131 A 
ATOM     44  C   UNL A   1      42.862  24.147  26.355  1.00  0.00     0.055 A 
ATOM     45  C   UNL A   1      43.284  26.304  25.372  1.00  0.00     0.041 A 
ATOM     46  F   UNL A   1      44.147  28.036  26.693  1.00  0.00    -0.206 F 
ATOM     47  C   UNL A   1      42.893  24.976  25.229  1.00  0.00     0.022 A 
BRANCH  44  48
ATOM     48  S   UNL A   1      42.612  22.360  26.162  1.00  0.00     0.124 S 
ATOM     49  O   UNL A   1      42.857  21.880  27.520  1.00  0.00    -0.237 OA
ATOM     50  O   UNL A   1      41.233  22.280  25.696  1.00  0.00    -0.237 OA
ATOM     51  O   UNL A   1      43.626  21.977  25.181  1.00  0.00    -0.744 OA
ENDBRANCH  44  48
ENDBRANCH  27  41
BRANCH  28  52
ATOM     52  C   UNL A   1      46.860  29.871  36.278  1.00  0.00     0.023 A 
ATOM     53  C   UNL A   1      46.152  29.487  37.425  1.00  0.00     0.031 A 
ATOM     54  C   UNL A   1      47.856  30.867  36.422  1.00  0.00     0.131 A 
ATOM     55  C   UNL A   1      46.452  30.097  38.659  1.00  0.00     0.055 A 
ATOM     56  C   UNL A   1      48.156  31.458  37.651  1.00  0.00     0.041 A 
ATOM     57  F   UNL A   1      48.528  31.308  35.349  1.00  0.00    -0.206 F 
ATOM     58  C   UNL A   1      47.450  31.074  38.780  1.00  0.00     0.022 A 
BRANCH  55  59
ATOM     59  S   UNL A   1      45.563  29.578  40.155  1.00  0.00     0.124 S 
ATOM     60  O   UNL A   1      45.049  28.273  39.760  1.00  0.00    -0.237 OA
ATOM     61  O   UNL A   1      46.620  29.578  41.161  1.00  0.00    -0.237 OA
ATOM     62  O   UNL A   1      44.561  30.629  40.322  1.00  0.00    -0.744 OA
ENDBRANCH  55  59
ENDBRANCH  28  52
BRANCH  40  63
ATOM     63  C   UNL A   1      49.711  25.683  31.754  1.00  0.00     0.023 A 
ATOM     64  C   UNL A   1      50.046  24.380  32.149  1.00  0.00     0.031 A 
ATOM     65  C   UNL A   1      50.747  26.581  31.445  1.00  0.00     0.131 A 
ATOM     66  C   UNL A   1      51.393  24.051  32.349  1.00  0.00     0.055 A 
ATOM     67  C   UNL A   1      52.086  26.211  31.543  1.00  0.00     0.041 A 
ATOM     68  F   UNL A   1      50.475  27.848  31.092  1.00  0.00    -0.206 F 
ATOM     69  C   UNL A   1      52.415  24.948  32.024  1.00  0.00     0.022 A 
BRANCH  66  70
ATOM     70  S   UNL A   1      51.775  22.516  33.233  1.00  0.00     0.124 S 
ATOM     71  O   UNL A   1      52.902  22.927  34.064  1.00  0.00    -0.237 OA
ATOM     72  O   UNL A   1      50.529  22.242  33.941  1.00  0.00    -0.237 OA
ATOM     73  O   UNL A   1      52.100  21.577  32.161  1.00  0.00    -0.744 OA
ENDBRANCH  66  70
ENDBRANCH  40  63
ENDBRANCH  14  15
ENDBRANCH   7   9
ENDBRANCH   6   7
ENDBRANCH   5   6
ENDBRANCH   4   5
ENDBRANCH   3   4
ENDBRANCH   2   3
ENDBRANCH   1   2
BRANCH   1  74
ATOM     74  O   UNL A   1      33.943  30.898  27.234  1.00  0.00    -0.376 OA
BRANCH  74  75
ATOM     75  C   UNL A   1      34.334  29.548  27.435  1.00  0.00     0.202 C 
BRANCH  75  76
ATOM     76  C   UNL A   1      33.482  28.401  26.841  1.00  0.00     0.261 C 
BRANCH  76  77
ATOM     77  O   UNL A   1      33.890  27.861  25.560  1.00  0.00    -0.463 OA
BRANCH  77  78
ATOM     78  C   UNL A   1      33.857  26.509  25.512  1.00  0.00     0.310 C 
ATOM     79  O   UNL A   1      34.836  25.819  25.800  1.00  0.00    -0.252 OA
BRANCH  78  80
ATOM     80  C   UNL A   1      32.564  25.875  24.975  1.00  0.00     0.115 C 
ATOM     81  C   UNL A   1      32.457  26.465  23.524  1.00  0.00     0.004 C 
ATOM     82  C   UNL A   1      32.370  24.360  24.679  1.00  0.00     0.096 C 
ATOM     83  C   UNL A   1      33.588  25.962  22.593  1.00  0.00     0.005 C 
ATOM     84  C   UNL A   1      31.294  25.690  22.981  1.00  0.00     0.009 C 
ATOM     85  C   UNL A   1      31.968  24.331  23.192  1.00  0.00     0.003 C 
ATOM     86  C   UNL A   1      33.229  24.495  22.345  1.00  0.00     0.005 C 
BRANCH  82  87
ATOM     87  C   UNL A   1      31.425  23.490  25.530  1.00  0.00     0.229 C 
ATOM     88  O   UNL A   1      30.753  24.098  26.374  1.00  0.00    -0.274 OA
ATOM     89  N   UNL A   1      31.221  22.145  25.463  1.00  0.00    -0.317 N 
ATOM     90  H   UNL A   1      30.396  21.840  25.906  1.00  0.00     0.170 HD
BRANCH  89  91
ATOM     91  C   UNL A   1      31.959  21.136  24.887  1.00  0.00     0.108 A 
ATOM     92  S   UNL A   1      31.781  20.797  23.219  1.00  0.00    -0.122 S 
ATOM     93  C   UNL A   1      33.100  20.514  25.378  1.00  0.00     0.078 A 
ATOM     94  C   UNL A   1      32.680  19.368  23.433  1.00  0.00     0.011 A 
ATOM     95  C   UNL A   1      33.567  19.492  24.483  1.00  0.00    -0.019 A 
ATOM     96  C   UNL A   1      32.511  18.140  22.607  1.00  0.00     0.047 C 
ATOM     97  C   UNL A   1      34.700  18.528  24.671  1.00  0.00     0.037 C 
ATOM     98  C   UNL A   1      33.150  16.961  23.365  1.00  0.00     0.006 C 
ATOM     99  C   UNL A   1      34.598  17.298  23.750  1.00  0.00     0.005 C 
BRANCH  93 100
ATOM    100  C   UNL A   1      33.631  20.932  26.642  1.00  0.00     0.254 C 
ATOM    101  O   UNL A   1      32.955  20.747  27.658  1.00  0.00    -0.269 OA
ATOM    102  N   UNL A   1      34.899  21.405  26.771  1.00  0.00    -0.349 N 
ATOM    103  H   UNL A   1      35.201  21.338  27.706  1.00  0.00     0.164 HD
BRANCH 102 104
ATOM    104  C   UNL A   1      35.943  21.981  25.933  1.00  0.00     0.082 C 
ATOM    105  C   UNL A   1      35.409  22.374  24.541  1.00  0.00     0.025 C 
ATOM    106  C   UNL A   1      36.688  23.201  26.461  1.00  0.00     0.025 C 
ATOM    107  C   UNL A   1      36.568  22.616  23.579  1.00  0.00     0.002 C 
ATOM    108  C   UNL A   1      37.934  23.391  25.590  1.00  0.00     0.002 C 
ATOM    109  C   UNL A   1      37.576  23.624  24.121  1.00  0.00     0.000 C 
ENDBRANCH 102 104
ENDBRANCH  93 100
ENDBRANCH  89  91
ENDBRANCH  82  87
ENDBRANCH  78  80
ENDBRANCH  77  78
ENDBRANCH  76  77
ENDBRANCH  75  76
ENDBRANCH  74  75
ENDBRANCH   1  74
TORSDOF 24
ENDMDL
MODEL 3
REMARK VINA RESULT:      -9.9      7.154      8.380
REMARK SMILES O=C(OCCOCCOCCOC(=O)[C@H]1[C@H]2CC[C@H](C2)[C@@H]1C(=O)Nc1sc2c(c1C(=O)NC1CCCCC1)CCCC2)c1ccc(-c2c3nc(c(-c4cc(S(=O)(=O)[O-])ccc4F)c4ccc([nH]4)c(-c4cc(S(=O)(=O)[O-])ccc4F)c4nc(c(-c5cc(S(=O)(=O)[O-])ccc5F)c5ccc2[nH]5)C=C4)C=C3)cc1
REMARK SMILES IDX 8 1 7 2 6 3 5 4 4 5 3 6 2 7 1 8 43 9 44 10 105 11 45 12
REMARK SMILES IDX 104 13 46 14 47 15 48 16 98 17 49 18 103 19 97 20 99 21
REMARK SMILES IDX 50 22 102 23 96 24 95 25 51 27 83 28 63 29 82 30 64 31 67 32
REMARK SMILES IDX 81 33 100 34 65 35 66 36 80 38 101 39 68 40 52 41 53 42
REMARK SMILES IDX 61 43 54 44 60 45 62 46 59 47 55 48 56 49 57 50 58 51 84 52
REMARK SMILES IDX 85 53 93 54 86 55 92 56 94 57 91 58 87 59 88 60 89 61 90 62
REMARK SMILES IDX 69 63 70 64 78 65 71 66 77 67 79 68 76 69 72 70 73 71 74 72
REMARK SMILES IDX 75 73 9 74 10 75 11 76 12 77 13 78 14 79 15 80 16 81 21 82
REMARK SMILES IDX 17 83 20 84 19 85 18 86 22 87 23 88 24 89 25 91 26 92 29 93
REMARK SMILES IDX 27 94 28 95 42 96 39 97 41 98 40 99 30 100 31 101 32 102
REMARK SMILES IDX 33 104 34 105 38 106 35 107 37 108 36 109
REMARK H PARENT 99 26 67 37 24 90 32 103
REMARK Flexibility Score: inf
ROOT
ATOM      1  C   UNL A   1      35.206  30.168  27.093  1.00  0.00     0.188 C 
ENDROOT
BRANCH   1   2
ATOM      2  C   UNL A   1      35.037  31.251  28.161  1.00  0.00     0.188 C 
BRANCH   2   3
ATOM      3  O   UNL A   1      34.686  32.534  27.641  1.00  0.00    -0.376 OA
BRANCH   3   4
ATOM      4  C   UNL A   1      33.355  32.962  27.953  1.00  0.00     0.202 C 
BRANCH   4   5
ATOM      5  C   UNL A   1      33.199  34.417  28.436  1.00  0.00     0.261 C 
BRANCH   5   6
ATOM      6  O   UNL A   1      34.321  34.906  29.190  1.00  0.00    -0.460 OA
BRANCH   6   7
ATOM      7  C   UNL A   1      34.814  34.439  30.370  1.00  0.00     0.338 C 
ATOM      8  O   UNL A   1      34.220  34.747  31.403  1.00  0.00    -0.246 OA
BRANCH   7   9
ATOM      9  C   UNL A   1      36.041  33.583  30.470  1.00  0.00     0.060 A 
ATOM     10  C   UNL A   1      36.165  32.468  31.294  1.00  0.00     0.016 A 
ATOM     11  C   UNL A   1      37.129  33.887  29.640  1.00  0.00     0.016 A 
ATOM     12  C   UNL A   1      37.357  31.771  31.432  1.00  0.00     0.010 A 
ATOM     13  C   UNL A   1      38.306  33.117  29.692  1.00  0.00     0.010 A 
ATOM     14  C   UNL A   1      38.454  32.093  30.650  1.00  0.00    -0.014 A 
BRANCH  14  15
ATOM     15  C   UNL A   1      39.790  31.560  31.024  1.00  0.00     0.031 A 
ATOM     16  C   UNL A   1      40.263  30.336  30.289  1.00  0.00     0.074 A 
ATOM     17  C   UNL A   1      40.690  32.207  31.797  1.00  0.00     0.049 A 
ATOM     18  N   UNL A   1      41.308  29.586  30.503  1.00  0.00    -0.248 NA
ATOM     19  C   UNL A   1      39.470  29.943  29.110  1.00  0.00     0.031 C 
ATOM     20  C   UNL A   1      40.574  33.571  32.312  1.00  0.00     0.029 A 
ATOM     21  N   UNL A   1      41.907  31.780  32.296  1.00  0.00    -0.354 N 
ATOM     22  C   UNL A   1      41.322  28.670  29.462  1.00  0.00     0.074 A 
ATOM     23  C   UNL A   1      40.112  28.866  28.698  1.00  0.00     0.031 C 
ATOM     24  C   UNL A   1      41.642  33.832  33.086  1.00  0.00     0.029 A 
ATOM     25  C   UNL A   1      42.388  32.608  33.293  1.00  0.00     0.049 A 
ATOM     26  H   UNL A   1      42.378  30.976  31.977  1.00  0.00     0.167 HD
ATOM     27  C   UNL A   1      42.301  27.799  29.122  1.00  0.00     0.034 A 
ATOM     28  C   UNL A   1      43.198  32.304  34.329  1.00  0.00     0.034 A 
ATOM     29  C   UNL A   1      43.505  27.626  29.886  1.00  0.00     0.049 A 
ATOM     30  C   UNL A   1      43.998  31.045  34.229  1.00  0.00     0.074 A 
ATOM     31  C   UNL A   1      44.584  26.800  29.630  1.00  0.00     0.029 A 
ATOM     32  N   UNL A   1      43.777  28.282  31.077  1.00  0.00    -0.354 N 
ATOM     33  N   UNL A   1      43.966  30.115  33.312  1.00  0.00    -0.248 NA
ATOM     34  C   UNL A   1      45.027  30.867  35.260  1.00  0.00     0.031 C 
ATOM     35  C   UNL A   1      45.467  26.890  30.713  1.00  0.00     0.029 A 
ATOM     36  C   UNL A   1      44.978  27.833  31.601  1.00  0.00     0.049 A 
ATOM     37  H   UNL A   1      43.202  28.966  31.490  1.00  0.00     0.167 HD
ATOM     38  C   UNL A   1      45.056  29.304  33.585  1.00  0.00     0.074 A 
ATOM     39  C   UNL A   1      45.664  29.807  34.800  1.00  0.00     0.031 C 
ATOM     40  C   UNL A   1      45.559  28.298  32.831  1.00  0.00     0.034 A 
BRANCH  27  41
ATOM     41  C   UNL A   1      42.051  26.956  27.904  1.00  0.00     0.023 A 
ATOM     42  C   UNL A   1      41.549  25.644  28.002  1.00  0.00     0.031 A 
ATOM     43  C   UNL A   1      42.431  27.431  26.640  1.00  0.00     0.131 A 
ATOM     44  C   UNL A   1      41.543  24.818  26.871  1.00  0.00     0.055 A 
ATOM     45  C   UNL A   1      42.333  26.633  25.501  1.00  0.00     0.041 A 
ATOM     46  F   UNL A   1      42.946  28.663  26.500  1.00  0.00    -0.206 F 
ATOM     47  C   UNL A   1      41.907  25.312  25.616  1.00  0.00     0.022 A 
BRANCH  44  48
ATOM     48  S   UNL A   1      41.237  23.043  27.096  1.00  0.00     0.124 S 
ATOM     49  O   UNL A   1      39.800  22.957  26.844  1.00  0.00    -0.237 OA
ATOM     50  O   UNL A   1      42.099  22.441  26.085  1.00  0.00    -0.237 OA
ATOM     51  O   UNL A   1      41.635  22.800  28.481  1.00  0.00    -0.744 OA
ENDBRANCH  44  48
ENDBRANCH  27  41
BRANCH  28  52
ATOM     52  C   UNL A   1      43.286  33.028  35.633  1.00  0.00     0.023 A 
ATOM     53  C   UNL A   1      42.409  32.797  36.701  1.00  0.00     0.031 A 
ATOM     54  C   UNL A   1      44.106  34.181  35.692  1.00  0.00     0.131 A 
ATOM     55  C   UNL A   1      42.375  33.706  37.778  1.00  0.00     0.055 A 
ATOM     56  C   UNL A   1      44.077  35.070  36.768  1.00  0.00     0.041 A 
ATOM     57  F   UNL A   1      44.927  34.477  34.673  1.00  0.00    -0.206 F 
ATOM     58  C   UNL A   1      43.205  34.835  37.820  1.00  0.00     0.022 A 
BRANCH  55  59
ATOM     59  S   UNL A   1      41.267  33.393  39.182  1.00  0.00     0.124 S 
ATOM     60  O   UNL A   1      39.978  33.812  38.644  1.00  0.00    -0.237 OA
ATOM     61  O   UNL A   1      41.440  31.961  39.401  1.00  0.00    -0.237 OA
ATOM     62  O   UNL A   1      41.821  34.243  40.233  1.00  0.00    -0.744 OA
ENDBRANCH  55  59
ENDBRANCH  28  52
BRANCH  40  63
ATOM     63  C   UNL A   1      46.906  27.795  33.258  1.00  0.00     0.023 A 
ATOM     64  C   UNL A   1      47.045  26.749  34.181  1.00  0.00     0.031 A 
ATOM     65  C   UNL A   1      48.055  28.499  32.859  1.00  0.00     0.131 A 
ATOM     66  C   UNL A   1      48.293  26.521  34.773  1.00  0.00     0.055 A 
ATOM     67  C   UNL A   1      49.313  28.193  33.374  1.00  0.00     0.041 A 
ATOM     68  F   UNL A   1      47.966  29.529  32.001  1.00  0.00    -0.206 F 
ATOM     69  C   UNL A   1      49.432  27.217  34.357  1.00  0.00     0.022 A 
BRANCH  66  70
ATOM     70  S   UNL A   1      48.363  25.451  36.235  1.00  0.00     0.124 S 
ATOM     71  O   UNL A   1      47.579  24.301  35.796  1.00  0.00    -0.237 OA
ATOM     72  O   UNL A   1      49.797  25.221  36.388  1.00  0.00    -0.237 OA
ATOM     73  O   UNL A   1      47.749  26.263  37.282  1.00  0.00    -0.744 OA
ENDBRANCH  66  70
ENDBRANCH  40  63
ENDBRANCH  14  15
ENDBRANCH   7   9
ENDBRANCH   6   7
ENDBRANCH   5   6
ENDBRANCH   4   5
ENDBRANCH   3   4
ENDBRANCH   2   3
ENDBRANCH   1   2
BRANCH   1  74
ATOM     74  O   UNL A   1      34.521  28.936  27.278  1.00  0.00    -0.376 OA
BRANCH  74  75
ATOM     75  C   UNL A   1      33.391  28.700  26.451  1.00  0.00     0.202 C 
BRANCH  75  76
ATOM     76  C   UNL A   1      33.306  29.358  25.054  1.00  0.00     0.261 C 
BRANCH  76  77
ATOM     77  O   UNL A   1      33.964  28.681  23.955  1.00  0.00    -0.463 OA
BRANCH  77  78
ATOM     78  C   UNL A   1      33.206  27.712  23.390  1.00  0.00     0.310 C 
ATOM     79  O   UNL A   1      33.455  27.253  22.275  1.00  0.00    -0.252 OA
BRANCH  78  80
ATOM     80  C   UNL A   1      31.951  27.287  24.167  1.00  0.00     0.115 C 
ATOM     81  C   UNL A   1      30.786  27.624  23.170  1.00  0.00     0.004 C 
ATOM     82  C   UNL A   1      31.588  25.820  24.540  1.00  0.00     0.096 C 
ATOM     83  C   UNL A   1      30.814  26.736  21.901  1.00  0.00     0.005 C 
ATOM     84  C   UNL A   1      29.610  27.034  23.888  1.00  0.00     0.009 C 
ATOM     85  C   UNL A   1      30.198  25.620  23.906  1.00  0.00     0.003 C 
ATOM     86  C   UNL A   1      30.379  25.360  22.411  1.00  0.00     0.005 C 
BRANCH  82  87
ATOM     87  C   UNL A   1      31.609  25.334  26.002  1.00  0.00     0.229 C 
ATOM     88  O   UNL A   1      30.748  25.829  26.742  1.00  0.00    -0.274 OA
ATOM     89  N   UNL A   1      32.438  24.423  26.580  1.00  0.00    -0.317 N 
ATOM     90  H   UNL A   1      32.113  24.070  27.441  1.00  0.00     0.170 HD
BRANCH  89  91
ATOM     91  C   UNL A   1      33.648  23.903  26.179  1.00  0.00     0.108 A 
ATOM     92  S   UNL A   1      34.894  24.953  25.658  1.00  0.00    -0.122 S 
ATOM     93  C   UNL A   1      34.165  22.636  26.421  1.00  0.00     0.078 A 
ATOM     94  C   UNL A   1      35.766  23.606  25.091  1.00  0.00     0.011 A 
ATOM     95  C   UNL A   1      35.459  22.473  25.818  1.00  0.00    -0.019 A 
ATOM     96  C   UNL A   1      36.717  23.645  23.945  1.00  0.00     0.047 C 
ATOM     97  C   UNL A   1      36.317  21.246  25.758  1.00  0.00     0.037 C 
ATOM     98  C   UNL A   1      36.950  22.199  23.466  1.00  0.00     0.006 C 
ATOM     99  C   UNL A   1      37.377  21.311  24.643  1.00  0.00     0.005 C 
BRANCH  93 100
ATOM    100  C   UNL A   1      33.390  21.702  27.184  1.00  0.00     0.254 C 
ATOM    101  O   UNL A   1      33.118  21.976  28.356  1.00  0.00    -0.269 OA
ATOM    102  N   UNL A   1      32.839  20.593  26.622  1.00  0.00    -0.349 N 
ATOM    103  H   UNL A   1      32.102  20.252  27.177  1.00  0.00     0.164 HD
BRANCH 102 104
ATOM    104  C   UNL A   1      33.020  19.761  25.439  1.00  0.00     0.082 C 
ATOM    105  C   UNL A   1      32.769  18.270  25.743  1.00  0.00     0.025 C 
ATOM    106  C   UNL A   1      32.187  20.087  24.205  1.00  0.00     0.025 C 
ATOM    107  C   UNL A   1      33.316  17.401  24.616  1.00  0.00     0.002 C 
ATOM    108  C   UNL A   1      32.799  19.326  23.024  1.00  0.00     0.002 C 
ATOM    109  C   UNL A   1      32.783  17.812  23.248  1.00  0.00     0.000 C 
ENDBRANCH 102 104
ENDBRANCH  93 100
ENDBRANCH  89  91
ENDBRANCH  82  87
ENDBRANCH  78  80
ENDBRANCH  77  78
ENDBRANCH  76  77
ENDBRANCH  75  76
ENDBRANCH  74  75
ENDBRANCH   1  74
TORSDOF 24
ENDMDL
