MODEL 1
REMARK VINA RESULT:     -12.0      0.000      0.000
REMARK SMILES Cc1ccccc1NC(=O)NC[C@@H]1CC[C@@H](C(=O)OCCOCCOCCOC(=O)c2ccc(-c3c4nc(c(-c5cc(S(=O)(=O)[O-])ccc5F)c5ccc([nH]5)c(-c5cc(S(=O)(=O)[O-])ccc5F)c5nc(c(-c6cc(S(=O)(=O)[O-])ccc6F)c6ccc3[nH]6)C=C5)C=C4)cc2)O1
REMARK SMILES IDX 23 1 22 2 21 3 20 4 19 5 17 6 18 7 16 8 13 9 14 10 94 11
REMARK SMILES IDX 15 12 12 13 11 14 8 15 9 16 10 18 7 20 1 21 2 22 3 23 4 24
REMARK SMILES IDX 6 25 5 26 24 27 25 28 26 29 27 30 28 31 29 32 30 33 31 34
REMARK SMILES IDX 32 35 93 36 33 37 92 38 34 39 35 40 36 41 86 42 37 43 91 44
REMARK SMILES IDX 85 45 87 46 38 47 90 48 84 49 83 50 39 52 71 53 51 54 70 55
REMARK SMILES IDX 52 56 55 57 69 58 88 59 53 60 54 61 68 63 89 64 56 65 40 66
REMARK SMILES IDX 41 67 49 68 42 69 48 70 50 71 47 72 43 73 44 74 45 75 46 76
REMARK SMILES IDX 72 77 73 78 81 79 74 80 80 81 82 82 79 83 75 84 76 85 77 86
REMARK SMILES IDX 78 87 57 88 58 89 66 90 59 91 65 92 67 93 64 94 60 95 61 96
REMARK SMILES IDX 62 97 63 98
REMARK H PARENT 8 17 11 19 87 51 55 62
REMARK Flexibility Score: inf
ROOT
ATOM      1  C   UNL A   1      39.269  21.152  25.809  1.00  0.00     0.188 C 
ENDROOT
BRANCH   1   2
ATOM      2  O   UNL A   1      37.855  21.464  25.820  1.00  0.00    -0.376 OA
BRANCH   2   3
ATOM      3  C   UNL A   1      37.280  22.630  25.196  1.00  0.00     0.202 C 
BRANCH   3   4
ATOM      4  C   UNL A   1      36.067  22.522  24.133  1.00  0.00     0.261 C 
BRANCH   4   5
ATOM      5  O   UNL A   1      35.240  23.542  22.961  1.00  0.00    -0.461 OA
BRANCH   5   6
ATOM      6  C   UNL A   1      33.941  23.789  22.374  1.00  0.00     0.335 C 
ATOM      7  O   UNL A   1      33.518  23.439  21.271  1.00  0.00    -0.249 OA
BRANCH   6   8
ATOM      8  C   UNL A   1      32.876  24.618  23.081  1.00  0.00     0.228 C 
ATOM      9  C   UNL A   1      33.438  26.727  22.216  1.00  0.00     0.138 C 
ATOM     10  C   UNL A   1      32.006  26.422  21.810  1.00  0.00     0.037 C 
ATOM     11  O   UNL A   1      33.460  25.955  23.440  1.00  0.00    -0.361 OA
ATOM     12  C   UNL A   1      31.719  24.989  22.221  1.00  0.00     0.047 C 
BRANCH   9  13
ATOM     13  C   UNL A   1      33.835  28.242  22.361  1.00  0.00     0.149 C 
BRANCH  13  14
ATOM     14  N   UNL A   1      34.078  28.666  23.770  1.00  0.00    -0.335 N 
ATOM     15  N   UNL A   1      32.256  28.171  25.286  1.00  0.00    -0.308 N 
ATOM     16  C   UNL A   1      33.535  28.481  24.986  1.00  0.00     0.319 C 
ATOM     17  H   UNL A   1      32.163  27.847  26.211  1.00  0.00     0.171 HD
ATOM     18  O   UNL A   1      34.297  28.584  25.958  1.00  0.00    -0.249 OA
ATOM     19  H   UNL A   1      34.867  29.253  23.827  1.00  0.00     0.165 HD
BRANCH  15  20
ATOM     20  C   UNL A   1      31.025  28.194  24.612  1.00  0.00     0.045 A 
ATOM     21  C   UNL A   1      30.214  25.941  25.553  1.00  0.00     0.046 C 
ATOM     22  C   UNL A   1      30.131  27.110  24.611  1.00  0.00    -0.027 A 
ATOM     23  C   UNL A   1      28.996  27.153  23.767  1.00  0.00     0.005 A 
ATOM     24  C   UNL A   1      28.718  28.267  22.985  1.00  0.00     0.000 A 
ATOM     25  C   UNL A   1      30.616  29.342  23.970  1.00  0.00     0.026 A 
ATOM     26  C   UNL A   1      29.510  29.387  23.124  1.00  0.00     0.002 A 
ENDBRANCH  15  20
ENDBRANCH  13  14
ENDBRANCH   9  13
ENDBRANCH   6   8
ENDBRANCH   5   6
ENDBRANCH   4   5
ENDBRANCH   3   4
ENDBRANCH   2   3
ENDBRANCH   1   2
BRANCH   1  27
ATOM     27  C   UNL A   1      39.760  19.720  25.989  1.00  0.00     0.188 C 
BRANCH  27  28
ATOM     28  O   UNL A   1      41.049  19.614  25.422  1.00  0.00    -0.376 OA
BRANCH  28  29
ATOM     29  C   UNL A   1      42.138  19.560  26.309  1.00  0.00     0.202 C 
BRANCH  29  30
ATOM     30  C   UNL A   1      43.108  20.705  26.023  1.00  0.00     0.261 C 
BRANCH  30  31
ATOM     31  O   UNL A   1      42.608  21.945  26.575  1.00  0.00    -0.460 OA
BRANCH  31  32
ATOM     32  C   UNL A   1      42.525  23.001  25.697  1.00  0.00     0.338 C 
ATOM     33  O   UNL A   1      42.988  22.961  24.567  1.00  0.00    -0.246 OA
BRANCH  32  34
ATOM     34  C   UNL A   1      41.724  24.115  26.293  1.00  0.00     0.060 A 
ATOM     35  C   UNL A   1      41.702  25.452  25.890  1.00  0.00     0.016 A 
ATOM     36  C   UNL A   1      41.057  23.837  27.440  1.00  0.00     0.016 A 
ATOM     37  C   UNL A   1      41.222  26.520  26.759  1.00  0.00     0.010 A 
ATOM     38  C   UNL A   1      40.727  24.896  28.289  1.00  0.00     0.010 A 
ATOM     39  C   UNL A   1      40.841  26.318  28.099  1.00  0.00    -0.014 A 
BRANCH  39  40
ATOM     40  C   UNL A   1      40.614  27.615  29.262  1.00  0.00     0.031 A 
ATOM     41  C   UNL A   1      39.603  29.054  29.278  1.00  0.00     0.074 A 
ATOM     42  C   UNL A   1      41.539  27.707  30.241  1.00  0.00     0.049 A 
ATOM     43  N   UNL A   1      40.016  30.307  29.135  1.00  0.00    -0.248 NA
ATOM     44  C   UNL A   1      38.084  29.153  29.341  1.00  0.00     0.031 C 
ATOM     45  C   UNL A   1      41.556  28.645  31.355  1.00  0.00     0.029 A 
ATOM     46  N   UNL A   1      42.770  27.063  30.315  1.00  0.00    -0.354 N 
ATOM     47  C   UNL A   1      38.867  31.141  29.150  1.00  0.00     0.074 A 
ATOM     48  C   UNL A   1      37.762  30.326  28.833  1.00  0.00     0.031 C 
ATOM     49  C   UNL A   1      42.811  28.709  31.832  1.00  0.00     0.029 A 
ATOM     50  C   UNL A   1      43.660  27.939  30.937  1.00  0.00     0.049 A 
ATOM     51  H   UNL A   1      42.975  26.157  29.989  1.00  0.00     0.167 HD
ATOM     52  C   UNL A   1      38.668  32.280  29.886  1.00  0.00     0.034 A 
ATOM     53  C   UNL A   1      44.785  28.370  30.298  1.00  0.00     0.034 A 
ATOM     54  C   UNL A   1      39.808  32.509  30.712  1.00  0.00     0.049 A 
ATOM     55  C   UNL A   1      44.866  29.879  30.235  1.00  0.00     0.074 A 
ATOM     56  C   UNL A   1      40.102  32.163  32.018  1.00  0.00     0.029 A 
ATOM     57  N   UNL A   1      40.988  32.818  30.086  1.00  0.00    -0.354 N 
ATOM     58  N   UNL A   1      43.851  30.667  30.462  1.00  0.00    -0.248 NA
ATOM     59  C   UNL A   1      46.083  30.626  29.932  1.00  0.00     0.031 C 
ATOM     60  C   UNL A   1      41.512  32.211  32.155  1.00  0.00     0.029 A 
ATOM     61  C   UNL A   1      42.038  32.639  30.951  1.00  0.00     0.049 A 
ATOM     62  H   UNL A   1      41.070  33.124  29.154  1.00  0.00     0.167 HD
ATOM     63  C   UNL A   1      44.237  31.973  30.333  1.00  0.00     0.074 A 
ATOM     64  C   UNL A   1      45.651  31.897  30.023  1.00  0.00     0.031 C 
ATOM     65  C   UNL A   1      43.350  33.000  30.474  1.00  0.00     0.034 A 
BRANCH  52  66
ATOM     66  C   UNL A   1      37.263  32.843  30.157  1.00  0.00     0.023 A 
ATOM     67  C   UNL A   1      36.776  32.990  31.471  1.00  0.00     0.031 A 
ATOM     68  C   UNL A   1      36.339  33.162  29.132  1.00  0.00     0.131 A 
ATOM     69  C   UNL A   1      35.423  33.311  31.722  1.00  0.00     0.055 A 
ATOM     70  C   UNL A   1      34.979  33.414  29.378  1.00  0.00     0.041 A 
ATOM     71  F   UNL A   1      36.716  33.162  27.842  1.00  0.00    -0.206 F 
ATOM     72  C   UNL A   1      34.510  33.474  30.682  1.00  0.00     0.022 A 
BRANCH  69  73
ATOM     73  S   UNL A   1      34.861  33.531  33.436  1.00  0.00     0.124 S 
ATOM     74  O   UNL A   1      35.082  34.958  33.653  1.00  0.00    -0.237 OA
ATOM     75  O   UNL A   1      33.472  33.094  33.365  1.00  0.00    -0.237 OA
ATOM     76  O   UNL A   1      35.744  32.650  34.201  1.00  0.00    -0.744 OA
ENDBRANCH  69  73
ENDBRANCH  52  66
BRANCH  53  77
ATOM     77  C   UNL A   1      45.377  27.390  29.327  1.00  0.00     0.023 A 
ATOM     78  C   UNL A   1      45.165  27.634  27.945  1.00  0.00     0.031 A 
ATOM     79  C   UNL A   1      46.356  26.445  29.664  1.00  0.00     0.131 A 
ATOM     80  C   UNL A   1      46.004  27.074  26.971  1.00  0.00     0.055 A 
ATOM     81  C   UNL A   1      47.148  25.825  28.679  1.00  0.00     0.041 A 
ATOM     82  F   UNL A   1      46.640  26.182  30.947  1.00  0.00    -0.206 F 
ATOM     83  C   UNL A   1      46.992  26.157  27.330  1.00  0.00     0.022 A 
BRANCH  80  84
ATOM     84  S   UNL A   1      45.986  27.749  25.276  1.00  0.00     0.124 S 
ATOM     85  O   UNL A   1      44.558  27.880  25.011  1.00  0.00    -0.237 OA
ATOM     86  O   UNL A   1      46.725  29.004  25.398  1.00  0.00    -0.237 OA
ATOM     87  O   UNL A   1      46.686  26.724  24.507  1.00  0.00    -0.744 OA
ENDBRANCH  80  84
ENDBRANCH  53  77
BRANCH  65  88
ATOM     88  C   UNL A   1      43.567  34.454  30.137  1.00  0.00     0.023 A 
ATOM     89  C   UNL A   1      43.454  34.955  28.841  1.00  0.00     0.031 A 
ATOM     90  C   UNL A   1      43.751  35.419  31.167  1.00  0.00     0.131 A 
ATOM     91  C   UNL A   1      43.582  36.331  28.594  1.00  0.00     0.055 A 
ATOM     92  C   UNL A   1      43.760  36.793  30.930  1.00  0.00     0.041 A 
ATOM     93  F   UNL A   1      43.912  35.066  32.452  1.00  0.00    -0.206 F 
ATOM     94  C   UNL A   1      43.693  37.258  29.630  1.00  0.00     0.022 A 
BRANCH  91  95
ATOM     95  S   UNL A   1      43.716  36.864  26.874  1.00  0.00     0.124 S 
ATOM     96  O   UNL A   1      45.154  36.751  26.639  1.00  0.00    -0.237 OA
ATOM     97  O   UNL A   1      42.880  35.893  26.178  1.00  0.00    -0.237 OA
ATOM     98  O   UNL A   1      43.199  38.231  26.898  1.00  0.00    -0.744 OA
ENDBRANCH  91  95
ENDBRANCH  65  88
ENDBRANCH  39  40
ENDBRANCH  32  34
ENDBRANCH  31  32
ENDBRANCH  30  31
ENDBRANCH  29  30
ENDBRANCH  28  29
ENDBRANCH  27  28
ENDBRANCH   1  27
TORSDOF 23
ENDMDL
MODEL 2
REMARK VINA RESULT:     -12.0      2.323      3.646
REMARK SMILES Cc1ccccc1NC(=O)NC[C@@H]1CC[C@@H](C(=O)OCCOCCOCCOC(=O)c2ccc(-c3c4nc(c(-c5cc(S(=O)(=O)[O-])ccc5F)c5ccc([nH]5)c(-c5cc(S(=O)(=O)[O-])ccc5F)c5nc(c(-c6cc(S(=O)(=O)[O-])ccc6F)c6ccc3[nH]6)C=C5)C=C4)cc2)O1
REMARK SMILES IDX 23 1 22 2 21 3 20 4 19 5 17 6 18 7 16 8 13 9 14 10 94 11
REMARK SMILES IDX 15 12 12 13 11 14 8 15 9 16 10 18 7 20 1 21 2 22 3 23 4 24
REMARK SMILES IDX 6 25 5 26 24 27 25 28 26 29 27 30 28 31 29 32 30 33 31 34
REMARK SMILES IDX 32 35 93 36 33 37 92 38 34 39 35 40 36 41 86 42 37 43 91 44
REMARK SMILES IDX 85 45 87 46 38 47 90 48 84 49 83 50 39 52 71 53 51 54 70 55
REMARK SMILES IDX 52 56 55 57 69 58 88 59 53 60 54 61 68 63 89 64 56 65 40 66
REMARK SMILES IDX 41 67 49 68 42 69 48 70 50 71 47 72 43 73 44 74 45 75 46 76
REMARK SMILES IDX 72 77 73 78 81 79 74 80 80 81 82 82 79 83 75 84 76 85 77 86
REMARK SMILES IDX 78 87 57 88 58 89 66 90 59 91 65 92 67 93 64 94 60 95 61 96
REMARK SMILES IDX 62 97 63 98
REMARK H PARENT 8 17 11 19 87 51 55 62
REMARK Flexibility Score: inf
ROOT
ATOM      1  C   UNL A   1      38.369  21.317  25.374  1.00  0.00     0.188 C 
ENDROOT
BRANCH   1   2
ATOM      2  O   UNL A   1      37.151  22.057  25.123  1.00  0.00    -0.376 OA
BRANCH   2   3
ATOM      3  C   UNL A   1      36.620  22.319  23.808  1.00  0.00     0.202 C 
BRANCH   3   4
ATOM      4  C   UNL A   1      35.183  23.026  23.589  1.00  0.00     0.261 C 
BRANCH   4   5
ATOM      5  O   UNL A   1      34.536  24.573  23.057  1.00  0.00    -0.461 OA
BRANCH   5   6
ATOM      6  C   UNL A   1      33.426  25.479  23.256  1.00  0.00     0.335 C 
ATOM      7  O   UNL A   1      33.447  26.639  23.672  1.00  0.00    -0.249 OA
BRANCH   6   8
ATOM      8  C   UNL A   1      31.983  25.062  23.004  1.00  0.00     0.228 C 
ATOM      9  C   UNL A   1      31.653  23.753  24.925  1.00  0.00     0.138 C 
ATOM     10  C   UNL A   1      30.639  24.884  24.950  1.00  0.00     0.037 C 
ATOM     11  O   UNL A   1      31.793  23.652  23.487  1.00  0.00    -0.361 OA
ATOM     12  C   UNL A   1      30.980  25.818  23.803  1.00  0.00     0.047 C 
BRANCH   9  13
ATOM     13  C   UNL A   1      31.261  22.422  25.664  1.00  0.00     0.149 C 
BRANCH  13  14
ATOM     14  N   UNL A   1      32.316  21.916  26.589  1.00  0.00    -0.335 N 
ATOM     15  N   UNL A   1      33.860  20.350  25.574  1.00  0.00    -0.308 N 
ATOM     16  C   UNL A   1      33.470  21.229  26.522  1.00  0.00     0.319 C 
ATOM     17  H   UNL A   1      34.828  20.175  25.611  1.00  0.00     0.171 HD
ATOM     18  O   UNL A   1      34.295  21.438  27.423  1.00  0.00    -0.249 OA
ATOM     19  H   UNL A   1      32.106  22.152  27.521  1.00  0.00     0.165 HD
BRANCH  15  20
ATOM     20  C   UNL A   1      33.233  19.623  24.551  1.00  0.00     0.045 A 
ATOM     21  C   UNL A   1      33.220  17.395  25.837  1.00  0.00     0.046 C 
ATOM     22  C   UNL A   1      33.057  18.229  24.598  1.00  0.00    -0.027 A 
ATOM     23  C   UNL A   1      32.572  17.556  23.451  1.00  0.00     0.005 A 
ATOM     24  C   UNL A   1      32.213  18.251  22.302  1.00  0.00     0.000 A 
ATOM     25  C   UNL A   1      32.694  20.285  23.470  1.00  0.00     0.026 A 
ATOM     26  C   UNL A   1      32.231  19.629  22.331  1.00  0.00     0.002 A 
ENDBRANCH  15  20
ENDBRANCH  13  14
ENDBRANCH   9  13
ENDBRANCH   6   8
ENDBRANCH   5   6
ENDBRANCH   4   5
ENDBRANCH   3   4
ENDBRANCH   2   3
ENDBRANCH   1   2
BRANCH   1  27
ATOM     27  C   UNL A   1      38.423  19.804  25.189  1.00  0.00     0.188 C 
BRANCH  27  28
ATOM     28  O   UNL A   1      39.734  19.364  25.475  1.00  0.00    -0.376 OA
BRANCH  28  29
ATOM     29  C   UNL A   1      40.410  20.002  26.529  1.00  0.00     0.202 C 
BRANCH  29  30
ATOM     30  C   UNL A   1      41.872  20.234  26.153  1.00  0.00     0.261 C 
BRANCH  30  31
ATOM     31  O   UNL A   1      42.337  21.500  26.678  1.00  0.00    -0.460 OA
BRANCH  31  32
ATOM     32  C   UNL A   1      42.458  22.519  25.761  1.00  0.00     0.338 C 
ATOM     33  O   UNL A   1      42.988  22.370  24.671  1.00  0.00    -0.246 OA
BRANCH  32  34
ATOM     34  C   UNL A   1      41.775  23.753  26.259  1.00  0.00     0.060 A 
ATOM     35  C   UNL A   1      42.120  25.079  25.989  1.00  0.00     0.016 A 
ATOM     36  C   UNL A   1      40.807  23.577  27.193  1.00  0.00     0.016 A 
ATOM     37  C   UNL A   1      41.665  26.187  26.820  1.00  0.00     0.010 A 
ATOM     38  C   UNL A   1      40.499  24.646  28.039  1.00  0.00     0.010 A 
ATOM     39  C   UNL A   1      40.937  26.015  28.013  1.00  0.00    -0.014 A 
BRANCH  39  40
ATOM     40  C   UNL A   1      40.698  27.280  29.208  1.00  0.00     0.031 A 
ATOM     41  C   UNL A   1      39.615  28.662  29.298  1.00  0.00     0.074 A 
ATOM     42  C   UNL A   1      41.662  27.406  30.145  1.00  0.00     0.049 A 
ATOM     43  N   UNL A   1      39.954  29.938  29.159  1.00  0.00    -0.248 NA
ATOM     44  C   UNL A   1      38.097  28.679  29.434  1.00  0.00     0.031 C 
ATOM     45  C   UNL A   1      41.684  28.326  31.274  1.00  0.00     0.029 A 
ATOM     46  N   UNL A   1      42.928  26.827  30.150  1.00  0.00    -0.354 N 
ATOM     47  C   UNL A   1      38.765  30.709  29.243  1.00  0.00     0.074 A 
ATOM     48  C   UNL A   1      37.690  29.842  28.963  1.00  0.00     0.031 C 
ATOM     49  C   UNL A   1      42.954  28.450  31.693  1.00  0.00     0.029 A 
ATOM     50  C   UNL A   1      43.799  27.740  30.746  1.00  0.00     0.049 A 
ATOM     51  H   UNL A   1      43.165  25.940  29.798  1.00  0.00     0.167 HD
ATOM     52  C   UNL A   1      38.541  31.824  30.008  1.00  0.00     0.034 A 
ATOM     53  C   UNL A   1      44.868  28.241  30.062  1.00  0.00     0.034 A 
ATOM     54  C   UNL A   1      39.705  32.101  30.784  1.00  0.00     0.049 A 
ATOM     55  C   UNL A   1      44.867  29.753  30.023  1.00  0.00     0.074 A 
ATOM     56  C   UNL A   1      40.079  31.751  32.068  1.00  0.00     0.029 A 
ATOM     57  N   UNL A   1      40.836  32.482  30.109  1.00  0.00    -0.354 N 
ATOM     58  N   UNL A   1      43.823  30.482  30.312  1.00  0.00    -0.248 NA
ATOM     59  C   UNL A   1      46.026  30.569  29.677  1.00  0.00     0.031 C 
ATOM     60  C   UNL A   1      41.490  31.871  32.140  1.00  0.00     0.029 A 
ATOM     61  C   UNL A   1      41.935  32.346  30.920  1.00  0.00     0.049 A 
ATOM     62  H   UNL A   1      40.857  32.806  29.180  1.00  0.00     0.167 HD
ATOM     63  C   UNL A   1      44.133  31.808  30.189  1.00  0.00     0.074 A 
ATOM     64  C   UNL A   1      45.533  31.813  29.812  1.00  0.00     0.031 C 
ATOM     65  C   UNL A   1      43.201  32.784  30.389  1.00  0.00     0.034 A 
BRANCH  52  66
ATOM     66  C   UNL A   1      37.123  32.307  30.355  1.00  0.00     0.023 A 
ATOM     67  C   UNL A   1      36.370  33.077  29.446  1.00  0.00     0.031 A 
ATOM     68  C   UNL A   1      36.515  32.098  31.618  1.00  0.00     0.131 A 
ATOM     69  C   UNL A   1      35.158  33.692  29.833  1.00  0.00     0.055 A 
ATOM     70  C   UNL A   1      35.346  32.763  32.024  1.00  0.00     0.041 A 
ATOM     71  F   UNL A   1      37.086  31.294  32.531  1.00  0.00    -0.206 F 
ATOM     72  C   UNL A   1      34.667  33.580  31.132  1.00  0.00     0.022 A 
BRANCH  69  73
ATOM     73  S   UNL A   1      34.207  34.637  28.606  1.00  0.00     0.124 S 
ATOM     74  O   UNL A   1      32.834  34.255  28.917  1.00  0.00    -0.237 OA
ATOM     75  O   UNL A   1      34.582  36.012  28.916  1.00  0.00    -0.237 OA
ATOM     76  O   UNL A   1      34.710  34.139  27.325  1.00  0.00    -0.744 OA
ENDBRANCH  69  73
ENDBRANCH  52  66
BRANCH  53  77
ATOM     77  C   UNL A   1      45.464  27.309  29.047  1.00  0.00     0.023 A 
ATOM     78  C   UNL A   1      45.178  27.567  27.681  1.00  0.00     0.031 A 
ATOM     79  C   UNL A   1      46.503  26.409  29.321  1.00  0.00     0.131 A 
ATOM     80  C   UNL A   1      46.000  27.067  26.660  1.00  0.00     0.055 A 
ATOM     81  C   UNL A   1      47.279  25.847  28.291  1.00  0.00     0.041 A 
ATOM     82  F   UNL A   1      46.856  26.137  30.585  1.00  0.00    -0.206 F 
ATOM     83  C   UNL A   1      47.048  26.195  26.957  1.00  0.00     0.022 A 
BRANCH  80  84
ATOM     84  S   UNL A   1      45.873  27.770  24.981  1.00  0.00     0.124 S 
ATOM     85  O   UNL A   1      46.646  26.821  24.189  1.00  0.00    -0.237 OA
ATOM     86  O   UNL A   1      44.434  27.785  24.724  1.00  0.00    -0.237 OA
ATOM     87  O   UNL A   1      46.460  29.098  25.136  1.00  0.00    -0.744 OA
ENDBRANCH  80  84
ENDBRANCH  53  77
BRANCH  65  88
ATOM     88  C   UNL A   1      43.325  34.253  30.069  1.00  0.00     0.023 A 
ATOM     89  C   UNL A   1      43.159  34.763  28.783  1.00  0.00     0.031 A 
ATOM     90  C   UNL A   1      43.470  35.213  31.109  1.00  0.00     0.131 A 
ATOM     91  C   UNL A   1      43.201  36.147  28.553  1.00  0.00     0.055 A 
ATOM     92  C   UNL A   1      43.393  36.588  30.892  1.00  0.00     0.041 A 
ATOM     93  F   UNL A   1      43.674  34.854  32.387  1.00  0.00    -0.206 F 
ATOM     94  C   UNL A   1      43.275  37.066  29.600  1.00  0.00     0.022 A 
BRANCH  91  95
ATOM     95  S   UNL A   1      43.271  36.710  26.839  1.00  0.00     0.124 S 
ATOM     96  O   UNL A   1      42.433  37.906  26.884  1.00  0.00    -0.237 OA
ATOM     97  O   UNL A   1      44.698  36.940  26.641  1.00  0.00    -0.237 OA
ATOM     98  O   UNL A   1      42.709  35.589  26.087  1.00  0.00    -0.744 OA
ENDBRANCH  91  95
ENDBRANCH  65  88
ENDBRANCH  39  40
ENDBRANCH  32  34
ENDBRANCH  31  32
ENDBRANCH  30  31
ENDBRANCH  29  30
ENDBRANCH  28  29
ENDBRANCH  27  28
ENDBRANCH   1  27
TORSDOF 23
ENDMDL
MODEL 3
REMARK VINA RESULT:     -11.9      2.229      3.313
REMARK SMILES Cc1ccccc1NC(=O)NC[C@@H]1CC[C@@H](C(=O)OCCOCCOCCOC(=O)c2ccc(-c3c4nc(c(-c5cc(S(=O)(=O)[O-])ccc5F)c5ccc([nH]5)c(-c5cc(S(=O)(=O)[O-])ccc5F)c5nc(c(-c6cc(S(=O)(=O)[O-])ccc6F)c6ccc3[nH]6)C=C5)C=C4)cc2)O1
REMARK SMILES IDX 23 1 22 2 21 3 20 4 19 5 17 6 18 7 16 8 13 9 14 10 94 11
REMARK SMILES IDX 15 12 12 13 11 14 8 15 9 16 10 18 7 20 1 21 2 22 3 23 4 24
REMARK SMILES IDX 6 25 5 26 24 27 25 28 26 29 27 30 28 31 29 32 30 33 31 34
REMARK SMILES IDX 32 35 93 36 33 37 92 38 34 39 35 40 36 41 86 42 37 43 91 44
REMARK SMILES IDX 85 45 87 46 38 47 90 48 84 49 83 50 39 52 71 53 51 54 70 55
REMARK SMILES IDX 52 56 55 57 69 58 88 59 53 60 54 61 68 63 89 64 56 65 40 66
REMARK SMILES IDX 41 67 49 68 42 69 48 70 50 71 47 72 43 73 44 74 45 75 46 76
REMARK SMILES IDX 72 77 73 78 81 79 74 80 80 81 82 82 79 83 75 84 76 85 77 86
REMARK SMILES IDX 78 87 57 88 58 89 66 90 59 91 65 92 67 93 64 94 60 95 61 96
REMARK SMILES IDX 62 97 63 98
REMARK H PARENT 8 17 11 19 87 51 55 62
REMARK Flexibility Score: inf
ROOT
ATOM      1  C   UNL A   1      42.001  19.284  27.037  1.00  0.00     0.188 C 
ENDROOT
BRANCH   1   2
ATOM      2  O   UNL A   1      41.695  20.628  26.597  1.00  0.00    -0.376 OA
BRANCH   2   3
ATOM      3  C   UNL A   1      40.730  21.488  27.236  1.00  0.00     0.202 C 
BRANCH   3   4
ATOM      4  C   UNL A   1      39.404  22.006  26.471  1.00  0.00     0.261 C 
BRANCH   4   5
ATOM      5  O   UNL A   1      38.263  21.429  25.262  1.00  0.00    -0.461 OA
BRANCH   5   6
ATOM      6  C   UNL A   1      36.939  21.669  24.731  1.00  0.00     0.335 C 
ATOM      7  O   UNL A   1      36.623  22.234  23.682  1.00  0.00    -0.249 OA
BRANCH   6   8
ATOM      8  C   UNL A   1      35.678  21.267  25.485  1.00  0.00     0.228 C 
ATOM      9  C   UNL A   1      34.385  23.180  25.056  1.00  0.00     0.138 C 
ATOM     10  C   UNL A   1      33.647  21.980  24.488  1.00  0.00     0.037 C 
ATOM     11  O   UNL A   1      35.082  22.490  26.122  1.00  0.00    -0.361 OA
ATOM     12  C   UNL A   1      34.573  20.783  24.612  1.00  0.00     0.047 C 
BRANCH   9  13
ATOM     13  C   UNL A   1      33.516  24.413  25.500  1.00  0.00     0.149 C 
BRANCH  13  14
ATOM     14  N   UNL A   1      32.424  24.065  26.455  1.00  0.00    -0.335 N 
ATOM     15  N   UNL A   1      30.598  25.654  26.500  1.00  0.00    -0.308 N 
ATOM     16  C   UNL A   1      31.167  24.453  26.735  1.00  0.00     0.319 C 
ATOM     17  H   UNL A   1      29.616  25.614  26.561  1.00  0.00     0.171 HD
ATOM     18  O   UNL A   1      30.425  23.606  27.251  1.00  0.00    -0.249 OA
ATOM     19  H   UNL A   1      32.706  23.339  27.058  1.00  0.00     0.165 HD
BRANCH  15  20
ATOM     20  C   UNL A   1      31.052  26.946  26.192  1.00  0.00     0.045 A 
ATOM     21  C   UNL A   1      30.411  26.819  23.704  1.00  0.00     0.046 C 
ATOM     22  C   UNL A   1      31.104  27.448  24.880  1.00  0.00    -0.027 A 
ATOM     23  C   UNL A   1      31.734  28.692  24.642  1.00  0.00     0.005 A 
ATOM     24  C   UNL A   1      32.251  29.452  25.684  1.00  0.00     0.000 A 
ATOM     25  C   UNL A   1      31.405  27.808  27.206  1.00  0.00     0.026 A 
ATOM     26  C   UNL A   1      32.042  29.027  26.979  1.00  0.00     0.002 A 
ENDBRANCH  15  20
ENDBRANCH  13  14
ENDBRANCH   9  13
ENDBRANCH   6   8
ENDBRANCH   5   6
ENDBRANCH   4   5
ENDBRANCH   3   4
ENDBRANCH   2   3
ENDBRANCH   1   2
BRANCH   1  27
ATOM     27  C   UNL A   1      43.008  18.420  26.285  1.00  0.00     0.188 C 
BRANCH  27  28
ATOM     28  O   UNL A   1      43.590  19.199  25.261  1.00  0.00    -0.376 OA
BRANCH  28  29
ATOM     29  C   UNL A   1      44.930  18.930  24.932  1.00  0.00     0.202 C 
BRANCH  29  30
ATOM     30  C   UNL A   1      45.534  20.111  24.176  1.00  0.00     0.261 C 
BRANCH  30  31
ATOM     31  O   UNL A   1      44.522  21.106  23.895  1.00  0.00    -0.460 OA
BRANCH  31  32
ATOM     32  C   UNL A   1      44.866  22.407  24.184  1.00  0.00     0.338 C 
ATOM     33  O   UNL A   1      45.753  23.004  23.595  1.00  0.00    -0.246 OA
BRANCH  32  34
ATOM     34  C   UNL A   1      43.947  22.971  25.221  1.00  0.00     0.060 A 
ATOM     35  C   UNL A   1      42.905  23.881  25.024  1.00  0.00     0.016 A 
ATOM     36  C   UNL A   1      44.242  22.689  26.514  1.00  0.00     0.016 A 
ATOM     37  C   UNL A   1      42.342  24.668  26.114  1.00  0.00     0.010 A 
ATOM     38  C   UNL A   1      43.769  23.552  27.506  1.00  0.00     0.010 A 
ATOM     39  C   UNL A   1      42.859  24.662  27.423  1.00  0.00    -0.014 A 
BRANCH  39  40
ATOM     40  C   UNL A   1      42.446  25.852  28.647  1.00  0.00     0.031 A 
ATOM     41  C   UNL A   1      41.176  27.062  28.771  1.00  0.00     0.074 A 
ATOM     42  C   UNL A   1      43.388  26.095  29.584  1.00  0.00     0.049 A 
ATOM     43  N   UNL A   1      41.327  28.376  28.659  1.00  0.00    -0.248 NA
ATOM     44  C   UNL A   1      39.672  26.858  28.910  1.00  0.00     0.031 C 
ATOM     45  C   UNL A   1      43.283  26.984  30.733  1.00  0.00     0.029 A 
ATOM     46  N   UNL A   1      44.723  25.705  29.574  1.00  0.00    -0.354 N 
ATOM     47  C   UNL A   1      40.040  28.966  28.764  1.00  0.00     0.074 A 
ATOM     48  C   UNL A   1      39.100  27.960  28.467  1.00  0.00     0.031 C 
ATOM     49  C   UNL A   1      44.525  27.280  31.153  1.00  0.00     0.029 A 
ATOM     50  C   UNL A   1      45.458  26.720  30.187  1.00  0.00     0.049 A 
ATOM     51  H   UNL A   1      45.083  24.868  29.201  1.00  0.00     0.167 HD
ATOM     52  C   UNL A   1      39.663  30.021  29.553  1.00  0.00     0.034 A 
ATOM     53  C   UNL A   1      46.439  27.384  29.513  1.00  0.00     0.034 A 
ATOM     54  C   UNL A   1      40.779  30.445  30.333  1.00  0.00     0.049 A 
ATOM     55  C   UNL A   1      46.221  28.881  29.508  1.00  0.00     0.074 A 
ATOM     56  C   UNL A   1      41.206  30.124  31.608  1.00  0.00     0.029 A 
ATOM     57  N   UNL A   1      41.840  30.999  29.664  1.00  0.00    -0.354 N 
ATOM     58  N   UNL A   1      45.085  29.446  29.815  1.00  0.00    -0.248 NA
ATOM     59  C   UNL A   1      47.249  29.863  29.178  1.00  0.00     0.031 C 
ATOM     60  C   UNL A   1      42.586  30.445  31.680  1.00  0.00     0.029 A 
ATOM     61  C   UNL A   1      42.951  31.005  30.470  1.00  0.00     0.049 A 
ATOM     62  H   UNL A   1      41.809  31.344  28.742  1.00  0.00     0.167 HD
ATOM     63  C   UNL A   1      45.200  30.806  29.721  1.00  0.00     0.074 A 
ATOM     64  C   UNL A   1      46.582  31.020  29.341  1.00  0.00     0.031 C 
ATOM     65  C   UNL A   1      44.139  31.632  29.946  1.00  0.00     0.034 A 
BRANCH  52  66
ATOM     66  C   UNL A   1      38.192  30.286  29.915  1.00  0.00     0.023 A 
ATOM     67  C   UNL A   1      37.382  31.118  29.116  1.00  0.00     0.031 A 
ATOM     68  C   UNL A   1      37.579  29.802  31.097  1.00  0.00     0.131 A 
ATOM     69  C   UNL A   1      36.100  31.529  29.548  1.00  0.00     0.055 A 
ATOM     70  C   UNL A   1      36.334  30.262  31.558  1.00  0.00     0.041 A 
ATOM     71  F   UNL A   1      38.211  28.917  31.887  1.00  0.00    -0.206 F 
ATOM     72  C   UNL A   1      35.593  31.146  30.787  1.00  0.00     0.022 A 
BRANCH  69  73
ATOM     73  S   UNL A   1      35.083  32.567  28.456  1.00  0.00     0.124 S 
ATOM     74  O   UNL A   1      36.076  33.453  27.858  1.00  0.00    -0.237 OA
ATOM     75  O   UNL A   1      34.477  31.580  27.569  1.00  0.00    -0.237 OA
ATOM     76  O   UNL A   1      34.151  33.220  29.375  1.00  0.00    -0.744 OA
ENDBRANCH  69  73
ENDBRANCH  52  66
BRANCH  53  77
ATOM     77  C   UNL A   1      47.158  26.571  28.475  1.00  0.00     0.023 A 
ATOM     78  C   UNL A   1      46.888  26.867  27.115  1.00  0.00     0.031 A 
ATOM     79  C   UNL A   1      48.275  25.767  28.743  1.00  0.00     0.131 A 
ATOM     80  C   UNL A   1      47.787  26.506  26.100  1.00  0.00     0.055 A 
ATOM     81  C   UNL A   1      49.135  25.339  27.714  1.00  0.00     0.041 A 
ATOM     82  F   UNL A   1      48.617  25.468  30.004  1.00  0.00    -0.206 F 
ATOM     83  C   UNL A   1      48.908  25.730  26.391  1.00  0.00     0.022 A 
BRANCH  80  84
ATOM     84  S   UNL A   1      47.638  27.278  24.453  1.00  0.00     0.124 S 
ATOM     85  O   UNL A   1      48.772  28.195  24.438  1.00  0.00    -0.237 OA
ATOM     86  O   UNL A   1      47.727  26.144  23.534  1.00  0.00    -0.237 OA
ATOM     87  O   UNL A   1      46.317  27.898  24.500  1.00  0.00    -0.744 OA
ENDBRANCH  80  84
ENDBRANCH  53  77
BRANCH  65  88
ATOM     88  C   UNL A   1      44.048  33.110  29.659  1.00  0.00     0.023 A 
ATOM     89  C   UNL A   1      43.893  33.622  28.372  1.00  0.00     0.031 A 
ATOM     90  C   UNL A   1      43.964  34.053  30.721  1.00  0.00     0.131 A 
ATOM     91  C   UNL A   1      43.729  35.001  28.167  1.00  0.00     0.055 A 
ATOM     92  C   UNL A   1      43.684  35.404  30.520  1.00  0.00     0.041 A 
ATOM     93  F   UNL A   1      44.133  33.696  32.005  1.00  0.00    -0.206 F 
ATOM     94  C   UNL A   1      43.582  35.891  29.231  1.00  0.00     0.022 A 
BRANCH  91  95
ATOM     95  S   UNL A   1      43.829  35.614  26.471  1.00  0.00     0.124 S 
ATOM     96  O   UNL A   1      42.882  36.727  26.502  1.00  0.00    -0.237 OA
ATOM     97  O   UNL A   1      45.236  35.980  26.351  1.00  0.00    -0.237 OA
ATOM     98  O   UNL A   1      43.410  34.468  25.667  1.00  0.00    -0.744 OA
ENDBRANCH  91  95
ENDBRANCH  65  88
ENDBRANCH  39  40
ENDBRANCH  32  34
ENDBRANCH  31  32
ENDBRANCH  30  31
ENDBRANCH  29  30
ENDBRANCH  28  29
ENDBRANCH  27  28
ENDBRANCH   1  27
TORSDOF 23
ENDMDL
