MODEL 1
REMARK VINA RESULT:      -9.7      0.000      0.000
REMARK SMILES C#CCN(CC(=O)OCCOCCOCCOC(=O)c1ccc(-c2c3nc(c(-c4cc(S(=O)(=O)[O-])ccc4F)c4ccc([nH]4)c(-c4cc(S(=O)(=O)[O-])ccc4F)c4nc(c(-c5cc(S(=O)(=O)[O-])ccc5F)c5ccc2[nH]5)C=C4)C=C3)cc1)C(=O)CCc1ccc(Cl)cc1Cl
REMARK SMILES IDX 12 1 11 2 10 3 9 4 8 5 6 6 7 7 5 8 4 9 3 10 2 11 1 12 83 13
REMARK SMILES IDX 84 14 85 15 86 16 87 17 88 18 93 19 89 20 92 21 94 22 90 23
REMARK SMILES IDX 91 24 13 25 14 26 15 27 16 28 17 29 18 30 19 31 20 32 21 33
REMARK SMILES IDX 82 34 22 35 81 36 23 37 24 38 25 39 75 40 26 41 80 42 74 43
REMARK SMILES IDX 76 44 27 45 79 46 73 47 72 48 28 50 60 51 40 52 59 53 41 54
REMARK SMILES IDX 44 55 58 56 77 57 42 58 43 59 57 61 78 62 45 63 29 64 30 65
REMARK SMILES IDX 38 66 31 67 37 68 39 69 36 70 32 71 33 72 34 73 35 74 61 75
REMARK SMILES IDX 62 76 70 77 63 78 69 79 71 80 68 81 64 82 65 83 66 84 67 85
REMARK SMILES IDX 46 86 47 87 55 88 48 89 54 90 56 91 53 92 49 93 50 94 51 95
REMARK SMILES IDX 52 96
REMARK H PARENT 76 49 44 60
REMARK Flexibility Score: inf
ROOT
ATOM      1  C   UNL A   1      39.927  21.606  26.443  1.00  0.00     0.188 C 
ENDROOT
BRANCH   1   2
ATOM      2  O   UNL A   1      38.909  21.558  25.441  1.00  0.00    -0.376 OA
BRANCH   2   3
ATOM      3  C   UNL A   1      37.570  21.805  25.851  1.00  0.00     0.202 C 
BRANCH   3   4
ATOM      4  C   UNL A   1      36.854  22.909  25.073  1.00  0.00     0.261 C 
BRANCH   4   5
ATOM      5  O   UNL A   1      36.142  23.809  25.944  1.00  0.00    -0.462 OA
BRANCH   5   6
ATOM      6  C   UNL A   1      34.838  23.478  26.124  1.00  0.00     0.325 C 
ATOM      7  O   UNL A   1      34.409  22.936  27.139  1.00  0.00    -0.250 OA
BRANCH   6   8
ATOM      8  C   UNL A   1      33.910  24.113  25.087  1.00  0.00     0.243 C 
BRANCH   8   9
ATOM      9  N   UNL A   1      32.809  25.023  25.421  1.00  0.00    -0.320 N 
BRANCH   9  10
ATOM     10  C   UNL A   1      31.449  24.537  25.237  1.00  0.00     0.210 C 
BRANCH  10  11
ATOM     11  C   UNL A   1      31.423  23.019  25.311  1.00  0.00    -0.085 C 
ATOM     12  C   UNL A   1      31.401  21.717  25.374  1.00  0.00     0.006 C 
ENDBRANCH  10  11
ENDBRANCH   9  10
BRANCH   9  13
ATOM     13  C   UNL A   1      32.936  26.319  25.875  1.00  0.00     0.224 C 
ATOM     14  O   UNL A   1      32.149  26.781  26.707  1.00  0.00    -0.275 OA
BRANCH  13  15
ATOM     15  C   UNL A   1      34.066  27.198  25.369  1.00  0.00     0.105 C 
BRANCH  15  16
ATOM     16  C   UNL A   1      33.695  28.529  24.703  1.00  0.00     0.047 C 
BRANCH  16  17
ATOM     17  C   UNL A   1      32.306  28.597  24.113  1.00  0.00    -0.029 A 
ATOM     18  C   UNL A   1      31.392  29.512  24.666  1.00  0.00     0.007 A 
ATOM     19  C   UNL A   1      31.909  27.847  22.988  1.00  0.00     0.045 A 
ATOM     20  C   UNL A   1      30.158  29.740  24.055  1.00  0.00     0.021 A 
ATOM     21  C   UNL A   1      30.678  28.086  22.372  1.00  0.00     0.041 A 
ATOM     22  Cl  UNL A   1      32.945  26.688  22.241  1.00  0.00    -0.084 Cl
ATOM     23  C   UNL A   1      29.819  29.046  22.897  1.00  0.00     0.042 A 
ATOM     24  Cl  UNL A   1      28.353  29.419  22.080  1.00  0.00    -0.084 Cl
ENDBRANCH  16  17
ENDBRANCH  15  16
ENDBRANCH  13  15
ENDBRANCH   9  13
ENDBRANCH   8   9
ENDBRANCH   6   8
ENDBRANCH   5   6
ENDBRANCH   4   5
ENDBRANCH   3   4
ENDBRANCH   2   3
ENDBRANCH   1   2
BRANCH   1  25
ATOM     25  C   UNL A   1      41.090  20.607  26.349  1.00  0.00     0.188 C 
BRANCH  25  26
ATOM     26  O   UNL A   1      42.072  21.034  25.405  1.00  0.00    -0.376 OA
BRANCH  26  27
ATOM     27  C   UNL A   1      43.404  20.943  25.898  1.00  0.00     0.202 C 
BRANCH  27  28
ATOM     28  C   UNL A   1      44.193  22.180  25.482  1.00  0.00     0.261 C 
BRANCH  28  29
ATOM     29  O   UNL A   1      43.293  23.248  25.132  1.00  0.00    -0.460 OA
BRANCH  29  30
ATOM     30  C   UNL A   1      43.827  24.485  25.042  1.00  0.00     0.338 C 
ATOM     31  O   UNL A   1      44.773  24.827  24.359  1.00  0.00    -0.246 OA
BRANCH  30  32
ATOM     32  C   UNL A   1      43.118  25.378  25.981  1.00  0.00     0.060 A 
ATOM     33  C   UNL A   1      43.603  26.658  26.248  1.00  0.00     0.016 A 
ATOM     34  C   UNL A   1      42.015  24.889  26.680  1.00  0.00     0.016 A 
ATOM     35  C   UNL A   1      43.017  27.431  27.260  1.00  0.00     0.010 A 
ATOM     36  C   UNL A   1      41.414  25.674  27.672  1.00  0.00     0.010 A 
ATOM     37  C   UNL A   1      41.935  26.938  28.002  1.00  0.00    -0.014 A 
BRANCH  37  38
ATOM     38  C   UNL A   1      41.480  27.639  29.240  1.00  0.00     0.031 A 
ATOM     39  C   UNL A   1      40.173  28.393  29.200  1.00  0.00     0.074 A 
ATOM     40  C   UNL A   1      42.153  27.568  30.404  1.00  0.00     0.049 A 
ATOM     41  N   UNL A   1      39.661  29.221  30.072  1.00  0.00    -0.248 NA
ATOM     42  C   UNL A   1      39.336  28.175  28.010  1.00  0.00     0.031 C 
ATOM     43  C   UNL A   1      43.361  26.783  30.635  1.00  0.00     0.029 A 
ATOM     44  N   UNL A   1      41.906  28.162  31.621  1.00  0.00    -0.354 N 
ATOM     45  C   UNL A   1      38.457  29.651  29.525  1.00  0.00     0.074 A 
ATOM     46  C   UNL A   1      38.324  28.997  28.239  1.00  0.00     0.031 C 
ATOM     47  C   UNL A   1      43.735  26.922  31.919  1.00  0.00     0.029 A 
ATOM     48  C   UNL A   1      42.848  27.873  32.584  1.00  0.00     0.049 A 
ATOM     49  H   UNL A   1      41.127  28.741  31.788  1.00  0.00     0.167 HD
ATOM     50  C   UNL A   1      37.547  30.515  30.040  1.00  0.00     0.034 A 
ATOM     51  C   UNL A   1      43.003  28.354  33.837  1.00  0.00     0.034 A 
ATOM     52  C   UNL A   1      37.680  31.161  31.321  1.00  0.00     0.049 A 
ATOM     53  C   UNL A   1      42.044  29.412  34.343  1.00  0.00     0.074 A 
ATOM     54  C   UNL A   1      36.864  32.120  31.896  1.00  0.00     0.029 A 
ATOM     55  N   UNL A   1      38.690  30.904  32.238  1.00  0.00    -0.354 N 
ATOM     56  N   UNL A   1      40.978  29.913  33.761  1.00  0.00    -0.248 NA
ATOM     57  C   UNL A   1      42.325  29.985  35.667  1.00  0.00     0.031 C 
ATOM     58  C   UNL A   1      37.404  32.474  33.139  1.00  0.00     0.029 A 
ATOM     59  C   UNL A   1      38.523  31.690  33.367  1.00  0.00     0.049 A 
ATOM     60  H   UNL A   1      39.420  30.256  32.105  1.00  0.00     0.167 HD
ATOM     61  C   UNL A   1      40.456  30.841  34.661  1.00  0.00     0.074 A 
ATOM     62  C   UNL A   1      41.304  30.811  35.832  1.00  0.00     0.031 C 
ATOM     63  C   UNL A   1      39.376  31.652  34.530  1.00  0.00     0.034 A 
BRANCH  50  64
ATOM     64  C   UNL A   1      36.369  30.863  29.167  1.00  0.00     0.023 A 
ATOM     65  C   UNL A   1      35.842  32.165  29.119  1.00  0.00     0.031 A 
ATOM     66  C   UNL A   1      35.733  29.861  28.413  1.00  0.00     0.131 A 
ATOM     67  C   UNL A   1      34.673  32.416  28.383  1.00  0.00     0.055 A 
ATOM     68  C   UNL A   1      34.614  30.134  27.626  1.00  0.00     0.041 A 
ATOM     69  F   UNL A   1      36.180  28.596  28.443  1.00  0.00    -0.206 F 
ATOM     70  C   UNL A   1      34.069  31.415  27.619  1.00  0.00     0.022 A 
BRANCH  67  71
ATOM     71  S   UNL A   1      33.878  34.038  28.544  1.00  0.00     0.124 S 
ATOM     72  O   UNL A   1      33.677  34.126  29.988  1.00  0.00    -0.237 OA
ATOM     73  O   UNL A   1      34.877  34.938  27.980  1.00  0.00    -0.237 OA
ATOM     74  O   UNL A   1      32.652  33.897  27.759  1.00  0.00    -0.744 OA
ENDBRANCH  67  71
ENDBRANCH  50  64
BRANCH  51  75
ATOM     75  C   UNL A   1      44.154  27.932  34.695  1.00  0.00     0.023 A 
ATOM     76  C   UNL A   1      45.380  28.616  34.649  1.00  0.00     0.031 A 
ATOM     77  C   UNL A   1      44.082  26.769  35.483  1.00  0.00     0.131 A 
ATOM     78  C   UNL A   1      46.498  28.098  35.325  1.00  0.00     0.055 A 
ATOM     79  C   UNL A   1      45.178  26.296  36.207  1.00  0.00     0.041 A 
ATOM     80  F   UNL A   1      42.943  26.061  35.551  1.00  0.00    -0.206 F 
ATOM     81  C   UNL A   1      46.401  26.952  36.115  1.00  0.00     0.022 A 
BRANCH  78  82
ATOM     82  S   UNL A   1      48.118  28.870  35.048  1.00  0.00     0.124 S 
ATOM     83  O   UNL A   1      48.302  28.668  33.615  1.00  0.00    -0.237 OA
ATOM     84  O   UNL A   1      47.876  30.243  35.476  1.00  0.00    -0.237 OA
ATOM     85  O   UNL A   1      49.014  28.099  35.907  1.00  0.00    -0.744 OA
ENDBRANCH  78  82
ENDBRANCH  51  75
BRANCH  63  86
ATOM     86  C   UNL A   1      39.029  32.531  35.707  1.00  0.00     0.023 A 
ATOM     87  C   UNL A   1      39.534  33.837  35.832  1.00  0.00     0.031 A 
ATOM     88  C   UNL A   1      38.195  32.044  36.730  1.00  0.00     0.131 A 
ATOM     89  C   UNL A   1      39.248  34.592  36.981  1.00  0.00     0.055 A 
ATOM     90  C   UNL A   1      37.871  32.817  37.846  1.00  0.00     0.041 A 
ATOM     91  F   UNL A   1      37.683  30.804  36.662  1.00  0.00    -0.206 F 
ATOM     92  C   UNL A   1      38.409  34.094  37.982  1.00  0.00     0.022 A 
BRANCH  89  93
ATOM     93  S   UNL A   1      40.055  36.203  37.192  1.00  0.00     0.124 S 
ATOM     94  O   UNL A   1      41.415  35.818  37.556  1.00  0.00    -0.237 OA
ATOM     95  O   UNL A   1      39.895  36.806  35.873  1.00  0.00    -0.237 OA
ATOM     96  O   UNL A   1      39.284  36.837  38.260  1.00  0.00    -0.744 OA
ENDBRANCH  89  93
ENDBRANCH  63  86
ENDBRANCH  37  38
ENDBRANCH  30  32
ENDBRANCH  29  30
ENDBRANCH  28  29
ENDBRANCH  27  28
ENDBRANCH  26  27
ENDBRANCH  25  26
ENDBRANCH   1  25
TORSDOF 27
ENDMDL
MODEL 2
REMARK VINA RESULT:      -9.4      5.587      9.723
REMARK SMILES C#CCN(CC(=O)OCCOCCOCCOC(=O)c1ccc(-c2c3nc(c(-c4cc(S(=O)(=O)[O-])ccc4F)c4ccc([nH]4)c(-c4cc(S(=O)(=O)[O-])ccc4F)c4nc(c(-c5cc(S(=O)(=O)[O-])ccc5F)c5ccc2[nH]5)C=C4)C=C3)cc1)C(=O)CCc1ccc(Cl)cc1Cl
REMARK SMILES IDX 12 1 11 2 10 3 9 4 8 5 6 6 7 7 5 8 4 9 3 10 2 11 1 12 83 13
REMARK SMILES IDX 84 14 85 15 86 16 87 17 88 18 93 19 89 20 92 21 94 22 90 23
REMARK SMILES IDX 91 24 13 25 14 26 15 27 16 28 17 29 18 30 19 31 20 32 21 33
REMARK SMILES IDX 82 34 22 35 81 36 23 37 24 38 25 39 75 40 26 41 80 42 74 43
REMARK SMILES IDX 76 44 27 45 79 46 73 47 72 48 28 50 60 51 40 52 59 53 41 54
REMARK SMILES IDX 44 55 58 56 77 57 42 58 43 59 57 61 78 62 45 63 29 64 30 65
REMARK SMILES IDX 38 66 31 67 37 68 39 69 36 70 32 71 33 72 34 73 35 74 61 75
REMARK SMILES IDX 62 76 70 77 63 78 69 79 71 80 68 81 64 82 65 83 66 84 67 85
REMARK SMILES IDX 46 86 47 87 55 88 48 89 54 90 56 91 53 92 49 93 50 94 51 95
REMARK SMILES IDX 52 96
REMARK H PARENT 76 49 44 60
REMARK Flexibility Score: inf
ROOT
ATOM      1  C   UNL A   1      40.648  22.564  27.493  1.00  0.00     0.188 C 
ENDROOT
BRANCH   1   2
ATOM      2  O   UNL A   1      39.799  23.511  26.841  1.00  0.00    -0.376 OA
BRANCH   2   3
ATOM      3  C   UNL A   1      38.455  23.122  26.585  1.00  0.00     0.202 C 
BRANCH   3   4
ATOM      4  C   UNL A   1      38.255  22.317  25.300  1.00  0.00     0.261 C 
BRANCH   4   5
ATOM      5  O   UNL A   1      37.024  22.661  24.634  1.00  0.00    -0.462 OA
BRANCH   5   6
ATOM      6  C   UNL A   1      36.023  21.769  24.841  1.00  0.00     0.325 C 
ATOM      7  O   UNL A   1      36.208  20.570  25.028  1.00  0.00    -0.250 OA
BRANCH   6   8
ATOM      8  C   UNL A   1      34.676  22.437  25.124  1.00  0.00     0.243 C 
BRANCH   8   9
ATOM      9  N   UNL A   1      33.708  22.805  24.085  1.00  0.00    -0.320 N 
BRANCH   9  10
ATOM     10  C   UNL A   1      32.443  22.086  24.052  1.00  0.00     0.210 C 
BRANCH  10  11
ATOM     11  C   UNL A   1      32.590  20.740  24.742  1.00  0.00    -0.085 C 
ATOM     12  C   UNL A   1      32.716  19.584  25.333  1.00  0.00     0.006 C 
ENDBRANCH  10  11
ENDBRANCH   9  10
BRANCH   9  13
ATOM     13  C   UNL A   1      33.891  23.760  23.107  1.00  0.00     0.224 C 
ATOM     14  O   UNL A   1      34.158  23.437  21.945  1.00  0.00    -0.275 OA
BRANCH  13  15
ATOM     15  C   UNL A   1      33.745  25.233  23.442  1.00  0.00     0.105 C 
BRANCH  15  16
ATOM     16  C   UNL A   1      32.608  25.644  24.387  1.00  0.00     0.047 C 
BRANCH  16  17
ATOM     17  C   UNL A   1      31.939  26.960  24.064  1.00  0.00    -0.029 A 
ATOM     18  C   UNL A   1      31.194  27.054  22.875  1.00  0.00     0.007 A 
ATOM     19  C   UNL A   1      31.959  28.069  24.934  1.00  0.00     0.045 A 
ATOM     20  C   UNL A   1      30.416  28.183  22.612  1.00  0.00     0.021 A 
ATOM     21  C   UNL A   1      31.171  29.192  24.674  1.00  0.00     0.041 A 
ATOM     22  Cl  UNL A   1      32.851  28.065  26.410  1.00  0.00    -0.084 Cl
ATOM     23  C   UNL A   1      30.388  29.234  23.524  1.00  0.00     0.042 A 
ATOM     24  Cl  UNL A   1      29.334  30.566  23.256  1.00  0.00    -0.084 Cl
ENDBRANCH  16  17
ENDBRANCH  15  16
ENDBRANCH  13  15
ENDBRANCH   9  13
ENDBRANCH   8   9
ENDBRANCH   6   8
ENDBRANCH   5   6
ENDBRANCH   4   5
ENDBRANCH   3   4
ENDBRANCH   2   3
ENDBRANCH   1   2
BRANCH   1  25
ATOM     25  C   UNL A   1      41.274  21.445  26.648  1.00  0.00     0.188 C 
BRANCH  25  26
ATOM     26  O   UNL A   1      40.555  20.220  26.786  1.00  0.00    -0.376 OA
BRANCH  26  27
ATOM     27  C   UNL A   1      41.145  19.136  26.078  1.00  0.00     0.202 C 
BRANCH  27  28
ATOM     28  C   UNL A   1      42.661  19.304  26.047  1.00  0.00     0.261 C 
BRANCH  28  29
ATOM     29  O   UNL A   1      43.092  19.666  24.721  1.00  0.00    -0.460 OA
BRANCH  29  30
ATOM     30  C   UNL A   1      44.424  19.703  24.507  1.00  0.00     0.338 C 
ATOM     31  O   UNL A   1      45.145  18.772  24.198  1.00  0.00    -0.246 OA
BRANCH  30  32
ATOM     32  C   UNL A   1      44.912  21.069  24.785  1.00  0.00     0.060 A 
ATOM     33  C   UNL A   1      45.479  21.385  26.020  1.00  0.00     0.016 A 
ATOM     34  C   UNL A   1      44.703  22.070  23.837  1.00  0.00     0.016 A 
ATOM     35  C   UNL A   1      45.786  22.718  26.329  1.00  0.00     0.010 A 
ATOM     36  C   UNL A   1      45.037  23.396  24.136  1.00  0.00     0.010 A 
ATOM     37  C   UNL A   1      45.543  23.742  25.403  1.00  0.00    -0.014 A 
BRANCH  37  38
ATOM     38  C   UNL A   1      45.621  25.174  25.816  1.00  0.00     0.031 A 
ATOM     39  C   UNL A   1      46.948  25.882  25.706  1.00  0.00     0.074 A 
ATOM     40  C   UNL A   1      44.543  25.875  26.218  1.00  0.00     0.049 A 
ATOM     41  N   UNL A   1      47.311  27.052  26.166  1.00  0.00    -0.248 NA
ATOM     42  C   UNL A   1      48.005  25.169  24.972  1.00  0.00     0.031 C 
ATOM     43  C   UNL A   1      43.175  25.368  26.262  1.00  0.00     0.029 A 
ATOM     44  N   UNL A   1      44.430  27.174  26.657  1.00  0.00    -0.354 N 
ATOM     45  C   UNL A   1      48.647  27.202  25.809  1.00  0.00     0.074 A 
ATOM     46  C   UNL A   1      49.029  25.997  25.102  1.00  0.00     0.031 C 
ATOM     47  C   UNL A   1      42.356  26.351  26.677  1.00  0.00     0.029 A 
ATOM     48  C   UNL A   1      43.148  27.532  27.014  1.00  0.00     0.049 A 
ATOM     49  H   UNL A   1      45.195  27.791  26.713  1.00  0.00     0.167 HD
ATOM     50  C   UNL A   1      49.481  28.243  26.051  1.00  0.00     0.034 A 
ATOM     51  C   UNL A   1      42.676  28.661  27.588  1.00  0.00     0.034 A 
ATOM     52  C   UNL A   1      49.097  29.443  26.751  1.00  0.00     0.049 A 
ATOM     53  C   UNL A   1      43.650  29.758  27.963  1.00  0.00     0.074 A 
ATOM     54  C   UNL A   1      49.887  30.516  27.128  1.00  0.00     0.029 A 
ATOM     55  N   UNL A   1      47.807  29.737  27.169  1.00  0.00    -0.354 N 
ATOM     56  N   UNL A   1      44.943  29.833  27.739  1.00  0.00    -0.248 NA
ATOM     57  C   UNL A   1      43.103  30.914  28.688  1.00  0.00     0.031 C 
ATOM     58  C   UNL A   1      49.083  31.437  27.812  1.00  0.00     0.029 A 
ATOM     59  C   UNL A   1      47.780  30.968  27.806  1.00  0.00     0.049 A 
ATOM     60  H   UNL A   1      47.023  29.156  27.032  1.00  0.00     0.167 HD
ATOM     61  C   UNL A   1      45.351  31.052  28.278  1.00  0.00     0.074 A 
ATOM     62  C   UNL A   1      44.167  31.691  28.812  1.00  0.00     0.031 C 
ATOM     63  C   UNL A   1      46.593  31.595  28.335  1.00  0.00     0.034 A 
BRANCH  50  64
ATOM     64  C   UNL A   1      50.915  28.080  25.617  1.00  0.00     0.023 A 
ATOM     65  C   UNL A   1      51.340  28.421  24.321  1.00  0.00     0.031 A 
ATOM     66  C   UNL A   1      51.859  27.526  26.500  1.00  0.00     0.131 A 
ATOM     67  C   UNL A   1      52.658  28.144  23.925  1.00  0.00     0.055 A 
ATOM     68  C   UNL A   1      53.186  27.320  26.122  1.00  0.00     0.041 A 
ATOM     69  F   UNL A   1      51.500  27.160  27.740  1.00  0.00    -0.206 F 
ATOM     70  C   UNL A   1      53.589  27.617  24.823  1.00  0.00     0.022 A 
BRANCH  67  71
ATOM     71  S   UNL A   1      53.103  28.359  22.180  1.00  0.00     0.124 S 
ATOM     72  O   UNL A   1      53.786  29.649  22.207  1.00  0.00    -0.237 OA
ATOM     73  O   UNL A   1      53.944  27.195  21.922  1.00  0.00    -0.237 OA
ATOM     74  O   UNL A   1      51.812  28.359  21.494  1.00  0.00    -0.744 OA
ENDBRANCH  67  71
ENDBRANCH  50  64
BRANCH  51  75
ATOM     75  C   UNL A   1      41.230  28.806  27.945  1.00  0.00     0.023 A 
ATOM     76  C   UNL A   1      40.789  28.632  29.268  1.00  0.00     0.031 A 
ATOM     77  C   UNL A   1      40.255  29.003  26.950  1.00  0.00     0.131 A 
ATOM     78  C   UNL A   1      39.413  28.595  29.550  1.00  0.00     0.055 A 
ATOM     79  C   UNL A   1      38.891  29.033  27.246  1.00  0.00     0.041 A 
ATOM     80  F   UNL A   1      40.613  29.155  25.665  1.00  0.00    -0.206 F 
ATOM     81  C   UNL A   1      38.462  28.810  28.551  1.00  0.00     0.022 A 
BRANCH  78  82
ATOM     82  S   UNL A   1      38.878  28.128  31.221  1.00  0.00     0.124 S 
ATOM     83  O   UNL A   1      40.085  28.381  32.000  1.00  0.00    -0.237 OA
ATOM     84  O   UNL A   1      37.764  29.042  31.447  1.00  0.00    -0.237 OA
ATOM     85  O   UNL A   1      38.510  26.721  31.080  1.00  0.00    -0.744 OA
ENDBRANCH  78  82
ENDBRANCH  51  75
BRANCH  63  86
ATOM     86  C   UNL A   1      46.717  32.967  28.951  1.00  0.00     0.023 A 
ATOM     87  C   UNL A   1      46.624  34.139  28.178  1.00  0.00     0.031 A 
ATOM     88  C   UNL A   1      46.952  33.103  30.332  1.00  0.00     0.131 A 
ATOM     89  C   UNL A   1      46.822  35.392  28.779  1.00  0.00     0.055 A 
ATOM     90  C   UNL A   1      47.097  34.354  30.933  1.00  0.00     0.041 A 
ATOM     91  F   UNL A   1      47.049  32.019  31.118  1.00  0.00    -0.206 F 
ATOM     92  C   UNL A   1      47.045  35.507  30.154  1.00  0.00     0.022 A 
BRANCH  89  93
ATOM     93  S   UNL A   1      46.869  36.868  27.726  1.00  0.00     0.124 S 
ATOM     94  O   UNL A   1      45.845  37.711  28.337  1.00  0.00    -0.237 OA
ATOM     95  O   UNL A   1      48.246  37.322  27.887  1.00  0.00    -0.237 OA
ATOM     96  O   UNL A   1      46.537  36.355  26.398  1.00  0.00    -0.744 OA
ENDBRANCH  89  93
ENDBRANCH  63  86
ENDBRANCH  37  38
ENDBRANCH  30  32
ENDBRANCH  29  30
ENDBRANCH  28  29
ENDBRANCH  27  28
ENDBRANCH  26  27
ENDBRANCH  25  26
ENDBRANCH   1  25
TORSDOF 27
ENDMDL
MODEL 3
REMARK VINA RESULT:      -9.3      1.790      7.649
REMARK SMILES C#CCN(CC(=O)OCCOCCOCCOC(=O)c1ccc(-c2c3nc(c(-c4cc(S(=O)(=O)[O-])ccc4F)c4ccc([nH]4)c(-c4cc(S(=O)(=O)[O-])ccc4F)c4nc(c(-c5cc(S(=O)(=O)[O-])ccc5F)c5ccc2[nH]5)C=C4)C=C3)cc1)C(=O)CCc1ccc(Cl)cc1Cl
REMARK SMILES IDX 12 1 11 2 10 3 9 4 8 5 6 6 7 7 5 8 4 9 3 10 2 11 1 12 83 13
REMARK SMILES IDX 84 14 85 15 86 16 87 17 88 18 93 19 89 20 92 21 94 22 90 23
REMARK SMILES IDX 91 24 13 25 14 26 15 27 16 28 17 29 18 30 19 31 20 32 21 33
REMARK SMILES IDX 82 34 22 35 81 36 23 37 24 38 25 39 75 40 26 41 80 42 74 43
REMARK SMILES IDX 76 44 27 45 79 46 73 47 72 48 28 50 60 51 40 52 59 53 41 54
REMARK SMILES IDX 44 55 58 56 77 57 42 58 43 59 57 61 78 62 45 63 29 64 30 65
REMARK SMILES IDX 38 66 31 67 37 68 39 69 36 70 32 71 33 72 34 73 35 74 61 75
REMARK SMILES IDX 62 76 70 77 63 78 69 79 71 80 68 81 64 82 65 83 66 84 67 85
REMARK SMILES IDX 46 86 47 87 55 88 48 89 54 90 56 91 53 92 49 93 50 94 51 95
REMARK SMILES IDX 52 96
REMARK H PARENT 76 49 44 60
REMARK Flexibility Score: inf
ROOT
ATOM      1  C   UNL A   1      40.991  20.471  26.516  1.00  0.00     0.188 C 
ENDROOT
BRANCH   1   2
ATOM      2  O   UNL A   1      39.878  20.413  25.621  1.00  0.00    -0.376 OA
BRANCH   2   3
ATOM      3  C   UNL A   1      38.635  20.923  26.084  1.00  0.00     0.202 C 
BRANCH   3   4
ATOM      4  C   UNL A   1      38.194  22.232  25.428  1.00  0.00     0.261 C 
BRANCH   4   5
ATOM      5  O   UNL A   1      36.986  22.070  24.658  1.00  0.00    -0.462 OA
BRANCH   5   6
ATOM      6  C   UNL A   1      36.088  23.072  24.833  1.00  0.00     0.325 C 
ATOM      7  O   UNL A   1      36.116  24.126  24.205  1.00  0.00    -0.250 OA
BRANCH   6   8
ATOM      8  C   UNL A   1      34.870  22.647  25.655  1.00  0.00     0.243 C 
BRANCH   8   9
ATOM      9  N   UNL A   1      33.506  22.569  25.120  1.00  0.00    -0.320 N 
BRANCH   9  10
ATOM     10  C   UNL A   1      33.331  22.003  23.791  1.00  0.00     0.210 C 
BRANCH  10  11
ATOM     11  C   UNL A   1      33.169  23.116  22.768  1.00  0.00    -0.085 C 
ATOM     12  C   UNL A   1      33.029  24.070  21.891  1.00  0.00     0.006 C 
ENDBRANCH  10  11
ENDBRANCH   9  10
BRANCH   9  13
ATOM     13  C   UNL A   1      32.360  23.007  25.751  1.00  0.00     0.224 C 
ATOM     14  O   UNL A   1      31.393  22.254  25.907  1.00  0.00    -0.275 OA
BRANCH  13  15
ATOM     15  C   UNL A   1      32.277  24.426  26.284  1.00  0.00     0.105 C 
BRANCH  15  16
ATOM     16  C   UNL A   1      33.065  25.516  25.547  1.00  0.00     0.047 C 
BRANCH  16  17
ATOM     17  C   UNL A   1      32.546  26.924  25.723  1.00  0.00    -0.029 A 
ATOM     18  C   UNL A   1      32.156  27.333  27.010  1.00  0.00     0.007 A 
ATOM     19  C   UNL A   1      32.510  27.869  24.678  1.00  0.00     0.045 A 
ATOM     20  C   UNL A   1      31.834  28.667  27.264  1.00  0.00     0.021 A 
ATOM     21  C   UNL A   1      32.199  29.206  24.937  1.00  0.00     0.041 A 
ATOM     22  Cl  UNL A   1      32.954  27.470  23.059  1.00  0.00    -0.084 Cl
ATOM     23  C   UNL A   1      31.883  29.601  26.233  1.00  0.00     0.042 A 
ATOM     24  Cl  UNL A   1      31.606  31.263  26.575  1.00  0.00    -0.084 Cl
ENDBRANCH  16  17
ENDBRANCH  15  16
ENDBRANCH  13  15
ENDBRANCH   9  13
ENDBRANCH   8   9
ENDBRANCH   6   8
ENDBRANCH   5   6
ENDBRANCH   4   5
ENDBRANCH   3   4
ENDBRANCH   2   3
ENDBRANCH   1   2
BRANCH   1  25
ATOM     25  C   UNL A   1      41.849  21.746  26.529  1.00  0.00     0.188 C 
BRANCH  25  26
ATOM     26  O   UNL A   1      42.332  22.065  25.224  1.00  0.00    -0.376 OA
BRANCH  26  27
ATOM     27  C   UNL A   1      43.750  22.011  25.120  1.00  0.00     0.202 C 
BRANCH  27  28
ATOM     28  C   UNL A   1      44.226  22.982  24.044  1.00  0.00     0.261 C 
BRANCH  28  29
ATOM     29  O   UNL A   1      45.217  23.876  24.587  1.00  0.00    -0.460 OA
BRANCH  29  30
ATOM     30  C   UNL A   1      45.460  23.777  25.911  1.00  0.00     0.338 C 
ATOM     31  O   UNL A   1      46.227  23.009  26.461  1.00  0.00    -0.246 OA
BRANCH  30  32
ATOM     32  C   UNL A   1      44.575  24.718  26.628  1.00  0.00     0.060 A 
ATOM     33  C   UNL A   1      44.520  26.062  26.260  1.00  0.00     0.016 A 
ATOM     34  C   UNL A   1      43.875  24.271  27.748  1.00  0.00     0.016 A 
ATOM     35  C   UNL A   1      43.806  26.975  27.050  1.00  0.00     0.010 A 
ATOM     36  C   UNL A   1      43.139  25.179  28.519  1.00  0.00     0.010 A 
ATOM     37  C   UNL A   1      43.130  26.550  28.202  1.00  0.00    -0.014 A 
BRANCH  37  38
ATOM     38  C   UNL A   1      42.593  27.543  29.179  1.00  0.00     0.031 A 
ATOM     39  C   UNL A   1      43.407  27.852  30.411  1.00  0.00     0.074 A 
ATOM     40  C   UNL A   1      41.448  28.221  28.970  1.00  0.00     0.049 A 
ATOM     41  N   UNL A   1      43.077  28.528  31.481  1.00  0.00    -0.248 NA
ATOM     42  C   UNL A   1      44.779  27.324  30.430  1.00  0.00     0.031 C 
ATOM     43  C   UNL A   1      40.615  28.125  27.776  1.00  0.00     0.029 A 
ATOM     44  N   UNL A   1      40.793  29.139  29.758  1.00  0.00    -0.354 N 
ATOM     45  C   UNL A   1      44.187  28.480  32.317  1.00  0.00     0.074 A 
ATOM     46  C   UNL A   1      45.195  27.699  31.630  1.00  0.00     0.031 C 
ATOM     47  C   UNL A   1      39.575  28.968  27.897  1.00  0.00     0.029 A 
ATOM     48  C   UNL A   1      39.615  29.602  29.213  1.00  0.00     0.049 A 
ATOM     49  H   UNL A   1      41.133  29.437  30.633  1.00  0.00     0.167 HD
ATOM     50  C   UNL A   1      44.353  29.030  33.546  1.00  0.00     0.034 A 
ATOM     51  C   UNL A   1      38.660  30.404  29.732  1.00  0.00     0.034 A 
ATOM     52  C   UNL A   1      43.350  29.811  34.225  1.00  0.00     0.049 A 
ATOM     53  C   UNL A   1      38.810  30.903  31.153  1.00  0.00     0.074 A 
ATOM     54  C   UNL A   1      43.381  30.335  35.506  1.00  0.00     0.029 A 
ATOM     55  N   UNL A   1      42.135  30.193  33.673  1.00  0.00    -0.354 N 
ATOM     56  N   UNL A   1      39.811  30.741  31.989  1.00  0.00    -0.248 NA
ATOM     57  C   UNL A   1      37.690  31.677  31.708  1.00  0.00     0.031 C 
ATOM     58  C   UNL A   1      42.169  30.996  35.743  1.00  0.00     0.029 A 
ATOM     59  C   UNL A   1      41.407  30.938  34.588  1.00  0.00     0.049 A 
ATOM     60  H   UNL A   1      41.834  29.969  32.762  1.00  0.00     0.167 HD
ATOM     61  C   UNL A   1      39.444  31.410  33.156  1.00  0.00     0.074 A 
ATOM     62  C   UNL A   1      38.146  32.001  32.908  1.00  0.00     0.031 C 
ATOM     63  C   UNL A   1      40.114  31.522  34.330  1.00  0.00     0.034 A 
BRANCH  50  64
ATOM     64  C   UNL A   1      45.647  28.729  34.257  1.00  0.00     0.023 A 
ATOM     65  C   UNL A   1      45.801  27.589  35.064  1.00  0.00     0.031 A 
ATOM     66  C   UNL A   1      46.725  29.627  34.165  1.00  0.00     0.131 A 
ATOM     67  C   UNL A   1      46.983  27.411  35.799  1.00  0.00     0.055 A 
ATOM     68  C   UNL A   1      47.924  29.407  34.842  1.00  0.00     0.041 A 
ATOM     69  F   UNL A   1      46.621  30.745  33.429  1.00  0.00    -0.206 F 
ATOM     70  C   UNL A   1      48.054  28.300  35.676  1.00  0.00     0.022 A 
BRANCH  67  71
ATOM     71  S   UNL A   1      47.054  26.072  37.020  1.00  0.00     0.124 S 
ATOM     72  O   UNL A   1      45.739  25.456  36.858  1.00  0.00    -0.237 OA
ATOM     73  O   UNL A   1      48.191  25.283  36.560  1.00  0.00    -0.237 OA
ATOM     74  O   UNL A   1      47.253  26.774  38.287  1.00  0.00    -0.744 OA
ENDBRANCH  67  71
ENDBRANCH  50  64
BRANCH  51  75
ATOM     75  C   UNL A   1      37.417  30.730  28.965  1.00  0.00     0.023 A 
ATOM     76  C   UNL A   1      36.961  32.055  28.853  1.00  0.00     0.031 A 
ATOM     77  C   UNL A   1      36.604  29.711  28.435  1.00  0.00     0.131 A 
ATOM     78  C   UNL A   1      35.703  32.318  28.285  1.00  0.00     0.055 A 
ATOM     79  C   UNL A   1      35.386  29.985  27.810  1.00  0.00     0.041 A 
ATOM     80  F   UNL A   1      36.977  28.424  28.529  1.00  0.00    -0.206 F 
ATOM     81  C   UNL A   1      34.920  31.294  27.749  1.00  0.00     0.022 A 
BRANCH  78  82
ATOM     82  S   UNL A   1      35.042  34.007  28.376  1.00  0.00     0.124 S 
ATOM     83  O   UNL A   1      33.698  33.772  28.893  1.00  0.00    -0.237 OA
ATOM     84  O   UNL A   1      35.979  34.648  29.292  1.00  0.00    -0.237 OA
ATOM     85  O   UNL A   1      35.106  34.473  26.993  1.00  0.00    -0.744 OA
ENDBRANCH  78  82
ENDBRANCH  51  75
BRANCH  63  86
ATOM     86  C   UNL A   1      39.472  32.357  35.412  1.00  0.00     0.023 A 
ATOM     87  C   UNL A   1      39.863  33.687  35.652  1.00  0.00     0.031 A 
ATOM     88  C   UNL A   1      38.467  31.806  36.227  1.00  0.00     0.131 A 
ATOM     89  C   UNL A   1      39.294  34.402  36.717  1.00  0.00     0.055 A 
ATOM     90  C   UNL A   1      37.867  32.539  37.252  1.00  0.00     0.041 A 
ATOM     91  F   UNL A   1      38.053  30.542  36.041  1.00  0.00    -0.206 F 
ATOM     92  C   UNL A   1      38.289  33.841  37.511  1.00  0.00     0.022 A 
BRANCH  89  93
ATOM     93  S   UNL A   1      39.943  36.050  37.109  1.00  0.00     0.124 S 
ATOM     94  O   UNL A   1      39.069  36.472  38.199  1.00  0.00    -0.237 OA
ATOM     95  O   UNL A   1      41.326  35.762  37.476  1.00  0.00    -0.237 OA
ATOM     96  O   UNL A   1      39.777  36.792  35.859  1.00  0.00    -0.744 OA
ENDBRANCH  89  93
ENDBRANCH  63  86
ENDBRANCH  37  38
ENDBRANCH  30  32
ENDBRANCH  29  30
ENDBRANCH  28  29
ENDBRANCH  27  28
ENDBRANCH  26  27
ENDBRANCH  25  26
ENDBRANCH   1  25
TORSDOF 27
ENDMDL
