MODEL 1
REMARK VINA RESULT:     -10.7      0.000      0.000
REMARK SMILES COc1ccc(C(=O)OCCOCCOCCOC(=O)c2ccc(-c3c4nc(c(-c5cc(S(=O)(=O)[O-])ccc5F)c5ccc([nH]5)c(-c5cc(S(=O)(=O)[O-])ccc5F)c5nc(c(-c6cc(S(=O)(=O)[O-])ccc6F)c6ccc3[nH]6)C=C5)C=C4)cc2)cc1Oc1nc(C(C)(C)C)ns1
REMARK SMILES IDX 13 1 12 2 11 3 10 4 9 5 7 6 8 7 6 8 3 9 4 10 85 11 5 12
REMARK SMILES IDX 84 13 2 14 1 15 86 16 87 17 88 18 95 19 89 20 94 21 90 22
REMARK SMILES IDX 91 23 92 24 93 25 14 26 15 27 16 28 17 29 18 30 19 31 20 32
REMARK SMILES IDX 21 33 22 34 83 35 23 36 82 37 24 38 25 39 26 40 76 41 27 42
REMARK SMILES IDX 81 43 75 44 77 45 28 46 80 47 74 48 73 49 29 51 61 52 41 53
REMARK SMILES IDX 60 54 42 55 45 56 59 57 78 58 43 59 44 60 58 62 79 63 46 64
REMARK SMILES IDX 30 65 31 66 39 67 32 68 38 69 40 70 37 71 33 72 34 73 35 74
REMARK SMILES IDX 36 75 62 76 63 77 71 78 64 79 70 80 72 81 69 82 65 83 66 84
REMARK SMILES IDX 67 85 68 86 47 87 48 88 56 89 49 90 55 91 57 92 54 93 50 94
REMARK SMILES IDX 51 95 52 96 53 97
REMARK H PARENT 77 50 45 61
REMARK Flexibility Score: inf
ROOT
ATOM      1  C   UNL A   1      30.140  29.943  22.627  1.00  0.00     0.188 C 
ENDROOT
BRANCH   1   2
ATOM      2  O   UNL A   1      30.074  28.531  22.600  1.00  0.00    -0.376 OA
BRANCH   2   3
ATOM      3  C   UNL A   1      31.228  27.764  22.301  1.00  0.00     0.202 C 
BRANCH   3   4
ATOM      4  C   UNL A   1      32.624  28.047  22.882  1.00  0.00     0.261 C 
BRANCH   4   5
ATOM      5  O   UNL A   1      33.464  26.908  23.114  1.00  0.00    -0.460 OA
BRANCH   5   6
ATOM      6  C   UNL A   1      33.210  25.855  22.302  1.00  0.00     0.338 C 
ATOM      7  O   UNL A   1      33.493  25.759  21.118  1.00  0.00    -0.246 OA
BRANCH   6   8
ATOM      8  C   UNL A   1      32.682  24.704  23.056  1.00  0.00     0.064 A 
ATOM      9  C   UNL A   1      31.515  22.898  24.800  1.00  0.00     0.161 A 
ATOM     10  C   UNL A   1      30.708  23.633  23.927  1.00  0.00     0.051 A 
ATOM     11  C   UNL A   1      32.916  22.956  24.722  1.00  0.00     0.173 A 
ATOM     12  C   UNL A   1      31.290  24.558  23.074  1.00  0.00     0.020 A 
ATOM     13  C   UNL A   1      33.501  23.870  23.829  1.00  0.00     0.067 A 
BRANCH   9  14
ATOM     14  O   UNL A   1      30.865  22.177  25.764  1.00  0.00    -0.493 OA
ATOM     15  C   UNL A   1      30.391  23.084  26.769  1.00  0.00     0.278 C 
ENDBRANCH   9  14
BRANCH  11  16
ATOM     16  O   UNL A   1      33.805  22.236  25.495  1.00  0.00    -0.426 OA
BRANCH  16  17
ATOM     17  C   UNL A   1      34.215  21.015  25.150  1.00  0.00     0.298 A 
ATOM     18  N   UNL A   1      33.386  20.029  24.874  1.00  0.00    -0.185 NA
ATOM     19  S   UNL A   1      35.855  20.517  25.121  1.00  0.00     0.025 S 
ATOM     20  C   UNL A   1      34.142  18.908  24.513  1.00  0.00     0.151 A 
ATOM     21  N   UNL A   1      35.474  18.962  24.633  1.00  0.00    -0.172 NA
BRANCH  20  22
ATOM     22  C   UNL A   1      33.445  17.631  24.062  1.00  0.00     0.023 C 
ATOM     23  C   UNL A   1      34.487  16.656  23.486  1.00  0.00     0.019 C 
ATOM     24  C   UNL A   1      32.731  16.940  25.242  1.00  0.00     0.019 C 
ATOM     25  C   UNL A   1      32.375  17.906  22.981  1.00  0.00     0.019 C 
ENDBRANCH  20  22
ENDBRANCH  16  17
ENDBRANCH  11  16
ENDBRANCH   6   8
ENDBRANCH   5   6
ENDBRANCH   4   5
ENDBRANCH   3   4
ENDBRANCH   2   3
ENDBRANCH   1   2
BRANCH   1  26
ATOM     26  C   UNL A   1      29.150  30.730  23.508  1.00  0.00     0.188 C 
BRANCH  26  27
ATOM     27  O   UNL A   1      29.649  31.534  24.552  1.00  0.00    -0.376 OA
BRANCH  27  28
ATOM     28  C   UNL A   1      30.770  31.121  25.314  1.00  0.00     0.202 C 
BRANCH  28  29
ATOM     29  C   UNL A   1      31.412  31.897  26.479  1.00  0.00     0.261 C 
BRANCH  29  30
ATOM     30  O   UNL A   1      32.699  31.482  26.939  1.00  0.00    -0.460 OA
BRANCH  30  31
ATOM     31  C   UNL A   1      33.433  32.448  27.539  1.00  0.00     0.338 C 
ATOM     32  O   UNL A   1      33.080  33.595  27.789  1.00  0.00    -0.246 OA
BRANCH  31  33
ATOM     33  C   UNL A   1      34.696  31.864  28.016  1.00  0.00     0.060 A 
ATOM     34  C   UNL A   1      34.742  30.495  28.305  1.00  0.00     0.016 A 
ATOM     35  C   UNL A   1      35.816  32.672  28.217  1.00  0.00     0.016 A 
ATOM     36  C   UNL A   1      35.911  29.928  28.811  1.00  0.00     0.010 A 
ATOM     37  C   UNL A   1      36.980  32.106  28.747  1.00  0.00     0.010 A 
ATOM     38  C   UNL A   1      37.026  30.737  29.069  1.00  0.00    -0.014 A 
BRANCH  38  39
ATOM     39  C   UNL A   1      38.176  30.192  29.833  1.00  0.00     0.031 A 
ATOM     40  C   UNL A   1      38.436  30.729  31.214  1.00  0.00     0.074 A 
ATOM     41  C   UNL A   1      38.959  29.225  29.321  1.00  0.00     0.049 A 
ATOM     42  N   UNL A   1      39.427  30.482  32.029  1.00  0.00    -0.248 NA
ATOM     43  C   UNL A   1      37.440  31.675  31.745  1.00  0.00     0.031 C 
ATOM     44  C   UNL A   1      38.770  28.584  28.021  1.00  0.00     0.029 A 
ATOM     45  N   UNL A   1      40.082  28.622  29.833  1.00  0.00    -0.354 N 
ATOM     46  C   UNL A   1      39.175  31.233  33.171  1.00  0.00     0.074 A 
ATOM     47  C   UNL A   1      37.959  31.979  32.924  1.00  0.00     0.031 C 
ATOM     48  C   UNL A   1      39.757  27.691  27.829  1.00  0.00     0.029 A 
ATOM     49  C   UNL A   1      40.673  27.729  28.968  1.00  0.00     0.049 A 
ATOM     50  H   UNL A   1      40.432  28.810  30.734  1.00  0.00     0.167 HD
ATOM     51  C   UNL A   1      39.884  31.285  34.325  1.00  0.00     0.034 A 
ATOM     52  C   UNL A   1      41.837  27.054  29.071  1.00  0.00     0.034 A 
ATOM     53  C   UNL A   1      41.105  30.553  34.552  1.00  0.00     0.049 A 
ATOM     54  C   UNL A   1      42.675  27.223  30.322  1.00  0.00     0.074 A 
ATOM     55  C   UNL A   1      41.916  30.556  35.673  1.00  0.00     0.029 A 
ATOM     56  N   UNL A   1      41.694  29.691  33.638  1.00  0.00    -0.354 N 
ATOM     57  N   UNL A   1      42.431  27.949  31.390  1.00  0.00    -0.248 NA
ATOM     58  C   UNL A   1      43.938  26.476  30.384  1.00  0.00     0.031 C 
ATOM     59  C   UNL A   1      43.027  29.749  35.413  1.00  0.00     0.029 A 
ATOM     60  C   UNL A   1      42.870  29.174  34.163  1.00  0.00     0.049 A 
ATOM     61  H   UNL A   1      41.332  29.476  32.748  1.00  0.00     0.167 HD
ATOM     62  C   UNL A   1      43.490  27.706  32.264  1.00  0.00     0.074 A 
ATOM     63  C   UNL A   1      44.362  26.758  31.606  1.00  0.00     0.031 C 
ATOM     64  C   UNL A   1      43.724  28.219  33.500  1.00  0.00     0.034 A 
BRANCH  51  65
ATOM     65  C   UNL A   1      39.372  32.192  35.415  1.00  0.00     0.023 A 
ATOM     66  C   UNL A   1      39.796  33.529  35.518  1.00  0.00     0.031 A 
ATOM     67  C   UNL A   1      38.447  31.719  36.363  1.00  0.00     0.131 A 
ATOM     68  C   UNL A   1      39.335  34.329  36.573  1.00  0.00     0.055 A 
ATOM     69  C   UNL A   1      37.936  32.543  37.367  1.00  0.00     0.041 A 
ATOM     70  F   UNL A   1      38.028  30.444  36.330  1.00  0.00    -0.206 F 
ATOM     71  C   UNL A   1      38.388  33.853  37.483  1.00  0.00     0.022 A 
BRANCH  68  72
ATOM     72  S   UNL A   1      40.081  35.966  36.809  1.00  0.00     0.124 S 
ATOM     73  O   UNL A   1      39.746  36.625  35.549  1.00  0.00    -0.237 OA
ATOM     74  O   UNL A   1      39.387  36.460  37.993  1.00  0.00    -0.237 OA
ATOM     75  O   UNL A   1      41.500  35.673  36.994  1.00  0.00    -0.744 OA
ENDBRANCH  68  72
ENDBRANCH  51  65
BRANCH  52  76
ATOM     76  C   UNL A   1      42.334  26.201  27.949  1.00  0.00     0.023 A 
ATOM     77  C   UNL A   1      41.811  24.917  27.727  1.00  0.00     0.031 A 
ATOM     78  C   UNL A   1      43.419  26.612  27.154  1.00  0.00     0.131 A 
ATOM     79  C   UNL A   1      42.423  24.062  26.796  1.00  0.00     0.055 A 
ATOM     80  C   UNL A   1      43.976  25.786  26.176  1.00  0.00     0.041 A 
ATOM     81  F   UNL A   1      43.968  27.826  27.325  1.00  0.00    -0.206 F 
ATOM     82  C   UNL A   1      43.493  24.493  26.008  1.00  0.00     0.022 A 
BRANCH  79  83
ATOM     83  S   UNL A   1      41.897  22.326  26.738  1.00  0.00     0.124 S 
ATOM     84  O   UNL A   1      42.377  21.917  25.423  1.00  0.00    -0.237 OA
ATOM     85  O   UNL A   1      42.602  21.759  27.883  1.00  0.00    -0.237 OA
ATOM     86  O   UNL A   1      40.445  22.405  26.877  1.00  0.00    -0.744 OA
ENDBRANCH  79  83
ENDBRANCH  52  76
BRANCH  64  87
ATOM     87  C   UNL A   1      44.932  27.705  34.248  1.00  0.00     0.023 A 
ATOM     88  C   UNL A   1      44.875  26.562  35.064  1.00  0.00     0.031 A 
ATOM     89  C   UNL A   1      46.163  28.379  34.141  1.00  0.00     0.131 A 
ATOM     90  C   UNL A   1      46.009  26.161  35.787  1.00  0.00     0.055 A 
ATOM     91  C   UNL A   1      47.305  27.936  34.810  1.00  0.00     0.041 A 
ATOM     92  F   UNL A   1      46.277  29.478  33.377  1.00  0.00    -0.206 F 
ATOM     93  C   UNL A   1      47.229  26.831  35.650  1.00  0.00     0.022 A 
BRANCH  90  94
ATOM     94  S   UNL A   1      45.847  24.809  36.985  1.00  0.00     0.124 S 
ATOM     95  O   UNL A   1      44.401  24.627  37.045  1.00  0.00    -0.237 OA
ATOM     96  O   UNL A   1      46.599  23.734  36.345  1.00  0.00    -0.237 OA
ATOM     97  O   UNL A   1      46.456  25.351  38.199  1.00  0.00    -0.744 OA
ENDBRANCH  90  94
ENDBRANCH  64  87
ENDBRANCH  38  39
ENDBRANCH  31  33
ENDBRANCH  30  31
ENDBRANCH  29  30
ENDBRANCH  28  29
ENDBRANCH  27  28
ENDBRANCH  26  27
ENDBRANCH   1  26
TORSDOF 24
ENDMDL
MODEL 2
REMARK VINA RESULT:     -10.7      1.511      7.701
REMARK SMILES COc1ccc(C(=O)OCCOCCOCCOC(=O)c2ccc(-c3c4nc(c(-c5cc(S(=O)(=O)[O-])ccc5F)c5ccc([nH]5)c(-c5cc(S(=O)(=O)[O-])ccc5F)c5nc(c(-c6cc(S(=O)(=O)[O-])ccc6F)c6ccc3[nH]6)C=C5)C=C4)cc2)cc1Oc1nc(C(C)(C)C)ns1
REMARK SMILES IDX 13 1 12 2 11 3 10 4 9 5 7 6 8 7 6 8 3 9 4 10 85 11 5 12
REMARK SMILES IDX 84 13 2 14 1 15 86 16 87 17 88 18 95 19 89 20 94 21 90 22
REMARK SMILES IDX 91 23 92 24 93 25 14 26 15 27 16 28 17 29 18 30 19 31 20 32
REMARK SMILES IDX 21 33 22 34 83 35 23 36 82 37 24 38 25 39 26 40 76 41 27 42
REMARK SMILES IDX 81 43 75 44 77 45 28 46 80 47 74 48 73 49 29 51 61 52 41 53
REMARK SMILES IDX 60 54 42 55 45 56 59 57 78 58 43 59 44 60 58 62 79 63 46 64
REMARK SMILES IDX 30 65 31 66 39 67 32 68 38 69 40 70 37 71 33 72 34 73 35 74
REMARK SMILES IDX 36 75 62 76 63 77 71 78 64 79 70 80 72 81 69 82 65 83 66 84
REMARK SMILES IDX 67 85 68 86 47 87 48 88 56 89 49 90 55 91 57 92 54 93 50 94
REMARK SMILES IDX 51 95 52 96 53 97
REMARK H PARENT 77 50 45 61
REMARK Flexibility Score: inf
ROOT
ATOM      1  C   UNL A   1      30.674  29.172  22.133  1.00  0.00     0.188 C 
ENDROOT
BRANCH   1   2
ATOM      2  O   UNL A   1      30.674  27.852  21.631  1.00  0.00    -0.376 OA
BRANCH   2   3
ATOM      3  C   UNL A   1      31.475  26.853  22.238  1.00  0.00     0.202 C 
BRANCH   3   4
ATOM      4  C   UNL A   1      32.998  26.738  22.050  1.00  0.00     0.261 C 
BRANCH   4   5
ATOM      5  O   UNL A   1      33.707  25.965  23.028  1.00  0.00    -0.460 OA
BRANCH   5   6
ATOM      6  C   UNL A   1      33.448  26.316  24.309  1.00  0.00     0.338 C 
ATOM      7  O   UNL A   1      33.665  27.398  24.831  1.00  0.00    -0.246 OA
BRANCH   6   8
ATOM      8  C   UNL A   1      32.684  25.269  25.012  1.00  0.00     0.064 A 
ATOM      9  C   UNL A   1      31.249  23.634  26.723  1.00  0.00     0.161 A 
ATOM     10  C   UNL A   1      30.612  24.714  26.107  1.00  0.00     0.051 A 
ATOM     11  C   UNL A   1      32.565  23.277  26.391  1.00  0.00     0.173 A 
ATOM     12  C   UNL A   1      31.338  25.550  25.273  1.00  0.00     0.020 A 
ATOM     13  C   UNL A   1      33.285  24.107  25.515  1.00  0.00     0.067 A 
BRANCH   9  14
ATOM     14  O   UNL A   1      30.541  22.991  27.702  1.00  0.00    -0.493 OA
ATOM     15  C   UNL A   1      29.232  22.694  27.196  1.00  0.00     0.278 C 
ENDBRANCH   9  14
BRANCH  11  16
ATOM     16  O   UNL A   1      33.270  22.202  26.896  1.00  0.00    -0.426 OA
BRANCH  16  17
ATOM     17  C   UNL A   1      33.767  21.248  26.107  1.00  0.00     0.298 A 
ATOM     18  N   UNL A   1      33.076  20.191  25.733  1.00  0.00    -0.185 NA
ATOM     19  S   UNL A   1      35.390  21.196  25.557  1.00  0.00     0.025 S 
ATOM     20  C   UNL A   1      33.878  19.421  24.883  1.00  0.00     0.151 A 
ATOM     21  N   UNL A   1      35.159  19.771  24.710  1.00  0.00    -0.172 NA
BRANCH  20  22
ATOM     22  C   UNL A   1      33.311  18.169  24.227  1.00  0.00     0.023 C 
ATOM     23  C   UNL A   1      32.400  17.436  25.227  1.00  0.00     0.019 C 
ATOM     24  C   UNL A   1      32.479  18.522  22.978  1.00  0.00     0.019 C 
ATOM     25  C   UNL A   1      34.425  17.199  23.772  1.00  0.00     0.019 C 
ENDBRANCH  20  22
ENDBRANCH  16  17
ENDBRANCH  11  16
ENDBRANCH   6   8
ENDBRANCH   5   6
ENDBRANCH   4   5
ENDBRANCH   3   4
ENDBRANCH   2   3
ENDBRANCH   1   2
BRANCH   1  26
ATOM     26  C   UNL A   1      29.545  29.622  23.081  1.00  0.00     0.188 C 
BRANCH  26  27
ATOM     27  O   UNL A   1      29.853  30.471  24.162  1.00  0.00    -0.376 OA
BRANCH  27  28
ATOM     28  C   UNL A   1      30.988  30.228  24.975  1.00  0.00     0.202 C 
BRANCH  28  29
ATOM     29  C   UNL A   1      31.437  31.070  26.184  1.00  0.00     0.261 C 
BRANCH  29  30
ATOM     30  O   UNL A   1      32.737  30.836  26.725  1.00  0.00    -0.460 OA
BRANCH  30  31
ATOM     31  C   UNL A   1      33.326  31.915  27.293  1.00  0.00     0.338 C 
ATOM     32  O   UNL A   1      32.825  33.019  27.474  1.00  0.00    -0.246 OA
BRANCH  31  33
ATOM     33  C   UNL A   1      34.636  31.519  27.830  1.00  0.00     0.060 A 
ATOM     34  C   UNL A   1      34.827  30.193  28.242  1.00  0.00     0.016 A 
ATOM     35  C   UNL A   1      35.657  32.460  27.968  1.00  0.00     0.016 A 
ATOM     36  C   UNL A   1      36.041  29.806  28.807  1.00  0.00     0.010 A 
ATOM     37  C   UNL A   1      36.866  32.075  28.557  1.00  0.00     0.010 A 
ATOM     38  C   UNL A   1      37.056  30.753  29.001  1.00  0.00    -0.014 A 
BRANCH  38  39
ATOM     39  C   UNL A   1      38.243  30.409  29.821  1.00  0.00     0.031 A 
ATOM     40  C   UNL A   1      39.244  29.437  29.257  1.00  0.00     0.074 A 
ATOM     41  C   UNL A   1      38.442  30.963  31.031  1.00  0.00     0.049 A 
ATOM     42  N   UNL A   1      40.301  28.912  29.819  1.00  0.00    -0.248 NA
ATOM     43  C   UNL A   1      39.019  29.000  27.870  1.00  0.00     0.031 C 
ATOM     44  C   UNL A   1      37.576  31.961  31.655  1.00  0.00     0.029 A 
ATOM     45  N   UNL A   1      39.434  30.752  31.957  1.00  0.00    -0.354 N 
ATOM     46  C   UNL A   1      40.872  28.088  28.856  1.00  0.00     0.074 A 
ATOM     47  C   UNL A   1      40.018  28.150  27.689  1.00  0.00     0.031 C 
ATOM     48  C   UNL A   1      38.064  32.260  32.872  1.00  0.00     0.029 A 
ATOM     49  C   UNL A   1      39.249  31.444  33.133  1.00  0.00     0.049 A 
ATOM     50  H   UNL A   1      40.206  30.163  31.796  1.00  0.00     0.167 HD
ATOM     51  C   UNL A   1      42.012  27.359  28.933  1.00  0.00     0.034 A 
ATOM     52  C   UNL A   1      39.934  31.392  34.294  1.00  0.00     0.034 A 
ATOM     53  C   UNL A   1      42.844  27.288  30.109  1.00  0.00     0.049 A 
ATOM     54  C   UNL A   1      41.135  30.474  34.396  1.00  0.00     0.074 A 
ATOM     55  C   UNL A   1      44.002  26.558  30.302  1.00  0.00     0.029 A 
ATOM     56  N   UNL A   1      42.602  27.970  31.293  1.00  0.00    -0.354 N 
ATOM     57  N   UNL A   1      41.657  29.688  33.480  1.00  0.00    -0.248 NA
ATOM     58  C   UNL A   1      41.844  30.443  35.682  1.00  0.00     0.031 C 
ATOM     59  C   UNL A   1      44.425  26.745  31.621  1.00  0.00     0.029 A 
ATOM     60  C   UNL A   1      43.579  27.659  32.228  1.00  0.00     0.049 A 
ATOM     61  H   UNL A   1      41.849  28.584  31.448  1.00  0.00     0.167 HD
ATOM     62  C   UNL A   1      42.779  29.109  34.072  1.00  0.00     0.074 A 
ATOM     63  C   UNL A   1      42.866  29.647  35.412  1.00  0.00     0.031 C 
ATOM     64  C   UNL A   1      43.660  28.213  33.557  1.00  0.00     0.034 A 
BRANCH  51  65
ATOM     65  C   UNL A   1      42.403  26.550  27.722  1.00  0.00     0.023 A 
ATOM     66  C   UNL A   1      41.968  25.224  27.553  1.00  0.00     0.031 A 
ATOM     67  C   UNL A   1      43.219  27.110  26.722  1.00  0.00     0.131 A 
ATOM     68  C   UNL A   1      42.391  24.487  26.437  1.00  0.00     0.055 A 
ATOM     69  C   UNL A   1      43.575  26.395  25.578  1.00  0.00     0.041 A 
ATOM     70  F   UNL A   1      43.685  28.363  26.845  1.00  0.00    -0.206 F 
ATOM     71  C   UNL A   1      43.170  25.072  25.435  1.00  0.00     0.022 A 
BRANCH  68  72
ATOM     72  S   UNL A   1      42.004  22.716  26.370  1.00  0.00     0.124 S 
ATOM     73  O   UNL A   1      42.660  22.227  27.580  1.00  0.00    -0.237 OA
ATOM     74  O   UNL A   1      40.546  22.711  26.387  1.00  0.00    -0.237 OA
ATOM     75  O   UNL A   1      42.617  22.279  25.118  1.00  0.00    -0.744 OA
ENDBRANCH  68  72
ENDBRANCH  51  65
BRANCH  52  76
ATOM     76  C   UNL A   1      39.488  32.172  35.487  1.00  0.00     0.023 A 
ATOM     77  C   UNL A   1      39.989  33.459  35.743  1.00  0.00     0.031 A 
ATOM     78  C   UNL A   1      38.640  31.597  36.452  1.00  0.00     0.131 A 
ATOM     79  C   UNL A   1      39.707  34.092  36.964  1.00  0.00     0.055 A 
ATOM     80  C   UNL A   1      38.301  32.262  37.632  1.00  0.00     0.041 A 
ATOM     81  F   UNL A   1      38.136  30.366  36.268  1.00  0.00    -0.206 F 
ATOM     82  C   UNL A   1      38.854  33.509  37.905  1.00  0.00     0.022 A 
BRANCH  79  83
ATOM     83  S   UNL A   1      40.594  35.622  37.373  1.00  0.00     0.124 S 
ATOM     84  O   UNL A   1      40.306  35.757  38.796  1.00  0.00    -0.237 OA
ATOM     85  O   UNL A   1      41.969  35.274  37.026  1.00  0.00    -0.237 OA
ATOM     86  O   UNL A   1      39.967  36.619  36.509  1.00  0.00    -0.744 OA
ENDBRANCH  79  83
ENDBRANCH  52  76
BRANCH  64  87
ATOM     87  C   UNL A   1      44.835  27.818  34.422  1.00  0.00     0.023 A 
ATOM     88  C   UNL A   1      46.007  28.591  34.487  1.00  0.00     0.031 A 
ATOM     89  C   UNL A   1      44.776  26.643  35.193  1.00  0.00     0.131 A 
ATOM     90  C   UNL A   1      47.094  28.149  35.256  1.00  0.00     0.055 A 
ATOM     91  C   UNL A   1      45.834  26.243  36.009  1.00  0.00     0.041 A 
ATOM     92  F   UNL A   1      43.682  25.864  35.170  1.00  0.00    -0.206 F 
ATOM     93  C   UNL A   1      47.008  26.989  36.033  1.00  0.00     0.022 A 
BRANCH  90  94
ATOM     94  S   UNL A   1      48.661  29.058  35.157  1.00  0.00     0.124 S 
ATOM     95  O   UNL A   1      49.222  28.562  33.905  1.00  0.00    -0.237 OA
ATOM     96  O   UNL A   1      48.215  30.448  35.149  1.00  0.00    -0.237 OA
ATOM     97  O   UNL A   1      49.376  28.644  36.364  1.00  0.00    -0.744 OA
ENDBRANCH  90  94
ENDBRANCH  64  87
ENDBRANCH  38  39
ENDBRANCH  31  33
ENDBRANCH  30  31
ENDBRANCH  29  30
ENDBRANCH  28  29
ENDBRANCH  27  28
ENDBRANCH  26  27
ENDBRANCH   1  26
TORSDOF 24
ENDMDL
MODEL 3
REMARK VINA RESULT:     -10.5      2.456      9.615
REMARK SMILES COc1ccc(C(=O)OCCOCCOCCOC(=O)c2ccc(-c3c4nc(c(-c5cc(S(=O)(=O)[O-])ccc5F)c5ccc([nH]5)c(-c5cc(S(=O)(=O)[O-])ccc5F)c5nc(c(-c6cc(S(=O)(=O)[O-])ccc6F)c6ccc3[nH]6)C=C5)C=C4)cc2)cc1Oc1nc(C(C)(C)C)ns1
REMARK SMILES IDX 13 1 12 2 11 3 10 4 9 5 7 6 8 7 6 8 3 9 4 10 85 11 5 12
REMARK SMILES IDX 84 13 2 14 1 15 86 16 87 17 88 18 95 19 89 20 94 21 90 22
REMARK SMILES IDX 91 23 92 24 93 25 14 26 15 27 16 28 17 29 18 30 19 31 20 32
REMARK SMILES IDX 21 33 22 34 83 35 23 36 82 37 24 38 25 39 26 40 76 41 27 42
REMARK SMILES IDX 81 43 75 44 77 45 28 46 80 47 74 48 73 49 29 51 61 52 41 53
REMARK SMILES IDX 60 54 42 55 45 56 59 57 78 58 43 59 44 60 58 62 79 63 46 64
REMARK SMILES IDX 30 65 31 66 39 67 32 68 38 69 40 70 37 71 33 72 34 73 35 74
REMARK SMILES IDX 36 75 62 76 63 77 71 78 64 79 70 80 72 81 69 82 65 83 66 84
REMARK SMILES IDX 67 85 68 86 47 87 48 88 56 89 49 90 55 91 57 92 54 93 50 94
REMARK SMILES IDX 51 95 52 96 53 97
REMARK H PARENT 77 50 45 61
REMARK Flexibility Score: inf
ROOT
ATOM      1  C   UNL A   1      41.875  19.455  26.418  1.00  0.00     0.188 C 
ENDROOT
BRANCH   1   2
ATOM      2  O   UNL A   1      41.229  20.632  25.979  1.00  0.00    -0.376 OA
BRANCH   2   3
ATOM      3  C   UNL A   1      39.911  20.931  26.408  1.00  0.00     0.202 C 
BRANCH   3   4
ATOM      4  C   UNL A   1      39.034  22.035  25.794  1.00  0.00     0.261 C 
BRANCH   4   5
ATOM      5  O   UNL A   1      37.617  21.895  25.961  1.00  0.00    -0.460 OA
BRANCH   5   6
ATOM      6  C   UNL A   1      36.907  22.013  24.815  1.00  0.00     0.338 C 
ATOM      7  O   UNL A   1      37.297  22.479  23.756  1.00  0.00    -0.246 OA
BRANCH   6   8
ATOM      8  C   UNL A   1      35.599  21.341  24.916  1.00  0.00     0.064 A 
ATOM      9  C   UNL A   1      33.229  19.940  24.620  1.00  0.00     0.161 A 
ATOM     10  C   UNL A   1      34.427  19.240  24.793  1.00  0.00     0.051 A 
ATOM     11  C   UNL A   1      33.180  21.339  24.727  1.00  0.00     0.173 A 
ATOM     12  C   UNL A   1      35.617  19.942  24.911  1.00  0.00     0.020 A 
ATOM     13  C   UNL A   1      34.386  22.043  24.886  1.00  0.00     0.067 A 
BRANCH   9  14
ATOM     14  O   UNL A   1      32.134  19.193  24.283  1.00  0.00    -0.493 OA
ATOM     15  C   UNL A   1      32.496  17.806  24.338  1.00  0.00     0.278 C 
ENDBRANCH   9  14
BRANCH  11  16
ATOM     16  O   UNL A   1      32.048  22.125  24.629  1.00  0.00    -0.426 OA
BRANCH  16  17
ATOM     17  C   UNL A   1      31.878  23.217  25.375  1.00  0.00     0.298 A 
ATOM     18  N   UNL A   1      32.223  24.423  24.975  1.00  0.00    -0.185 NA
ATOM     19  S   UNL A   1      31.295  23.206  26.987  1.00  0.00     0.025 S 
ATOM     20  C   UNL A   1      31.870  25.335  25.975  1.00  0.00     0.151 A 
ATOM     21  N   UNL A   1      31.409  24.868  27.142  1.00  0.00    -0.172 NA
BRANCH  20  22
ATOM     22  C   UNL A   1      32.079  26.827  25.755  1.00  0.00     0.023 C 
ATOM     23  C   UNL A   1      31.703  27.592  27.037  1.00  0.00     0.019 C 
ATOM     24  C   UNL A   1      33.552  27.140  25.417  1.00  0.00     0.019 C 
ATOM     25  C   UNL A   1      31.221  27.367  24.588  1.00  0.00     0.019 C 
ENDBRANCH  20  22
ENDBRANCH  16  17
ENDBRANCH  11  16
ENDBRANCH   6   8
ENDBRANCH   5   6
ENDBRANCH   4   5
ENDBRANCH   3   4
ENDBRANCH   2   3
ENDBRANCH   1   2
BRANCH   1  26
ATOM     26  C   UNL A   1      42.856  18.733  25.474  1.00  0.00     0.188 C 
BRANCH  26  27
ATOM     27  O   UNL A   1      44.205  19.137  25.445  1.00  0.00    -0.376 OA
BRANCH  27  28
ATOM     28  C   UNL A   1      44.592  20.325  24.777  1.00  0.00     0.202 C 
BRANCH  28  29
ATOM     29  C   UNL A   1      45.338  21.519  25.404  1.00  0.00     0.261 C 
BRANCH  29  30
ATOM     30  O   UNL A   1      44.569  22.523  26.067  1.00  0.00    -0.460 OA
BRANCH  30  31
ATOM     31  C   UNL A   1      44.601  23.746  25.488  1.00  0.00     0.338 C 
ATOM     32  O   UNL A   1      45.040  24.026  24.378  1.00  0.00    -0.246 OA
BRANCH  31  33
ATOM     33  C   UNL A   1      43.864  24.697  26.334  1.00  0.00     0.060 A 
ATOM     34  C   UNL A   1      44.136  26.065  26.212  1.00  0.00     0.016 A 
ATOM     35  C   UNL A   1      42.940  24.236  27.274  1.00  0.00     0.016 A 
ATOM     36  C   UNL A   1      43.491  26.981  27.042  1.00  0.00     0.010 A 
ATOM     37  C   UNL A   1      42.312  25.155  28.121  1.00  0.00     0.010 A 
ATOM     38  C   UNL A   1      42.601  26.528  28.025  1.00  0.00    -0.014 A 
BRANCH  38  39
ATOM     39  C   UNL A   1      42.107  27.465  29.065  1.00  0.00     0.031 A 
ATOM     40  C   UNL A   1      42.855  27.547  30.367  1.00  0.00     0.074 A 
ATOM     41  C   UNL A   1      41.031  28.244  28.849  1.00  0.00     0.049 A 
ATOM     42  N   UNL A   1      42.563  28.213  31.454  1.00  0.00    -0.248 NA
ATOM     43  C   UNL A   1      44.102  26.770  30.454  1.00  0.00     0.031 C 
ATOM     44  C   UNL A   1      40.263  28.298  27.607  1.00  0.00     0.029 A 
ATOM     45  N   UNL A   1      40.392  29.132  29.679  1.00  0.00    -0.354 N 
ATOM     46  C   UNL A   1      43.590  27.943  32.351  1.00  0.00     0.074 A 
ATOM     47  C   UNL A   1      44.489  27.016  31.696  1.00  0.00     0.031 C 
ATOM     48  C   UNL A   1      39.241  29.159  27.764  1.00  0.00     0.029 A 
ATOM     49  C   UNL A   1      39.255  29.681  29.130  1.00  0.00     0.049 A 
ATOM     50  H   UNL A   1      40.715  29.356  30.581  1.00  0.00     0.167 HD
ATOM     51  C   UNL A   1      43.773  28.434  33.601  1.00  0.00     0.034 A 
ATOM     52  C   UNL A   1      38.317  30.481  29.681  1.00  0.00     0.034 A 
ATOM     53  C   UNL A   1      42.860  29.340  34.251  1.00  0.00     0.049 A 
ATOM     54  C   UNL A   1      38.482  30.918  31.122  1.00  0.00     0.074 A 
ATOM     55  C   UNL A   1      42.937  29.875  35.524  1.00  0.00     0.029 A 
ATOM     56  N   UNL A   1      41.699  29.843  33.679  1.00  0.00    -0.354 N 
ATOM     57  N   UNL A   1      39.452  30.643  31.965  1.00  0.00    -0.248 NA
ATOM     58  C   UNL A   1      37.432  31.779  31.681  1.00  0.00     0.031 C 
ATOM     59  C   UNL A   1      41.793  30.646  35.747  1.00  0.00     0.029 A 
ATOM     60  C   UNL A   1      41.041  30.663  34.583  1.00  0.00     0.049 A 
ATOM     61  H   UNL A   1      41.388  29.646  32.766  1.00  0.00     0.167 HD
ATOM     62  C   UNL A   1      39.145  31.337  33.136  1.00  0.00     0.074 A 
ATOM     63  C   UNL A   1      37.914  32.052  32.884  1.00  0.00     0.031 C 
ATOM     64  C   UNL A   1      39.819  31.381  34.314  1.00  0.00     0.034 A 
BRANCH  51  65
ATOM     65  C   UNL A   1      44.991  27.969  34.358  1.00  0.00     0.023 A 
ATOM     66  C   UNL A   1      45.018  26.726  35.015  1.00  0.00     0.031 A 
ATOM     67  C   UNL A   1      46.142  28.775  34.424  1.00  0.00     0.131 A 
ATOM     68  C   UNL A   1      46.151  26.348  35.750  1.00  0.00     0.055 A 
ATOM     69  C   UNL A   1      47.293  28.360  35.095  1.00  0.00     0.041 A 
ATOM     70  F   UNL A   1      46.164  29.983  33.838  1.00  0.00    -0.206 F 
ATOM     71  C   UNL A   1      47.299  27.145  35.772  1.00  0.00     0.022 A 
BRANCH  68  72
ATOM     72  S   UNL A   1      46.063  24.853  36.772  1.00  0.00     0.124 S 
ATOM     73  O   UNL A   1      45.008  24.099  36.099  1.00  0.00    -0.237 OA
ATOM     74  O   UNL A   1      47.411  24.310  36.655  1.00  0.00    -0.237 OA
ATOM     75  O   UNL A   1      45.707  25.363  38.094  1.00  0.00    -0.744 OA
ENDBRANCH  68  72
ENDBRANCH  51  65
BRANCH  52  76
ATOM     76  C   UNL A   1      37.100  30.881  28.913  1.00  0.00     0.023 A 
ATOM     77  C   UNL A   1      36.689  32.222  28.851  1.00  0.00     0.031 A 
ATOM     78  C   UNL A   1      36.264  29.913  28.326  1.00  0.00     0.131 A 
ATOM     79  C   UNL A   1      35.443  32.550  28.292  1.00  0.00     0.055 A 
ATOM     80  C   UNL A   1      35.061  30.253  27.703  1.00  0.00     0.041 A 
ATOM     81  F   UNL A   1      36.599  28.614  28.360  1.00  0.00    -0.206 F 
ATOM     82  C   UNL A   1      34.633  31.576  27.704  1.00  0.00     0.022 A 
BRANCH  79  83
ATOM     83  S   UNL A   1      34.827  34.247  28.481  1.00  0.00     0.124 S 
ATOM     84  O   UNL A   1      35.845  34.834  29.344  1.00  0.00    -0.237 OA
ATOM     85  O   UNL A   1      34.810  34.716  27.099  1.00  0.00    -0.237 OA
ATOM     86  O   UNL A   1      33.513  34.066  29.094  1.00  0.00    -0.744 OA
ENDBRANCH  79  83
ENDBRANCH  52  76
BRANCH  64  87
ATOM     87  C   UNL A   1      39.275  32.290  35.391  1.00  0.00     0.023 A 
ATOM     88  C   UNL A   1      39.738  33.607  35.561  1.00  0.00     0.031 A 
ATOM     89  C   UNL A   1      38.276  31.824  36.266  1.00  0.00     0.131 A 
ATOM     90  C   UNL A   1      39.246  34.390  36.616  1.00  0.00     0.055 A 
ATOM     91  C   UNL A   1      37.742  32.631  37.271  1.00  0.00     0.041 A 
ATOM     92  F   UNL A   1      37.797  30.574  36.153  1.00  0.00    -0.206 F 
ATOM     93  C   UNL A   1      38.237  33.917  37.460  1.00  0.00     0.022 A 
BRANCH  90  94
ATOM     94  S   UNL A   1      40.008  36.006  36.932  1.00  0.00     0.124 S 
ATOM     95  O   UNL A   1      39.761  36.709  35.678  1.00  0.00    -0.237 OA
ATOM     96  O   UNL A   1      39.258  36.484  38.089  1.00  0.00    -0.237 OA
ATOM     97  O   UNL A   1      41.409  35.679  37.195  1.00  0.00    -0.744 OA
ENDBRANCH  90  94
ENDBRANCH  64  87
ENDBRANCH  38  39
ENDBRANCH  31  33
ENDBRANCH  30  31
ENDBRANCH  29  30
ENDBRANCH  28  29
ENDBRANCH  27  28
ENDBRANCH  26  27
ENDBRANCH   1  26
TORSDOF 24
ENDMDL
