MODEL 1
REMARK VINA RESULT:      -8.4      0.000      0.000
REMARK SMILES C[C@@H]1CCC[C@H](C)[N@H+]1Cc1cc2c(cc1Cl)C=C(C(=O)OCCOCCOCCOC(=O)c1ccc(-c3c4nc(c(-c5cc(S(=O)(=O)[O-])ccc5F)c5ccc([nH]5)c(-c5cc(S(=O)(=O)[O-])ccc5F)c5nc(c(-c6cc(S(=O)(=O)[O-])ccc6F)c6ccc3[nH]6)C=C5)C=C4)cc1)[C@@H](C(F)(F)F)O2
REMARK SMILES IDX 26 1 25 2 24 3 23 4 22 5 21 6 19 7 20 8 18 9 10 10 11 11
REMARK SMILES IDX 15 12 12 13 14 14 16 15 13 16 101 17 17 18 96 19 9 20 8 21
REMARK SMILES IDX 7 22 6 23 5 24 4 25 2 26 3 28 1 29 97 30 98 31 99 32 100 33
REMARK SMILES IDX 27 34 28 35 29 36 30 37 31 38 32 39 33 40 34 41 95 42 35 43
REMARK SMILES IDX 94 44 36 45 37 46 38 47 88 48 39 49 93 50 87 51 89 52 40 53
REMARK SMILES IDX 92 54 86 55 85 56 41 58 73 59 53 60 72 61 54 62 57 63 71 64
REMARK SMILES IDX 90 65 55 66 56 67 70 69 91 70 58 71 42 72 43 73 51 74 44 75
REMARK SMILES IDX 50 76 52 77 49 78 45 79 46 80 47 81 48 82 74 83 75 84 83 85
REMARK SMILES IDX 76 86 82 87 84 88 81 89 77 90 78 91 79 92 80 93 59 94 60 95
REMARK SMILES IDX 68 96 61 97 67 98 69 99 66 100 62 101 63 102 64 103 65 104
REMARK H PARENT 8 27 89 57 57 68
REMARK Flexibility Score: inf
ROOT
ATOM      1  C   UNL A   1      33.504  36.238  29.205  1.00  0.00     0.188 C 
ENDROOT
BRANCH   1   2
ATOM      2  C   UNL A   1      33.424  34.705  29.035  1.00  0.00     0.188 C 
BRANCH   2   3
ATOM      3  O   UNL A   1      34.508  34.024  29.625  1.00  0.00    -0.376 OA
BRANCH   3   4
ATOM      4  C   UNL A   1      35.505  33.447  28.803  1.00  0.00     0.202 C 
BRANCH   4   5
ATOM      5  C   UNL A   1      35.785  31.931  28.716  1.00  0.00     0.261 C 
BRANCH   5   6
ATOM      6  O   UNL A   1      37.128  31.483  28.934  1.00  0.00    -0.460 OA
BRANCH   6   7
ATOM      7  C   UNL A   1      37.260  30.191  29.308  1.00  0.00     0.338 C 
ATOM      8  O   UNL A   1      36.353  29.437  29.620  1.00  0.00    -0.246 OA
BRANCH   7   9
ATOM      9  C   UNL A   1      38.666  29.761  29.169  1.00  0.00     0.087 C 
ATOM     10  C   UNL A   1      42.951  27.752  27.432  1.00  0.00     0.029 A 
ATOM     11  C   UNL A   1      42.573  28.354  28.655  1.00  0.00     0.058 A 
ATOM     12  C   UNL A   1      41.963  27.621  26.440  1.00  0.00     0.050 A 
ATOM     13  C   UNL A   1      41.283  28.874  28.839  1.00  0.00     0.128 A 
ATOM     14  C   UNL A   1      40.716  28.231  26.588  1.00  0.00     0.033 A 
ATOM     15  Cl  UNL A   1      42.176  26.672  25.012  1.00  0.00    -0.084 Cl
ATOM     16  C   UNL A   1      40.378  28.862  27.781  1.00  0.00     0.019 A 
ATOM     17  O   UNL A   1      40.975  29.399  30.066  1.00  0.00    -0.475 OA
ATOM     18  C   UNL A   1      39.061  29.449  27.930  1.00  0.00     0.027 C 
ATOM     19  C   UNL A   1      39.561  29.625  30.373  1.00  0.00     0.316 C 
BRANCH  10  20
ATOM     20  C   UNL A   1      44.378  27.269  27.228  1.00  0.00     0.301 C 
BRANCH  20  21
ATOM     21  N   UNL A   1      44.745  25.922  27.721  1.00  0.00    -0.327 N 
ATOM     22  C   UNL A   1      45.484  23.734  26.816  1.00  0.00     0.075 C 
ATOM     23  C   UNL A   1      44.380  24.809  26.836  1.00  0.00     0.181 C 
ATOM     24  C   UNL A   1      43.008  24.191  27.151  1.00  0.00     0.065 C 
ATOM     25  C   UNL A   1      42.797  23.899  28.633  1.00  0.00     0.012 C 
ATOM     26  C   UNL A   1      44.532  25.693  29.162  1.00  0.00     0.181 C 
ATOM     27  H   UNL A   1      45.763  25.929  27.655  1.00  0.00     0.348 HD
ATOM     28  C   UNL A   1      43.153  25.103  29.494  1.00  0.00     0.065 C 
ATOM     29  C   UNL A   1      45.640  24.830  29.790  1.00  0.00     0.075 C 
ENDBRANCH  20  21
ENDBRANCH  10  20
BRANCH  19  30
ATOM     30  C   UNL A   1      39.037  28.538  31.320  1.00  0.00     0.430 C 
ATOM     31  F   UNL A   1      38.422  27.539  30.643  1.00  0.00    -0.167 F 
ATOM     32  F   UNL A   1      40.048  27.964  32.018  1.00  0.00    -0.167 F 
ATOM     33  F   UNL A   1      38.151  29.020  32.221  1.00  0.00    -0.167 F 
ENDBRANCH  19  30
ENDBRANCH   7   9
ENDBRANCH   6   7
ENDBRANCH   5   6
ENDBRANCH   4   5
ENDBRANCH   3   4
ENDBRANCH   2   3
ENDBRANCH   1   2
BRANCH   1  34
ATOM     34  O   UNL A   1      32.792  36.871  30.261  1.00  0.00    -0.376 OA
BRANCH  34  35
ATOM     35  C   UNL A   1      32.844  36.305  31.567  1.00  0.00     0.202 C 
BRANCH  35  36
ATOM     36  C   UNL A   1      34.080  36.473  32.473  1.00  0.00     0.261 C 
BRANCH  36  37
ATOM     37  O   UNL A   1      35.081  35.450  32.385  1.00  0.00    -0.460 OA
BRANCH  37  38
ATOM     38  C   UNL A   1      35.439  34.869  33.563  1.00  0.00     0.338 C 
ATOM     39  O   UNL A   1      34.779  34.796  34.575  1.00  0.00    -0.246 OA
BRANCH  38  40
ATOM     40  C   UNL A   1      36.710  34.137  33.347  1.00  0.00     0.060 A 
ATOM     41  C   UNL A   1      36.760  33.049  32.478  1.00  0.00     0.016 A 
ATOM     42  C   UNL A   1      37.857  34.544  34.045  1.00  0.00     0.016 A 
ATOM     43  C   UNL A   1      37.969  32.369  32.302  1.00  0.00     0.010 A 
ATOM     44  C   UNL A   1      39.058  33.849  33.884  1.00  0.00     0.010 A 
ATOM     45  C   UNL A   1      39.127  32.765  32.997  1.00  0.00    -0.014 A 
BRANCH  45  46
ATOM     46  C   UNL A   1      40.436  32.158  32.655  1.00  0.00     0.031 A 
ATOM     47  C   UNL A   1      41.011  31.008  33.424  1.00  0.00     0.074 A 
ATOM     48  C   UNL A   1      41.115  32.681  31.615  1.00  0.00     0.049 A 
ATOM     49  N   UNL A   1      42.094  30.319  33.173  1.00  0.00    -0.248 NA
ATOM     50  C   UNL A   1      40.286  30.575  34.626  1.00  0.00     0.031 C 
ATOM     51  C   UNL A   1      40.663  33.827  30.826  1.00  0.00     0.029 A 
ATOM     52  N   UNL A   1      42.308  32.326  31.039  1.00  0.00    -0.354 N 
ATOM     53  C   UNL A   1      42.176  29.354  34.169  1.00  0.00     0.074 A 
ATOM     54  C   UNL A   1      41.056  29.582  35.060  1.00  0.00     0.031 C 
ATOM     55  C   UNL A   1      41.551  34.063  29.851  1.00  0.00     0.029 A 
ATOM     56  C   UNL A   1      42.655  33.112  29.965  1.00  0.00     0.049 A 
ATOM     57  H   UNL A   1      42.863  31.579  31.363  1.00  0.00     0.167 HD
ATOM     58  C   UNL A   1      43.091  28.364  34.308  1.00  0.00     0.034 A 
ATOM     59  C   UNL A   1      43.735  33.075  29.157  1.00  0.00     0.034 A 
ATOM     60  C   UNL A   1      44.204  28.166  33.408  1.00  0.00     0.049 A 
ATOM     61  C   UNL A   1      44.754  31.983  29.351  1.00  0.00     0.074 A 
ATOM     62  C   UNL A   1      45.146  27.151  33.431  1.00  0.00     0.029 A 
ATOM     63  N   UNL A   1      44.540  28.991  32.343  1.00  0.00    -0.354 N 
ATOM     64  N   UNL A   1      44.750  31.000  30.220  1.00  0.00    -0.248 NA
ATOM     65  C   UNL A   1      45.917  31.979  28.451  1.00  0.00     0.031 C 
ATOM     66  C   UNL A   1      46.095  27.409  32.442  1.00  0.00     0.029 A 
ATOM     67  C   UNL A   1      45.699  28.533  31.736  1.00  0.00     0.049 A 
ATOM     68  H   UNL A   1      44.030  29.784  32.061  1.00  0.00     0.167 HD
ATOM     69  C   UNL A   1      45.893  30.249  29.959  1.00  0.00     0.074 A 
ATOM     70  C   UNL A   1      46.550  30.877  28.832  1.00  0.00     0.031 C 
ATOM     71  C   UNL A   1      46.354  29.147  30.602  1.00  0.00     0.034 A 
BRANCH  58  72
ATOM     72  C   UNL A   1      42.942  27.377  35.443  1.00  0.00     0.023 A 
ATOM     73  C   UNL A   1      43.784  27.462  36.569  1.00  0.00     0.031 A 
ATOM     74  C   UNL A   1      42.102  26.254  35.327  1.00  0.00     0.131 A 
ATOM     75  C   UNL A   1      43.803  26.421  37.506  1.00  0.00     0.055 A 
ATOM     76  C   UNL A   1      42.091  25.243  36.289  1.00  0.00     0.041 A 
ATOM     77  F   UNL A   1      41.289  26.118  34.267  1.00  0.00    -0.206 F 
ATOM     78  C   UNL A   1      42.956  25.316  37.376  1.00  0.00     0.022 A 
BRANCH  75  79
ATOM     79  S   UNL A   1      44.990  26.412  38.879  1.00  0.00     0.124 S 
ATOM     80  O   UNL A   1      45.643  25.117  38.702  1.00  0.00    -0.237 OA
ATOM     81  O   UNL A   1      45.819  27.575  38.574  1.00  0.00    -0.237 OA
ATOM     82  O   UNL A   1      44.152  26.527  40.068  1.00  0.00    -0.744 OA
ENDBRANCH  75  79
ENDBRANCH  58  72
BRANCH  59  83
ATOM     83  C   UNL A   1      43.845  34.078  28.058  1.00  0.00     0.023 A 
ATOM     84  C   UNL A   1      43.992  35.448  28.348  1.00  0.00     0.031 A 
ATOM     85  C   UNL A   1      43.679  33.702  26.715  1.00  0.00     0.131 A 
ATOM     86  C   UNL A   1      43.888  36.393  27.321  1.00  0.00     0.055 A 
ATOM     87  C   UNL A   1      43.657  34.642  25.684  1.00  0.00     0.041 A 
ATOM     88  F   UNL A   1      43.518  32.409  26.391  1.00  0.00    -0.206 F 
ATOM     89  C   UNL A   1      43.741  35.998  25.988  1.00  0.00     0.022 A 
BRANCH  86  90
ATOM     90  S   UNL A   1      43.788  38.165  27.698  1.00  0.00     0.124 S 
ATOM     91  O   UNL A   1      42.746  38.613  26.781  1.00  0.00    -0.237 OA
ATOM     92  O   UNL A   1      43.421  38.146  29.112  1.00  0.00    -0.237 OA
ATOM     93  O   UNL A   1      45.133  38.654  27.413  1.00  0.00    -0.744 OA
ENDBRANCH  86  90
ENDBRANCH  59  83
BRANCH  71  94
ATOM     94  C   UNL A   1      47.643  28.510  30.132  1.00  0.00     0.023 A 
ATOM     95  C   UNL A   1      47.648  27.696  28.982  1.00  0.00     0.031 A 
ATOM     96  C   UNL A   1      48.810  28.559  30.913  1.00  0.00     0.131 A 
ATOM     97  C   UNL A   1      48.774  26.917  28.682  1.00  0.00     0.055 A 
ATOM     98  C   UNL A   1      49.950  27.826  30.577  1.00  0.00     0.041 A 
ATOM     99  F   UNL A   1      48.856  29.311  32.025  1.00  0.00    -0.206 F 
ATOM    100  C   UNL A   1      49.928  26.985  29.468  1.00  0.00     0.022 A 
BRANCH  97 101
ATOM    101  S   UNL A   1      48.744  25.710  27.326  1.00  0.00     0.124 S 
ATOM    102  O   UNL A   1      47.715  26.265  26.450  1.00  0.00    -0.237 OA
ATOM    103  O   UNL A   1      50.109  25.792  26.813  1.00  0.00    -0.237 OA
ATOM    104  O   UNL A   1      48.392  24.454  27.979  1.00  0.00    -0.744 OA
ENDBRANCH  97 101
ENDBRANCH  71  94
ENDBRANCH  45  46
ENDBRANCH  38  40
ENDBRANCH  37  38
ENDBRANCH  36  37
ENDBRANCH  35  36
ENDBRANCH  34  35
ENDBRANCH   1  34
TORSDOF 23
ENDMDL
MODEL 2
REMARK VINA RESULT:      -7.3      1.666      2.071
REMARK SMILES C[C@@H]1CCC[C@H](C)[N@H+]1Cc1cc2c(cc1Cl)C=C(C(=O)OCCOCCOCCOC(=O)c1ccc(-c3c4nc(c(-c5cc(S(=O)(=O)[O-])ccc5F)c5ccc([nH]5)c(-c5cc(S(=O)(=O)[O-])ccc5F)c5nc(c(-c6cc(S(=O)(=O)[O-])ccc6F)c6ccc3[nH]6)C=C5)C=C4)cc1)[C@@H](C(F)(F)F)O2
REMARK SMILES IDX 26 1 25 2 24 3 23 4 22 5 21 6 19 7 20 8 18 9 10 10 11 11
REMARK SMILES IDX 15 12 12 13 14 14 16 15 13 16 101 17 17 18 96 19 9 20 8 21
REMARK SMILES IDX 7 22 6 23 5 24 4 25 2 26 3 28 1 29 97 30 98 31 99 32 100 33
REMARK SMILES IDX 27 34 28 35 29 36 30 37 31 38 32 39 33 40 34 41 95 42 35 43
REMARK SMILES IDX 94 44 36 45 37 46 38 47 88 48 39 49 93 50 87 51 89 52 40 53
REMARK SMILES IDX 92 54 86 55 85 56 41 58 73 59 53 60 72 61 54 62 57 63 71 64
REMARK SMILES IDX 90 65 55 66 56 67 70 69 91 70 58 71 42 72 43 73 51 74 44 75
REMARK SMILES IDX 50 76 52 77 49 78 45 79 46 80 47 81 48 82 74 83 75 84 83 85
REMARK SMILES IDX 76 86 82 87 84 88 81 89 77 90 78 91 79 92 80 93 59 94 60 95
REMARK SMILES IDX 68 96 61 97 67 98 69 99 66 100 62 101 63 102 64 103 65 104
REMARK H PARENT 8 27 89 57 57 68
REMARK Flexibility Score: inf
ROOT
ATOM      1  C   UNL A   1      33.560  35.837  28.808  1.00  0.00     0.188 C 
ENDROOT
BRANCH   1   2
ATOM      2  C   UNL A   1      33.309  34.327  28.597  1.00  0.00     0.188 C 
BRANCH   2   3
ATOM      3  O   UNL A   1      34.369  33.520  29.054  1.00  0.00    -0.376 OA
BRANCH   3   4
ATOM      4  C   UNL A   1      35.265  32.943  28.122  1.00  0.00     0.202 C 
BRANCH   4   5
ATOM      5  C   UNL A   1      35.486  31.424  27.961  1.00  0.00     0.261 C 
BRANCH   5   6
ATOM      6  O   UNL A   1      36.833  30.935  28.001  1.00  0.00    -0.460 OA
BRANCH   6   7
ATOM      7  C   UNL A   1      37.131  30.128  29.044  1.00  0.00     0.338 C 
ATOM      8  O   UNL A   1      36.346  29.719  29.883  1.00  0.00    -0.246 OA
BRANCH   7   9
ATOM      9  C   UNL A   1      38.541  29.695  28.965  1.00  0.00     0.087 C 
ATOM     10  C   UNL A   1      42.887  27.662  27.421  1.00  0.00     0.029 A 
ATOM     11  C   UNL A   1      42.462  28.275  28.622  1.00  0.00     0.058 A 
ATOM     12  C   UNL A   1      41.940  27.524  26.391  1.00  0.00     0.050 A 
ATOM     13  C   UNL A   1      41.167  28.799  28.749  1.00  0.00     0.128 A 
ATOM     14  C   UNL A   1      40.689  28.138  26.483  1.00  0.00     0.033 A 
ATOM     15  Cl  UNL A   1      42.208  26.563  24.980  1.00  0.00    -0.084 Cl
ATOM     16  C   UNL A   1      40.305  28.780  27.655  1.00  0.00     0.019 A 
ATOM     17  O   UNL A   1      40.810  29.335  29.958  1.00  0.00    -0.475 OA
ATOM     18  C   UNL A   1      38.984  29.371  27.746  1.00  0.00     0.027 C 
ATOM     19  C   UNL A   1      39.386  29.567  30.206  1.00  0.00     0.316 C 
BRANCH  10  20
ATOM     20  C   UNL A   1      44.321  27.175  27.279  1.00  0.00     0.301 C 
BRANCH  20  21
ATOM     21  N   UNL A   1      44.568  25.716  27.225  1.00  0.00    -0.327 N 
ATOM     22  C   UNL A   1      44.325  23.720  28.678  1.00  0.00     0.075 C 
ATOM     23  C   UNL A   1      44.982  25.102  28.493  1.00  0.00     0.181 C 
ATOM     24  C   UNL A   1      46.507  25.022  28.674  1.00  0.00     0.065 C 
ATOM     25  C   UNL A   1      47.237  24.474  27.453  1.00  0.00     0.012 C 
ATOM     26  C   UNL A   1      45.268  25.234  26.020  1.00  0.00     0.181 C 
ATOM     27  H   UNL A   1      43.631  25.334  27.093  1.00  0.00     0.348 HD
ATOM     28  C   UNL A   1      46.796  25.178  26.177  1.00  0.00     0.065 C 
ATOM     29  C   UNL A   1      44.738  23.874  25.535  1.00  0.00     0.075 C 
ENDBRANCH  20  21
ENDBRANCH  10  20
BRANCH  19  30
ATOM     30  C   UNL A   1      38.822  28.489  31.140  1.00  0.00     0.430 C 
ATOM     31  F   UNL A   1      38.249  27.476  30.447  1.00  0.00    -0.167 F 
ATOM     32  F   UNL A   1      39.800  27.933  31.898  1.00  0.00    -0.167 F 
ATOM     33  F   UNL A   1      37.887  28.977  31.987  1.00  0.00    -0.167 F 
ENDBRANCH  19  30
ENDBRANCH   7   9
ENDBRANCH   6   7
ENDBRANCH   5   6
ENDBRANCH   4   5
ENDBRANCH   3   4
ENDBRANCH   2   3
ENDBRANCH   1   2
BRANCH   1  34
ATOM     34  O   UNL A   1      32.718  36.578  29.682  1.00  0.00    -0.376 OA
BRANCH  34  35
ATOM     35  C   UNL A   1      32.484  36.088  30.999  1.00  0.00     0.202 C 
BRANCH  35  36
ATOM     36  C   UNL A   1      33.578  36.131  32.085  1.00  0.00     0.261 C 
BRANCH  36  37
ATOM     37  O   UNL A   1      34.623  35.155  31.980  1.00  0.00    -0.460 OA
BRANCH  37  38
ATOM     38  C   UNL A   1      34.885  34.444  33.112  1.00  0.00     0.338 C 
ATOM     39  O   UNL A   1      34.120  34.199  34.016  1.00  0.00    -0.246 OA
BRANCH  38  40
ATOM     40  C   UNL A   1      36.222  33.823  32.964  1.00  0.00     0.060 A 
ATOM     41  C   UNL A   1      36.499  32.990  31.881  1.00  0.00     0.016 A 
ATOM     42  C   UNL A   1      37.199  34.070  33.940  1.00  0.00     0.016 A 
ATOM     43  C   UNL A   1      37.765  32.406  31.773  1.00  0.00     0.010 A 
ATOM     44  C   UNL A   1      38.456  33.467  33.841  1.00  0.00     0.010 A 
ATOM     45  C   UNL A   1      38.754  32.644  32.746  1.00  0.00    -0.014 A 
BRANCH  45  46
ATOM     46  C   UNL A   1      40.143  32.176  32.516  1.00  0.00     0.031 A 
ATOM     47  C   UNL A   1      40.738  31.032  33.278  1.00  0.00     0.074 A 
ATOM     48  C   UNL A   1      40.875  32.822  31.587  1.00  0.00     0.049 A 
ATOM     49  N   UNL A   1      41.901  30.457  33.109  1.00  0.00    -0.248 NA
ATOM     50  C   UNL A   1      39.936  30.460  34.368  1.00  0.00     0.031 C 
ATOM     51  C   UNL A   1      40.402  33.974  30.818  1.00  0.00     0.029 A 
ATOM     52  N   UNL A   1      42.148  32.609  31.126  1.00  0.00    -0.354 N 
ATOM     53  C   UNL A   1      41.968  29.440  34.053  1.00  0.00     0.074 A 
ATOM     54  C   UNL A   1      40.745  29.512  34.828  1.00  0.00     0.031 C 
ATOM     55  C   UNL A   1      41.361  34.349  29.961  1.00  0.00     0.029 A 
ATOM     56  C   UNL A   1      42.531  33.491  30.142  1.00  0.00     0.049 A 
ATOM     57  H   UNL A   1      42.733  31.894  31.467  1.00  0.00     0.167 HD
ATOM     58  C   UNL A   1      42.952  28.525  34.236  1.00  0.00     0.034 A 
ATOM     59  C   UNL A   1      43.688  33.600  29.456  1.00  0.00     0.034 A 
ATOM     60  C   UNL A   1      44.166  28.483  33.453  1.00  0.00     0.049 A 
ATOM     61  C   UNL A   1      44.778  32.590  29.699  1.00  0.00     0.074 A 
ATOM     62  C   UNL A   1      45.190  27.554  33.523  1.00  0.00     0.029 A 
ATOM     63  N   UNL A   1      44.533  29.402  32.479  1.00  0.00    -0.354 N 
ATOM     64  N   UNL A   1      44.774  31.556  30.507  1.00  0.00    -0.248 NA
ATOM     65  C   UNL A   1      46.023  32.745  28.933  1.00  0.00     0.031 C 
ATOM     66  C   UNL A   1      46.208  27.957  32.660  1.00  0.00     0.029 A 
ATOM     67  C   UNL A   1      45.786  29.086  31.977  1.00  0.00     0.049 A 
ATOM     68  H   UNL A   1      43.984  30.165  32.188  1.00  0.00     0.167 HD
ATOM     69  C   UNL A   1      46.004  30.925  30.331  1.00  0.00     0.074 A 
ATOM     70  C   UNL A   1      46.713  31.679  29.319  1.00  0.00     0.031 C 
ATOM     71  C   UNL A   1      46.495  29.827  30.958  1.00  0.00     0.034 A 
BRANCH  58  72
ATOM     72  C   UNL A   1      42.778  27.458  35.291  1.00  0.00     0.023 A 
ATOM     73  C   UNL A   1      43.644  27.412  36.401  1.00  0.00     0.031 A 
ATOM     74  C   UNL A   1      41.884  26.388  35.105  1.00  0.00     0.131 A 
ATOM     75  C   UNL A   1      43.631  26.299  37.251  1.00  0.00     0.055 A 
ATOM     76  C   UNL A   1      41.842  25.303  35.982  1.00  0.00     0.041 A 
ATOM     77  F   UNL A   1      41.045  26.375  34.056  1.00  0.00    -0.206 F 
ATOM     78  C   UNL A   1      42.731  25.248  37.052  1.00  0.00     0.022 A 
BRANCH  75  79
ATOM     79  S   UNL A   1      44.843  26.124  38.592  1.00  0.00     0.124 S 
ATOM     80  O   UNL A   1      46.107  26.190  37.863  1.00  0.00    -0.237 OA
ATOM     81  O   UNL A   1      44.544  27.285  39.426  1.00  0.00    -0.237 OA
ATOM     82  O   UNL A   1      44.530  24.826  39.179  1.00  0.00    -0.744 OA
ENDBRANCH  75  79
ENDBRANCH  58  72
BRANCH  59  83
ATOM     83  C   UNL A   1      43.818  34.678  28.433  1.00  0.00     0.023 A 
ATOM     84  C   UNL A   1      43.955  36.024  28.822  1.00  0.00     0.031 A 
ATOM     85  C   UNL A   1      43.681  34.397  27.064  1.00  0.00     0.131 A 
ATOM     86  C   UNL A   1      43.870  37.040  27.862  1.00  0.00     0.055 A 
ATOM     87  C   UNL A   1      43.677  35.408  26.101  1.00  0.00     0.041 A 
ATOM     88  F   UNL A   1      43.530  33.131  26.645  1.00  0.00    -0.206 F 
ATOM     89  C   UNL A   1      43.751  36.740  26.501  1.00  0.00     0.022 A 
BRANCH  86  90
ATOM     90  S   UNL A   1      43.757  38.781  28.361  1.00  0.00     0.124 S 
ATOM     91  O   UNL A   1      44.973  39.342  27.784  1.00  0.00    -0.237 OA
ATOM     92  O   UNL A   1      42.508  39.190  27.724  1.00  0.00    -0.237 OA
ATOM     93  O   UNL A   1      43.719  38.719  29.818  1.00  0.00    -0.744 OA
ENDBRANCH  86  90
ENDBRANCH  59  83
BRANCH  71  94
ATOM     94  C   UNL A   1      47.880  29.335  30.597  1.00  0.00     0.023 A 
ATOM     95  C   UNL A   1      48.997  29.775  31.333  1.00  0.00     0.031 A 
ATOM     96  C   UNL A   1      48.109  28.587  29.430  1.00  0.00     0.131 A 
ATOM     97  C   UNL A   1      50.292  29.519  30.860  1.00  0.00     0.055 A 
ATOM     98  C   UNL A   1      49.400  28.284  28.994  1.00  0.00     0.041 A 
ATOM     99  F   UNL A   1      47.079  28.151  28.686  1.00  0.00    -0.206 F 
ATOM    100  C   UNL A   1      50.498  28.767  29.700  1.00  0.00     0.022 A 
BRANCH  97 101
ATOM    101  S   UNL A   1      51.746  30.239  31.672  1.00  0.00     0.124 S 
ATOM    102  O   UNL A   1      51.377  31.650  31.757  1.00  0.00    -0.237 OA
ATOM    103  O   UNL A   1      51.771  29.524  32.946  1.00  0.00    -0.237 OA
ATOM    104  O   UNL A   1      52.844  29.939  30.761  1.00  0.00    -0.744 OA
ENDBRANCH  97 101
ENDBRANCH  71  94
ENDBRANCH  45  46
ENDBRANCH  38  40
ENDBRANCH  37  38
ENDBRANCH  36  37
ENDBRANCH  35  36
ENDBRANCH  34  35
ENDBRANCH   1  34
TORSDOF 23
ENDMDL
MODEL 3
REMARK VINA RESULT:      -6.9      4.820      7.300
REMARK SMILES C[C@@H]1CCC[C@H](C)[N@H+]1Cc1cc2c(cc1Cl)C=C(C(=O)OCCOCCOCCOC(=O)c1ccc(-c3c4nc(c(-c5cc(S(=O)(=O)[O-])ccc5F)c5ccc([nH]5)c(-c5cc(S(=O)(=O)[O-])ccc5F)c5nc(c(-c6cc(S(=O)(=O)[O-])ccc6F)c6ccc3[nH]6)C=C5)C=C4)cc1)[C@@H](C(F)(F)F)O2
REMARK SMILES IDX 26 1 25 2 24 3 23 4 22 5 21 6 19 7 20 8 18 9 10 10 11 11
REMARK SMILES IDX 15 12 12 13 14 14 16 15 13 16 101 17 17 18 96 19 9 20 8 21
REMARK SMILES IDX 7 22 6 23 5 24 4 25 2 26 3 28 1 29 97 30 98 31 99 32 100 33
REMARK SMILES IDX 27 34 28 35 29 36 30 37 31 38 32 39 33 40 34 41 95 42 35 43
REMARK SMILES IDX 94 44 36 45 37 46 38 47 88 48 39 49 93 50 87 51 89 52 40 53
REMARK SMILES IDX 92 54 86 55 85 56 41 58 73 59 53 60 72 61 54 62 57 63 71 64
REMARK SMILES IDX 90 65 55 66 56 67 70 69 91 70 58 71 42 72 43 73 51 74 44 75
REMARK SMILES IDX 50 76 52 77 49 78 45 79 46 80 47 81 48 82 74 83 75 84 83 85
REMARK SMILES IDX 76 86 82 87 84 88 81 89 77 90 78 91 79 92 80 93 59 94 60 95
REMARK SMILES IDX 68 96 61 97 67 98 69 99 66 100 62 101 63 102 64 103 65 104
REMARK H PARENT 8 27 89 57 57 68
REMARK Flexibility Score: inf
ROOT
ATOM      1  C   UNL A   1      33.743  35.760  28.930  1.00  0.00     0.188 C 
ENDROOT
BRANCH   1   2
ATOM      2  C   UNL A   1      33.404  34.259  28.791  1.00  0.00     0.188 C 
BRANCH   2   3
ATOM      3  O   UNL A   1      34.263  33.426  29.534  1.00  0.00    -0.376 OA
BRANCH   3   4
ATOM      4  C   UNL A   1      35.218  32.626  28.861  1.00  0.00     0.202 C 
BRANCH   4   5
ATOM      5  C   UNL A   1      35.420  31.118  29.120  1.00  0.00     0.261 C 
BRANCH   5   6
ATOM      6  O   UNL A   1      36.752  30.596  29.042  1.00  0.00    -0.460 OA
BRANCH   6   7
ATOM      7  C   UNL A   1      37.472  30.657  30.184  1.00  0.00     0.338 C 
ATOM      8  O   UNL A   1      37.085  31.093  31.255  1.00  0.00    -0.246 OA
BRANCH   7   9
ATOM      9  C   UNL A   1      38.781  29.999  29.997  1.00  0.00     0.087 C 
ATOM     10  C   UNL A   1      42.804  27.746  27.959  1.00  0.00     0.029 A 
ATOM     11  C   UNL A   1      42.393  28.008  29.287  1.00  0.00     0.058 A 
ATOM     12  C   UNL A   1      41.943  28.144  26.921  1.00  0.00     0.050 A 
ATOM     13  C   UNL A   1      41.209  28.712  29.552  1.00  0.00     0.128 A 
ATOM     14  C   UNL A   1      40.822  28.933  27.185  1.00  0.00     0.033 A 
ATOM     15  Cl  UNL A   1      42.155  27.660  25.276  1.00  0.00    -0.084 Cl
ATOM     16  C   UNL A   1      40.459  29.224  28.497  1.00  0.00     0.019 A 
ATOM     17  O   UNL A   1      40.850  28.887  30.863  1.00  0.00    -0.475 OA
ATOM     18  C   UNL A   1      39.264  30.006  28.750  1.00  0.00     0.027 C 
ATOM     19  C   UNL A   1      39.475  29.308  31.142  1.00  0.00     0.316 C 
BRANCH  10  20
ATOM     20  C   UNL A   1      44.131  27.053  27.694  1.00  0.00     0.301 C 
BRANCH  20  21
ATOM     21  N   UNL A   1      44.131  25.590  27.469  1.00  0.00    -0.327 N 
ATOM     22  C   UNL A   1      42.779  23.876  26.289  1.00  0.00     0.075 C 
ATOM     23  C   UNL A   1      42.804  24.969  27.376  1.00  0.00     0.181 C 
ATOM     24  C   UNL A   1      42.276  24.432  28.717  1.00  0.00     0.065 C 
ATOM     25  C   UNL A   1      43.297  23.598  29.483  1.00  0.00     0.012 C 
ATOM     26  C   UNL A   1      45.143  24.830  28.225  1.00  0.00     0.181 C 
ATOM     27  H   UNL A   1      44.477  25.511  26.512  1.00  0.00     0.348 HD
ATOM     28  C   UNL A   1      44.639  24.313  29.581  1.00  0.00     0.065 C 
ATOM     29  C   UNL A   1      45.742  23.672  27.409  1.00  0.00     0.075 C 
ENDBRANCH  20  21
ENDBRANCH  10  20
BRANCH  19  30
ATOM     30  C   UNL A   1      38.643  28.121  31.646  1.00  0.00     0.430 C 
ATOM     31  F   UNL A   1      37.467  28.527  32.182  1.00  0.00    -0.167 F 
ATOM     32  F   UNL A   1      38.333  27.272  30.635  1.00  0.00    -0.167 F 
ATOM     33  F   UNL A   1      39.290  27.402  32.590  1.00  0.00    -0.167 F 
ENDBRANCH  19  30
ENDBRANCH   7   9
ENDBRANCH   6   7
ENDBRANCH   5   6
ENDBRANCH   4   5
ENDBRANCH   3   4
ENDBRANCH   2   3
ENDBRANCH   1   2
BRANCH   1  34
ATOM     34  O   UNL A   1      32.962  36.586  29.784  1.00  0.00    -0.376 OA
BRANCH  34  35
ATOM     35  C   UNL A   1      32.618  36.111  31.081  1.00  0.00     0.202 C 
BRANCH  35  36
ATOM     36  C   UNL A   1      33.545  36.329  32.295  1.00  0.00     0.261 C 
BRANCH  36  37
ATOM     37  O   UNL A   1      34.773  35.589  32.301  1.00  0.00    -0.460 OA
BRANCH  37  38
ATOM     38  C   UNL A   1      34.742  34.395  32.956  1.00  0.00     0.338 C 
ATOM     39  O   UNL A   1      33.901  33.530  32.861  1.00  0.00    -0.246 OA
BRANCH  38  40
ATOM     40  C   UNL A   1      36.035  34.223  33.659  1.00  0.00     0.060 A 
ATOM     41  C   UNL A   1      36.069  33.781  34.981  1.00  0.00     0.016 A 
ATOM     42  C   UNL A   1      37.224  34.532  32.982  1.00  0.00     0.016 A 
ATOM     43  C   UNL A   1      37.301  33.640  35.624  1.00  0.00     0.010 A 
ATOM     44  C   UNL A   1      38.454  34.412  33.635  1.00  0.00     0.010 A 
ATOM     45  C   UNL A   1      38.502  33.948  34.957  1.00  0.00    -0.014 A 
BRANCH  45  46
ATOM     46  C   UNL A   1      39.802  33.611  35.586  1.00  0.00     0.031 A 
ATOM     47  C   UNL A   1      40.502  32.311  35.330  1.00  0.00     0.074 A 
ATOM     48  C   UNL A   1      40.350  34.519  36.417  1.00  0.00     0.049 A 
ATOM     49  N   UNL A   1      41.685  31.928  35.735  1.00  0.00    -0.248 NA
ATOM     50  C   UNL A   1      39.789  31.311  34.524  1.00  0.00     0.031 C 
ATOM     51  C   UNL A   1      39.730  35.798  36.766  1.00  0.00     0.029 A 
ATOM     52  N   UNL A   1      41.534  34.520  37.108  1.00  0.00    -0.354 N 
ATOM     53  C   UNL A   1      41.876  30.653  35.217  1.00  0.00     0.074 A 
ATOM     54  C   UNL A   1      40.658  30.306  34.511  1.00  0.00     0.031 C 
ATOM     55  C   UNL A   1      40.551  36.473  37.581  1.00  0.00     0.029 A 
ATOM     56  C   UNL A   1      41.739  35.663  37.845  1.00  0.00     0.049 A 
ATOM     57  H   UNL A   1      42.176  33.774  37.079  1.00  0.00     0.167 HD
ATOM     58  C   UNL A   1      42.973  29.862  35.312  1.00  0.00     0.034 A 
ATOM     59  C   UNL A   1      42.766  36.026  38.643  1.00  0.00     0.034 A 
ATOM     60  C   UNL A   1      44.170  30.230  36.031  1.00  0.00     0.049 A 
ATOM     61  C   UNL A   1      43.959  35.115  38.756  1.00  0.00     0.074 A 
ATOM     62  C   UNL A   1      45.355  29.521  36.127  1.00  0.00     0.029 A 
ATOM     63  N   UNL A   1      44.338  31.384  36.785  1.00  0.00    -0.354 N 
ATOM     64  N   UNL A   1      44.178  33.968  38.157  1.00  0.00    -0.248 NA
ATOM     65  C   UNL A   1      45.055  35.546  39.636  1.00  0.00     0.031 C 
ATOM     66  C   UNL A   1      46.203  30.198  37.003  1.00  0.00     0.029 A 
ATOM     67  C   UNL A   1      45.589  31.380  37.384  1.00  0.00     0.049 A 
ATOM     68  H   UNL A   1      43.669  32.099  36.879  1.00  0.00     0.167 HD
ATOM     69  C   UNL A   1      45.441  33.552  38.569  1.00  0.00     0.074 A 
ATOM     70  C   UNL A   1      45.950  34.585  39.446  1.00  0.00     0.031 C 
ATOM     71  C   UNL A   1      46.109  32.414  38.251  1.00  0.00     0.034 A 
BRANCH  58  72
ATOM     72  C   UNL A   1      42.980  28.526  34.604  1.00  0.00     0.023 A 
ATOM     73  C   UNL A   1      42.755  27.340  35.330  1.00  0.00     0.031 A 
ATOM     74  C   UNL A   1      43.388  28.415  33.263  1.00  0.00     0.131 A 
ATOM     75  C   UNL A   1      42.989  26.098  34.726  1.00  0.00     0.055 A 
ATOM     76  C   UNL A   1      43.573  27.173  32.651  1.00  0.00     0.041 A 
ATOM     77  F   UNL A   1      43.628  29.514  32.529  1.00  0.00    -0.206 F 
ATOM     78  C   UNL A   1      43.389  26.008  33.389  1.00  0.00     0.022 A 
BRANCH  75  79
ATOM     79  S   UNL A   1      42.873  24.554  35.674  1.00  0.00     0.124 S 
ATOM     80  O   UNL A   1      43.219  25.003  37.020  1.00  0.00    -0.237 OA
ATOM     81  O   UNL A   1      41.474  24.182  35.481  1.00  0.00    -0.237 OA
ATOM     82  O   UNL A   1      43.852  23.679  35.039  1.00  0.00    -0.744 OA
ENDBRANCH  75  79
ENDBRANCH  58  72
BRANCH  59  83
ATOM     83  C   UNL A   1      42.708  37.349  39.331  1.00  0.00     0.023 A 
ATOM     84  C   UNL A   1      41.927  37.521  40.490  1.00  0.00     0.031 A 
ATOM     85  C   UNL A   1      43.324  38.481  38.776  1.00  0.00     0.131 A 
ATOM     86  C   UNL A   1      41.718  38.806  41.005  1.00  0.00     0.055 A 
ATOM     87  C   UNL A   1      43.179  39.750  39.339  1.00  0.00     0.041 A 
ATOM     88  F   UNL A   1      44.064  38.370  37.661  1.00  0.00    -0.206 F 
ATOM     89  C   UNL A   1      42.355  39.920  40.448  1.00  0.00     0.022 A 
BRANCH  86  90
ATOM     90  S   UNL A   1      40.496  39.093  42.315  1.00  0.00     0.124 S 
ATOM     91  O   UNL A   1      39.243  38.789  41.634  1.00  0.00    -0.237 OA
ATOM     92  O   UNL A   1      40.916  38.127  43.327  1.00  0.00    -0.237 OA
ATOM     93  O   UNL A   1      40.698  40.493  42.674  1.00  0.00    -0.744 OA
ENDBRANCH  86  90
ENDBRANCH  59  83
BRANCH  71  94
ATOM     94  C   UNL A   1      47.481  32.181  38.843  1.00  0.00     0.023 A 
ATOM     95  C   UNL A   1      47.609  31.570  40.106  1.00  0.00     0.031 A 
ATOM     96  C   UNL A   1      48.635  32.719  38.248  1.00  0.00     0.131 A 
ATOM     97  C   UNL A   1      48.849  31.570  40.760  1.00  0.00     0.055 A 
ATOM     98  C   UNL A   1      49.880  32.664  38.879  1.00  0.00     0.041 A 
ATOM     99  F   UNL A   1      48.568  33.321  37.049  1.00  0.00    -0.206 F 
ATOM    100  C   UNL A   1      49.986  32.105  40.149  1.00  0.00     0.022 A 
BRANCH  97 101
ATOM    101  S   UNL A   1      49.007  30.973  42.467  1.00  0.00     0.124 S 
ATOM    102  O   UNL A   1      47.656  30.492  42.746  1.00  0.00    -0.237 OA
ATOM    103  O   UNL A   1      50.023  29.932  42.334  1.00  0.00    -0.237 OA
ATOM    104  O   UNL A   1      49.412  32.156  43.218  1.00  0.00    -0.744 OA
ENDBRANCH  97 101
ENDBRANCH  71  94
ENDBRANCH  45  46
ENDBRANCH  38  40
ENDBRANCH  37  38
ENDBRANCH  36  37
ENDBRANCH  35  36
ENDBRANCH  34  35
ENDBRANCH   1  34
TORSDOF 23
ENDMDL
