MODEL 1
REMARK VINA RESULT:      -8.1      0.000      0.000
REMARK SMILES Cc1cscc1CNC(=O)N[C@@H](C)c1nc(C(=O)OCCOCCOCCOC(=O)c2ccc(-c3c4nc(c(-c5cc(S(=O)(=O)[O-])ccc5F)c5ccc([nH]5)c(-c5cc(S(=O)(=O)[O-])ccc5F)c5nc(c(-c6cc(S(=O)(=O)[O-])ccc6F)c6ccc3[nH]6)C=C5)C=C4)cc2)cs1
REMARK SMILES IDX 23 1 22 2 21 3 20 4 19 5 17 6 18 7 16 8 14 9 15 10 95 11
REMARK SMILES IDX 94 12 12 13 13 14 11 15 8 16 9 17 10 19 7 21 6 22 1 23 2 24
REMARK SMILES IDX 3 25 4 26 5 27 24 28 25 29 26 30 27 31 28 32 29 33 30 34
REMARK SMILES IDX 31 35 32 36 93 37 33 38 92 39 34 40 35 41 36 42 86 43 37 44
REMARK SMILES IDX 91 45 85 46 87 47 38 48 90 49 84 50 83 51 39 53 71 54 51 55
REMARK SMILES IDX 70 56 52 57 55 58 69 59 88 60 53 61 54 62 68 64 89 65 56 66
REMARK SMILES IDX 40 67 41 68 49 69 42 70 48 71 50 72 47 73 43 74 44 75 45 76
REMARK SMILES IDX 46 77 72 78 73 79 81 80 74 81 80 82 82 83 79 84 75 85 76 86
REMARK SMILES IDX 77 87 78 88 57 89 58 90 66 91 59 92 65 93 67 94 64 95 60 96
REMARK SMILES IDX 61 97 62 98 63 99
REMARK H PARENT 8 18 11 20 87 52 55 63
REMARK Flexibility Score: inf
ROOT
ATOM      1  C   UNL A   1      45.891  22.614  25.170  1.00  0.00     0.188 C 
ENDROOT
BRANCH   1   2
ATOM      2  O   UNL A   1      46.790  23.458  25.884  1.00  0.00    -0.376 OA
BRANCH   2   3
ATOM      3  C   UNL A   1      47.220  24.688  25.323  1.00  0.00     0.202 C 
BRANCH   3   4
ATOM      4  C   UNL A   1      46.343  25.911  25.595  1.00  0.00     0.261 C 
BRANCH   4   5
ATOM      5  O   UNL A   1      47.099  27.125  25.723  1.00  0.00    -0.458 OA
BRANCH   5   6
ATOM      6  C   UNL A   1      46.601  28.194  25.032  1.00  0.00     0.357 C 
ATOM      7  O   UNL A   1      46.415  28.213  23.825  1.00  0.00    -0.244 OA
BRANCH   6   8
ATOM      8  C   UNL A   1      46.180  29.297  25.904  1.00  0.00     0.159 A 
ATOM      9  C   UNL A   1      45.709  31.384  26.532  1.00  0.00     0.116 A 
ATOM     10  N   UNL A   1      46.225  30.656  25.556  1.00  0.00    -0.232 NA
ATOM     11  S   UNL A   1      45.307  30.513  27.965  1.00  0.00    -0.124 S 
ATOM     12  C   UNL A   1      45.708  29.055  27.183  1.00  0.00     0.102 A 
BRANCH   9  13
ATOM     13  C   UNL A   1      45.395  32.865  26.480  1.00  0.00     0.140 C 
ATOM     14  C   UNL A   1      44.139  33.128  25.650  1.00  0.00     0.039 C 
BRANCH  13  15
ATOM     15  N   UNL A   1      46.520  33.590  25.917  1.00  0.00    -0.329 N 
ATOM     16  N   UNL A   1      46.422  35.802  26.757  1.00  0.00    -0.334 N 
ATOM     17  C   UNL A   1      46.933  34.857  25.966  1.00  0.00     0.315 C 
ATOM     18  H   UNL A   1      46.866  36.671  26.626  1.00  0.00     0.165 HD
ATOM     19  O   UNL A   1      47.872  35.182  25.233  1.00  0.00    -0.249 OA
ATOM     20  H   UNL A   1      47.111  33.017  25.378  1.00  0.00     0.166 HD
BRANCH  16  21
ATOM     21  C   UNL A   1      45.382  35.874  27.762  1.00  0.00     0.154 C 
BRANCH  21  22
ATOM     22  C   UNL A   1      44.470  37.050  27.541  1.00  0.00    -0.015 A 
ATOM     23  C   UNL A   1      46.050  38.830  28.629  1.00  0.00     0.045 C 
ATOM     24  C   UNL A   1      44.787  38.409  27.949  1.00  0.00    -0.035 A 
ATOM     25  C   UNL A   1      43.766  39.287  27.634  1.00  0.00     0.068 A 
ATOM     26  S   UNL A   1      42.456  38.529  26.855  1.00  0.00    -0.152 S 
ATOM     27  C   UNL A   1      43.224  37.010  26.936  1.00  0.00     0.070 A 
ENDBRANCH  21  22
ENDBRANCH  16  21
ENDBRANCH  13  15
ENDBRANCH   9  13
ENDBRANCH   6   8
ENDBRANCH   5   6
ENDBRANCH   4   5
ENDBRANCH   3   4
ENDBRANCH   2   3
ENDBRANCH   1   2
BRANCH   1  28
ATOM     28  C   UNL A   1      46.366  21.278  24.565  1.00  0.00     0.188 C 
BRANCH  28  29
ATOM     29  O   UNL A   1      46.147  20.148  25.400  1.00  0.00    -0.376 OA
BRANCH  29  30
ATOM     30  C   UNL A   1      45.316  19.131  24.857  1.00  0.00     0.202 C 
BRANCH  30  31
ATOM     31  C   UNL A   1      43.933  19.091  25.515  1.00  0.00     0.261 C 
BRANCH  31  32
ATOM     32  O   UNL A   1      43.126  20.255  25.277  1.00  0.00    -0.460 OA
BRANCH  32  33
ATOM     33  C   UNL A   1      41.992  20.358  26.006  1.00  0.00     0.338 C 
ATOM     34  O   UNL A   1      41.156  19.489  26.183  1.00  0.00    -0.246 OA
BRANCH  33  35
ATOM     35  C   UNL A   1      41.995  21.669  26.685  1.00  0.00     0.060 A 
ATOM     36  C   UNL A   1      42.254  22.819  25.932  1.00  0.00     0.016 A 
ATOM     37  C   UNL A   1      41.772  21.755  28.062  1.00  0.00     0.016 A 
ATOM     38  C   UNL A   1      42.331  24.060  26.566  1.00  0.00     0.010 A 
ATOM     39  C   UNL A   1      41.861  22.996  28.697  1.00  0.00     0.010 A 
ATOM     40  C   UNL A   1      42.174  24.150  27.958  1.00  0.00    -0.014 A 
BRANCH  40  41
ATOM     41  C   UNL A   1      42.529  25.404  28.667  1.00  0.00     0.031 A 
ATOM     42  C   UNL A   1      43.972  25.631  29.036  1.00  0.00     0.074 A 
ATOM     43  C   UNL A   1      41.599  26.321  28.985  1.00  0.00     0.049 A 
ATOM     44  N   UNL A   1      44.519  26.623  29.688  1.00  0.00    -0.248 NA
ATOM     45  C   UNL A   1      44.920  24.588  28.613  1.00  0.00     0.031 C 
ATOM     46  C   UNL A   1      40.175  26.228  28.664  1.00  0.00     0.029 A 
ATOM     47  N   UNL A   1      41.715  27.511  29.660  1.00  0.00    -0.354 N 
ATOM     48  C   UNL A   1      45.877  26.331  29.750  1.00  0.00     0.074 A 
ATOM     49  C   UNL A   1      46.061  25.048  29.106  1.00  0.00     0.031 C 
ATOM     50  C   UNL A   1      39.548  27.312  29.155  1.00  0.00     0.029 A 
ATOM     51  C   UNL A   1      40.517  28.160  29.847  1.00  0.00     0.049 A 
ATOM     52  H   UNL A   1      42.575  27.867  29.980  1.00  0.00     0.167 HD
ATOM     53  C   UNL A   1      46.882  27.067  30.285  1.00  0.00     0.034 A 
ATOM     54  C   UNL A   1      40.236  29.295  30.519  1.00  0.00     0.034 A 
ATOM     55  C   UNL A   1      46.687  28.332  30.950  1.00  0.00     0.049 A 
ATOM     56  C   UNL A   1      41.360  30.059  31.181  1.00  0.00     0.074 A 
ATOM     57  C   UNL A   1      47.636  29.162  31.521  1.00  0.00     0.029 A 
ATOM     58  N   UNL A   1      45.455  28.941  31.149  1.00  0.00    -0.354 N 
ATOM     59  N   UNL A   1      42.643  29.784  31.214  1.00  0.00    -0.248 NA
ATOM     60  C   UNL A   1      40.994  31.293  31.893  1.00  0.00     0.031 C 
ATOM     61  C   UNL A   1      46.973  30.240  32.119  1.00  0.00     0.029 A 
ATOM     62  C   UNL A   1      45.617  30.121  31.860  1.00  0.00     0.049 A 
ATOM     63  H   UNL A   1      44.593  28.588  30.831  1.00  0.00     0.167 HD
ATOM     64  C   UNL A   1      43.239  30.827  31.920  1.00  0.00     0.074 A 
ATOM     65  C   UNL A   1      42.178  31.739  32.288  1.00  0.00     0.031 C 
ATOM     66  C   UNL A   1      44.548  31.018  32.228  1.00  0.00     0.034 A 
BRANCH  53  67
ATOM     67  C   UNL A   1      48.271  26.484  30.211  1.00  0.00     0.023 A 
ATOM     68  C   UNL A   1      48.779  25.661  31.232  1.00  0.00     0.031 A 
ATOM     69  C   UNL A   1      49.114  26.792  29.130  1.00  0.00     0.131 A 
ATOM     70  C   UNL A   1      50.114  25.232  31.186  1.00  0.00     0.055 A 
ATOM     71  C   UNL A   1      50.419  26.301  29.053  1.00  0.00     0.041 A 
ATOM     72  F   UNL A   1      48.691  27.592  28.139  1.00  0.00    -0.206 F 
ATOM     73  C   UNL A   1      50.931  25.529  30.092  1.00  0.00     0.022 A 
BRANCH  70  74
ATOM     74  S   UNL A   1      50.810  24.401  32.639  1.00  0.00     0.124 S 
ATOM     75  O   UNL A   1      52.140  25.000  32.714  1.00  0.00    -0.237 OA
ATOM     76  O   UNL A   1      49.878  24.780  33.696  1.00  0.00    -0.237 OA
ATOM     77  O   UNL A   1      50.791  22.988  32.267  1.00  0.00    -0.744 OA
ENDBRANCH  70  74
ENDBRANCH  53  67
BRANCH  54  78
ATOM     78  C   UNL A   1      38.829  29.773  30.645  1.00  0.00     0.023 A 
ATOM     79  C   UNL A   1      38.359  30.861  29.892  1.00  0.00     0.031 A 
ATOM     80  C   UNL A   1      37.954  29.188  31.577  1.00  0.00     0.131 A 
ATOM     81  C   UNL A   1      37.065  31.359  30.115  1.00  0.00     0.055 A 
ATOM     82  C   UNL A   1      36.653  29.657  31.763  1.00  0.00     0.041 A 
ATOM     83  F   UNL A   1      38.355  28.147  32.325  1.00  0.00    -0.206 F 
ATOM     84  C   UNL A   1      36.206  30.758  31.038  1.00  0.00     0.022 A 
BRANCH  81  85
ATOM     85  S   UNL A   1      36.548  32.861  29.240  1.00  0.00     0.124 S 
ATOM     86  O   UNL A   1      37.506  33.842  29.740  1.00  0.00    -0.237 OA
ATOM     87  O   UNL A   1      36.704  32.467  27.844  1.00  0.00    -0.237 OA
ATOM     88  O   UNL A   1      35.168  33.055  29.680  1.00  0.00    -0.744 OA
ENDBRANCH  81  85
ENDBRANCH  54  78
BRANCH  66  89
ATOM     89  C   UNL A   1      44.905  32.290  32.958  1.00  0.00     0.023 A 
ATOM     90  C   UNL A   1      44.998  32.343  34.360  1.00  0.00     0.031 A 
ATOM     91  C   UNL A   1      45.153  33.470  32.233  1.00  0.00     0.131 A 
ATOM     92  C   UNL A   1      45.284  33.561  34.996  1.00  0.00     0.055 A 
ATOM     93  C   UNL A   1      45.488  34.666  32.868  1.00  0.00     0.041 A 
ATOM     94  F   UNL A   1      45.078  33.476  30.893  1.00  0.00    -0.206 F 
ATOM     95  C   UNL A   1      45.545  34.719  34.258  1.00  0.00     0.022 A 
BRANCH  92  96
ATOM     96  S   UNL A   1      45.236  33.634  36.808  1.00  0.00     0.124 S 
ATOM     97  O   UNL A   1      45.607  32.272  37.177  1.00  0.00    -0.237 OA
ATOM     98  O   UNL A   1      46.225  34.666  37.105  1.00  0.00    -0.237 OA
ATOM     99  O   UNL A   1      43.852  34.000  37.102  1.00  0.00    -0.744 OA
ENDBRANCH  92  96
ENDBRANCH  66  89
ENDBRANCH  40  41
ENDBRANCH  33  35
ENDBRANCH  32  33
ENDBRANCH  31  32
ENDBRANCH  30  31
ENDBRANCH  29  30
ENDBRANCH  28  29
ENDBRANCH   1  28
TORSDOF 24
ENDMDL
MODEL 2
REMARK VINA RESULT:      -8.0      3.815      5.280
REMARK SMILES Cc1cscc1CNC(=O)N[C@@H](C)c1nc(C(=O)OCCOCCOCCOC(=O)c2ccc(-c3c4nc(c(-c5cc(S(=O)(=O)[O-])ccc5F)c5ccc([nH]5)c(-c5cc(S(=O)(=O)[O-])ccc5F)c5nc(c(-c6cc(S(=O)(=O)[O-])ccc6F)c6ccc3[nH]6)C=C5)C=C4)cc2)cs1
REMARK SMILES IDX 23 1 22 2 21 3 20 4 19 5 17 6 18 7 16 8 14 9 15 10 95 11
REMARK SMILES IDX 94 12 12 13 13 14 11 15 8 16 9 17 10 19 7 21 6 22 1 23 2 24
REMARK SMILES IDX 3 25 4 26 5 27 24 28 25 29 26 30 27 31 28 32 29 33 30 34
REMARK SMILES IDX 31 35 32 36 93 37 33 38 92 39 34 40 35 41 36 42 86 43 37 44
REMARK SMILES IDX 91 45 85 46 87 47 38 48 90 49 84 50 83 51 39 53 71 54 51 55
REMARK SMILES IDX 70 56 52 57 55 58 69 59 88 60 53 61 54 62 68 64 89 65 56 66
REMARK SMILES IDX 40 67 41 68 49 69 42 70 48 71 50 72 47 73 43 74 44 75 45 76
REMARK SMILES IDX 46 77 72 78 73 79 81 80 74 81 80 82 82 83 79 84 75 85 76 86
REMARK SMILES IDX 77 87 78 88 57 89 58 90 66 91 59 92 65 93 67 94 64 95 60 96
REMARK SMILES IDX 61 97 62 98 63 99
REMARK H PARENT 8 18 11 20 87 52 55 63
REMARK Flexibility Score: inf
ROOT
ATOM      1  C   UNL A   1      43.492  23.894  25.075  1.00  0.00     0.188 C 
ENDROOT
BRANCH   1   2
ATOM      2  O   UNL A   1      44.618  24.622  24.594  1.00  0.00    -0.376 OA
BRANCH   2   3
ATOM      3  C   UNL A   1      45.917  24.349  25.094  1.00  0.00     0.202 C 
BRANCH   3   4
ATOM      4  C   UNL A   1      46.859  25.544  25.248  1.00  0.00     0.261 C 
BRANCH   4   5
ATOM      5  O   UNL A   1      47.622  25.814  24.063  1.00  0.00    -0.458 OA
BRANCH   5   6
ATOM      6  C   UNL A   1      47.519  27.090  23.583  1.00  0.00     0.357 C 
ATOM      7  O   UNL A   1      46.586  27.843  23.815  1.00  0.00    -0.244 OA
BRANCH   6   8
ATOM      8  C   UNL A   1      48.715  27.530  22.855  1.00  0.00     0.159 A 
ATOM      9  C   UNL A   1      50.845  28.087  22.506  1.00  0.00     0.116 A 
ATOM     10  N   UNL A   1      49.964  27.779  23.443  1.00  0.00    -0.232 NA
ATOM     11  S   UNL A   1      50.197  28.259  20.916  1.00  0.00    -0.124 S 
ATOM     12  C   UNL A   1      48.678  27.748  21.488  1.00  0.00     0.102 A 
BRANCH   9  13
ATOM     13  C   UNL A   1      52.341  28.240  22.691  1.00  0.00     0.140 C 
ATOM     14  C   UNL A   1      53.084  27.009  22.175  1.00  0.00     0.039 C 
BRANCH  13  15
ATOM     15  N   UNL A   1      52.647  28.448  24.096  1.00  0.00    -0.329 N 
ATOM     16  N   UNL A   1      52.804  30.785  24.443  1.00  0.00    -0.334 N 
ATOM     17  C   UNL A   1      52.918  29.517  24.845  1.00  0.00     0.315 C 
ATOM     18  H   UNL A   1      53.067  31.419  25.148  1.00  0.00     0.165 HD
ATOM     19  O   UNL A   1      53.289  29.324  26.005  1.00  0.00    -0.249 OA
ATOM     20  H   UNL A   1      52.655  27.609  24.612  1.00  0.00     0.166 HD
BRANCH  16  21
ATOM     21  C   UNL A   1      52.392  31.465  23.233  1.00  0.00     0.154 C 
BRANCH  21  22
ATOM     22  C   UNL A   1      52.725  32.932  23.274  1.00  0.00    -0.015 A 
ATOM     23  C   UNL A   1      54.705  32.810  21.566  1.00  0.00     0.045 C 
ATOM     24  C   UNL A   1      53.798  33.541  22.503  1.00  0.00    -0.035 A 
ATOM     25  C   UNL A   1      53.889  34.900  22.742  1.00  0.00     0.068 A 
ATOM     26  S   UNL A   1      52.720  35.459  23.847  1.00  0.00    -0.152 S 
ATOM     27  C   UNL A   1      52.079  33.891  24.036  1.00  0.00     0.070 A 
ENDBRANCH  21  22
ENDBRANCH  16  21
ENDBRANCH  13  15
ENDBRANCH   9  13
ENDBRANCH   6   8
ENDBRANCH   5   6
ENDBRANCH   4   5
ENDBRANCH   3   4
ENDBRANCH   2   3
ENDBRANCH   1   2
BRANCH   1  28
ATOM     28  C   UNL A   1      43.658  22.491  25.693  1.00  0.00     0.188 C 
BRANCH  28  29
ATOM     29  O   UNL A   1      42.619  21.579  25.358  1.00  0.00    -0.376 OA
BRANCH  29  30
ATOM     30  C   UNL A   1      42.387  20.536  26.295  1.00  0.00     0.202 C 
BRANCH  30  31
ATOM     31  C   UNL A   1      40.898  20.236  26.482  1.00  0.00     0.261 C 
BRANCH  31  32
ATOM     32  O   UNL A   1      40.191  21.199  27.279  1.00  0.00    -0.460 OA
BRANCH  32  33
ATOM     33  C   UNL A   1      39.505  22.149  26.605  1.00  0.00     0.338 C 
ATOM     34  O   UNL A   1      38.488  21.992  25.953  1.00  0.00    -0.246 OA
BRANCH  33  35
ATOM     35  C   UNL A   1      40.112  23.461  26.907  1.00  0.00     0.060 A 
ATOM     36  C   UNL A   1      40.825  23.615  28.101  1.00  0.00     0.016 A 
ATOM     37  C   UNL A   1      39.951  24.537  26.030  1.00  0.00     0.016 A 
ATOM     38  C   UNL A   1      41.348  24.865  28.440  1.00  0.00     0.010 A 
ATOM     39  C   UNL A   1      40.464  25.789  26.376  1.00  0.00     0.010 A 
ATOM     40  C   UNL A   1      41.136  25.967  27.598  1.00  0.00    -0.014 A 
BRANCH  40  41
ATOM     41  C   UNL A   1      41.438  27.339  28.078  1.00  0.00     0.031 A 
ATOM     42  C   UNL A   1      42.877  27.782  28.113  1.00  0.00     0.074 A 
ATOM     43  C   UNL A   1      40.464  28.175  28.479  1.00  0.00     0.049 A 
ATOM     44  N   UNL A   1      43.391  28.910  28.526  1.00  0.00    -0.248 NA
ATOM     45  C   UNL A   1      43.866  26.810  27.619  1.00  0.00     0.031 C 
ATOM     46  C   UNL A   1      39.034  27.872  28.472  1.00  0.00     0.029 A 
ATOM     47  N   UNL A   1      40.536  29.451  28.982  1.00  0.00    -0.354 N 
ATOM     48  C   UNL A   1      44.764  28.791  28.338  1.00  0.00     0.074 A 
ATOM     49  C   UNL A   1      45.002  27.463  27.813  1.00  0.00     0.031 C 
ATOM     50  C   UNL A   1      38.363  28.931  28.961  1.00  0.00     0.029 A 
ATOM     51  C   UNL A   1      39.316  29.973  29.341  1.00  0.00     0.049 A 
ATOM     52  H   UNL A   1      41.382  29.945  29.076  1.00  0.00     0.167 HD
ATOM     53  C   UNL A   1      45.737  29.705  28.569  1.00  0.00     0.034 A 
ATOM     54  C   UNL A   1      39.010  31.148  29.929  1.00  0.00     0.034 A 
ATOM     55  C   UNL A   1      45.495  31.016  29.119  1.00  0.00     0.049 A 
ATOM     56  C   UNL A   1      40.119  32.121  30.257  1.00  0.00     0.074 A 
ATOM     57  C   UNL A   1      46.407  32.022  29.387  1.00  0.00     0.029 A 
ATOM     58  N   UNL A   1      44.250  31.498  29.501  1.00  0.00    -0.354 N 
ATOM     59  N   UNL A   1      41.411  32.005  30.053  1.00  0.00    -0.248 NA
ATOM     60  C   UNL A   1      39.724  33.388  30.890  1.00  0.00     0.031 C 
ATOM     61  C   UNL A   1      45.724  33.085  29.988  1.00  0.00     0.029 A 
ATOM     62  C   UNL A   1      44.375  32.774  30.030  1.00  0.00     0.049 A 
ATOM     63  H   UNL A   1      43.402  31.006  29.408  1.00  0.00     0.167 HD
ATOM     64  C   UNL A   1      41.976  33.197  30.503  1.00  0.00     0.074 A 
ATOM     65  C   UNL A   1      40.885  34.019  30.981  1.00  0.00     0.031 C 
ATOM     66  C   UNL A   1      43.279  33.581  30.512  1.00  0.00     0.034 A 
BRANCH  53  67
ATOM     67  C   UNL A   1      47.155  29.285  28.274  1.00  0.00     0.023 A 
ATOM     68  C   UNL A   1      47.972  28.704  29.261  1.00  0.00     0.031 A 
ATOM     69  C   UNL A   1      47.713  29.510  27.004  1.00  0.00     0.131 A 
ATOM     70  C   UNL A   1      49.320  28.433  28.983  1.00  0.00     0.055 A 
ATOM     71  C   UNL A   1      49.035  29.169  26.711  1.00  0.00     0.041 A 
ATOM     72  F   UNL A   1      46.988  30.083  26.031  1.00  0.00    -0.206 F 
ATOM     73  C   UNL A   1      49.851  28.641  27.708  1.00  0.00     0.022 A 
BRANCH  70  74
ATOM     74  S   UNL A   1      50.405  27.936  30.348  1.00  0.00     0.124 S 
ATOM     75  O   UNL A   1      51.719  27.974  29.710  1.00  0.00    -0.237 OA
ATOM     76  O   UNL A   1      50.149  28.969  31.346  1.00  0.00    -0.237 OA
ATOM     77  O   UNL A   1      49.928  26.600  30.696  1.00  0.00    -0.744 OA
ENDBRANCH  70  74
ENDBRANCH  53  67
BRANCH  54  78
ATOM     78  C   UNL A   1      37.600  31.469  30.290  1.00  0.00     0.023 A 
ATOM     79  C   UNL A   1      36.693  31.950  29.331  1.00  0.00     0.031 A 
ATOM     80  C   UNL A   1      37.158  31.366  31.622  1.00  0.00     0.131 A 
ATOM     81  C   UNL A   1      35.406  32.352  29.724  1.00  0.00     0.055 A 
ATOM     82  C   UNL A   1      35.863  31.722  32.000  1.00  0.00     0.041 A 
ATOM     83  F   UNL A   1      37.987  30.915  32.578  1.00  0.00    -0.206 F 
ATOM     84  C   UNL A   1      34.982  32.231  31.050  1.00  0.00     0.022 A 
BRANCH  81  85
ATOM     85  S   UNL A   1      34.318  33.115  28.490  1.00  0.00     0.124 S 
ATOM     86  O   UNL A   1      33.493  33.986  29.319  1.00  0.00    -0.237 OA
ATOM     87  O   UNL A   1      35.275  33.782  27.613  1.00  0.00    -0.237 OA
ATOM     88  O   UNL A   1      33.622  31.974  27.897  1.00  0.00    -0.744 OA
ENDBRANCH  81  85
ENDBRANCH  54  78
BRANCH  66  89
ATOM     89  C   UNL A   1      43.584  34.972  31.009  1.00  0.00     0.023 A 
ATOM     90  C   UNL A   1      43.550  36.091  30.158  1.00  0.00     0.031 A 
ATOM     91  C   UNL A   1      43.917  35.179  32.360  1.00  0.00     0.131 A 
ATOM     92  C   UNL A   1      43.891  37.358  30.656  1.00  0.00     0.055 A 
ATOM     93  C   UNL A   1      44.204  36.449  32.861  1.00  0.00     0.041 A 
ATOM     94  F   UNL A   1      43.965  34.146  33.217  1.00  0.00    -0.206 F 
ATOM     95  C   UNL A   1      44.202  37.547  32.005  1.00  0.00     0.022 A 
BRANCH  92  96
ATOM     96  S   UNL A   1      43.996  38.753  29.500  1.00  0.00     0.124 S 
ATOM     97  O   UNL A   1      42.861  38.504  28.618  1.00  0.00    -0.237 OA
ATOM     98  O   UNL A   1      43.873  39.905  30.388  1.00  0.00    -0.237 OA
ATOM     99  O   UNL A   1      45.310  38.588  28.880  1.00  0.00    -0.744 OA
ENDBRANCH  92  96
ENDBRANCH  66  89
ENDBRANCH  40  41
ENDBRANCH  33  35
ENDBRANCH  32  33
ENDBRANCH  31  32
ENDBRANCH  30  31
ENDBRANCH  29  30
ENDBRANCH  28  29
ENDBRANCH   1  28
TORSDOF 24
ENDMDL
MODEL 3
REMARK VINA RESULT:      -8.0      5.235     12.458
REMARK SMILES Cc1cscc1CNC(=O)N[C@@H](C)c1nc(C(=O)OCCOCCOCCOC(=O)c2ccc(-c3c4nc(c(-c5cc(S(=O)(=O)[O-])ccc5F)c5ccc([nH]5)c(-c5cc(S(=O)(=O)[O-])ccc5F)c5nc(c(-c6cc(S(=O)(=O)[O-])ccc6F)c6ccc3[nH]6)C=C5)C=C4)cc2)cs1
REMARK SMILES IDX 23 1 22 2 21 3 20 4 19 5 17 6 18 7 16 8 14 9 15 10 95 11
REMARK SMILES IDX 94 12 12 13 13 14 11 15 8 16 9 17 10 19 7 21 6 22 1 23 2 24
REMARK SMILES IDX 3 25 4 26 5 27 24 28 25 29 26 30 27 31 28 32 29 33 30 34
REMARK SMILES IDX 31 35 32 36 93 37 33 38 92 39 34 40 35 41 36 42 86 43 37 44
REMARK SMILES IDX 91 45 85 46 87 47 38 48 90 49 84 50 83 51 39 53 71 54 51 55
REMARK SMILES IDX 70 56 52 57 55 58 69 59 88 60 53 61 54 62 68 64 89 65 56 66
REMARK SMILES IDX 40 67 41 68 49 69 42 70 48 71 50 72 47 73 43 74 44 75 45 76
REMARK SMILES IDX 46 77 72 78 73 79 81 80 74 81 80 82 82 83 79 84 75 85 76 86
REMARK SMILES IDX 77 87 78 88 57 89 58 90 66 91 59 92 65 93 67 94 64 95 60 96
REMARK SMILES IDX 61 97 62 98 63 99
REMARK H PARENT 8 18 11 20 87 52 55 63
REMARK Flexibility Score: inf
ROOT
ATOM      1  C   UNL A   1      33.277  35.050  29.381  1.00  0.00     0.188 C 
ENDROOT
BRANCH   1   2
ATOM      2  O   UNL A   1      33.496  33.656  29.182  1.00  0.00    -0.376 OA
BRANCH   2   3
ATOM      3  C   UNL A   1      33.536  33.115  27.871  1.00  0.00     0.202 C 
BRANCH   3   4
ATOM      4  C   UNL A   1      33.908  31.637  27.750  1.00  0.00     0.261 C 
BRANCH   4   5
ATOM      5  O   UNL A   1      32.796  30.807  27.381  1.00  0.00    -0.458 OA
BRANCH   5   6
ATOM      6  C   UNL A   1      33.128  29.630  26.769  1.00  0.00     0.357 C 
ATOM      7  O   UNL A   1      33.991  28.862  27.166  1.00  0.00    -0.244 OA
BRANCH   6   8
ATOM      8  C   UNL A   1      32.250  29.302  25.640  1.00  0.00     0.159 A 
ATOM      9  C   UNL A   1      31.176  28.049  24.140  1.00  0.00     0.116 A 
ATOM     10  N   UNL A   1      32.090  28.019  25.096  1.00  0.00    -0.232 NA
ATOM     11  S   UNL A   1      30.593  29.621  23.731  1.00  0.00    -0.124 S 
ATOM     12  C   UNL A   1      31.506  30.284  25.006  1.00  0.00     0.102 A 
BRANCH   9  13
ATOM     13  C   UNL A   1      30.570  26.853  23.435  1.00  0.00     0.140 C 
ATOM     14  C   UNL A   1      30.430  25.669  24.390  1.00  0.00     0.039 C 
BRANCH  13  15
ATOM     15  N   UNL A   1      31.396  26.478  22.301  1.00  0.00    -0.329 N 
ATOM     16  N   UNL A   1      32.883  24.791  23.042  1.00  0.00    -0.334 N 
ATOM     17  C   UNL A   1      32.431  25.655  22.131  1.00  0.00     0.315 C 
ATOM     18  H   UNL A   1      33.664  24.289  22.716  1.00  0.00     0.165 HD
ATOM     19  O   UNL A   1      33.011  25.681  21.042  1.00  0.00    -0.249 OA
ATOM     20  H   UNL A   1      31.130  26.933  21.469  1.00  0.00     0.166 HD
BRANCH  16  21
ATOM     21  C   UNL A   1      32.515  24.402  24.387  1.00  0.00     0.154 C 
BRANCH  21  22
ATOM     22  C   UNL A   1      33.019  23.026  24.730  1.00  0.00    -0.015 A 
ATOM     23  C   UNL A   1      31.575  22.739  26.894  1.00  0.00     0.045 C 
ATOM     24  C   UNL A   1      32.580  22.270  25.893  1.00  0.00    -0.035 A 
ATOM     25  C   UNL A   1      33.214  21.043  25.971  1.00  0.00     0.068 A 
ATOM     26  S   UNL A   1      34.301  20.775  24.688  1.00  0.00    -0.152 S 
ATOM     27  C   UNL A   1      33.953  22.300  24.011  1.00  0.00     0.070 A 
ENDBRANCH  21  22
ENDBRANCH  16  21
ENDBRANCH  13  15
ENDBRANCH   9  13
ENDBRANCH   6   8
ENDBRANCH   5   6
ENDBRANCH   4   5
ENDBRANCH   3   4
ENDBRANCH   2   3
ENDBRANCH   1   2
BRANCH   1  28
ATOM     28  C   UNL A   1      33.396  35.682  30.782  1.00  0.00     0.188 C 
BRANCH  28  29
ATOM     29  O   UNL A   1      34.702  35.620  31.341  1.00  0.00    -0.376 OA
BRANCH  29  30
ATOM     30  C   UNL A   1      34.775  35.184  32.692  1.00  0.00     0.202 C 
BRANCH  30  31
ATOM     31  C   UNL A   1      36.081  34.446  33.000  1.00  0.00     0.261 C 
BRANCH  31  32
ATOM     32  O   UNL A   1      35.919  33.056  33.321  1.00  0.00    -0.460 OA
BRANCH  32  33
ATOM     33  C   UNL A   1      35.341  32.284  32.372  1.00  0.00     0.338 C 
ATOM     34  O   UNL A   1      34.174  32.306  32.025  1.00  0.00    -0.246 OA
BRANCH  33  35
ATOM     35  C   UNL A   1      36.398  31.495  31.708  1.00  0.00     0.060 A 
ATOM     36  C   UNL A   1      37.271  30.739  32.497  1.00  0.00     0.016 A 
ATOM     37  C   UNL A   1      36.541  31.527  30.319  1.00  0.00     0.016 A 
ATOM     38  C   UNL A   1      38.321  30.041  31.895  1.00  0.00     0.010 A 
ATOM     39  C   UNL A   1      37.598  30.839  29.720  1.00  0.00     0.010 A 
ATOM     40  C   UNL A   1      38.513  30.120  30.508  1.00  0.00    -0.014 A 
BRANCH  40  41
ATOM     41  C   UNL A   1      39.772  29.620  29.901  1.00  0.00     0.031 A 
ATOM     42  C   UNL A   1      40.937  30.569  29.791  1.00  0.00     0.074 A 
ATOM     43  C   UNL A   1      39.885  28.358  29.453  1.00  0.00     0.049 A 
ATOM     44  N   UNL A   1      42.119  30.380  29.268  1.00  0.00    -0.248 NA
ATOM     45  C   UNL A   1      40.728  31.918  30.343  1.00  0.00     0.031 C 
ATOM     46  C   UNL A   1      38.840  27.339  29.523  1.00  0.00     0.029 A 
ATOM     47  N   UNL A   1      40.936  27.722  28.838  1.00  0.00    -0.354 N 
ATOM     48  C   UNL A   1      42.802  31.580  29.431  1.00  0.00     0.074 A 
ATOM     49  C   UNL A   1      41.883  32.503  30.064  1.00  0.00     0.031 C 
ATOM     50  C   UNL A   1      39.299  26.206  28.959  1.00  0.00     0.029 A 
ATOM     51  C   UNL A   1      40.657  26.428  28.465  1.00  0.00     0.049 A 
ATOM     52  H   UNL A   1      41.807  28.152  28.680  1.00  0.00     0.167 HD
ATOM     53  C   UNL A   1      44.079  31.886  29.096  1.00  0.00     0.034 A 
ATOM     54  C   UNL A   1      41.406  25.536  27.784  1.00  0.00     0.034 A 
ATOM     55  C   UNL A   1      44.979  30.970  28.439  1.00  0.00     0.049 A 
ATOM     56  C   UNL A   1      42.798  25.924  27.344  1.00  0.00     0.074 A 
ATOM     57  C   UNL A   1      46.295  31.175  28.061  1.00  0.00     0.029 A 
ATOM     58  N   UNL A   1      44.650  29.679  28.048  1.00  0.00    -0.354 N 
ATOM     59  N   UNL A   1      43.440  27.055  27.525  1.00  0.00    -0.248 NA
ATOM     60  C   UNL A   1      43.570  24.909  26.612  1.00  0.00     0.031 C 
ATOM     61  C   UNL A   1      46.740  30.033  27.386  1.00  0.00     0.029 A 
ATOM     62  C   UNL A   1      45.727  29.088  27.405  1.00  0.00     0.049 A 
ATOM     63  H   UNL A   1      43.780  29.246  28.205  1.00  0.00     0.167 HD
ATOM     64  C   UNL A   1      44.700  26.874  26.958  1.00  0.00     0.074 A 
ATOM     65  C   UNL A   1      44.730  25.524  26.437  1.00  0.00     0.031 C 
ATOM     66  C   UNL A   1      45.742  27.742  26.883  1.00  0.00     0.034 A 
BRANCH  53  67
ATOM     67  C   UNL A   1      44.547  33.288  29.391  1.00  0.00     0.023 A 
ATOM     68  C   UNL A   1      45.129  33.626  30.626  1.00  0.00     0.031 A 
ATOM     69  C   UNL A   1      44.369  34.311  28.443  1.00  0.00     0.131 A 
ATOM     70  C   UNL A   1      45.446  34.963  30.907  1.00  0.00     0.055 A 
ATOM     71  C   UNL A   1      44.756  35.627  28.701  1.00  0.00     0.041 A 
ATOM     72  F   UNL A   1      43.798  34.052  27.257  1.00  0.00    -0.206 F 
ATOM     73  C   UNL A   1      45.283  35.963  29.945  1.00  0.00     0.022 A 
BRANCH  70  74
ATOM     74  S   UNL A   1      45.942  35.401  32.596  1.00  0.00     0.124 S 
ATOM     75  O   UNL A   1      46.725  34.231  32.986  1.00  0.00    -0.237 OA
ATOM     76  O   UNL A   1      46.693  36.635  32.395  1.00  0.00    -0.237 OA
ATOM     77  O   UNL A   1      44.670  35.551  33.299  1.00  0.00    -0.744 OA
ENDBRANCH  70  74
ENDBRANCH  53  67
BRANCH  54  78
ATOM     78  C   UNL A   1      40.854  24.196  27.432  1.00  0.00     0.023 A 
ATOM     79  C   UNL A   1      39.695  24.069  26.649  1.00  0.00     0.031 A 
ATOM     80  C   UNL A   1      41.442  23.022  27.935  1.00  0.00     0.131 A 
ATOM     81  C   UNL A   1      39.134  22.801  26.429  1.00  0.00     0.055 A 
ATOM     82  C   UNL A   1      40.909  21.760  27.675  1.00  0.00     0.041 A 
ATOM     83  F   UNL A   1      42.550  23.089  28.691  1.00  0.00    -0.206 F 
ATOM     84  C   UNL A   1      39.740  21.645  26.928  1.00  0.00     0.022 A 
BRANCH  81  85
ATOM     85  S   UNL A   1      37.552  22.689  25.549  1.00  0.00     0.124 S 
ATOM     86  O   UNL A   1      36.670  22.169  26.588  1.00  0.00    -0.237 OA
ATOM     87  O   UNL A   1      37.328  24.074  25.151  1.00  0.00    -0.237 OA
ATOM     88  O   UNL A   1      37.837  21.766  24.452  1.00  0.00    -0.744 OA
ENDBRANCH  81  85
ENDBRANCH  54  78
BRANCH  66  89
ATOM     89  C   UNL A   1      47.018  27.234  26.258  1.00  0.00     0.023 A 
ATOM     90  C   UNL A   1      47.988  26.541  27.003  1.00  0.00     0.031 A 
ATOM     91  C   UNL A   1      47.266  27.453  24.890  1.00  0.00     0.131 A 
ATOM     92  C   UNL A   1      49.181  26.133  26.388  1.00  0.00     0.055 A 
ATOM     93  C   UNL A   1      48.431  26.998  24.272  1.00  0.00     0.041 A 
ATOM     94  F   UNL A   1      46.374  28.109  24.131  1.00  0.00    -0.206 F 
ATOM     95  C   UNL A   1      49.403  26.343  25.024  1.00  0.00     0.022 A 
BRANCH  92  96
ATOM     96  S   UNL A   1      50.481  25.386  27.411  1.00  0.00     0.124 S 
ATOM     97  O   UNL A   1      50.969  26.534  28.168  1.00  0.00    -0.237 OA
ATOM     98  O   UNL A   1      49.742  24.387  28.175  1.00  0.00    -0.237 OA
ATOM     99  O   UNL A   1      51.421  24.845  26.432  1.00  0.00    -0.744 OA
ENDBRANCH  92  96
ENDBRANCH  66  89
ENDBRANCH  40  41
ENDBRANCH  33  35
ENDBRANCH  32  33
ENDBRANCH  31  32
ENDBRANCH  30  31
ENDBRANCH  29  30
ENDBRANCH  28  29
ENDBRANCH   1  28
TORSDOF 24
ENDMDL
