MODEL 1
REMARK VINA RESULT:     -10.7      0.000      0.000
REMARK SMILES O=Cc1ccc2c(c1)C=C(C(=O)OCCOCCOCCOC(=O)c1ccc(-c3c4nc(c(-c5cc(S(=O)(=O)[O-])ccc5F)c5ccc([nH]5)c(-c5cc(S(=O)(=O)[O-])ccc5F)c5nc(c(-c6cc(S(=O)(=O)[O-])ccc6F)c6ccc3[nH]6)C=C5)C=C4)cc1)[C@H](C(F)(F)F)O2
REMARK SMILES IDX 18 1 17 2 16 3 15 4 14 5 13 6 11 7 12 8 10 9 3 10 4 11 8 12
REMARK SMILES IDX 5 13 7 14 6 15 9 16 93 17 88 18 2 19 1 20 89 21 90 22 91 23
REMARK SMILES IDX 92 24 19 25 20 26 21 27 22 28 23 29 24 30 25 31 26 32 87 33
REMARK SMILES IDX 27 34 86 35 28 36 29 37 30 38 80 39 31 40 85 41 79 42 81 43
REMARK SMILES IDX 32 44 84 45 78 46 77 47 33 49 65 50 45 51 64 52 46 53 49 54
REMARK SMILES IDX 63 55 82 56 47 57 48 58 62 60 83 61 50 62 34 63 35 64 43 65
REMARK SMILES IDX 36 66 42 67 44 68 41 69 37 70 38 71 39 72 40 73 66 74 67 75
REMARK SMILES IDX 75 76 68 77 74 78 76 79 73 80 69 81 70 82 71 83 72 84 51 85
REMARK SMILES IDX 52 86 60 87 53 88 59 89 61 90 58 91 54 92 55 93 56 94 57 95
REMARK H PARENT 81 48 49 59
REMARK Flexibility Score: inf
ROOT
ATOM      1  C   UNL A   1      33.916  20.656  24.881  1.00  0.00     0.188 C 
ENDROOT
BRANCH   1   2
ATOM      2  C   UNL A   1      32.944  21.798  25.243  1.00  0.00     0.188 C 
BRANCH   2   3
ATOM      3  O   UNL A   1      32.126  22.208  24.157  1.00  0.00    -0.376 OA
BRANCH   3   4
ATOM      4  C   UNL A   1      32.665  22.008  22.859  1.00  0.00     0.202 C 
BRANCH   4   5
ATOM      5  C   UNL A   1      33.480  23.195  22.342  1.00  0.00     0.261 C 
BRANCH   5   6
ATOM      6  O   UNL A   1      33.564  24.296  23.262  1.00  0.00    -0.460 OA
BRANCH   6   7
ATOM      7  C   UNL A   1      33.476  25.542  22.746  1.00  0.00     0.338 C 
ATOM      8  O   UNL A   1      33.657  25.848  21.581  1.00  0.00    -0.246 OA
BRANCH   7   9
ATOM      9  C   UNL A   1      33.059  26.481  23.809  1.00  0.00     0.087 C 
ATOM     10  C   UNL A   1      34.030  29.748  27.215  1.00  0.00     0.015 A 
ATOM     11  C   UNL A   1      32.685  30.130  27.231  1.00  0.00     0.015 A 
ATOM     12  C   UNL A   1      34.476  28.746  26.343  1.00  0.00     0.023 A 
ATOM     13  C   UNL A   1      31.777  29.502  26.378  1.00  0.00     0.048 A 
ATOM     14  C   UNL A   1      33.567  28.128  25.478  1.00  0.00     0.018 A 
ATOM     15  C   UNL A   1      32.216  28.499  25.516  1.00  0.00     0.128 A 
ATOM     16  C   UNL A   1      34.007  27.171  24.466  1.00  0.00     0.027 C 
ATOM     17  O   UNL A   1      31.287  27.958  24.669  1.00  0.00    -0.475 OA
ATOM     18  C   UNL A   1      31.599  26.621  24.183  1.00  0.00     0.316 C 
BRANCH  10  19
ATOM     19  C   UNL A   1      35.004  30.422  28.098  1.00  0.00     0.260 C 
ATOM     20  O   UNL A   1      35.980  29.846  28.562  1.00  0.00    -0.298 OA
ENDBRANCH  10  19
BRANCH  18  21
ATOM     21  C   UNL A   1      30.554  26.227  23.127  1.00  0.00     0.430 C 
ATOM     22  F   UNL A   1      29.301  26.503  23.567  1.00  0.00    -0.167 F 
ATOM     23  F   UNL A   1      30.723  26.958  21.998  1.00  0.00    -0.167 F 
ATOM     24  F   UNL A   1      30.619  24.926  22.789  1.00  0.00    -0.167 F 
ENDBRANCH  18  21
ENDBRANCH   7   9
ENDBRANCH   6   7
ENDBRANCH   5   6
ENDBRANCH   4   5
ENDBRANCH   3   4
ENDBRANCH   2   3
ENDBRANCH   1   2
BRANCH   1  25
ATOM     25  O   UNL A   1      35.322  20.858  24.964  1.00  0.00    -0.376 OA
BRANCH  25  26
ATOM     26  C   UNL A   1      36.186  19.731  25.000  1.00  0.00     0.202 C 
BRANCH  26  27
ATOM     27  C   UNL A   1      37.693  19.964  24.850  1.00  0.00     0.261 C 
BRANCH  27  28
ATOM     28  O   UNL A   1      38.187  21.133  25.522  1.00  0.00    -0.460 OA
BRANCH  28  29
ATOM     29  C   UNL A   1      39.388  20.976  26.134  1.00  0.00     0.338 C 
ATOM     30  O   UNL A   1      40.112  19.996  26.084  1.00  0.00    -0.246 OA
BRANCH  29  31
ATOM     31  C   UNL A   1      39.812  22.248  26.754  1.00  0.00     0.060 A 
ATOM     32  C   UNL A   1      39.116  23.412  26.400  1.00  0.00     0.016 A 
ATOM     33  C   UNL A   1      40.918  22.318  27.605  1.00  0.00     0.016 A 
ATOM     34  C   UNL A   1      39.541  24.654  26.872  1.00  0.00     0.010 A 
ATOM     35  C   UNL A   1      41.357  23.568  28.058  1.00  0.00     0.010 A 
ATOM     36  C   UNL A   1      40.689  24.743  27.669  1.00  0.00    -0.014 A 
BRANCH  36  37
ATOM     37  C   UNL A   1      41.292  26.073  27.935  1.00  0.00     0.031 A 
ATOM     38  C   UNL A   1      42.691  26.340  27.445  1.00  0.00     0.074 A 
ATOM     39  C   UNL A   1      40.605  27.036  28.576  1.00  0.00     0.049 A 
ATOM     40  N   UNL A   1      43.436  27.404  27.593  1.00  0.00    -0.248 NA
ATOM     41  C   UNL A   1      43.331  25.255  26.686  1.00  0.00     0.031 C 
ATOM     42  C   UNL A   1      39.227  26.917  29.048  1.00  0.00     0.029 A 
ATOM     43  N   UNL A   1      40.980  28.305  28.942  1.00  0.00    -0.354 N 
ATOM     44  C   UNL A   1      44.632  27.121  26.941  1.00  0.00     0.074 A 
ATOM     45  C   UNL A   1      44.523  25.771  26.431  1.00  0.00     0.031 C 
ATOM     46  C   UNL A   1      38.879  28.063  29.661  1.00  0.00     0.029 A 
ATOM     47  C   UNL A   1      40.017  28.981  29.653  1.00  0.00     0.049 A 
ATOM     48  H   UNL A   1      41.856  28.693  28.718  1.00  0.00     0.167 HD
ATOM     49  C   UNL A   1      45.720  27.916  26.778  1.00  0.00     0.034 A 
ATOM     50  C   UNL A   1      40.061  30.190  30.249  1.00  0.00     0.034 A 
ATOM     51  C   UNL A   1      45.828  29.249  27.315  1.00  0.00     0.049 A 
ATOM     52  C   UNL A   1      41.321  31.017  30.147  1.00  0.00     0.074 A 
ATOM     53  C   UNL A   1      46.884  30.139  27.211  1.00  0.00     0.029 A 
ATOM     54  N   UNL A   1      44.852  29.882  28.075  1.00  0.00    -0.354 N 
ATOM     55  N   UNL A   1      42.445  30.740  29.524  1.00  0.00    -0.248 NA
ATOM     56  C   UNL A   1      41.315  32.322  30.820  1.00  0.00     0.031 C 
ATOM     57  C   UNL A   1      46.574  31.279  27.961  1.00  0.00     0.029 A 
ATOM     58  C   UNL A   1      45.295  31.134  28.473  1.00  0.00     0.049 A 
ATOM     59  H   UNL A   1      43.975  29.497  28.298  1.00  0.00     0.167 HD
ATOM     60  C   UNL A   1      43.264  31.852  29.707  1.00  0.00     0.074 A 
ATOM     61  C   UNL A   1      42.504  32.805  30.488  1.00  0.00     0.031 C 
ATOM     62  C   UNL A   1      44.529  32.071  29.263  1.00  0.00     0.034 A 
BRANCH  49  63
ATOM     63  C   UNL A   1      46.893  27.328  26.034  1.00  0.00     0.023 A 
ATOM     64  C   UNL A   1      47.934  26.661  26.704  1.00  0.00     0.031 A 
ATOM     65  C   UNL A   1      46.994  27.474  24.640  1.00  0.00     0.131 A 
ATOM     66  C   UNL A   1      49.062  26.229  25.989  1.00  0.00     0.055 A 
ATOM     67  C   UNL A   1      48.084  26.974  23.924  1.00  0.00     0.041 A 
ATOM     68  F   UNL A   1      46.042  28.124  23.950  1.00  0.00    -0.206 F 
ATOM     69  C   UNL A   1      49.133  26.361  24.601  1.00  0.00     0.022 A 
BRANCH  66  70
ATOM     70  S   UNL A   1      50.497  25.622  26.919  1.00  0.00     0.124 S 
ATOM     71  O   UNL A   1      50.808  26.771  27.765  1.00  0.00    -0.237 OA
ATOM     72  O   UNL A   1      49.958  24.452  27.602  1.00  0.00    -0.237 OA
ATOM     73  O   UNL A   1      51.484  25.340  25.878  1.00  0.00    -0.744 OA
ENDBRANCH  66  70
ENDBRANCH  49  63
BRANCH  50  74
ATOM     74  C   UNL A   1      38.901  30.683  31.047  1.00  0.00     0.023 A 
ATOM     75  C   UNL A   1      37.955  31.560  30.491  1.00  0.00     0.031 A 
ATOM     76  C   UNL A   1      38.763  30.336  32.403  1.00  0.00     0.131 A 
ATOM     77  C   UNL A   1      36.940  32.096  31.300  1.00  0.00     0.055 A 
ATOM     78  C   UNL A   1      37.722  30.833  33.190  1.00  0.00     0.041 A 
ATOM     79  F   UNL A   1      39.644  29.507  32.984  1.00  0.00    -0.206 F 
ATOM     80  C   UNL A   1      36.811  31.729  32.642  1.00  0.00     0.022 A 
BRANCH  77  81
ATOM     81  S   UNL A   1      35.841  33.356  30.596  1.00  0.00     0.124 S 
ATOM     82  O   UNL A   1      36.402  33.527  29.261  1.00  0.00    -0.237 OA
ATOM     83  O   UNL A   1      34.541  32.697  30.665  1.00  0.00    -0.237 OA
ATOM     84  O   UNL A   1      36.008  34.495  31.495  1.00  0.00    -0.744 OA
ENDBRANCH  77  81
ENDBRANCH  50  74
BRANCH  62  85
ATOM     85  C   UNL A   1      45.145  33.415  29.569  1.00  0.00     0.023 A 
ATOM     86  C   UNL A   1      45.021  34.506  28.692  1.00  0.00     0.031 A 
ATOM     87  C   UNL A   1      45.874  33.601  30.757  1.00  0.00     0.131 A 
ATOM     88  C   UNL A   1      45.658  35.721  28.992  1.00  0.00     0.055 A 
ATOM     89  C   UNL A   1      46.459  34.827  31.077  1.00  0.00     0.041 A 
ATOM     90  F   UNL A   1      46.024  32.593  31.632  1.00  0.00    -0.206 F 
ATOM     91  C   UNL A   1      46.364  35.892  30.186  1.00  0.00     0.022 A 
BRANCH  88  92
ATOM     92  S   UNL A   1      45.624  37.054  27.761  1.00  0.00     0.124 S 
ATOM     93  O   UNL A   1      46.926  36.908  27.119  1.00  0.00    -0.237 OA
ATOM     94  O   UNL A   1      44.467  36.697  26.947  1.00  0.00    -0.237 OA
ATOM     95  O   UNL A   1      45.463  38.262  28.569  1.00  0.00    -0.744 OA
ENDBRANCH  88  92
ENDBRANCH  62  85
ENDBRANCH  36  37
ENDBRANCH  29  31
ENDBRANCH  28  29
ENDBRANCH  27  28
ENDBRANCH  26  27
ENDBRANCH  25  26
ENDBRANCH   1  25
TORSDOF 22
ENDMDL
MODEL 2
REMARK VINA RESULT:     -10.5      1.994      7.626
REMARK SMILES O=Cc1ccc2c(c1)C=C(C(=O)OCCOCCOCCOC(=O)c1ccc(-c3c4nc(c(-c5cc(S(=O)(=O)[O-])ccc5F)c5ccc([nH]5)c(-c5cc(S(=O)(=O)[O-])ccc5F)c5nc(c(-c6cc(S(=O)(=O)[O-])ccc6F)c6ccc3[nH]6)C=C5)C=C4)cc1)[C@H](C(F)(F)F)O2
REMARK SMILES IDX 18 1 17 2 16 3 15 4 14 5 13 6 11 7 12 8 10 9 3 10 4 11 8 12
REMARK SMILES IDX 5 13 7 14 6 15 9 16 93 17 88 18 2 19 1 20 89 21 90 22 91 23
REMARK SMILES IDX 92 24 19 25 20 26 21 27 22 28 23 29 24 30 25 31 26 32 87 33
REMARK SMILES IDX 27 34 86 35 28 36 29 37 30 38 80 39 31 40 85 41 79 42 81 43
REMARK SMILES IDX 32 44 84 45 78 46 77 47 33 49 65 50 45 51 64 52 46 53 49 54
REMARK SMILES IDX 63 55 82 56 47 57 48 58 62 60 83 61 50 62 34 63 35 64 43 65
REMARK SMILES IDX 36 66 42 67 44 68 41 69 37 70 38 71 39 72 40 73 66 74 67 75
REMARK SMILES IDX 75 76 68 77 74 78 76 79 73 80 69 81 70 82 71 83 72 84 51 85
REMARK SMILES IDX 52 86 60 87 53 88 59 89 61 90 58 91 54 92 55 93 56 94 57 95
REMARK H PARENT 81 48 49 59
REMARK Flexibility Score: inf
ROOT
ATOM      1  C   UNL A   1      34.257  22.228  24.358  1.00  0.00     0.188 C 
ENDROOT
BRANCH   1   2
ATOM      2  C   UNL A   1      33.702  22.663  25.730  1.00  0.00     0.188 C 
BRANCH   2   3
ATOM      3  O   UNL A   1      32.596  23.549  25.635  1.00  0.00    -0.376 OA
BRANCH   3   4
ATOM      4  C   UNL A   1      31.562  23.165  24.742  1.00  0.00     0.202 C 
BRANCH   4   5
ATOM      5  C   UNL A   1      31.603  23.900  23.401  1.00  0.00     0.261 C 
BRANCH   5   6
ATOM      6  O   UNL A   1      30.874  25.140  23.388  1.00  0.00    -0.460 OA
BRANCH   6   7
ATOM      7  C   UNL A   1      31.496  26.218  22.861  1.00  0.00     0.338 C 
ATOM      8  O   UNL A   1      31.828  26.353  21.697  1.00  0.00    -0.246 OA
BRANCH   7   9
ATOM      9  C   UNL A   1      31.656  27.248  23.908  1.00  0.00     0.087 C 
ATOM     10  C   UNL A   1      34.255  29.528  27.263  1.00  0.00     0.015 A 
ATOM     11  C   UNL A   1      33.326  30.573  27.273  1.00  0.00     0.015 A 
ATOM     12  C   UNL A   1      34.087  28.432  26.408  1.00  0.00     0.023 A 
ATOM     13  C   UNL A   1      32.217  30.519  26.429  1.00  0.00     0.048 A 
ATOM     14  C   UNL A   1      32.982  28.387  25.552  1.00  0.00     0.018 A 
ATOM     15  C   UNL A   1      32.042  29.425  25.583  1.00  0.00     0.128 A 
ATOM     16  C   UNL A   1      32.832  27.330  24.555  1.00  0.00     0.027 C 
ATOM     17  O   UNL A   1      30.961  29.457  24.743  1.00  0.00    -0.475 OA
ATOM     18  C   UNL A   1      30.503  28.156  24.279  1.00  0.00     0.316 C 
BRANCH  10  19
ATOM     19  C   UNL A   1      35.446  29.585  28.138  1.00  0.00     0.260 C 
ATOM     20  O   UNL A   1      36.584  29.441  27.709  1.00  0.00    -0.298 OA
ENDBRANCH  10  19
BRANCH  18  21
ATOM     21  C   UNL A   1      29.402  28.371  23.228  1.00  0.00     0.430 C 
ATOM     22  F   UNL A   1      28.758  29.545  23.443  1.00  0.00    -0.167 F 
ATOM     23  F   UNL A   1      29.942  28.461  21.988  1.00  0.00    -0.167 F 
ATOM     24  F   UNL A   1      28.496  27.374  23.210  1.00  0.00    -0.167 F 
ENDBRANCH  18  21
ENDBRANCH   7   9
ENDBRANCH   6   7
ENDBRANCH   5   6
ENDBRANCH   4   5
ENDBRANCH   3   4
ENDBRANCH   2   3
ENDBRANCH   1   2
BRANCH   1  25
ATOM     25  O   UNL A   1      35.560  21.665  24.257  1.00  0.00    -0.376 OA
BRANCH  25  26
ATOM     26  C   UNL A   1      35.855  20.463  24.954  1.00  0.00     0.202 C 
BRANCH  26  27
ATOM     27  C   UNL A   1      37.325  20.083  25.160  1.00  0.00     0.261 C 
BRANCH  27  28
ATOM     28  O   UNL A   1      38.216  21.200  25.309  1.00  0.00    -0.460 OA
BRANCH  28  29
ATOM     29  C   UNL A   1      39.319  20.955  26.061  1.00  0.00     0.338 C 
ATOM     30  O   UNL A   1      39.929  19.902  26.143  1.00  0.00    -0.246 OA
BRANCH  29  31
ATOM     31  C   UNL A   1      39.814  22.211  26.660  1.00  0.00     0.060 A 
ATOM     32  C   UNL A   1      39.313  23.419  26.156  1.00  0.00     0.016 A 
ATOM     33  C   UNL A   1      40.807  22.214  27.643  1.00  0.00     0.016 A 
ATOM     34  C   UNL A   1      39.823  24.635  26.610  1.00  0.00     0.010 A 
ATOM     35  C   UNL A   1      41.335  23.435  28.080  1.00  0.00     0.010 A 
ATOM     36  C   UNL A   1      40.867  24.648  27.543  1.00  0.00    -0.014 A 
BRANCH  36  37
ATOM     37  C   UNL A   1      41.589  25.918  27.813  1.00  0.00     0.031 A 
ATOM     38  C   UNL A   1      40.877  27.000  28.582  1.00  0.00     0.074 A 
ATOM     39  C   UNL A   1      42.859  26.099  27.408  1.00  0.00     0.049 A 
ATOM     40  N   UNL A   1      41.286  28.199  28.902  1.00  0.00    -0.248 NA
ATOM     41  C   UNL A   1      39.521  26.678  29.052  1.00  0.00     0.031 C 
ATOM     42  C   UNL A   1      43.670  25.107  26.706  1.00  0.00     0.029 A 
ATOM     43  N   UNL A   1      43.685  27.189  27.528  1.00  0.00    -0.354 N 
ATOM     44  C   UNL A   1      40.240  28.777  29.615  1.00  0.00     0.074 A 
ATOM     45  C   UNL A   1      39.167  27.806  29.647  1.00  0.00     0.031 C 
ATOM     46  C   UNL A   1      44.875  25.643  26.439  1.00  0.00     0.029 A 
ATOM     47  C   UNL A   1      44.908  27.023  26.922  1.00  0.00     0.049 A 
ATOM     48  H   UNL A   1      43.425  28.011  28.003  1.00  0.00     0.167 HD
ATOM     49  C   UNL A   1      40.182  30.002  30.195  1.00  0.00     0.034 A 
ATOM     50  C   UNL A   1      45.923  27.895  26.754  1.00  0.00     0.034 A 
ATOM     51  C   UNL A   1      41.246  30.972  30.133  1.00  0.00     0.049 A 
ATOM     52  C   UNL A   1      45.796  29.292  27.317  1.00  0.00     0.074 A 
ATOM     53  C   UNL A   1      41.291  32.242  30.684  1.00  0.00     0.029 A 
ATOM     54  N   UNL A   1      42.450  30.789  29.465  1.00  0.00    -0.354 N 
ATOM     55  N   UNL A   1      44.803  29.825  27.992  1.00  0.00    -0.248 NA
ATOM     56  C   UNL A   1      46.929  30.200  27.099  1.00  0.00     0.031 C 
ATOM     57  C   UNL A   1      42.491  32.848  30.293  1.00  0.00     0.029 A 
ATOM     58  C   UNL A   1      43.229  31.932  29.561  1.00  0.00     0.049 A 
ATOM     59  H   UNL A   1      42.713  29.966  28.993  1.00  0.00     0.167 HD
ATOM     60  C   UNL A   1      45.211  31.120  28.306  1.00  0.00     0.074 A 
ATOM     61  C   UNL A   1      46.539  31.283  27.755  1.00  0.00     0.031 C 
ATOM     62  C   UNL A   1      44.549  32.086  28.996  1.00  0.00     0.034 A 
BRANCH  49  63
ATOM     63  C   UNL A   1      38.896  30.369  30.895  1.00  0.00     0.023 A 
ATOM     64  C   UNL A   1      37.952  31.227  30.303  1.00  0.00     0.031 A 
ATOM     65  C   UNL A   1      38.631  29.889  32.189  1.00  0.00     0.131 A 
ATOM     66  C   UNL A   1      36.824  31.634  31.032  1.00  0.00     0.055 A 
ATOM     67  C   UNL A   1      37.469  30.238  32.880  1.00  0.00     0.041 A 
ATOM     68  F   UNL A   1      39.509  29.087  32.813  1.00  0.00    -0.206 F 
ATOM     69  C   UNL A   1      36.565  31.127  32.307  1.00  0.00     0.022 A 
BRANCH  66  70
ATOM     70  S   UNL A   1      35.775  32.946  30.345  1.00  0.00     0.124 S 
ATOM     71  O   UNL A   1      36.210  32.972  28.951  1.00  0.00    -0.237 OA
ATOM     72  O   UNL A   1      34.432  32.435  30.587  1.00  0.00    -0.237 OA
ATOM     73  O   UNL A   1      36.147  34.124  31.127  1.00  0.00    -0.744 OA
ENDBRANCH  66  70
ENDBRANCH  49  63
BRANCH  50  74
ATOM     74  C   UNL A   1      47.135  27.505  25.978  1.00  0.00     0.023 A 
ATOM     75  C   UNL A   1      47.272  27.842  24.622  1.00  0.00     0.031 A 
ATOM     76  C   UNL A   1      48.147  26.725  26.569  1.00  0.00     0.131 A 
ATOM     77  C   UNL A   1      48.369  27.363  23.889  1.00  0.00     0.055 A 
ATOM     78  C   UNL A   1      49.262  26.294  25.848  1.00  0.00     0.041 A 
ATOM     79  F   UNL A   1      48.061  26.370  27.860  1.00  0.00    -0.206 F 
ATOM     80  C   UNL A   1      49.371  26.602  24.496  1.00  0.00     0.022 A 
BRANCH  77  81
ATOM     81  S   UNL A   1      48.425  27.672  22.102  1.00  0.00     0.124 S 
ATOM     82  O   UNL A   1      48.621  26.328  21.574  1.00  0.00    -0.237 OA
ATOM     83  O   UNL A   1      47.118  28.273  21.858  1.00  0.00    -0.237 OA
ATOM     84  O   UNL A   1      49.563  28.576  21.948  1.00  0.00    -0.744 OA
ENDBRANCH  77  81
ENDBRANCH  50  74
BRANCH  62  85
ATOM     85  C   UNL A   1      45.280  33.385  29.235  1.00  0.00     0.023 A 
ATOM     86  C   UNL A   1      46.089  33.585  30.367  1.00  0.00     0.031 A 
ATOM     87  C   UNL A   1      45.157  34.442  28.315  1.00  0.00     0.131 A 
ATOM     88  C   UNL A   1      46.704  34.830  30.576  1.00  0.00     0.055 A 
ATOM     89  C   UNL A   1      45.815  35.658  28.499  1.00  0.00     0.041 A 
ATOM     90  F   UNL A   1      44.398  34.306  27.216  1.00  0.00    -0.206 F 
ATOM     91  C   UNL A   1      46.584  35.863  29.642  1.00  0.00     0.022 A 
BRANCH  88  92
ATOM     92  S   UNL A   1      47.598  35.114  32.129  1.00  0.00     0.124 S 
ATOM     93  O   UNL A   1      46.668  34.579  33.118  1.00  0.00    -0.237 OA
ATOM     94  O   UNL A   1      48.824  34.348  31.927  1.00  0.00    -0.237 OA
ATOM     95  O   UNL A   1      47.774  36.564  32.164  1.00  0.00    -0.744 OA
ENDBRANCH  88  92
ENDBRANCH  62  85
ENDBRANCH  36  37
ENDBRANCH  29  31
ENDBRANCH  28  29
ENDBRANCH  27  28
ENDBRANCH  26  27
ENDBRANCH  25  26
ENDBRANCH   1  25
TORSDOF 22
ENDMDL
MODEL 3
REMARK VINA RESULT:     -10.5      1.950      7.783
REMARK SMILES O=Cc1ccc2c(c1)C=C(C(=O)OCCOCCOCCOC(=O)c1ccc(-c3c4nc(c(-c5cc(S(=O)(=O)[O-])ccc5F)c5ccc([nH]5)c(-c5cc(S(=O)(=O)[O-])ccc5F)c5nc(c(-c6cc(S(=O)(=O)[O-])ccc6F)c6ccc3[nH]6)C=C5)C=C4)cc1)[C@H](C(F)(F)F)O2
REMARK SMILES IDX 18 1 17 2 16 3 15 4 14 5 13 6 11 7 12 8 10 9 3 10 4 11 8 12
REMARK SMILES IDX 5 13 7 14 6 15 9 16 93 17 88 18 2 19 1 20 89 21 90 22 91 23
REMARK SMILES IDX 92 24 19 25 20 26 21 27 22 28 23 29 24 30 25 31 26 32 87 33
REMARK SMILES IDX 27 34 86 35 28 36 29 37 30 38 80 39 31 40 85 41 79 42 81 43
REMARK SMILES IDX 32 44 84 45 78 46 77 47 33 49 65 50 45 51 64 52 46 53 49 54
REMARK SMILES IDX 63 55 82 56 47 57 48 58 62 60 83 61 50 62 34 63 35 64 43 65
REMARK SMILES IDX 36 66 42 67 44 68 41 69 37 70 38 71 39 72 40 73 66 74 67 75
REMARK SMILES IDX 75 76 68 77 74 78 76 79 73 80 69 81 70 82 71 83 72 84 51 85
REMARK SMILES IDX 52 86 60 87 53 88 59 89 61 90 58 91 54 92 55 93 56 94 57 95
REMARK H PARENT 81 48 49 59
REMARK Flexibility Score: inf
ROOT
ATOM      1  C   UNL A   1      34.147  21.180  24.717  1.00  0.00     0.188 C 
ENDROOT
BRANCH   1   2
ATOM      2  C   UNL A   1      33.527  21.367  26.117  1.00  0.00     0.188 C 
BRANCH   2   3
ATOM      3  O   UNL A   1      32.922  22.639  26.300  1.00  0.00    -0.376 OA
BRANCH   3   4
ATOM      4  C   UNL A   1      31.519  22.698  26.096  1.00  0.00     0.202 C 
BRANCH   4   5
ATOM      5  C   UNL A   1      31.121  23.054  24.663  1.00  0.00     0.261 C 
BRANCH   5   6
ATOM      6  O   UNL A   1      30.815  24.445  24.466  1.00  0.00    -0.460 OA
BRANCH   6   7
ATOM      7  C   UNL A   1      31.568  25.124  23.572  1.00  0.00     0.338 C 
ATOM      8  O   UNL A   1      32.174  24.639  22.633  1.00  0.00    -0.246 OA
BRANCH   7   9
ATOM      9  C   UNL A   1      31.493  26.570  23.869  1.00  0.00     0.087 C 
ATOM     10  C   UNL A   1      29.283  30.845  23.646  1.00  0.00     0.015 A 
ATOM     11  C   UNL A   1      30.115  31.328  24.662  1.00  0.00     0.015 A 
ATOM     12  C   UNL A   1      29.402  29.524  23.195  1.00  0.00     0.023 A 
ATOM     13  C   UNL A   1      31.077  30.489  25.225  1.00  0.00     0.048 A 
ATOM     14  C   UNL A   1      30.357  28.681  23.771  1.00  0.00     0.018 A 
ATOM     15  C   UNL A   1      31.203  29.177  24.771  1.00  0.00     0.128 A 
ATOM     16  C   UNL A   1      30.432  27.264  23.422  1.00  0.00     0.027 C 
ATOM     17  O   UNL A   1      32.131  28.390  25.399  1.00  0.00    -0.475 OA
ATOM     18  C   UNL A   1      32.613  27.261  24.616  1.00  0.00     0.316 C 
BRANCH  10  19
ATOM     19  C   UNL A   1      28.245  31.718  23.059  1.00  0.00     0.260 C 
ATOM     20  O   UNL A   1      27.097  31.752  23.483  1.00  0.00    -0.298 OA
ENDBRANCH  10  19
BRANCH  18  21
ATOM     21  C   UNL A   1      33.513  26.393  25.511  1.00  0.00     0.430 C 
ATOM     22  F   UNL A   1      34.384  27.166  26.206  1.00  0.00    -0.167 F 
ATOM     23  F   UNL A   1      32.770  25.739  26.436  1.00  0.00    -0.167 F 
ATOM     24  F   UNL A   1      34.207  25.473  24.815  1.00  0.00    -0.167 F 
ENDBRANCH  18  21
ENDBRANCH   7   9
ENDBRANCH   6   7
ENDBRANCH   5   6
ENDBRANCH   4   5
ENDBRANCH   3   4
ENDBRANCH   2   3
ENDBRANCH   1   2
BRANCH   1  25
ATOM     25  O   UNL A   1      35.561  21.165  24.554  1.00  0.00    -0.376 OA
BRANCH  25  26
ATOM     26  C   UNL A   1      36.287  19.989  24.881  1.00  0.00     0.202 C 
BRANCH  26  27
ATOM     27  C   UNL A   1      37.818  20.061  24.898  1.00  0.00     0.261 C 
BRANCH  27  28
ATOM     28  O   UNL A   1      38.355  21.240  25.518  1.00  0.00    -0.460 OA
BRANCH  28  29
ATOM     29  C   UNL A   1      39.507  21.048  26.208  1.00  0.00     0.338 C 
ATOM     30  O   UNL A   1      40.187  20.036  26.230  1.00  0.00    -0.246 OA
BRANCH  29  31
ATOM     31  C   UNL A   1      39.950  22.318  26.821  1.00  0.00     0.060 A 
ATOM     32  C   UNL A   1      39.441  23.511  26.291  1.00  0.00     0.016 A 
ATOM     33  C   UNL A   1      40.902  22.348  27.842  1.00  0.00     0.016 A 
ATOM     34  C   UNL A   1      39.904  24.741  26.759  1.00  0.00     0.010 A 
ATOM     35  C   UNL A   1      41.385  23.582  28.294  1.00  0.00     0.010 A 
ATOM     36  C   UNL A   1      40.910  24.782  27.733  1.00  0.00    -0.014 A 
BRANCH  36  37
ATOM     37  C   UNL A   1      41.591  26.069  28.025  1.00  0.00     0.031 A 
ATOM     38  C   UNL A   1      40.791  27.180  28.651  1.00  0.00     0.074 A 
ATOM     39  C   UNL A   1      42.900  26.241  27.766  1.00  0.00     0.049 A 
ATOM     40  N   UNL A   1      41.155  28.397  28.959  1.00  0.00    -0.248 NA
ATOM     41  C   UNL A   1      39.389  26.870  28.971  1.00  0.00     0.031 C 
ATOM     42  C   UNL A   1      43.792  25.224  27.214  1.00  0.00     0.029 A 
ATOM     43  N   UNL A   1      43.703  27.342  27.930  1.00  0.00    -0.354 N 
ATOM     44  C   UNL A   1      40.030  29.000  29.514  1.00  0.00     0.074 A 
ATOM     45  C   UNL A   1      38.963  28.022  29.464  1.00  0.00     0.031 C 
ATOM     46  C   UNL A   1      45.018  25.756  27.067  1.00  0.00     0.029 A 
ATOM     47  C   UNL A   1      44.990  27.158  27.483  1.00  0.00     0.049 A 
ATOM     48  H   UNL A   1      43.387  28.184  28.330  1.00  0.00     0.167 HD
ATOM     49  C   UNL A   1      39.900  30.250  30.023  1.00  0.00     0.034 A 
ATOM     50  C   UNL A   1      46.016  28.029  27.395  1.00  0.00     0.034 A 
ATOM     51  C   UNL A   1      40.962  31.225  30.041  1.00  0.00     0.049 A 
ATOM     52  C   UNL A   1      45.819  29.450  27.870  1.00  0.00     0.074 A 
ATOM     53  C   UNL A   1      40.937  32.521  30.530  1.00  0.00     0.029 A 
ATOM     54  N   UNL A   1      42.237  31.020  29.531  1.00  0.00    -0.354 N 
ATOM     55  N   UNL A   1      44.751  30.006  28.396  1.00  0.00    -0.248 NA
ATOM     56  C   UNL A   1      46.968  30.357  27.745  1.00  0.00     0.031 C 
ATOM     57  C   UNL A   1      42.173  33.117  30.256  1.00  0.00     0.029 A 
ATOM     58  C   UNL A   1      42.996  32.173  29.663  1.00  0.00     0.049 A 
ATOM     59  H   UNL A   1      42.557  30.178  29.133  1.00  0.00     0.167 HD
ATOM     60  C   UNL A   1      45.115  31.319  28.693  1.00  0.00     0.074 A 
ATOM     61  C   UNL A   1      46.499  31.466  28.296  1.00  0.00     0.031 C 
ATOM     62  C   UNL A   1      44.374  32.311  29.252  1.00  0.00     0.034 A 
BRANCH  49  63
ATOM     63  C   UNL A   1      38.539  30.640  30.546  1.00  0.00     0.023 A 
ATOM     64  C   UNL A   1      37.598  31.300  29.736  1.00  0.00     0.031 A 
ATOM     65  C   UNL A   1      38.195  30.386  31.884  1.00  0.00     0.131 A 
ATOM     66  C   UNL A   1      36.389  31.745  30.292  1.00  0.00     0.055 A 
ATOM     67  C   UNL A   1      36.959  30.765  32.411  1.00  0.00     0.041 A 
ATOM     68  F   UNL A   1      39.064  29.782  32.710  1.00  0.00    -0.206 F 
ATOM     69  C   UNL A   1      36.053  31.462  31.617  1.00  0.00     0.022 A 
BRANCH  66  70
ATOM     70  S   UNL A   1      35.323  32.826  29.296  1.00  0.00     0.124 S 
ATOM     71  O   UNL A   1      36.026  34.102  29.392  1.00  0.00    -0.237 OA
ATOM     72  O   UNL A   1      35.349  32.177  27.991  1.00  0.00    -0.237 OA
ATOM     73  O   UNL A   1      34.039  32.776  29.994  1.00  0.00    -0.744 OA
ENDBRANCH  66  70
ENDBRANCH  49  63
BRANCH  50  74
ATOM     74  C   UNL A   1      47.313  27.613  26.788  1.00  0.00     0.023 A 
ATOM     75  C   UNL A   1      47.512  27.648  25.398  1.00  0.00     0.031 A 
ATOM     76  C   UNL A   1      48.351  27.106  27.591  1.00  0.00     0.131 A 
ATOM     77  C   UNL A   1      48.701  27.142  24.849  1.00  0.00     0.055 A 
ATOM     78  C   UNL A   1      49.552  26.651  27.043  1.00  0.00     0.041 A 
ATOM     79  F   UNL A   1      48.210  27.044  28.924  1.00  0.00    -0.206 F 
ATOM     80  C   UNL A   1      49.726  26.655  25.663  1.00  0.00     0.022 A 
BRANCH  77  81
ATOM     81  S   UNL A   1      48.853  27.044  23.044  1.00  0.00     0.124 S 
ATOM     82  O   UNL A   1      48.112  28.225  22.619  1.00  0.00    -0.237 OA
ATOM     83  O   UNL A   1      50.300  27.094  22.859  1.00  0.00    -0.237 OA
ATOM     84  O   UNL A   1      48.229  25.764  22.718  1.00  0.00    -0.744 OA
ENDBRANCH  77  81
ENDBRANCH  50  74
BRANCH  62  85
ATOM     85  C   UNL A   1      45.068  33.626  29.513  1.00  0.00     0.023 A 
ATOM     86  C   UNL A   1      45.088  34.657  28.558  1.00  0.00     0.031 A 
ATOM     87  C   UNL A   1      45.726  33.845  30.736  1.00  0.00     0.131 A 
ATOM     88  C   UNL A   1      45.794  35.842  28.822  1.00  0.00     0.055 A 
ATOM     89  C   UNL A   1      46.380  35.045  31.016  1.00  0.00     0.041 A 
ATOM     90  F   UNL A   1      45.740  32.894  31.684  1.00  0.00    -0.206 F 
ATOM     91  C   UNL A   1      46.428  36.048  30.051  1.00  0.00     0.022 A 
BRANCH  88  92
ATOM     92  S   UNL A   1      45.945  37.082  27.506  1.00  0.00     0.124 S 
ATOM     93  O   UNL A   1      46.581  38.193  28.207  1.00  0.00    -0.237 OA
ATOM     94  O   UNL A   1      46.772  36.392  26.521  1.00  0.00    -0.237 OA
ATOM     95  O   UNL A   1      44.562  37.317  27.096  1.00  0.00    -0.744 OA
ENDBRANCH  88  92
ENDBRANCH  62  85
ENDBRANCH  36  37
ENDBRANCH  29  31
ENDBRANCH  28  29
ENDBRANCH  27  28
ENDBRANCH  26  27
ENDBRANCH  25  26
ENDBRANCH   1  25
TORSDOF 22
ENDMDL
