MODEL 1
REMARK VINA RESULT:     -10.4      0.000      0.000
REMARK SMILES Cc1c(Br)c(C)c2c(c1Br)O[C@H](C(F)(F)F)C(C(=O)OCCOCCOCCOC(=O)c1ccc(-c3c4nc(c(-c5cc(S(=O)(=O)[O-])ccc5F)c5ccc([nH]5)c(-c5cc(S(=O)(=O)[O-])ccc5F)c5nc(c(-c6cc(S(=O)(=O)[O-])ccc6F)c6ccc3[nH]6)C=C5)C=C4)cc1)=C2
REMARK SMILES IDX 25 1 24 2 23 3 22 4 21 5 20 6 18 7 19 8 17 9 1 10 2 11 3 12
REMARK SMILES IDX 9 13 4 14 5 15 8 16 10 17 6 18 7 19 11 20 95 21 12 22 13 23
REMARK SMILES IDX 14 24 15 25 16 26 26 27 27 28 28 29 29 30 30 31 31 32 32 33
REMARK SMILES IDX 33 34 94 35 34 36 93 37 35 38 36 39 37 40 87 41 38 42 92 43
REMARK SMILES IDX 86 44 88 45 39 46 91 47 85 48 84 49 40 51 72 52 52 53 71 54
REMARK SMILES IDX 53 55 56 56 70 57 89 58 54 59 55 60 69 62 90 63 57 64 41 65
REMARK SMILES IDX 42 66 50 67 43 68 49 69 51 70 48 71 44 72 45 73 46 74 47 75
REMARK SMILES IDX 73 76 74 77 82 78 75 79 81 80 83 81 80 82 76 83 77 84 78 85
REMARK SMILES IDX 79 86 58 87 59 88 67 89 60 90 66 91 68 92 65 93 61 94 62 95
REMARK SMILES IDX 63 96 64 97
REMARK H PARENT 88 50 56 61
REMARK Flexibility Score: inf
ROOT
ATOM      1  C   UNL A   1      48.741  40.326  28.787  1.00  0.00     0.188 C 
ENDROOT
BRANCH   1   2
ATOM      2  C   UNL A   1      48.499  41.270  27.590  1.00  0.00     0.188 C 
BRANCH   2   3
ATOM      3  O   UNL A   1      47.227  41.843  27.359  1.00  0.00    -0.376 OA
BRANCH   3   4
ATOM      4  C   UNL A   1      46.749  42.106  26.053  1.00  0.00     0.202 C 
BRANCH   4   5
ATOM      5  C   UNL A   1      45.741  41.207  25.330  1.00  0.00     0.261 C 
BRANCH   5   6
ATOM      6  O   UNL A   1      45.342  41.651  24.032  1.00  0.00    -0.460 OA
BRANCH   6   7
ATOM      7  C   UNL A   1      44.455  42.675  24.028  1.00  0.00     0.338 C 
ATOM      8  O   UNL A   1      43.808  43.084  24.979  1.00  0.00    -0.246 OA
BRANCH   7   9
ATOM      9  C   UNL A   1      44.447  43.314  22.701  1.00  0.00     0.087 C 
ATOM     10  C   UNL A   1      44.639  47.521  17.719  1.00  0.00     0.047 C 
ATOM     11  C   UNL A   1      44.898  46.614  18.899  1.00  0.00    -0.019 A 
ATOM     12  C   UNL A   1      45.896  46.953  19.849  1.00  0.00     0.025 A 
ATOM     13  C   UNL A   1      44.135  45.451  19.127  1.00  0.00     0.064 A 
ATOM     14  Br  UNL A   1      46.927  48.550  19.566  1.00  0.00    -0.050 Br
ATOM     15  C   UNL A   1      46.118  46.168  21.009  1.00  0.00    -0.026 A 
ATOM     16  C   UNL A   1      44.321  44.680  20.289  1.00  0.00     0.142 A 
ATOM     17  Br  UNL A   1      42.773  44.894  17.895  1.00  0.00    -0.046 Br
ATOM     18  C   UNL A   1      47.213  46.491  22.006  1.00  0.00     0.046 C 
ATOM     19  C   UNL A   1      45.275  45.055  21.246  1.00  0.00     0.022 A 
ATOM     20  O   UNL A   1      43.537  43.560  20.415  1.00  0.00    -0.474 OA
ATOM     21  C   UNL A   1      45.315  44.312  22.506  1.00  0.00     0.027 C 
ATOM     22  C   UNL A   1      43.475  42.841  21.666  1.00  0.00     0.316 C 
BRANCH  22  23
ATOM     23  C   UNL A   1      42.022  42.851  22.164  1.00  0.00     0.430 C 
ATOM     24  F   UNL A   1      41.785  41.816  23.008  1.00  0.00    -0.167 F 
ATOM     25  F   UNL A   1      41.732  43.979  22.855  1.00  0.00    -0.167 F 
ATOM     26  F   UNL A   1      41.133  42.759  21.150  1.00  0.00    -0.167 F 
ENDBRANCH  22  23
ENDBRANCH   7   9
ENDBRANCH   6   7
ENDBRANCH   5   6
ENDBRANCH   4   5
ENDBRANCH   3   4
ENDBRANCH   2   3
ENDBRANCH   1   2
BRANCH   1  27
ATOM     27  O   UNL A   1      49.576  39.191  28.646  1.00  0.00    -0.376 OA
BRANCH  27  28
ATOM     28  C   UNL A   1      49.096  37.937  29.113  1.00  0.00     0.202 C 
BRANCH  28  29
ATOM     29  C   UNL A   1      48.145  37.119  28.234  1.00  0.00     0.261 C 
BRANCH  29  30
ATOM     30  O   UNL A   1      46.781  37.562  28.321  1.00  0.00    -0.460 OA
BRANCH  30  31
ATOM     31  C   UNL A   1      46.085  37.079  29.382  1.00  0.00     0.338 C 
ATOM     32  O   UNL A   1      45.671  37.708  30.338  1.00  0.00    -0.246 OA
BRANCH  31  33
ATOM     33  C   UNL A   1      45.705  35.680  29.111  1.00  0.00     0.060 A 
ATOM     34  C   UNL A   1      45.009  35.405  27.927  1.00  0.00     0.016 A 
ATOM     35  C   UNL A   1      46.000  34.658  30.017  1.00  0.00     0.016 A 
ATOM     36  C   UNL A   1      44.595  34.104  27.648  1.00  0.00     0.010 A 
ATOM     37  C   UNL A   1      45.554  33.359  29.752  1.00  0.00     0.010 A 
ATOM     38  C   UNL A   1      44.830  33.081  28.577  1.00  0.00    -0.014 A 
BRANCH  38  39
ATOM     39  C   UNL A   1      44.130  31.786  28.402  1.00  0.00     0.031 A 
ATOM     40  C   UNL A   1      44.812  30.718  27.590  1.00  0.00     0.074 A 
ATOM     41  C   UNL A   1      42.958  31.532  29.011  1.00  0.00     0.049 A 
ATOM     42  N   UNL A   1      44.421  29.500  27.330  1.00  0.00    -0.248 NA
ATOM     43  C   UNL A   1      46.116  31.073  27.006  1.00  0.00     0.031 C 
ATOM     44  C   UNL A   1      42.235  32.462  29.876  1.00  0.00     0.029 A 
ATOM     45  N   UNL A   1      42.177  30.403  29.001  1.00  0.00    -0.354 N 
ATOM     46  C   UNL A   1      45.440  28.932  26.575  1.00  0.00     0.074 A 
ATOM     47  C   UNL A   1      46.449  29.952  26.385  1.00  0.00     0.031 C 
ATOM     48  C   UNL A   1      41.115  31.862  30.319  1.00  0.00     0.029 A 
ATOM     49  C   UNL A   1      41.026  30.518  29.748  1.00  0.00     0.049 A 
ATOM     50  H   UNL A   1      42.417  29.587  28.506  1.00  0.00     0.167 HD
ATOM     51  C   UNL A   1      45.538  27.669  26.099  1.00  0.00     0.034 A 
ATOM     52  C   UNL A   1      40.015  29.643  29.931  1.00  0.00     0.034 A 
ATOM     53  C   UNL A   1      44.522  26.665  26.265  1.00  0.00     0.049 A 
ATOM     54  C   UNL A   1      40.073  28.294  29.255  1.00  0.00     0.074 A 
ATOM     55  C   UNL A   1      44.523  25.357  25.814  1.00  0.00     0.029 A 
ATOM     56  N   UNL A   1      43.317  26.863  26.921  1.00  0.00    -0.354 N 
ATOM     57  N   UNL A   1      41.041  27.774  28.535  1.00  0.00    -0.248 NA
ATOM     58  C   UNL A   1      38.900  27.419  29.403  1.00  0.00     0.031 C 
ATOM     59  C   UNL A   1      43.291  24.785  26.140  1.00  0.00     0.029 A 
ATOM     60  C   UNL A   1      42.546  25.716  26.847  1.00  0.00     0.049 A 
ATOM     61  H   UNL A   1      43.048  27.696  27.372  1.00  0.00     0.167 HD
ATOM     62  C   UNL A   1      40.595  26.510  28.156  1.00  0.00     0.074 A 
ATOM     63  C   UNL A   1      39.278  26.340  28.731  1.00  0.00     0.031 C 
ATOM     64  C   UNL A   1      41.224  25.573  27.404  1.00  0.00     0.034 A 
BRANCH  51  65
ATOM     65  C   UNL A   1      46.774  27.322  25.318  1.00  0.00     0.023 A 
ATOM     66  C   UNL A   1      46.939  27.743  23.988  1.00  0.00     0.031 A 
ATOM     67  C   UNL A   1      47.794  26.555  25.906  1.00  0.00     0.131 A 
ATOM     68  C   UNL A   1      48.080  27.358  23.273  1.00  0.00     0.055 A 
ATOM     69  C   UNL A   1      48.956  26.226  25.208  1.00  0.00     0.041 A 
ATOM     70  F   UNL A   1      47.673  26.110  27.167  1.00  0.00    -0.206 F 
ATOM     71  C   UNL A   1      49.101  26.621  23.881  1.00  0.00     0.022 A 
BRANCH  68  72
ATOM     72  S   UNL A   1      48.177  27.761  21.509  1.00  0.00     0.124 S 
ATOM     73  O   UNL A   1      49.230  28.773  21.495  1.00  0.00    -0.237 OA
ATOM     74  O   UNL A   1      48.518  26.478  20.907  1.00  0.00    -0.237 OA
ATOM     75  O   UNL A   1      46.838  28.258  21.198  1.00  0.00    -0.744 OA
ENDBRANCH  68  72
ENDBRANCH  51  65
BRANCH  52  76
ATOM     76  C   UNL A   1      38.829  30.024  30.747  1.00  0.00     0.023 A 
ATOM     77  C   UNL A   1      37.801  30.814  30.209  1.00  0.00     0.031 A 
ATOM     78  C   UNL A   1      38.730  29.638  32.096  1.00  0.00     0.131 A 
ATOM     79  C   UNL A   1      36.728  31.212  31.024  1.00  0.00     0.055 A 
ATOM     80  C   UNL A   1      37.645  30.005  32.892  1.00  0.00     0.041 A 
ATOM     81  F   UNL A   1      39.692  28.887  32.657  1.00  0.00    -0.206 F 
ATOM     82  C   UNL A   1      36.637  30.802  32.357  1.00  0.00     0.022 A 
BRANCH  79  83
ATOM     83  S   UNL A   1      35.462  32.308  30.327  1.00  0.00     0.124 S 
ATOM     84  O   UNL A   1      35.023  31.549  29.161  1.00  0.00    -0.237 OA
ATOM     85  O   UNL A   1      34.507  32.409  31.426  1.00  0.00    -0.237 OA
ATOM     86  O   UNL A   1      36.199  33.535  30.033  1.00  0.00    -0.744 OA
ENDBRANCH  79  83
ENDBRANCH  52  76
BRANCH  64  87
ATOM     87  C   UNL A   1      40.504  24.276  27.147  1.00  0.00     0.023 A 
ATOM     88  C   UNL A   1      39.275  24.251  26.468  1.00  0.00     0.031 A 
ATOM     89  C   UNL A   1      41.097  23.052  27.502  1.00  0.00     0.131 A 
ATOM     90  C   UNL A   1      38.671  23.021  26.170  1.00  0.00     0.055 A 
ATOM     91  C   UNL A   1      40.510  21.831  27.170  1.00  0.00     0.041 A 
ATOM     92  F   UNL A   1      42.276  23.026  28.145  1.00  0.00    -0.206 F 
ATOM     93  C   UNL A   1      39.290  21.810  26.500  1.00  0.00     0.022 A 
BRANCH  90  94
ATOM     94  S   UNL A   1      37.060  23.016  25.337  1.00  0.00     0.124 S 
ATOM     95  O   UNL A   1      37.401  23.532  24.016  1.00  0.00    -0.237 OA
ATOM     96  O   UNL A   1      36.678  21.607  25.391  1.00  0.00    -0.237 OA
ATOM     97  O   UNL A   1      36.245  23.907  26.160  1.00  0.00    -0.744 OA
ENDBRANCH  90  94
ENDBRANCH  64  87
ENDBRANCH  38  39
ENDBRANCH  31  33
ENDBRANCH  30  31
ENDBRANCH  29  30
ENDBRANCH  28  29
ENDBRANCH  27  28
ENDBRANCH   1  27
TORSDOF 21
ENDMDL
MODEL 2
REMARK VINA RESULT:     -10.4      6.950     14.864
REMARK SMILES Cc1c(Br)c(C)c2c(c1Br)O[C@H](C(F)(F)F)C(C(=O)OCCOCCOCCOC(=O)c1ccc(-c3c4nc(c(-c5cc(S(=O)(=O)[O-])ccc5F)c5ccc([nH]5)c(-c5cc(S(=O)(=O)[O-])ccc5F)c5nc(c(-c6cc(S(=O)(=O)[O-])ccc6F)c6ccc3[nH]6)C=C5)C=C4)cc1)=C2
REMARK SMILES IDX 25 1 24 2 23 3 22 4 21 5 20 6 18 7 19 8 17 9 1 10 2 11 3 12
REMARK SMILES IDX 9 13 4 14 5 15 8 16 10 17 6 18 7 19 11 20 95 21 12 22 13 23
REMARK SMILES IDX 14 24 15 25 16 26 26 27 27 28 28 29 29 30 30 31 31 32 32 33
REMARK SMILES IDX 33 34 94 35 34 36 93 37 35 38 36 39 37 40 87 41 38 42 92 43
REMARK SMILES IDX 86 44 88 45 39 46 91 47 85 48 84 49 40 51 72 52 52 53 71 54
REMARK SMILES IDX 53 55 56 56 70 57 89 58 54 59 55 60 69 62 90 63 57 64 41 65
REMARK SMILES IDX 42 66 50 67 43 68 49 69 51 70 48 71 44 72 45 73 46 74 47 75
REMARK SMILES IDX 73 76 74 77 82 78 75 79 81 80 83 81 80 82 76 83 77 84 78 85
REMARK SMILES IDX 79 86 58 87 59 88 67 89 60 90 66 91 68 92 65 93 61 94 62 95
REMARK SMILES IDX 63 96 64 97
REMARK H PARENT 88 50 56 61
REMARK Flexibility Score: inf
ROOT
ATOM      1  C   UNL A   1      41.575  22.473  26.566  1.00  0.00     0.188 C 
ENDROOT
BRANCH   1   2
ATOM      2  C   UNL A   1      40.867  23.055  27.807  1.00  0.00     0.188 C 
BRANCH   2   3
ATOM      3  O   UNL A   1      39.965  24.137  27.692  1.00  0.00    -0.376 OA
BRANCH   3   4
ATOM      4  C   UNL A   1      39.205  24.360  26.520  1.00  0.00     0.202 C 
BRANCH   4   5
ATOM      5  C   UNL A   1      38.153  23.374  26.000  1.00  0.00     0.261 C 
BRANCH   5   6
ATOM      6  O   UNL A   1      37.306  23.869  24.962  1.00  0.00    -0.460 OA
BRANCH   6   7
ATOM      7  C   UNL A   1      36.587  22.922  24.314  1.00  0.00     0.338 C 
ATOM      8  O   UNL A   1      37.025  21.936  23.741  1.00  0.00    -0.246 OA
BRANCH   7   9
ATOM      9  C   UNL A   1      35.149  23.196  24.479  1.00  0.00     0.087 C 
ATOM     10  C   UNL A   1      29.322  25.950  25.495  1.00  0.00     0.047 C 
ATOM     11  C   UNL A   1      30.670  25.481  24.998  1.00  0.00    -0.019 A 
ATOM     12  C   UNL A   1      31.477  26.346  24.213  1.00  0.00     0.025 A 
ATOM     13  C   UNL A   1      31.190  24.216  25.335  1.00  0.00     0.064 A 
ATOM     14  Br  UNL A   1      30.792  28.085  23.766  1.00  0.00    -0.050 Br
ATOM     15  C   UNL A   1      32.778  25.972  23.791  1.00  0.00    -0.026 A 
ATOM     16  C   UNL A   1      32.492  23.842  24.952  1.00  0.00     0.142 A 
ATOM     17  Br  UNL A   1      30.175  22.964  26.376  1.00  0.00    -0.046 Br
ATOM     18  C   UNL A   1      33.630  26.865  22.912  1.00  0.00     0.046 C 
ATOM     19  C   UNL A   1      33.299  24.727  24.221  1.00  0.00     0.022 A 
ATOM     20  O   UNL A   1      32.905  22.586  25.319  1.00  0.00    -0.474 OA
ATOM     21  C   UNL A   1      34.695  24.354  23.988  1.00  0.00     0.027 C 
ATOM     22  C   UNL A   1      34.290  22.199  25.190  1.00  0.00     0.316 C 
BRANCH  22  23
ATOM     23  C   UNL A   1      34.826  21.833  26.583  1.00  0.00     0.430 C 
ATOM     24  F   UNL A   1      35.950  21.079  26.494  1.00  0.00    -0.167 F 
ATOM     25  F   UNL A   1      35.163  22.933  27.298  1.00  0.00    -0.167 F 
ATOM     26  F   UNL A   1      33.927  21.137  27.312  1.00  0.00    -0.167 F 
ENDBRANCH  22  23
ENDBRANCH   7   9
ENDBRANCH   6   7
ENDBRANCH   5   6
ENDBRANCH   4   5
ENDBRANCH   3   4
ENDBRANCH   2   3
ENDBRANCH   1   2
BRANCH   1  27
ATOM     27  O   UNL A   1      41.199  21.206  26.055  1.00  0.00    -0.376 OA
BRANCH  27  28
ATOM     28  C   UNL A   1      41.798  20.046  26.619  1.00  0.00     0.202 C 
BRANCH  28  29
ATOM     29  C   UNL A   1      42.710  19.172  25.751  1.00  0.00     0.261 C 
BRANCH  29  30
ATOM     30  O   UNL A   1      43.343  19.904  24.689  1.00  0.00    -0.460 OA
BRANCH  30  31
ATOM     31  C   UNL A   1      44.699  19.943  24.743  1.00  0.00     0.338 C 
ATOM     32  O   UNL A   1      45.474  19.065  24.411  1.00  0.00    -0.246 OA
BRANCH  31  33
ATOM     33  C   UNL A   1      45.127  21.315  25.077  1.00  0.00     0.060 A 
ATOM     34  C   UNL A   1      45.288  21.643  26.429  1.00  0.00     0.016 A 
ATOM     35  C   UNL A   1      45.338  22.272  24.082  1.00  0.00     0.016 A 
ATOM     36  C   UNL A   1      45.653  22.937  26.793  1.00  0.00     0.010 A 
ATOM     37  C   UNL A   1      45.670  23.580  24.451  1.00  0.00     0.010 A 
ATOM     38  C   UNL A   1      45.808  23.923  25.809  1.00  0.00    -0.014 A 
BRANCH  38  39
ATOM     39  C   UNL A   1      45.900  25.341  26.231  1.00  0.00     0.031 A 
ATOM     40  C   UNL A   1      47.247  26.010  26.170  1.00  0.00     0.074 A 
ATOM     41  C   UNL A   1      44.809  26.042  26.584  1.00  0.00     0.049 A 
ATOM     42  N   UNL A   1      47.571  27.245  26.446  1.00  0.00    -0.248 NA
ATOM     43  C   UNL A   1      48.372  25.174  25.721  1.00  0.00     0.031 C 
ATOM     44  C   UNL A   1      43.443  25.524  26.617  1.00  0.00     0.029 A 
ATOM     45  N   UNL A   1      44.680  27.354  26.971  1.00  0.00    -0.354 N 
ATOM     46  C   UNL A   1      48.932  27.343  26.182  1.00  0.00     0.074 A 
ATOM     47  C   UNL A   1      49.380  26.033  25.762  1.00  0.00     0.031 C 
ATOM     48  C   UNL A   1      42.611  26.510  26.999  1.00  0.00     0.029 A 
ATOM     49  C   UNL A   1      43.387  27.722  27.265  1.00  0.00     0.049 A 
ATOM     50  H   UNL A   1      45.442  27.974  27.031  1.00  0.00     0.167 HD
ATOM     51  C   UNL A   1      49.734  28.430  26.265  1.00  0.00     0.034 A 
ATOM     52  C   UNL A   1      42.895  28.896  27.715  1.00  0.00     0.034 A 
ATOM     53  C   UNL A   1      49.292  29.724  26.709  1.00  0.00     0.049 A 
ATOM     54  C   UNL A   1      43.839  30.050  27.951  1.00  0.00     0.074 A 
ATOM     55  C   UNL A   1      50.029  30.888  26.834  1.00  0.00     0.029 A 
ATOM     56  N   UNL A   1      48.001  30.020  27.118  1.00  0.00    -0.354 N 
ATOM     57  N   UNL A   1      45.127  30.125  27.706  1.00  0.00    -0.248 NA
ATOM     58  C   UNL A   1      43.268  31.273  28.538  1.00  0.00     0.031 C 
ATOM     59  C   UNL A   1      49.200  31.870  27.381  1.00  0.00     0.029 A 
ATOM     60  C   UNL A   1      47.931  31.336  27.541  1.00  0.00     0.049 A 
ATOM     61  H   UNL A   1      47.246  29.388  27.111  1.00  0.00     0.167 HD
ATOM     62  C   UNL A   1      45.515  31.404  28.098  1.00  0.00     0.074 A 
ATOM     63  C   UNL A   1      44.328  32.071  28.588  1.00  0.00     0.031 C 
ATOM     64  C   UNL A   1      46.744  31.977  28.051  1.00  0.00     0.034 A 
BRANCH  51  65
ATOM     65  C   UNL A   1      51.180  28.247  25.900  1.00  0.00     0.023 A 
ATOM     66  C   UNL A   1      51.624  28.408  24.577  1.00  0.00     0.031 A 
ATOM     67  C   UNL A   1      52.123  27.902  26.883  1.00  0.00     0.131 A 
ATOM     68  C   UNL A   1      52.970  28.180  24.263  1.00  0.00     0.055 A 
ATOM     69  C   UNL A   1      53.473  27.736  26.574  1.00  0.00     0.041 A 
ATOM     70  F   UNL A   1      51.743  27.715  28.157  1.00  0.00    -0.206 F 
ATOM     71  C   UNL A   1      53.903  27.867  25.257  1.00  0.00     0.022 A 
BRANCH  68  72
ATOM     72  S   UNL A   1      53.474  28.215  22.522  1.00  0.00     0.124 S 
ATOM     73  O   UNL A   1      52.467  29.101  21.943  1.00  0.00    -0.237 OA
ATOM     74  O   UNL A   1      54.829  28.750  22.593  1.00  0.00    -0.237 OA
ATOM     75  O   UNL A   1      53.378  26.817  22.110  1.00  0.00    -0.744 OA
ENDBRANCH  68  72
ENDBRANCH  51  65
BRANCH  52  76
ATOM     76  C   UNL A   1      41.445  29.035  28.024  1.00  0.00     0.023 A 
ATOM     77  C   UNL A   1      40.980  29.013  29.348  1.00  0.00     0.031 A 
ATOM     78  C   UNL A   1      40.497  29.148  26.992  1.00  0.00     0.131 A 
ATOM     79  C   UNL A   1      39.601  29.080  29.605  1.00  0.00     0.055 A 
ATOM     80  C   UNL A   1      39.130  29.251  27.252  1.00  0.00     0.041 A 
ATOM     81  F   UNL A   1      40.893  29.168  25.708  1.00  0.00    -0.206 F 
ATOM     82  C   UNL A   1      38.674  29.211  28.566  1.00  0.00     0.022 A 
BRANCH  79  83
ATOM     83  S   UNL A   1      39.024  28.957  31.320  1.00  0.00     0.124 S 
ATOM     84  O   UNL A   1      37.755  28.256  31.156  1.00  0.00    -0.237 OA
ATOM     85  O   UNL A   1      40.101  28.199  31.950  1.00  0.00    -0.237 OA
ATOM     86  O   UNL A   1      38.919  30.351  31.744  1.00  0.00    -0.744 OA
ENDBRANCH  79  83
ENDBRANCH  52  76
BRANCH  64  87
ATOM     87  C   UNL A   1      46.881  33.392  28.544  1.00  0.00     0.023 A 
ATOM     88  C   UNL A   1      46.641  34.483  27.692  1.00  0.00     0.031 A 
ATOM     89  C   UNL A   1      47.161  33.649  29.897  1.00  0.00     0.131 A 
ATOM     90  C   UNL A   1      46.694  35.788  28.203  1.00  0.00     0.055 A 
ATOM     91  C   UNL A   1      47.175  34.947  30.408  1.00  0.00     0.041 A 
ATOM     92  F   UNL A   1      47.388  32.637  30.751  1.00  0.00    -0.206 F 
ATOM     93  C   UNL A   1      46.941  36.026  29.559  1.00  0.00     0.022 A 
BRANCH  90  94
ATOM     94  S   UNL A   1      46.432  37.182  27.073  1.00  0.00     0.124 S 
ATOM     95  O   UNL A   1      47.043  36.691  25.842  1.00  0.00    -0.237 OA
ATOM     96  O   UNL A   1      44.978  37.308  27.055  1.00  0.00    -0.237 OA
ATOM     97  O   UNL A   1      47.138  38.286  27.719  1.00  0.00    -0.744 OA
ENDBRANCH  90  94
ENDBRANCH  64  87
ENDBRANCH  38  39
ENDBRANCH  31  33
ENDBRANCH  30  31
ENDBRANCH  29  30
ENDBRANCH  28  29
ENDBRANCH  27  28
ENDBRANCH   1  27
TORSDOF 21
ENDMDL
MODEL 3
REMARK VINA RESULT:     -10.3      6.815     14.573
REMARK SMILES Cc1c(Br)c(C)c2c(c1Br)O[C@H](C(F)(F)F)C(C(=O)OCCOCCOCCOC(=O)c1ccc(-c3c4nc(c(-c5cc(S(=O)(=O)[O-])ccc5F)c5ccc([nH]5)c(-c5cc(S(=O)(=O)[O-])ccc5F)c5nc(c(-c6cc(S(=O)(=O)[O-])ccc6F)c6ccc3[nH]6)C=C5)C=C4)cc1)=C2
REMARK SMILES IDX 25 1 24 2 23 3 22 4 21 5 20 6 18 7 19 8 17 9 1 10 2 11 3 12
REMARK SMILES IDX 9 13 4 14 5 15 8 16 10 17 6 18 7 19 11 20 95 21 12 22 13 23
REMARK SMILES IDX 14 24 15 25 16 26 26 27 27 28 28 29 29 30 30 31 31 32 32 33
REMARK SMILES IDX 33 34 94 35 34 36 93 37 35 38 36 39 37 40 87 41 38 42 92 43
REMARK SMILES IDX 86 44 88 45 39 46 91 47 85 48 84 49 40 51 72 52 52 53 71 54
REMARK SMILES IDX 53 55 56 56 70 57 89 58 54 59 55 60 69 62 90 63 57 64 41 65
REMARK SMILES IDX 42 66 50 67 43 68 49 69 51 70 48 71 44 72 45 73 46 74 47 75
REMARK SMILES IDX 73 76 74 77 82 78 75 79 81 80 83 81 80 82 76 83 77 84 78 85
REMARK SMILES IDX 79 86 58 87 59 88 67 89 60 90 66 91 68 92 65 93 61 94 62 95
REMARK SMILES IDX 63 96 64 97
REMARK H PARENT 88 50 56 61
REMARK Flexibility Score: inf
ROOT
ATOM      1  C   UNL A   1      38.515  21.094  25.532  1.00  0.00     0.188 C 
ENDROOT
BRANCH   1   2
ATOM      2  C   UNL A   1      37.170  21.742  25.145  1.00  0.00     0.188 C 
BRANCH   2   3
ATOM      3  O   UNL A   1      35.942  21.103  25.431  1.00  0.00    -0.376 OA
BRANCH   3   4
ATOM      4  C   UNL A   1      34.931  21.728  26.197  1.00  0.00     0.202 C 
BRANCH   4   5
ATOM      5  C   UNL A   1      34.921  23.227  26.513  1.00  0.00     0.261 C 
BRANCH   5   6
ATOM      6  O   UNL A   1      33.840  23.968  25.945  1.00  0.00    -0.460 OA
BRANCH   6   7
ATOM      7  C   UNL A   1      34.108  24.540  24.748  1.00  0.00     0.338 C 
ATOM      8  O   UNL A   1      34.691  24.025  23.806  1.00  0.00    -0.246 OA
BRANCH   7   9
ATOM      9  C   UNL A   1      33.499  25.881  24.693  1.00  0.00     0.087 C 
ATOM     10  C   UNL A   1      31.063  31.769  26.091  1.00  0.00     0.047 C 
ATOM     11  C   UNL A   1      31.900  30.536  25.841  1.00  0.00    -0.019 A 
ATOM     12  C   UNL A   1      33.085  30.319  26.592  1.00  0.00     0.025 A 
ATOM     13  C   UNL A   1      31.514  29.548  24.914  1.00  0.00     0.064 A 
ATOM     14  Br  UNL A   1      33.611  31.645  27.879  1.00  0.00    -0.050 Br
ATOM     15  C   UNL A   1      33.857  29.140  26.440  1.00  0.00    -0.026 A 
ATOM     16  C   UNL A   1      32.251  28.358  24.775  1.00  0.00     0.142 A 
ATOM     17  Br  UNL A   1      29.939  29.751  23.836  1.00  0.00    -0.046 Br
ATOM     18  C   UNL A   1      35.150  28.918  27.198  1.00  0.00     0.046 C 
ATOM     19  C   UNL A   1      33.391  28.133  25.560  1.00  0.00     0.022 A 
ATOM     20  O   UNL A   1      31.802  27.462  23.838  1.00  0.00    -0.474 OA
ATOM     21  C   UNL A   1      34.026  26.815  25.492  1.00  0.00     0.027 C 
ATOM     22  C   UNL A   1      32.335  26.120  23.786  1.00  0.00     0.316 C 
BRANCH  22  23
ATOM     23  C   UNL A   1      31.185  25.128  24.016  1.00  0.00     0.430 C 
ATOM     24  F   UNL A   1      30.893  25.011  25.335  1.00  0.00    -0.167 F 
ATOM     25  F   UNL A   1      30.042  25.530  23.408  1.00  0.00    -0.167 F 
ATOM     26  F   UNL A   1      31.474  23.892  23.552  1.00  0.00    -0.167 F 
ENDBRANCH  22  23
ENDBRANCH   7   9
ENDBRANCH   6   7
ENDBRANCH   5   6
ENDBRANCH   4   5
ENDBRANCH   3   4
ENDBRANCH   2   3
ENDBRANCH   1   2
BRANCH   1  27
ATOM     27  O   UNL A   1      39.419  21.774  26.385  1.00  0.00    -0.376 OA
BRANCH  27  28
ATOM     28  C   UNL A   1      39.294  23.185  26.514  1.00  0.00     0.202 C 
BRANCH  28  29
ATOM     29  C   UNL A   1      40.497  24.007  26.988  1.00  0.00     0.261 C 
BRANCH  29  30
ATOM     30  O   UNL A   1      40.595  25.283  26.335  1.00  0.00    -0.460 OA
BRANCH  30  31
ATOM     31  C   UNL A   1      41.839  25.617  25.906  1.00  0.00     0.338 C 
ATOM     32  O   UNL A   1      42.510  25.038  25.071  1.00  0.00    -0.246 OA
BRANCH  31  33
ATOM     33  C   UNL A   1      42.198  26.938  26.455  1.00  0.00     0.060 A 
ATOM     34  C   UNL A   1      43.219  26.997  27.412  1.00  0.00     0.016 A 
ATOM     35  C   UNL A   1      41.523  28.097  26.062  1.00  0.00     0.016 A 
ATOM     36  C   UNL A   1      43.564  28.218  27.988  1.00  0.00     0.010 A 
ATOM     37  C   UNL A   1      41.848  29.316  26.666  1.00  0.00     0.010 A 
ATOM     38  C   UNL A   1      42.855  29.377  27.647  1.00  0.00    -0.014 A 
BRANCH  38  39
ATOM     39  C   UNL A   1      43.035  30.592  28.478  1.00  0.00     0.031 A 
ATOM     40  C   UNL A   1      44.189  31.503  28.158  1.00  0.00     0.074 A 
ATOM     41  C   UNL A   1      42.155  30.922  29.441  1.00  0.00     0.049 A 
ATOM     42  N   UNL A   1      44.527  32.636  28.712  1.00  0.00    -0.248 NA
ATOM     43  C   UNL A   1      45.066  31.083  27.054  1.00  0.00     0.031 C 
ATOM     44  C   UNL A   1      40.964  30.155  29.798  1.00  0.00     0.029 A 
ATOM     45  N   UNL A   1      42.127  32.003  30.287  1.00  0.00    -0.354 N 
ATOM     46  C   UNL A   1      45.642  33.079  28.009  1.00  0.00     0.074 A 
ATOM     47  C   UNL A   1      45.946  32.072  27.015  1.00  0.00     0.031 C 
ATOM     48  C   UNL A   1      40.315  30.795  30.789  1.00  0.00     0.029 A 
ATOM     49  C   UNL A   1      41.060  31.999  31.156  1.00  0.00     0.049 A 
ATOM     50  H   UNL A   1      42.806  32.715  30.273  1.00  0.00     0.167 HD
ATOM     51  C   UNL A   1      46.339  34.228  28.166  1.00  0.00     0.034 A 
ATOM     52  C   UNL A   1      40.737  32.861  32.144  1.00  0.00     0.034 A 
ATOM     53  C   UNL A   1      46.053  35.212  29.173  1.00  0.00     0.049 A 
ATOM     54  C   UNL A   1      41.624  34.056  32.402  1.00  0.00     0.074 A 
ATOM     55  C   UNL A   1      46.705  36.408  29.417  1.00  0.00     0.029 A 
ATOM     56  N   UNL A   1      45.040  35.109  30.114  1.00  0.00    -0.354 N 
ATOM     57  N   UNL A   1      42.682  34.456  31.735  1.00  0.00    -0.248 NA
ATOM     58  C   UNL A   1      41.284  34.905  33.554  1.00  0.00     0.031 C 
ATOM     59  C   UNL A   1      46.129  36.994  30.547  1.00  0.00     0.029 A 
ATOM     60  C   UNL A   1      45.079  36.194  30.970  1.00  0.00     0.049 A 
ATOM     61  H   UNL A   1      44.391  34.370  30.167  1.00  0.00     0.167 HD
ATOM     62  C   UNL A   1      43.124  35.609  32.380  1.00  0.00     0.074 A 
ATOM     63  C   UNL A   1      42.218  35.846  33.483  1.00  0.00     0.031 C 
ATOM     64  C   UNL A   1      44.183  36.402  32.081  1.00  0.00     0.034 A 
BRANCH  51  65
ATOM     65  C   UNL A   1      47.505  34.456  27.245  1.00  0.00     0.023 A 
ATOM     66  C   UNL A   1      48.801  34.040  27.591  1.00  0.00     0.031 A 
ATOM     67  C   UNL A   1      47.320  35.103  26.011  1.00  0.00     0.131 A 
ATOM     68  C   UNL A   1      49.872  34.314  26.732  1.00  0.00     0.055 A 
ATOM     69  C   UNL A   1      48.381  35.319  25.133  1.00  0.00     0.041 A 
ATOM     70  F   UNL A   1      46.104  35.540  25.645  1.00  0.00    -0.206 F 
ATOM     71  C   UNL A   1      49.668  34.931  25.494  1.00  0.00     0.022 A 
BRANCH  68  72
ATOM     72  S   UNL A   1      51.553  33.929  27.290  1.00  0.00     0.124 S 
ATOM     73  O   UNL A   1      52.358  34.480  26.204  1.00  0.00    -0.237 OA
ATOM     74  O   UNL A   1      51.634  34.633  28.565  1.00  0.00    -0.237 OA
ATOM     75  O   UNL A   1      51.557  32.471  27.384  1.00  0.00    -0.744 OA
ENDBRANCH  68  72
ENDBRANCH  51  65
BRANCH  52  76
ATOM     76  C   UNL A   1      39.547  32.608  33.003  1.00  0.00     0.023 A 
ATOM     77  C   UNL A   1      38.307  33.201  32.718  1.00  0.00     0.031 A 
ATOM     78  C   UNL A   1      39.647  31.803  34.152  1.00  0.00     0.131 A 
ATOM     79  C   UNL A   1      37.220  32.996  33.584  1.00  0.00     0.055 A 
ATOM     80  C   UNL A   1      38.556  31.572  34.990  1.00  0.00     0.041 A 
ATOM     81  F   UNL A   1      40.814  31.219  34.469  1.00  0.00    -0.206 F 
ATOM     82  C   UNL A   1      37.333  32.176  34.710  1.00  0.00     0.022 A 
BRANCH  79  83
ATOM     83  S   UNL A   1      35.656  33.848  33.239  1.00  0.00     0.124 S 
ATOM     84  O   UNL A   1      34.826  33.404  34.354  1.00  0.00    -0.237 OA
ATOM     85  O   UNL A   1      36.062  35.249  33.257  1.00  0.00    -0.237 OA
ATOM     86  O   UNL A   1      35.270  33.332  31.928  1.00  0.00    -0.744 OA
ENDBRANCH  79  83
ENDBRANCH  52  76
BRANCH  64  87
ATOM     87  C   UNL A   1      44.433  37.602  32.955  1.00  0.00     0.023 A 
ATOM     88  C   UNL A   1      43.824  38.837  32.682  1.00  0.00     0.031 A 
ATOM     89  C   UNL A   1      45.210  37.481  34.121  1.00  0.00     0.131 A 
ATOM     90  C   UNL A   1      44.010  39.913  33.563  1.00  0.00     0.055 A 
ATOM     91  C   UNL A   1      45.361  38.543  35.013  1.00  0.00     0.041 A 
ATOM     92  F   UNL A   1      45.804  36.317  34.427  1.00  0.00    -0.206 F 
ATOM     93  C   UNL A   1      44.759  39.768  34.736  1.00  0.00     0.022 A 
BRANCH  90  94
ATOM     94  S   UNL A   1      43.256  41.513  33.163  1.00  0.00     0.124 S 
ATOM     95  O   UNL A   1      41.865  41.294  33.546  1.00  0.00    -0.237 OA
ATOM     96  O   UNL A   1      44.010  42.439  34.002  1.00  0.00    -0.237 OA
ATOM     97  O   UNL A   1      43.490  41.653  31.727  1.00  0.00    -0.744 OA
ENDBRANCH  90  94
ENDBRANCH  64  87
ENDBRANCH  38  39
ENDBRANCH  31  33
ENDBRANCH  30  31
ENDBRANCH  29  30
ENDBRANCH  28  29
ENDBRANCH  27  28
ENDBRANCH   1  27
TORSDOF 21
ENDMDL
