MODEL 1
REMARK VINA RESULT:     -10.6      0.000      0.000
REMARK SMILES CC(=O)NCCc1c[nH]c2ccc(C(=O)OCCOCCOCCOC(=O)c3ccc(-c4c5nc(c(-c6cc(S(=O)(=O)[O-])ccc6F)c6ccc([nH]6)c(-c6cc(S(=O)(=O)[O-])ccc6F)c6nc(c(-c7cc(S(=O)(=O)[O-])ccc7F)c7ccc4[nH]7)C=C6)C=C5)cc3)cc12
REMARK SMILES IDX 20 1 19 2 18 3 17 4 16 5 14 6 15 7 13 8 7 9 8 10 92 11 9 12
REMARK SMILES IDX 10 13 91 14 11 16 12 17 6 18 5 19 4 20 1 21 2 22 3 23 21 25
REMARK SMILES IDX 22 26 23 27 24 28 25 29 26 30 27 31 28 32 29 33 90 34 30 35
REMARK SMILES IDX 89 36 31 37 32 38 33 39 83 40 34 41 88 42 82 43 84 44 35 45
REMARK SMILES IDX 87 46 81 47 80 48 36 50 68 51 48 52 67 53 49 54 52 55 66 56
REMARK SMILES IDX 85 57 50 58 51 59 65 61 86 62 53 63 37 64 38 65 46 66 39 67
REMARK SMILES IDX 45 68 47 69 44 70 40 71 41 72 42 73 43 74 69 75 70 76 78 77
REMARK SMILES IDX 71 78 77 79 79 80 76 81 72 82 73 83 74 84 75 85 54 86 55 87
REMARK SMILES IDX 63 88 56 89 62 90 64 91 61 92 57 93 58 94 59 95 60 96
REMARK H PARENT 9 15 4 24 84 49 52 60
REMARK Flexibility Score: inf
ROOT
ATOM      1  C   UNL A   1      33.180  28.510  22.393  1.00  0.00     0.188 C 
ENDROOT
BRANCH   1   2
ATOM      2  O   UNL A   1      33.757  27.388  21.744  1.00  0.00    -0.376 OA
BRANCH   2   3
ATOM      3  C   UNL A   1      32.927  26.347  21.251  1.00  0.00     0.202 C 
BRANCH   3   4
ATOM      4  C   UNL A   1      32.927  24.961  21.908  1.00  0.00     0.261 C 
BRANCH   4   5
ATOM      5  O   UNL A   1      33.348  24.950  23.279  1.00  0.00    -0.460 OA
BRANCH   5   6
ATOM      6  C   UNL A   1      32.359  24.712  24.181  1.00  0.00     0.338 C 
ATOM      7  O   UNL A   1      31.297  25.294  24.269  1.00  0.00    -0.246 OA
BRANCH   6   8
ATOM      8  C   UNL A   1      32.686  23.508  24.981  1.00  0.00     0.060 A 
ATOM      9  C   UNL A   1      32.697  19.679  24.800  1.00  0.00    -0.021 A 
ATOM     10  C   UNL A   1      32.955  19.016  25.986  1.00  0.00     0.087 A 
ATOM     11  C   UNL A   1      32.757  21.081  25.101  1.00  0.00     0.003 A 
ATOM     12  N   UNL A   1      33.272  19.940  26.942  1.00  0.00    -0.361 N 
ATOM     13  C   UNL A   1      33.169  21.211  26.428  1.00  0.00     0.046 A 
ATOM     14  C   UNL A   1      32.501  22.257  24.367  1.00  0.00     0.026 A 
ATOM     15  H   UNL A   1      33.536  19.725  27.866  1.00  0.00     0.166 HD
ATOM     16  C   UNL A   1      33.399  22.452  27.042  1.00  0.00     0.027 A 
ATOM     17  C   UNL A   1      33.155  23.605  26.291  1.00  0.00     0.018 A 
BRANCH   9  18
ATOM     18  C   UNL A   1      32.389  19.034  23.473  1.00  0.00     0.059 C 
BRANCH  18  19
ATOM     19  C   UNL A   1      33.245  17.787  23.192  1.00  0.00     0.120 C 
BRANCH  19  20
ATOM     20  N   UNL A   1      32.770  16.610  23.902  1.00  0.00    -0.356 N 
ATOM     21  C   UNL A   1      34.888  16.061  25.039  1.00  0.00     0.114 C 
ATOM     22  C   UNL A   1      33.455  15.750  24.707  1.00  0.00     0.216 C 
ATOM     23  O   UNL A   1      32.878  14.750  25.133  1.00  0.00    -0.275 OA
ATOM     24  H   UNL A   1      31.814  16.405  23.785  1.00  0.00     0.163 HD
ENDBRANCH  19  20
ENDBRANCH  18  19
ENDBRANCH   9  18
ENDBRANCH   6   8
ENDBRANCH   5   6
ENDBRANCH   4   5
ENDBRANCH   3   4
ENDBRANCH   2   3
ENDBRANCH   1   2
BRANCH   1  25
ATOM     25  C   UNL A   1      33.017  28.526  23.927  1.00  0.00     0.188 C 
BRANCH  25  26
ATOM     26  O   UNL A   1      31.721  28.734  24.438  1.00  0.00    -0.376 OA
BRANCH  26  27
ATOM     27  C   UNL A   1      31.413  29.876  25.218  1.00  0.00     0.202 C 
BRANCH  27  28
ATOM     28  C   UNL A   1      32.082  30.305  26.538  1.00  0.00     0.261 C 
BRANCH  28  29
ATOM     29  O   UNL A   1      33.495  30.497  26.558  1.00  0.00    -0.460 OA
BRANCH  29  30
ATOM     30  C   UNL A   1      33.936  31.439  27.428  1.00  0.00     0.338 C 
ATOM     31  O   UNL A   1      33.302  32.377  27.877  1.00  0.00    -0.246 OA
BRANCH  30  32
ATOM     32  C   UNL A   1      35.280  31.056  27.894  1.00  0.00     0.060 A 
ATOM     33  C   UNL A   1      35.552  29.700  28.097  1.00  0.00     0.016 A 
ATOM     34  C   UNL A   1      36.246  32.027  28.165  1.00  0.00     0.016 A 
ATOM     35  C   UNL A   1      36.793  29.311  28.599  1.00  0.00     0.010 A 
ATOM     36  C   UNL A   1      37.486  31.635  28.679  1.00  0.00     0.010 A 
ATOM     37  C   UNL A   1      37.757  30.276  28.921  1.00  0.00    -0.014 A 
BRANCH  37  38
ATOM     38  C   UNL A   1      38.969  29.872  29.676  1.00  0.00     0.031 A 
ATOM     39  C   UNL A   1      39.866  28.823  29.080  1.00  0.00     0.074 A 
ATOM     40  C   UNL A   1      39.284  30.448  30.850  1.00  0.00     0.049 A 
ATOM     41  N   UNL A   1      40.938  28.267  29.577  1.00  0.00    -0.248 NA
ATOM     42  C   UNL A   1      39.496  28.340  27.741  1.00  0.00     0.031 C 
ATOM     43  C   UNL A   1      38.525  31.514  31.501  1.00  0.00     0.029 A 
ATOM     44  N   UNL A   1      40.327  30.204  31.710  1.00  0.00    -0.354 N 
ATOM     45  C   UNL A   1      41.374  27.363  28.613  1.00  0.00     0.074 A 
ATOM     46  C   UNL A   1      40.427  27.426  27.518  1.00  0.00     0.031 C 
ATOM     47  C   UNL A   1      39.117  31.818  32.670  1.00  0.00     0.029 A 
ATOM     48  C   UNL A   1      40.270  30.941  32.871  1.00  0.00     0.049 A 
ATOM     49  H   UNL A   1      41.047  29.561  31.515  1.00  0.00     0.167 HD
ATOM     50  C   UNL A   1      42.466  26.559  28.635  1.00  0.00     0.034 A 
ATOM     51  C   UNL A   1      41.037  30.884  33.979  1.00  0.00     0.034 A 
ATOM     52  C   UNL A   1      43.387  26.489  29.742  1.00  0.00     0.049 A 
ATOM     53  C   UNL A   1      42.184  29.900  34.030  1.00  0.00     0.074 A 
ATOM     54  C   UNL A   1      44.525  25.711  29.869  1.00  0.00     0.029 A 
ATOM     55  N   UNL A   1      43.270  27.214  30.921  1.00  0.00    -0.354 N 
ATOM     56  N   UNL A   1      42.587  29.050  33.113  1.00  0.00    -0.248 NA
ATOM     57  C   UNL A   1      42.982  29.874  35.263  1.00  0.00     0.031 C 
ATOM     58  C   UNL A   1      45.050  25.909  31.151  1.00  0.00     0.029 A 
ATOM     59  C   UNL A   1      44.293  26.875  31.793  1.00  0.00     0.049 A 
ATOM     60  H   UNL A   1      42.564  27.873  31.110  1.00  0.00     0.167 HD
ATOM     61  C   UNL A   1      43.706  28.414  33.650  1.00  0.00     0.074 A 
ATOM     62  C   UNL A   1      43.919  28.987  34.962  1.00  0.00     0.031 C 
ATOM     63  C   UNL A   1      44.492  27.450  33.103  1.00  0.00     0.034 A 
BRANCH  50  64
ATOM     64  C   UNL A   1      42.675  25.648  27.450  1.00  0.00     0.023 A 
ATOM     65  C   UNL A   1      42.123  24.354  27.403  1.00  0.00     0.031 A 
ATOM     66  C   UNL A   1      43.469  26.064  26.368  1.00  0.00     0.131 A 
ATOM     67  C   UNL A   1      42.435  23.500  26.335  1.00  0.00     0.055 A 
ATOM     68  C   UNL A   1      43.708  25.238  25.269  1.00  0.00     0.041 A 
ATOM     69  F   UNL A   1      44.044  27.277  26.370  1.00  0.00    -0.206 F 
ATOM     70  C   UNL A   1      43.203  23.942  25.255  1.00  0.00     0.022 A 
BRANCH  67  71
ATOM     71  S   UNL A   1      41.950  21.755  26.448  1.00  0.00     0.124 S 
ATOM     72  O   UNL A   1      40.565  21.804  25.987  1.00  0.00    -0.237 OA
ATOM     73  O   UNL A   1      42.901  21.105  25.555  1.00  0.00    -0.237 OA
ATOM     74  O   UNL A   1      42.115  21.446  27.868  1.00  0.00    -0.744 OA
ENDBRANCH  67  71
ENDBRANCH  50  64
BRANCH  51  75
ATOM     75  C   UNL A   1      40.727  31.739  35.162  1.00  0.00     0.023 A 
ATOM     76  C   UNL A   1      39.593  31.502  35.954  1.00  0.00     0.031 A 
ATOM     77  C   UNL A   1      41.527  32.854  35.474  1.00  0.00     0.131 A 
ATOM     78  C   UNL A   1      39.263  32.393  36.987  1.00  0.00     0.055 A 
ATOM     79  C   UNL A   1      41.224  33.705  36.538  1.00  0.00     0.041 A 
ATOM     80  F   UNL A   1      42.620  33.130  34.746  1.00  0.00    -0.206 F 
ATOM     81  C   UNL A   1      40.077  33.485  37.293  1.00  0.00     0.022 A 
BRANCH  78  82
ATOM     82  S   UNL A   1      37.697  32.152  37.872  1.00  0.00     0.124 S 
ATOM     83  O   UNL A   1      37.590  30.698  37.893  1.00  0.00    -0.237 OA
ATOM     84  O   UNL A   1      37.974  32.793  39.153  1.00  0.00    -0.237 OA
ATOM     85  O   UNL A   1      36.721  32.840  37.030  1.00  0.00    -0.744 OA
ENDBRANCH  78  82
ENDBRANCH  51  75
BRANCH  63  86
ATOM     86  C   UNL A   1      45.692  26.999  33.904  1.00  0.00     0.023 A 
ATOM     87  C   UNL A   1      46.954  27.599  33.760  1.00  0.00     0.031 A 
ATOM     88  C   UNL A   1      45.563  25.946  34.830  1.00  0.00     0.131 A 
ATOM     89  C   UNL A   1      48.050  27.107  34.489  1.00  0.00     0.055 A 
ATOM     90  C   UNL A   1      46.641  25.503  35.597  1.00  0.00     0.041 A 
ATOM     91  F   UNL A   1      44.381  25.334  35.008  1.00  0.00    -0.206 F 
ATOM     92  C   UNL A   1      47.896  26.076  35.419  1.00  0.00     0.022 A 
BRANCH  89  93
ATOM     93  S   UNL A   1      49.701  27.775  34.142  1.00  0.00     0.124 S 
ATOM     94  O   UNL A   1      49.704  29.001  34.934  1.00  0.00    -0.237 OA
ATOM     95  O   UNL A   1      50.576  26.709  34.615  1.00  0.00    -0.237 OA
ATOM     96  O   UNL A   1      49.694  27.973  32.693  1.00  0.00    -0.744 OA
ENDBRANCH  89  93
ENDBRANCH  63  86
ENDBRANCH  37  38
ENDBRANCH  30  32
ENDBRANCH  29  30
ENDBRANCH  28  29
ENDBRANCH  27  28
ENDBRANCH  26  27
ENDBRANCH  25  26
ENDBRANCH   1  25
TORSDOF 23
ENDMDL
MODEL 2
REMARK VINA RESULT:     -10.4      4.932      8.382
REMARK SMILES CC(=O)NCCc1c[nH]c2ccc(C(=O)OCCOCCOCCOC(=O)c3ccc(-c4c5nc(c(-c6cc(S(=O)(=O)[O-])ccc6F)c6ccc([nH]6)c(-c6cc(S(=O)(=O)[O-])ccc6F)c6nc(c(-c7cc(S(=O)(=O)[O-])ccc7F)c7ccc4[nH]7)C=C6)C=C5)cc3)cc12
REMARK SMILES IDX 20 1 19 2 18 3 17 4 16 5 14 6 15 7 13 8 7 9 8 10 92 11 9 12
REMARK SMILES IDX 10 13 91 14 11 16 12 17 6 18 5 19 4 20 1 21 2 22 3 23 21 25
REMARK SMILES IDX 22 26 23 27 24 28 25 29 26 30 27 31 28 32 29 33 90 34 30 35
REMARK SMILES IDX 89 36 31 37 32 38 33 39 83 40 34 41 88 42 82 43 84 44 35 45
REMARK SMILES IDX 87 46 81 47 80 48 36 50 68 51 48 52 67 53 49 54 52 55 66 56
REMARK SMILES IDX 85 57 50 58 51 59 65 61 86 62 53 63 37 64 38 65 46 66 39 67
REMARK SMILES IDX 45 68 47 69 44 70 40 71 41 72 42 73 43 74 69 75 70 76 78 77
REMARK SMILES IDX 71 78 77 79 79 80 76 81 72 82 73 83 74 84 75 85 54 86 55 87
REMARK SMILES IDX 63 88 56 89 62 90 64 91 61 92 57 93 58 94 59 95 60 96
REMARK H PARENT 9 15 4 24 84 49 52 60
REMARK Flexibility Score: inf
ROOT
ATOM      1  C   UNL A   1      35.515  21.490  24.838  1.00  0.00     0.188 C 
ENDROOT
BRANCH   1   2
ATOM      2  O   UNL A   1      34.747  21.916  25.952  1.00  0.00    -0.376 OA
BRANCH   2   3
ATOM      3  C   UNL A   1      33.693  21.101  26.443  1.00  0.00     0.202 C 
BRANCH   3   4
ATOM      4  C   UNL A   1      32.747  20.372  25.480  1.00  0.00     0.261 C 
BRANCH   4   5
ATOM      5  O   UNL A   1      31.897  21.234  24.711  1.00  0.00    -0.460 OA
BRANCH   5   6
ATOM      6  C   UNL A   1      32.123  21.216  23.371  1.00  0.00     0.338 C 
ATOM      7  O   UNL A   1      32.112  20.244  22.642  1.00  0.00    -0.246 OA
BRANCH   6   8
ATOM      8  C   UNL A   1      32.243  22.602  22.861  1.00  0.00     0.060 A 
ATOM      9  C   UNL A   1      30.738  26.104  23.265  1.00  0.00    -0.021 A 
ATOM     10  C   UNL A   1      31.148  27.051  22.344  1.00  0.00     0.087 A 
ATOM     11  C   UNL A   1      31.431  24.892  22.932  1.00  0.00     0.003 A 
ATOM     12  N   UNL A   1      32.122  26.502  21.559  1.00  0.00    -0.361 N 
ATOM     13  C   UNL A   1      32.324  25.186  21.901  1.00  0.00     0.046 A 
ATOM     14  C   UNL A   1      31.384  23.568  23.414  1.00  0.00     0.026 A 
ATOM     15  H   UNL A   1      32.609  26.981  20.850  1.00  0.00     0.166 HD
ATOM     16  C   UNL A   1      33.217  24.244  21.367  1.00  0.00     0.027 A 
ATOM     17  C   UNL A   1      33.166  22.941  21.871  1.00  0.00     0.018 A 
BRANCH   9  18
ATOM     18  C   UNL A   1      29.738  26.320  24.372  1.00  0.00     0.059 C 
BRANCH  18  19
ATOM     19  C   UNL A   1      30.394  26.541  25.746  1.00  0.00     0.120 C 
BRANCH  19  20
ATOM     20  N   UNL A   1      30.445  25.325  26.544  1.00  0.00    -0.356 N 
ATOM     21  C   UNL A   1      32.868  24.922  26.333  1.00  0.00     0.114 C 
ATOM     22  C   UNL A   1      31.504  24.510  26.811  1.00  0.00     0.216 C 
ATOM     23  O   UNL A   1      31.307  23.467  27.433  1.00  0.00    -0.275 OA
ATOM     24  H   UNL A   1      29.591  25.052  26.951  1.00  0.00     0.163 HD
ENDBRANCH  19  20
ENDBRANCH  18  19
ENDBRANCH   9  18
ENDBRANCH   6   8
ENDBRANCH   5   6
ENDBRANCH   4   5
ENDBRANCH   3   4
ENDBRANCH   2   3
ENDBRANCH   1   2
BRANCH   1  25
ATOM     25  C   UNL A   1      36.326  20.179  24.904  1.00  0.00     0.188 C 
BRANCH  25  26
ATOM     26  O   UNL A   1      37.730  20.286  24.938  1.00  0.00    -0.376 OA
BRANCH  26  27
ATOM     27  C   UNL A   1      38.368  21.386  25.563  1.00  0.00     0.202 C 
BRANCH  27  28
ATOM     28  C   UNL A   1      39.756  21.393  26.233  1.00  0.00     0.261 C 
BRANCH  28  29
ATOM     29  O   UNL A   1      40.472  20.165  26.336  1.00  0.00    -0.460 OA
BRANCH  29  30
ATOM     30  C   UNL A   1      41.790  20.239  26.026  1.00  0.00     0.338 C 
ATOM     31  O   UNL A   1      42.452  19.407  25.431  1.00  0.00    -0.246 OA
BRANCH  30  32
ATOM     32  C   UNL A   1      42.280  21.583  26.376  1.00  0.00     0.060 A 
ATOM     33  C   UNL A   1      42.445  21.900  27.727  1.00  0.00     0.016 A 
ATOM     34  C   UNL A   1      42.534  22.532  25.383  1.00  0.00     0.016 A 
ATOM     35  C   UNL A   1      42.845  23.184  28.093  1.00  0.00     0.010 A 
ATOM     36  C   UNL A   1      42.924  23.823  25.754  1.00  0.00     0.010 A 
ATOM     37  C   UNL A   1      43.059  24.162  27.113  1.00  0.00    -0.014 A 
BRANCH  37  38
ATOM     38  C   UNL A   1      43.242  25.577  27.521  1.00  0.00     0.031 A 
ATOM     39  C   UNL A   1      44.624  26.165  27.456  1.00  0.00     0.074 A 
ATOM     40  C   UNL A   1      42.200  26.333  27.910  1.00  0.00     0.049 A 
ATOM     41  N   UNL A   1      45.041  27.349  27.817  1.00  0.00    -0.248 NA
ATOM     42  C   UNL A   1      45.674  25.293  26.908  1.00  0.00     0.031 C 
ATOM     43  C   UNL A   1      40.807  25.892  27.961  1.00  0.00     0.029 A 
ATOM     44  N   UNL A   1      42.158  27.633  28.349  1.00  0.00    -0.354 N 
ATOM     45  C   UNL A   1      46.405  27.367  27.543  1.00  0.00     0.074 A 
ATOM     46  C   UNL A   1      46.746  26.062  27.017  1.00  0.00     0.031 C 
ATOM     47  C   UNL A   1      40.048  26.901  28.426  1.00  0.00     0.029 A 
ATOM     48  C   UNL A   1      40.906  28.042  28.746  1.00  0.00     0.049 A 
ATOM     49  H   UNL A   1      42.949  28.219  28.377  1.00  0.00     0.167 HD
ATOM     50  C   UNL A   1      47.291  28.381  27.709  1.00  0.00     0.034 A 
ATOM     51  C   UNL A   1      40.508  29.189  29.336  1.00  0.00     0.034 A 
ATOM     52  C   UNL A   1      46.942  29.668  28.257  1.00  0.00     0.049 A 
ATOM     53  C   UNL A   1      41.532  30.265  29.616  1.00  0.00     0.074 A 
ATOM     54  C   UNL A   1      47.759  30.766  28.468  1.00  0.00     0.029 A 
ATOM     55  N   UNL A   1      45.674  30.029  28.695  1.00  0.00    -0.354 N 
ATOM     56  N   UNL A   1      42.819  30.272  29.354  1.00  0.00    -0.248 NA
ATOM     57  C   UNL A   1      41.047  31.490  30.267  1.00  0.00     0.031 C 
ATOM     58  C   UNL A   1      47.004  31.759  29.102  1.00  0.00     0.029 A 
ATOM     59  C   UNL A   1      45.695  31.318  29.207  1.00  0.00     0.049 A 
ATOM     60  H   UNL A   1      44.876  29.455  28.647  1.00  0.00     0.167 HD
ATOM     61  C   UNL A   1      43.288  31.515  29.778  1.00  0.00     0.074 A 
ATOM     62  C   UNL A   1      42.144  32.232  30.301  1.00  0.00     0.031 C 
ATOM     63  C   UNL A   1      44.547  32.021  29.731  1.00  0.00     0.034 A 
BRANCH  50  64
ATOM     64  C   UNL A   1      48.731  28.103  27.354  1.00  0.00     0.023 A 
ATOM     65  C   UNL A   1      49.218  28.273  26.046  1.00  0.00     0.031 A 
ATOM     66  C   UNL A   1      49.621  27.622  28.330  1.00  0.00     0.131 A 
ATOM     67  C   UNL A   1      50.534  27.897  25.735  1.00  0.00     0.055 A 
ATOM     68  C   UNL A   1      50.952  27.328  28.033  1.00  0.00     0.041 A 
ATOM     69  F   UNL A   1      49.205  27.414  29.590  1.00  0.00    -0.206 F 
ATOM     70  C   UNL A   1      51.412  27.449  26.725  1.00  0.00     0.022 A 
BRANCH  67  71
ATOM     71  S   UNL A   1      51.037  27.856  23.992  1.00  0.00     0.124 S 
ATOM     72  O   UNL A   1      52.217  26.997  24.046  1.00  0.00    -0.237 OA
ATOM     73  O   UNL A   1      49.862  27.291  23.339  1.00  0.00    -0.237 OA
ATOM     74  O   UNL A   1      51.309  29.259  23.682  1.00  0.00    -0.744 OA
ENDBRANCH  67  71
ENDBRANCH  50  64
BRANCH  51  75
ATOM     75  C   UNL A   1      39.088  29.374  29.756  1.00  0.00     0.023 A 
ATOM     76  C   UNL A   1      38.210  30.181  29.016  1.00  0.00     0.031 A 
ATOM     77  C   UNL A   1      38.609  28.800  30.948  1.00  0.00     0.131 A 
ATOM     78  C   UNL A   1      36.916  30.432  29.500  1.00  0.00     0.055 A 
ATOM     79  C   UNL A   1      37.303  29.008  31.396  1.00  0.00     0.041 A 
ATOM     80  F   UNL A   1      39.409  28.024  31.697  1.00  0.00    -0.206 F 
ATOM     81  C   UNL A   1      36.452  29.841  30.677  1.00  0.00     0.022 A 
BRANCH  78  82
ATOM     82  S   UNL A   1      35.873  31.619  28.609  1.00  0.00     0.124 S 
ATOM     83  O   UNL A   1      36.822  32.690  28.323  1.00  0.00    -0.237 OA
ATOM     84  O   UNL A   1      35.432  30.831  27.462  1.00  0.00    -0.237 OA
ATOM     85  O   UNL A   1      34.829  31.949  29.576  1.00  0.00    -0.744 OA
ENDBRANCH  78  82
ENDBRANCH  51  75
BRANCH  63  86
ATOM     86  C   UNL A   1      44.740  33.443  30.206  1.00  0.00     0.023 A 
ATOM     87  C   UNL A   1      44.509  34.548  29.368  1.00  0.00     0.031 A 
ATOM     88  C   UNL A   1      45.163  33.693  31.525  1.00  0.00     0.131 A 
ATOM     89  C   UNL A   1      44.754  35.847  29.841  1.00  0.00     0.055 A 
ATOM     90  C   UNL A   1      45.344  34.989  32.008  1.00  0.00     0.041 A 
ATOM     91  F   UNL A   1      45.400  32.676  32.370  1.00  0.00    -0.206 F 
ATOM     92  C   UNL A   1      45.153  36.075  31.160  1.00  0.00     0.022 A 
BRANCH  89  93
ATOM     93  S   UNL A   1      44.630  37.237  28.680  1.00  0.00     0.124 S 
ATOM     94  O   UNL A   1      45.990  37.766  28.695  1.00  0.00    -0.237 OA
ATOM     95  O   UNL A   1      44.216  36.578  27.446  1.00  0.00    -0.237 OA
ATOM     96  O   UNL A   1      43.621  38.103  29.289  1.00  0.00    -0.744 OA
ENDBRANCH  89  93
ENDBRANCH  63  86
ENDBRANCH  37  38
ENDBRANCH  30  32
ENDBRANCH  29  30
ENDBRANCH  28  29
ENDBRANCH  27  28
ENDBRANCH  26  27
ENDBRANCH  25  26
ENDBRANCH   1  25
TORSDOF 23
ENDMDL
MODEL 3
REMARK VINA RESULT:     -10.3      1.321      7.510
REMARK SMILES CC(=O)NCCc1c[nH]c2ccc(C(=O)OCCOCCOCCOC(=O)c3ccc(-c4c5nc(c(-c6cc(S(=O)(=O)[O-])ccc6F)c6ccc([nH]6)c(-c6cc(S(=O)(=O)[O-])ccc6F)c6nc(c(-c7cc(S(=O)(=O)[O-])ccc7F)c7ccc4[nH]7)C=C6)C=C5)cc3)cc12
REMARK SMILES IDX 20 1 19 2 18 3 17 4 16 5 14 6 15 7 13 8 7 9 8 10 92 11 9 12
REMARK SMILES IDX 10 13 91 14 11 16 12 17 6 18 5 19 4 20 1 21 2 22 3 23 21 25
REMARK SMILES IDX 22 26 23 27 24 28 25 29 26 30 27 31 28 32 29 33 90 34 30 35
REMARK SMILES IDX 89 36 31 37 32 38 33 39 83 40 34 41 88 42 82 43 84 44 35 45
REMARK SMILES IDX 87 46 81 47 80 48 36 50 68 51 48 52 67 53 49 54 52 55 66 56
REMARK SMILES IDX 85 57 50 58 51 59 65 61 86 62 53 63 37 64 38 65 46 66 39 67
REMARK SMILES IDX 45 68 47 69 44 70 40 71 41 72 42 73 43 74 69 75 70 76 78 77
REMARK SMILES IDX 71 78 77 79 79 80 76 81 72 82 73 83 74 84 75 85 54 86 55 87
REMARK SMILES IDX 63 88 56 89 62 90 64 91 61 92 57 93 58 94 59 95 60 96
REMARK H PARENT 9 15 4 24 84 49 52 60
REMARK Flexibility Score: inf
ROOT
ATOM      1  C   UNL A   1      33.086  28.530  22.264  1.00  0.00     0.188 C 
ENDROOT
BRANCH   1   2
ATOM      2  O   UNL A   1      33.696  27.374  21.713  1.00  0.00    -0.376 OA
BRANCH   2   3
ATOM      3  C   UNL A   1      32.894  26.287  21.275  1.00  0.00     0.202 C 
BRANCH   3   4
ATOM      4  C   UNL A   1      32.921  24.942  22.013  1.00  0.00     0.261 C 
BRANCH   4   5
ATOM      5  O   UNL A   1      33.364  25.015  23.374  1.00  0.00    -0.460 OA
BRANCH   5   6
ATOM      6  C   UNL A   1      32.401  24.786  24.305  1.00  0.00     0.338 C 
ATOM      7  O   UNL A   1      31.354  25.388  24.436  1.00  0.00    -0.246 OA
BRANCH   6   8
ATOM      8  C   UNL A   1      32.727  23.564  25.078  1.00  0.00     0.060 A 
ATOM      9  C   UNL A   1      32.662  19.738  24.841  1.00  0.00    -0.021 A 
ATOM     10  C   UNL A   1      32.941  19.053  26.010  1.00  0.00     0.087 A 
ATOM     11  C   UNL A   1      32.756  21.134  25.160  1.00  0.00     0.003 A 
ATOM     12  N   UNL A   1      33.303  19.957  26.969  1.00  0.00    -0.361 N 
ATOM     13  C   UNL A   1      33.209  21.237  26.477  1.00  0.00     0.046 A 
ATOM     14  C   UNL A   1      32.501  22.325  24.451  1.00  0.00     0.026 A 
ATOM     15  H   UNL A   1      33.589  19.723  27.882  1.00  0.00     0.166 HD
ATOM     16  C   UNL A   1      33.479  22.464  27.102  1.00  0.00     0.027 A 
ATOM     17  C   UNL A   1      33.236  23.633  26.375  1.00  0.00     0.018 A 
BRANCH   9  18
ATOM     18  C   UNL A   1      32.304  19.119  23.515  1.00  0.00     0.059 C 
BRANCH  18  19
ATOM     19  C   UNL A   1      33.129  17.863  23.189  1.00  0.00     0.120 C 
BRANCH  19  20
ATOM     20  N   UNL A   1      32.649  16.681  23.890  1.00  0.00    -0.356 N 
ATOM     21  C   UNL A   1      34.773  16.097  24.998  1.00  0.00     0.114 C 
ATOM     22  C   UNL A   1      33.334  15.804  24.677  1.00  0.00     0.216 C 
ATOM     23  O   UNL A   1      32.752  14.805  25.097  1.00  0.00    -0.275 OA
ATOM     24  H   UNL A   1      31.690  16.487  23.780  1.00  0.00     0.163 HD
ENDBRANCH  19  20
ENDBRANCH  18  19
ENDBRANCH   9  18
ENDBRANCH   6   8
ENDBRANCH   5   6
ENDBRANCH   4   5
ENDBRANCH   3   4
ENDBRANCH   2   3
ENDBRANCH   1   2
BRANCH   1  25
ATOM     25  C   UNL A   1      32.818  28.624  23.781  1.00  0.00     0.188 C 
BRANCH  25  26
ATOM     26  O   UNL A   1      31.495  28.880  24.190  1.00  0.00    -0.376 OA
BRANCH  26  27
ATOM     27  C   UNL A   1      31.172  30.024  24.961  1.00  0.00     0.202 C 
BRANCH  27  28
ATOM     28  C   UNL A   1      31.820  30.459  26.289  1.00  0.00     0.261 C 
BRANCH  28  29
ATOM     29  O   UNL A   1      33.237  30.601  26.345  1.00  0.00    -0.460 OA
BRANCH  29  30
ATOM     30  C   UNL A   1      33.691  31.500  27.254  1.00  0.00     0.338 C 
ATOM     31  O   UNL A   1      33.085  32.453  27.710  1.00  0.00    -0.246 OA
BRANCH  30  32
ATOM     32  C   UNL A   1      35.002  31.045  27.749  1.00  0.00     0.060 A 
ATOM     33  C   UNL A   1      35.204  29.674  27.933  1.00  0.00     0.016 A 
ATOM     34  C   UNL A   1      36.004  31.965  28.066  1.00  0.00     0.016 A 
ATOM     35  C   UNL A   1      36.411  29.218  28.461  1.00  0.00     0.010 A 
ATOM     36  C   UNL A   1      37.209  31.504  28.607  1.00  0.00     0.010 A 
ATOM     37  C   UNL A   1      37.409  30.130  28.829  1.00  0.00    -0.014 A 
BRANCH  37  38
ATOM     38  C   UNL A   1      38.578  29.655  29.610  1.00  0.00     0.031 A 
ATOM     39  C   UNL A   1      38.809  30.238  30.976  1.00  0.00     0.074 A 
ATOM     40  C   UNL A   1      39.399  28.703  29.131  1.00  0.00     0.049 A 
ATOM     41  N   UNL A   1      39.789  30.030  31.815  1.00  0.00    -0.248 NA
ATOM     42  C   UNL A   1      37.791  31.186  31.456  1.00  0.00     0.031 C 
ATOM     43  C   UNL A   1      39.247  28.022  27.846  1.00  0.00     0.029 A 
ATOM     44  N   UNL A   1      40.535  28.153  29.671  1.00  0.00    -0.354 N 
ATOM     45  C   UNL A   1      39.510  30.823  32.923  1.00  0.00     0.074 A 
ATOM     46  C   UNL A   1      38.286  31.539  32.632  1.00  0.00     0.031 C 
ATOM     47  C   UNL A   1      40.266  27.158  27.688  1.00  0.00     0.029 A 
ATOM     48  C   UNL A   1      41.164  27.256  28.839  1.00  0.00     0.049 A 
ATOM     49  H   UNL A   1      40.869  28.378  30.569  1.00  0.00     0.167 HD
ATOM     50  C   UNL A   1      40.207  30.938  34.081  1.00  0.00     0.034 A 
ATOM     51  C   UNL A   1      42.346  26.619  28.975  1.00  0.00     0.034 A 
ATOM     52  C   UNL A   1      41.438  30.237  34.349  1.00  0.00     0.049 A 
ATOM     53  C   UNL A   1      43.164  26.847  30.225  1.00  0.00     0.074 A 
ATOM     54  C   UNL A   1      42.225  30.280  35.486  1.00  0.00     0.029 A 
ATOM     55  N   UNL A   1      42.071  29.374  33.462  1.00  0.00    -0.354 N 
ATOM     56  N   UNL A   1      42.892  27.600  31.267  1.00  0.00    -0.248 NA
ATOM     57  C   UNL A   1      44.447  26.137  30.319  1.00  0.00     0.031 C 
ATOM     58  C   UNL A   1      43.369  29.505  35.258  1.00  0.00     0.029 A 
ATOM     59  C   UNL A   1      43.255  28.908  34.013  1.00  0.00     0.049 A 
ATOM     60  H   UNL A   1      41.728  29.129  32.573  1.00  0.00     0.167 HD
ATOM     61  C   UNL A   1      43.955  27.423  32.153  1.00  0.00     0.074 A 
ATOM     62  C   UNL A   1      44.864  26.486  31.526  1.00  0.00     0.031 C 
ATOM     63  C   UNL A   1      44.157  27.977  33.376  1.00  0.00     0.034 A 
BRANCH  50  64
ATOM     64  C   UNL A   1      39.681  31.911  35.109  1.00  0.00     0.023 A 
ATOM     65  C   UNL A   1      40.161  33.230  35.196  1.00  0.00     0.031 A 
ATOM     66  C   UNL A   1      38.711  31.500  36.040  1.00  0.00     0.131 A 
ATOM     67  C   UNL A   1      39.726  34.064  36.236  1.00  0.00     0.055 A 
ATOM     68  C   UNL A   1      38.222  32.362  37.022  1.00  0.00     0.041 A 
ATOM     69  F   UNL A   1      38.235  30.245  36.022  1.00  0.00    -0.206 F 
ATOM     70  C   UNL A   1      38.741  33.648  37.135  1.00  0.00     0.022 A 
BRANCH  67  71
ATOM     71  S   UNL A   1      40.575  35.648  36.492  1.00  0.00     0.124 S 
ATOM     72  O   UNL A   1      41.862  35.399  35.848  1.00  0.00    -0.237 OA
ATOM     73  O   UNL A   1      39.692  36.591  35.817  1.00  0.00    -0.237 OA
ATOM     74  O   UNL A   1      40.629  35.775  37.947  1.00  0.00    -0.744 OA
ENDBRANCH  67  71
ENDBRANCH  50  64
BRANCH  51  75
ATOM     75  C   UNL A   1      42.867  25.744  27.885  1.00  0.00     0.023 A 
ATOM     76  C   UNL A   1      42.312  24.478  27.641  1.00  0.00     0.031 A 
ATOM     77  C   UNL A   1      43.978  26.135  27.115  1.00  0.00     0.131 A 
ATOM     78  C   UNL A   1      42.899  23.629  26.688  1.00  0.00     0.055 A 
ATOM     79  C   UNL A   1      44.523  25.309  26.131  1.00  0.00     0.041 A 
ATOM     80  F   UNL A   1      44.550  27.334  27.311  1.00  0.00    -0.206 F 
ATOM     81  C   UNL A   1      43.991  24.040  25.923  1.00  0.00     0.022 A 
BRANCH  78  82
ATOM     82  S   UNL A   1      42.264  21.937  26.527  1.00  0.00     0.124 S 
ATOM     83  O   UNL A   1      42.628  21.361  27.817  1.00  0.00    -0.237 OA
ATOM     84  O   UNL A   1      40.840  22.170  26.308  1.00  0.00    -0.237 OA
ATOM     85  O   UNL A   1      42.992  21.408  25.377  1.00  0.00    -0.744 OA
ENDBRANCH  78  82
ENDBRANCH  51  75
BRANCH  63  86
ATOM     86  C   UNL A   1      45.383  27.536  34.142  1.00  0.00     0.023 A 
ATOM     87  C   UNL A   1      46.628  28.168  33.987  1.00  0.00     0.031 A 
ATOM     88  C   UNL A   1      45.297  26.460  35.046  1.00  0.00     0.131 A 
ATOM     89  C   UNL A   1      47.749  27.686  34.682  1.00  0.00     0.055 A 
ATOM     90  C   UNL A   1      46.400  26.025  35.781  1.00  0.00     0.041 A 
ATOM     91  F   UNL A   1      44.133  25.817  35.234  1.00  0.00    -0.206 F 
ATOM     92  C   UNL A   1      47.638  26.630  35.591  1.00  0.00     0.022 A 
BRANCH  89  93
ATOM     93  S   UNL A   1      49.377  28.400  34.318  1.00  0.00     0.124 S 
ATOM     94  O   UNL A   1      49.207  28.855  32.941  1.00  0.00    -0.237 OA
ATOM     95  O   UNL A   1      49.492  29.447  35.326  1.00  0.00    -0.237 OA
ATOM     96  O   UNL A   1      50.293  27.272  34.489  1.00  0.00    -0.744 OA
ENDBRANCH  89  93
ENDBRANCH  63  86
ENDBRANCH  37  38
ENDBRANCH  30  32
ENDBRANCH  29  30
ENDBRANCH  28  29
ENDBRANCH  27  28
ENDBRANCH  26  27
ENDBRANCH  25  26
ENDBRANCH   1  25
TORSDOF 23
ENDMDL
