MODEL 1
REMARK VINA RESULT:     -12.4      0.000      0.000
REMARK SMILES O=C(OCCOCCOCCOC(=O)c1ccc(-c2c3nc(c(-c4cc(S(=O)(=O)[O-])ccc4F)c4ccc([nH]4)c(-c4cc(S(=O)(=O)[O-])ccc4F)c4nc(c(-c5cc(S(=O)(=O)[O-])ccc5F)c5ccc2[nH]5)C=C4)C=C3)cc1)C1=Cc2cc(Cl)cc(-c3ccc(O)cc3)c2O[C@@H]1C(F)(F)F
REMARK SMILES IDX 8 1 7 2 6 3 5 4 4 5 3 6 2 7 1 8 78 9 79 10 95 11 80 12 94 13
REMARK SMILES IDX 81 14 93 15 82 16 85 17 83 18 84 19 96 20 97 21 98 22 99 23
REMARK SMILES IDX 86 24 87 25 92 26 88 27 91 28 89 29 90 30 9 32 10 33 11 34
REMARK SMILES IDX 12 35 13 36 14 37 15 38 16 39 77 40 17 41 76 42 18 43 19 44
REMARK SMILES IDX 20 45 70 46 21 47 75 48 69 49 71 50 22 51 74 52 68 53 67 54
REMARK SMILES IDX 23 56 55 57 35 58 54 59 36 60 39 61 53 62 72 63 37 64 38 65
REMARK SMILES IDX 52 67 73 68 40 69 24 70 25 71 33 72 26 73 32 74 34 75 31 76
REMARK SMILES IDX 27 77 28 78 29 79 30 80 56 81 57 82 65 83 58 84 64 85 66 86
REMARK SMILES IDX 63 87 59 88 60 89 61 90 62 91 41 92 42 93 50 94 43 95 49 96
REMARK SMILES IDX 51 97 48 98 44 99 45 100 46 101 47 102
REMARK H PARENT 90 31 71 55 39 66
REMARK Flexibility Score: inf
ROOT
ATOM      1  C   UNL A   1      36.694  21.470  24.631  1.00  0.00     0.188 C 
ENDROOT
BRANCH   1   2
ATOM      2  C   UNL A   1      35.532  20.484  24.835  1.00  0.00     0.188 C 
BRANCH   2   3
ATOM      3  O   UNL A   1      34.383  20.711  25.809  1.00  0.00    -0.376 OA
BRANCH   3   4
ATOM      4  C   UNL A   1      32.670  20.334  25.528  1.00  0.00     0.202 C 
BRANCH   4   5
ATOM      5  C   UNL A   1      31.101  21.790  25.925  1.00  0.00     0.261 C 
BRANCH   5   6
ATOM      6  O   UNL A   1      30.727  22.974  25.036  1.00  0.00    -0.460 OA
BRANCH   6   7
ATOM      7  C   UNL A   1      30.789  24.138  25.700  1.00  0.00     0.338 C 
ATOM      8  O   UNL A   1      30.090  24.518  26.606  1.00  0.00    -0.246 OA
BRANCH   7   9
ATOM      9  C   UNL A   1      31.538  24.868  24.690  1.00  0.00     0.087 C 
ATOM     10  C   UNL A   1      30.773  25.702  23.793  1.00  0.00     0.027 C 
ATOM     11  C   UNL A   1      32.827  25.510  25.945  1.00  0.00     0.316 C 
ATOM     12  C   UNL A   1      30.652  27.476  23.933  1.00  0.00     0.019 A 
ATOM     13  O   UNL A   1      32.595  27.446  26.247  1.00  0.00    -0.475 OA
ATOM     14  C   UNL A   1      29.727  28.088  23.128  1.00  0.00     0.032 A 
ATOM     15  C   UNL A   1      31.472  28.398  25.152  1.00  0.00     0.135 A 
ATOM     16  C   UNL A   1      29.569  29.457  23.334  1.00  0.00     0.042 A 
ATOM     17  C   UNL A   1      31.291  29.773  25.238  1.00  0.00     0.026 A 
ATOM     18  Cl  UNL A   1      28.392  30.281  22.366  1.00  0.00    -0.084 Cl
ATOM     19  C   UNL A   1      30.309  30.235  24.297  1.00  0.00     0.033 A 
BRANCH  11  20
ATOM     20  C   UNL A   1      34.072  24.591  25.149  1.00  0.00     0.430 C 
ATOM     21  F   UNL A   1      33.804  23.405  24.582  1.00  0.00    -0.167 F 
ATOM     22  F   UNL A   1      34.656  25.371  24.206  1.00  0.00    -0.167 F 
ATOM     23  F   UNL A   1      35.084  24.278  26.021  1.00  0.00    -0.167 F 
ENDBRANCH  11  20
BRANCH  17  24
ATOM     24  C   UNL A   1      31.939  30.835  26.007  1.00  0.00    -0.014 A 
ATOM     25  C   UNL A   1      33.072  30.589  26.792  1.00  0.00     0.012 A 
ATOM     26  C   UNL A   1      31.266  32.061  26.207  1.00  0.00     0.012 A 
ATOM     27  C   UNL A   1      33.582  31.577  27.647  1.00  0.00     0.047 A 
ATOM     28  C   UNL A   1      31.794  33.067  27.029  1.00  0.00     0.047 A 
ATOM     29  C   UNL A   1      32.973  32.823  27.716  1.00  0.00     0.115 A 
BRANCH  29  30
ATOM     30  O   UNL A   1      33.566  33.794  28.464  1.00  0.00    -0.508 OA
ATOM     31  H   UNL A   1      33.787  34.618  28.073  1.00  0.00     0.293 HD
ENDBRANCH  29  30
ENDBRANCH  17  24
ENDBRANCH   7   9
ENDBRANCH   6   7
ENDBRANCH   5   6
ENDBRANCH   4   5
ENDBRANCH   3   4
ENDBRANCH   2   3
ENDBRANCH   1   2
BRANCH   1  32
ATOM     32  O   UNL A   1      37.972  21.124  25.088  1.00  0.00    -0.376 OA
BRANCH  32  33
ATOM     33  C   UNL A   1      38.227  19.739  25.106  1.00  0.00     0.202 C 
BRANCH  33  34
ATOM     34  C   UNL A   1      39.516  19.196  25.732  1.00  0.00     0.261 C 
BRANCH  34  35
ATOM     35  O   UNL A   1      40.575  20.152  25.843  1.00  0.00    -0.460 OA
BRANCH  35  36
ATOM     36  C   UNL A   1      41.147  20.258  27.066  1.00  0.00     0.338 C 
ATOM     37  O   UNL A   1      41.718  19.384  27.694  1.00  0.00    -0.246 OA
BRANCH  36  38
ATOM     38  C   UNL A   1      41.135  21.680  27.443  1.00  0.00     0.060 A 
ATOM     39  C   UNL A   1      40.357  22.598  26.718  1.00  0.00     0.016 A 
ATOM     40  C   UNL A   1      41.940  22.099  28.499  1.00  0.00     0.016 A 
ATOM     41  C   UNL A   1      40.381  23.948  27.051  1.00  0.00     0.010 A 
ATOM     42  C   UNL A   1      42.008  23.455  28.797  1.00  0.00     0.010 A 
ATOM     43  C   UNL A   1      41.258  24.382  28.049  1.00  0.00    -0.014 A 
BRANCH  43  44
ATOM     44  C   UNL A   1      41.659  25.801  28.093  1.00  0.00     0.031 A 
ATOM     45  C   UNL A   1      42.992  26.143  27.494  1.00  0.00     0.074 A 
ATOM     46  C   UNL A   1      40.893  26.733  28.680  1.00  0.00     0.049 A 
ATOM     47  N   UNL A   1      43.660  27.263  27.533  1.00  0.00    -0.248 NA
ATOM     48  C   UNL A   1      43.672  25.056  26.768  1.00  0.00     0.031 C 
ATOM     49  C   UNL A   1      39.560  26.507  29.232  1.00  0.00     0.029 A 
ATOM     50  N   UNL A   1      41.146  28.057  28.927  1.00  0.00    -0.354 N 
ATOM     51  C   UNL A   1      44.845  27.011  26.852  1.00  0.00     0.074 A 
ATOM     52  C   UNL A   1      44.819  25.625  26.445  1.00  0.00     0.031 C 
ATOM     53  C   UNL A   1      39.120  27.654  29.780  1.00  0.00     0.029 A 
ATOM     54  C   UNL A   1      40.162  28.675  29.659  1.00  0.00     0.049 A 
ATOM     55  H   UNL A   1      41.955  28.520  28.610  1.00  0.00     0.167 HD
ATOM     56  C   UNL A   1      45.864  27.865  26.595  1.00  0.00     0.034 A 
ATOM     57  C   UNL A   1      40.135  29.909  30.202  1.00  0.00     0.034 A 
ATOM     58  C   UNL A   1      45.877  29.228  27.057  1.00  0.00     0.049 A 
ATOM     59  C   UNL A   1      41.329  30.815  29.999  1.00  0.00     0.074 A 
ATOM     60  C   UNL A   1      46.849  30.191  26.866  1.00  0.00     0.029 A 
ATOM     61  N   UNL A   1      44.879  29.813  27.828  1.00  0.00    -0.354 N 
ATOM     62  N   UNL A   1      42.451  30.576  29.359  1.00  0.00    -0.248 NA
ATOM     63  C   UNL A   1      41.251  32.158  30.589  1.00  0.00     0.031 C 
ATOM     64  C   UNL A   1      46.486  31.323  27.602  1.00  0.00     0.029 A 
ATOM     65  C   UNL A   1      45.231  31.111  28.154  1.00  0.00     0.049 A 
ATOM     66  H   UNL A   1      44.043  29.369  28.101  1.00  0.00     0.167 HD
ATOM     67  C   UNL A   1      43.193  31.755  29.429  1.00  0.00     0.074 A 
ATOM     68  C   UNL A   1      42.390  32.699  30.179  1.00  0.00     0.031 C 
ATOM     69  C   UNL A   1      44.414  32.037  28.907  1.00  0.00     0.034 A 
BRANCH  56  70
ATOM     70  C   UNL A   1      47.059  27.310  25.860  1.00  0.00     0.023 A 
ATOM     71  C   UNL A   1      48.060  26.573  26.519  1.00  0.00     0.031 A 
ATOM     72  C   UNL A   1      47.239  27.582  24.493  1.00  0.00     0.131 A 
ATOM     73  C   UNL A   1      49.235  26.223  25.838  1.00  0.00     0.055 A 
ATOM     74  C   UNL A   1      48.364  27.140  23.795  1.00  0.00     0.041 A 
ATOM     75  F   UNL A   1      46.339  28.311  23.814  1.00  0.00    -0.206 F 
ATOM     76  C   UNL A   1      49.380  26.474  24.473  1.00  0.00     0.022 A 
BRANCH  73  77
ATOM     77  S   UNL A   1      50.643  25.613  26.805  1.00  0.00     0.124 S 
ATOM     78  O   UNL A   1      50.966  26.781  27.624  1.00  0.00    -0.237 OA
ATOM     79  O   UNL A   1      50.072  24.475  27.514  1.00  0.00    -0.237 OA
ATOM     80  O   UNL A   1      51.639  25.282  25.788  1.00  0.00    -0.744 OA
ENDBRANCH  73  77
ENDBRANCH  56  70
BRANCH  57  81
ATOM     81  C   UNL A   1      38.966  30.346  31.017  1.00  0.00     0.023 A 
ATOM     82  C   UNL A   1      38.019  31.247  30.506  1.00  0.00     0.031 A 
ATOM     83  C   UNL A   1      38.794  29.892  32.337  1.00  0.00     0.131 A 
ATOM     84  C   UNL A   1      36.967  31.696  31.321  1.00  0.00     0.055 A 
ATOM     85  C   UNL A   1      37.712  30.291  33.123  1.00  0.00     0.041 A 
ATOM     86  F   UNL A   1      39.675  29.037  32.883  1.00  0.00    -0.206 F 
ATOM     87  C   UNL A   1      36.795  31.208  32.619  1.00  0.00     0.022 A 
BRANCH  84  88
ATOM     88  S   UNL A   1      35.875  33.002  30.694  1.00  0.00     0.124 S 
ATOM     89  O   UNL A   1      34.558  32.437  30.959  1.00  0.00    -0.237 OA
ATOM     90  O   UNL A   1      36.262  34.144  31.517  1.00  0.00    -0.237 OA
ATOM     91  O   UNL A   1      36.240  33.102  29.282  1.00  0.00    -0.744 OA
ENDBRANCH  84  88
ENDBRANCH  57  81
BRANCH  69  92
ATOM     92  C   UNL A   1      44.930  33.449  29.055  1.00  0.00     0.023 A 
ATOM     93  C   UNL A   1      45.761  33.841  30.119  1.00  0.00     0.031 A 
ATOM     94  C   UNL A   1      44.603  34.414  28.082  1.00  0.00     0.131 A 
ATOM     95  C   UNL A   1      46.195  35.173  30.208  1.00  0.00     0.055 A 
ATOM     96  C   UNL A   1      45.101  35.714  28.136  1.00  0.00     0.041 A 
ATOM     97  F   UNL A   1      43.806  34.098  27.048  1.00  0.00    -0.206 F 
ATOM     98  C   UNL A   1      45.893  36.104  29.211  1.00  0.00     0.022 A 
BRANCH  95  99
ATOM     99  S   UNL A   1      47.078  35.705  31.701  1.00  0.00     0.124 S 
ATOM    100  O   UNL A   1      48.377  36.095  31.161  1.00  0.00    -0.237 OA
ATOM    101  O   UNL A   1      46.239  36.794  32.190  1.00  0.00    -0.237 OA
ATOM    102  O   UNL A   1      47.090  34.507  32.538  1.00  0.00    -0.744 OA
ENDBRANCH  95  99
ENDBRANCH  69  92
ENDBRANCH  43  44
ENDBRANCH  36  38
ENDBRANCH  35  36
ENDBRANCH  34  35
ENDBRANCH  33  34
ENDBRANCH  32  33
ENDBRANCH   1  32
TORSDOF 23
ENDMDL
MODEL 2
REMARK VINA RESULT:     -12.2      1.789      2.117
REMARK SMILES O=C(OCCOCCOCCOC(=O)c1ccc(-c2c3nc(c(-c4cc(S(=O)(=O)[O-])ccc4F)c4ccc([nH]4)c(-c4cc(S(=O)(=O)[O-])ccc4F)c4nc(c(-c5cc(S(=O)(=O)[O-])ccc5F)c5ccc2[nH]5)C=C4)C=C3)cc1)C1=Cc2cc(Cl)cc(-c3ccc(O)cc3)c2O[C@@H]1C(F)(F)F
REMARK SMILES IDX 8 1 7 2 6 3 5 4 4 5 3 6 2 7 1 8 78 9 79 10 95 11 80 12 94 13
REMARK SMILES IDX 81 14 93 15 82 16 85 17 83 18 84 19 96 20 97 21 98 22 99 23
REMARK SMILES IDX 86 24 87 25 92 26 88 27 91 28 89 29 90 30 9 32 10 33 11 34
REMARK SMILES IDX 12 35 13 36 14 37 15 38 16 39 77 40 17 41 76 42 18 43 19 44
REMARK SMILES IDX 20 45 70 46 21 47 75 48 69 49 71 50 22 51 74 52 68 53 67 54
REMARK SMILES IDX 23 56 55 57 35 58 54 59 36 60 39 61 53 62 72 63 37 64 38 65
REMARK SMILES IDX 52 67 73 68 40 69 24 70 25 71 33 72 26 73 32 74 34 75 31 76
REMARK SMILES IDX 27 77 28 78 29 79 30 80 56 81 57 82 65 83 58 84 64 85 66 86
REMARK SMILES IDX 63 87 59 88 60 89 61 90 62 91 41 92 42 93 50 94 43 95 49 96
REMARK SMILES IDX 51 97 48 98 44 99 45 100 46 101 47 102
REMARK H PARENT 90 31 71 55 39 66
REMARK Flexibility Score: inf
ROOT
ATOM      1  C   UNL A   1      36.434  21.895  24.433  1.00  0.00     0.188 C 
ENDROOT
BRANCH   1   2
ATOM      2  C   UNL A   1      35.244  20.965  24.718  1.00  0.00     0.188 C 
BRANCH   2   3
ATOM      3  O   UNL A   1      34.051  21.349  25.584  1.00  0.00    -0.376 OA
BRANCH   3   4
ATOM      4  C   UNL A   1      32.337  21.088  25.196  1.00  0.00     0.202 C 
BRANCH   4   5
ATOM      5  C   UNL A   1      30.828  22.598  25.623  1.00  0.00     0.261 C 
BRANCH   5   6
ATOM      6  O   UNL A   1      30.593  23.884  24.834  1.00  0.00    -0.460 OA
BRANCH   6   7
ATOM      7  C   UNL A   1      30.665  24.972  25.617  1.00  0.00     0.338 C 
ATOM      8  O   UNL A   1      29.950  25.277  26.537  1.00  0.00    -0.246 OA
BRANCH   7   9
ATOM      9  C   UNL A   1      31.463  25.779  24.708  1.00  0.00     0.087 C 
ATOM     10  C   UNL A   1      30.768  26.815  23.981  1.00  0.00     0.027 C 
ATOM     11  C   UNL A   1      32.835  26.086  26.002  1.00  0.00     0.316 C 
ATOM     12  C   UNL A   1      30.827  28.547  24.403  1.00  0.00     0.019 A 
ATOM     13  O   UNL A   1      32.803  27.962  26.613  1.00  0.00    -0.475 OA
ATOM     14  C   UNL A   1      29.952  29.365  23.737  1.00  0.00     0.032 A 
ATOM     15  C   UNL A   1      31.759  29.180  25.721  1.00  0.00     0.135 A 
ATOM     16  C   UNL A   1      29.936  30.693  24.162  1.00  0.00     0.042 A 
ATOM     17  C   UNL A   1      31.718  30.535  26.029  1.00  0.00     0.026 A 
ATOM     18  Cl  UNL A   1      28.828  31.770  23.377  1.00  0.00    -0.084 Cl
ATOM     19  C   UNL A   1      30.768  31.233  25.208  1.00  0.00     0.033 A 
BRANCH  11  20
ATOM     20  C   UNL A   1      33.966  25.192  25.028  1.00  0.00     0.430 C 
ATOM     21  F   UNL A   1      33.745  23.907  24.711  1.00  0.00    -0.167 F 
ATOM     22  F   UNL A   1      34.176  25.867  23.870  1.00  0.00    -0.167 F 
ATOM     23  F   UNL A   1      35.198  25.138  25.631  1.00  0.00    -0.167 F 
ENDBRANCH  11  20
BRANCH  17  24
ATOM     24  C   UNL A   1      32.483  31.393  26.932  1.00  0.00    -0.014 A 
ATOM     25  C   UNL A   1      32.168  32.747  27.104  1.00  0.00     0.012 A 
ATOM     26  C   UNL A   1      33.732  30.952  27.424  1.00  0.00     0.012 A 
ATOM     27  C   UNL A   1      33.007  33.591  27.845  1.00  0.00     0.047 A 
ATOM     28  C   UNL A   1      34.554  31.780  28.200  1.00  0.00     0.047 A 
ATOM     29  C   UNL A   1      34.162  33.089  28.432  1.00  0.00     0.115 A 
BRANCH  29  30
ATOM     30  O   UNL A   1      34.886  33.909  29.243  1.00  0.00    -0.508 OA
ATOM     31  H   UNL A   1      34.873  34.836  29.105  1.00  0.00     0.293 HD
ENDBRANCH  29  30
ENDBRANCH  17  24
ENDBRANCH   7   9
ENDBRANCH   6   7
ENDBRANCH   5   6
ENDBRANCH   4   5
ENDBRANCH   3   4
ENDBRANCH   2   3
ENDBRANCH   1   2
BRANCH   1  32
ATOM     32  O   UNL A   1      37.684  21.595  24.988  1.00  0.00    -0.376 OA
BRANCH  32  33
ATOM     33  C   UNL A   1      37.960  20.217  25.087  1.00  0.00     0.202 C 
BRANCH  33  34
ATOM     34  C   UNL A   1      39.339  19.733  25.548  1.00  0.00     0.261 C 
BRANCH  34  35
ATOM     35  O   UNL A   1      40.291  20.776  25.779  1.00  0.00    -0.460 OA
BRANCH  35  36
ATOM     36  C   UNL A   1      40.806  20.838  27.030  1.00  0.00     0.338 C 
ATOM     37  O   UNL A   1      41.255  19.919  27.692  1.00  0.00    -0.246 OA
BRANCH  36  38
ATOM     38  C   UNL A   1      40.911  22.258  27.400  1.00  0.00     0.060 A 
ATOM     39  C   UNL A   1      40.216  23.234  26.666  1.00  0.00     0.016 A 
ATOM     40  C   UNL A   1      41.745  22.614  28.457  1.00  0.00     0.016 A 
ATOM     41  C   UNL A   1      40.352  24.579  26.992  1.00  0.00     0.010 A 
ATOM     42  C   UNL A   1      41.926  23.962  28.747  1.00  0.00     0.010 A 
ATOM     43  C   UNL A   1      41.258  24.943  27.992  1.00  0.00    -0.014 A 
BRANCH  43  44
ATOM     44  C   UNL A   1      41.777  26.324  28.029  1.00  0.00     0.031 A 
ATOM     45  C   UNL A   1      43.140  26.548  27.442  1.00  0.00     0.074 A 
ATOM     46  C   UNL A   1      41.086  27.322  28.602  1.00  0.00     0.049 A 
ATOM     47  N   UNL A   1      43.899  27.608  27.481  1.00  0.00    -0.248 NA
ATOM     48  C   UNL A   1      43.733  25.402  26.731  1.00  0.00     0.031 C 
ATOM     49  C   UNL A   1      39.734  27.213  29.141  1.00  0.00     0.029 A 
ATOM     50  N   UNL A   1      41.448  28.622  28.842  1.00  0.00    -0.354 N 
ATOM     51  C   UNL A   1      45.066  27.252  26.814  1.00  0.00     0.074 A 
ATOM     52  C   UNL A   1      44.927  25.870  26.416  1.00  0.00     0.031 C 
ATOM     53  C   UNL A   1      39.386  28.397  29.676  1.00  0.00     0.029 A 
ATOM     54  C   UNL A   1      40.512  29.326  29.559  1.00  0.00     0.049 A 
ATOM     55  H   UNL A   1      42.295  29.013  28.530  1.00  0.00     0.167 HD
ATOM     56  C   UNL A   1      46.155  28.015  26.561  1.00  0.00     0.034 A 
ATOM     57  C   UNL A   1      40.583  30.563  30.093  1.00  0.00     0.034 A 
ATOM     58  C   UNL A   1      46.279  29.376  27.013  1.00  0.00     0.049 A 
ATOM     59  C   UNL A   1      41.851  31.363  29.896  1.00  0.00     0.074 A 
ATOM     60  C   UNL A   1      47.330  30.253  26.826  1.00  0.00     0.029 A 
ATOM     61  N   UNL A   1      45.325  30.049  27.769  1.00  0.00    -0.354 N 
ATOM     62  N   UNL A   1      42.955  31.026  29.269  1.00  0.00    -0.248 NA
ATOM     63  C   UNL A   1      41.881  32.713  30.476  1.00  0.00     0.031 C 
ATOM     64  C   UNL A   1      47.057  31.417  27.550  1.00  0.00     0.029 A 
ATOM     65  C   UNL A   1      45.782  31.315  28.090  1.00  0.00     0.049 A 
ATOM     66  H   UNL A   1      44.453  29.679  28.037  1.00  0.00     0.167 HD
ATOM     67  C   UNL A   1      43.793  32.139  29.339  1.00  0.00     0.074 A 
ATOM     68  C   UNL A   1      43.065  33.153  30.074  1.00  0.00     0.031 C 
ATOM     69  C   UNL A   1      45.039  32.313  28.828  1.00  0.00     0.034 A 
BRANCH  56  70
ATOM     70  C   UNL A   1      47.307  27.356  25.843  1.00  0.00     0.023 A 
ATOM     71  C   UNL A   1      48.283  26.612  26.531  1.00  0.00     0.031 A 
ATOM     72  C   UNL A   1      47.473  27.533  24.459  1.00  0.00     0.131 A 
ATOM     73  C   UNL A   1      49.425  26.162  25.854  1.00  0.00     0.055 A 
ATOM     74  C   UNL A   1      48.561  26.992  23.771  1.00  0.00     0.041 A 
ATOM     75  F   UNL A   1      46.596  28.263  23.750  1.00  0.00    -0.206 F 
ATOM     76  C   UNL A   1      49.556  26.319  24.473  1.00  0.00     0.022 A 
BRANCH  73  77
ATOM     77  S   UNL A   1      50.821  25.542  26.833  1.00  0.00     0.124 S 
ATOM     78  O   UNL A   1      51.146  26.709  27.651  1.00  0.00    -0.237 OA
ATOM     79  O   UNL A   1      50.234  24.411  27.541  1.00  0.00    -0.237 OA
ATOM     80  O   UNL A   1      51.822  25.200  25.825  1.00  0.00    -0.744 OA
ENDBRANCH  73  77
ENDBRANCH  56  70
BRANCH  57  81
ATOM     81  C   UNL A   1      39.447  31.103  30.892  1.00  0.00     0.023 A 
ATOM     82  C   UNL A   1      39.499  31.146  32.294  1.00  0.00     0.031 A 
ATOM     83  C   UNL A   1      38.273  31.559  30.264  1.00  0.00     0.131 A 
ATOM     84  C   UNL A   1      38.386  31.594  33.023  1.00  0.00     0.055 A 
ATOM     85  C   UNL A   1      37.192  32.063  30.990  1.00  0.00     0.041 A 
ATOM     86  F   UNL A   1      38.162  31.531  28.926  1.00  0.00    -0.206 F 
ATOM     87  C   UNL A   1      37.241  32.073  32.380  1.00  0.00     0.022 A 
BRANCH  84  88
ATOM     88  S   UNL A   1      38.416  31.456  34.832  1.00  0.00     0.124 S 
ATOM     89  O   UNL A   1      37.137  32.055  35.194  1.00  0.00    -0.237 OA
ATOM     90  O   UNL A   1      38.529  30.014  35.026  1.00  0.00    -0.237 OA
ATOM     91  O   UNL A   1      39.597  32.229  35.212  1.00  0.00    -0.744 OA
ENDBRANCH  84  88
ENDBRANCH  57  81
BRANCH  69  92
ATOM     92  C   UNL A   1      45.671  33.678  28.971  1.00  0.00     0.023 A 
ATOM     93  C   UNL A   1      45.276  34.778  28.190  1.00  0.00     0.031 A 
ATOM     94  C   UNL A   1      46.671  33.881  29.941  1.00  0.00     0.131 A 
ATOM     95  C   UNL A   1      45.913  36.017  28.362  1.00  0.00     0.055 A 
ATOM     96  C   UNL A   1      47.245  35.133  30.159  1.00  0.00     0.041 A 
ATOM     97  F   UNL A   1      47.094  32.864  30.710  1.00  0.00    -0.206 F 
ATOM     98  C   UNL A   1      46.875  36.208  29.358  1.00  0.00     0.022 A 
BRANCH  95  99
ATOM     99  S   UNL A   1      45.544  37.357  27.196  1.00  0.00     0.124 S 
ATOM    100  O   UNL A   1      45.684  38.539  28.041  1.00  0.00    -0.237 OA
ATOM    101  O   UNL A   1      46.572  37.178  26.176  1.00  0.00    -0.237 OA
ATOM    102  O   UNL A   1      44.181  37.066  26.759  1.00  0.00    -0.744 OA
ENDBRANCH  95  99
ENDBRANCH  69  92
ENDBRANCH  43  44
ENDBRANCH  36  38
ENDBRANCH  35  36
ENDBRANCH  34  35
ENDBRANCH  33  34
ENDBRANCH  32  33
ENDBRANCH   1  32
TORSDOF 23
ENDMDL
MODEL 3
REMARK VINA RESULT:     -11.6      1.897      2.160
REMARK SMILES O=C(OCCOCCOCCOC(=O)c1ccc(-c2c3nc(c(-c4cc(S(=O)(=O)[O-])ccc4F)c4ccc([nH]4)c(-c4cc(S(=O)(=O)[O-])ccc4F)c4nc(c(-c5cc(S(=O)(=O)[O-])ccc5F)c5ccc2[nH]5)C=C4)C=C3)cc1)C1=Cc2cc(Cl)cc(-c3ccc(O)cc3)c2O[C@@H]1C(F)(F)F
REMARK SMILES IDX 8 1 7 2 6 3 5 4 4 5 3 6 2 7 1 8 78 9 79 10 95 11 80 12 94 13
REMARK SMILES IDX 81 14 93 15 82 16 85 17 83 18 84 19 96 20 97 21 98 22 99 23
REMARK SMILES IDX 86 24 87 25 92 26 88 27 91 28 89 29 90 30 9 32 10 33 11 34
REMARK SMILES IDX 12 35 13 36 14 37 15 38 16 39 77 40 17 41 76 42 18 43 19 44
REMARK SMILES IDX 20 45 70 46 21 47 75 48 69 49 71 50 22 51 74 52 68 53 67 54
REMARK SMILES IDX 23 56 55 57 35 58 54 59 36 60 39 61 53 62 72 63 37 64 38 65
REMARK SMILES IDX 52 67 73 68 40 69 24 70 25 71 33 72 26 73 32 74 34 75 31 76
REMARK SMILES IDX 27 77 28 78 29 79 30 80 56 81 57 82 65 83 58 84 64 85 66 86
REMARK SMILES IDX 63 87 59 88 60 89 61 90 62 91 41 92 42 93 50 94 43 95 49 96
REMARK SMILES IDX 51 97 48 98 44 99 45 100 46 101 47 102
REMARK H PARENT 90 31 71 55 39 66
REMARK Flexibility Score: inf
ROOT
ATOM      1  C   UNL A   1      37.280  20.937  24.606  1.00  0.00     0.188 C 
ENDROOT
BRANCH   1   2
ATOM      2  C   UNL A   1      35.964  20.147  24.696  1.00  0.00     0.188 C 
BRANCH   2   3
ATOM      3  O   UNL A   1      34.717  20.648  25.414  1.00  0.00    -0.376 OA
BRANCH   3   4
ATOM      4  C   UNL A   1      33.032  20.343  24.941  1.00  0.00     0.202 C 
BRANCH   4   5
ATOM      5  C   UNL A   1      31.417  21.664  25.562  1.00  0.00     0.261 C 
BRANCH   5   6
ATOM      6  O   UNL A   1      30.969  22.936  24.846  1.00  0.00    -0.460 OA
BRANCH   6   7
ATOM      7  C   UNL A   1      31.083  24.019  25.629  1.00  0.00     0.338 C 
ATOM      8  O   UNL A   1      30.404  24.329  26.575  1.00  0.00    -0.246 OA
BRANCH   7   9
ATOM      9  C   UNL A   1      31.860  24.819  24.697  1.00  0.00     0.087 C 
ATOM     10  C   UNL A   1      31.120  25.703  23.827  1.00  0.00     0.027 C 
ATOM     11  C   UNL A   1      33.095  25.390  26.038  1.00  0.00     0.316 C 
ATOM     12  C   UNL A   1      30.973  27.462  24.077  1.00  0.00     0.019 A 
ATOM     13  O   UNL A   1      32.829  27.300  26.455  1.00  0.00    -0.475 OA
ATOM     14  C   UNL A   1      30.072  28.116  23.278  1.00  0.00     0.032 A 
ATOM     15  C   UNL A   1      31.737  28.312  25.382  1.00  0.00     0.135 A 
ATOM     16  C   UNL A   1      29.890  29.468  23.565  1.00  0.00     0.042 A 
ATOM     17  C   UNL A   1      31.537  29.676  25.549  1.00  0.00     0.026 A 
ATOM     18  Cl  UNL A   1      28.741  30.342  22.608  1.00  0.00    -0.084 Cl
ATOM     19  C   UNL A   1      30.585  30.189  24.604  1.00  0.00     0.033 A 
BRANCH  11  20
ATOM     20  C   UNL A   1      34.379  24.536  25.233  1.00  0.00     0.430 C 
ATOM     21  F   UNL A   1      34.170  23.334  24.676  1.00  0.00    -0.167 F 
ATOM     22  F   UNL A   1      34.908  25.341  24.278  1.00  0.00    -0.167 F 
ATOM     23  F   UNL A   1      35.417  24.285  26.094  1.00  0.00    -0.167 F 
ENDBRANCH  11  20
BRANCH  17  24
ATOM     24  C   UNL A   1      32.143  30.692  26.408  1.00  0.00    -0.014 A 
ATOM     25  C   UNL A   1      31.562  31.955  26.579  1.00  0.00     0.012 A 
ATOM     26  C   UNL A   1      33.475  30.528  26.850  1.00  0.00     0.012 A 
ATOM     27  C   UNL A   1      32.237  32.969  27.273  1.00  0.00     0.047 A 
ATOM     28  C   UNL A   1      34.138  31.524  27.581  1.00  0.00     0.047 A 
ATOM     29  C   UNL A   1      33.493  32.728  27.815  1.00  0.00     0.115 A 
BRANCH  29  30
ATOM     30  O   UNL A   1      34.063  33.696  28.585  1.00  0.00    -0.508 OA
ATOM     31  H   UNL A   1      34.738  33.471  29.196  1.00  0.00     0.293 HD
ENDBRANCH  29  30
ENDBRANCH  17  24
ENDBRANCH   7   9
ENDBRANCH   6   7
ENDBRANCH   5   6
ENDBRANCH   4   5
ENDBRANCH   3   4
ENDBRANCH   2   3
ENDBRANCH   1   2
BRANCH   1  32
ATOM     32  O   UNL A   1      38.230  20.801  25.627  1.00  0.00    -0.376 OA
BRANCH  32  33
ATOM     33  C   UNL A   1      38.827  19.528  25.698  1.00  0.00     0.202 C 
BRANCH  33  34
ATOM     34  C   UNL A   1      40.352  19.383  25.658  1.00  0.00     0.261 C 
BRANCH  34  35
ATOM     35  O   UNL A   1      41.074  20.582  25.959  1.00  0.00    -0.460 OA
BRANCH  35  36
ATOM     36  C   UNL A   1      41.550  20.682  27.223  1.00  0.00     0.338 C 
ATOM     37  O   UNL A   1      42.059  19.802  27.894  1.00  0.00    -0.246 OA
BRANCH  36  38
ATOM     38  C   UNL A   1      41.524  22.104  27.598  1.00  0.00     0.060 A 
ATOM     39  C   UNL A   1      40.755  23.018  26.859  1.00  0.00     0.016 A 
ATOM     40  C   UNL A   1      42.309  22.528  28.668  1.00  0.00     0.016 A 
ATOM     41  C   UNL A   1      40.767  24.368  27.191  1.00  0.00     0.010 A 
ATOM     42  C   UNL A   1      42.366  23.884  28.966  1.00  0.00     0.010 A 
ATOM     43  C   UNL A   1      41.624  24.807  28.204  1.00  0.00    -0.014 A 
BRANCH  43  44
ATOM     44  C   UNL A   1      42.018  26.228  28.253  1.00  0.00     0.031 A 
ATOM     45  C   UNL A   1      43.299  26.596  27.563  1.00  0.00     0.074 A 
ATOM     46  C   UNL A   1      41.293  27.138  28.921  1.00  0.00     0.049 A 
ATOM     47  N   UNL A   1      43.961  27.720  27.581  1.00  0.00    -0.248 NA
ATOM     48  C   UNL A   1      43.929  25.533  26.761  1.00  0.00     0.031 C 
ATOM     49  C   UNL A   1      40.008  26.887  29.567  1.00  0.00     0.029 A 
ATOM     50  N   UNL A   1      41.556  28.458  29.182  1.00  0.00    -0.354 N 
ATOM     51  C   UNL A   1      45.092  27.495  26.805  1.00  0.00     0.074 A 
ATOM     52  C   UNL A   1      45.044  26.120  26.366  1.00  0.00     0.031 C 
ATOM     53  C   UNL A   1      39.603  28.016  30.175  1.00  0.00     0.029 A 
ATOM     54  C   UNL A   1      40.626  29.049  30.003  1.00  0.00     0.049 A 
ATOM     55  H   UNL A   1      42.334  28.935  28.816  1.00  0.00     0.167 HD
ATOM     56  C   UNL A   1      46.083  28.364  26.493  1.00  0.00     0.034 A 
ATOM     57  C   UNL A   1      40.632  30.269  30.577  1.00  0.00     0.034 A 
ATOM     58  C   UNL A   1      46.122  29.716  26.987  1.00  0.00     0.049 A 
ATOM     59  C   UNL A   1      41.801  31.189  30.307  1.00  0.00     0.074 A 
ATOM     60  C   UNL A   1      47.070  30.692  26.748  1.00  0.00     0.029 A 
ATOM     61  N   UNL A   1      45.181  30.273  27.847  1.00  0.00    -0.354 N 
ATOM     62  N   UNL A   1      42.873  30.976  29.577  1.00  0.00    -0.248 NA
ATOM     63  C   UNL A   1      41.760  32.516  30.936  1.00  0.00     0.031 C 
ATOM     64  C   UNL A   1      46.757  31.801  27.538  1.00  0.00     0.029 A 
ATOM     65  C   UNL A   1      45.549  31.565  28.178  1.00  0.00     0.049 A 
ATOM     66  H   UNL A   1      44.372  29.815  28.171  1.00  0.00     0.167 HD
ATOM     67  C   UNL A   1      43.609  32.159  29.621  1.00  0.00     0.074 A 
ATOM     68  C   UNL A   1      42.860  33.078  30.454  1.00  0.00     0.031 C 
ATOM     69  C   UNL A   1      44.786  32.465  29.015  1.00  0.00     0.034 A 
BRANCH  56  70
ATOM     70  C   UNL A   1      47.222  27.838  25.655  1.00  0.00     0.023 A 
ATOM     71  C   UNL A   1      47.370  28.186  24.301  1.00  0.00     0.031 A 
ATOM     72  C   UNL A   1      48.134  26.917  26.199  1.00  0.00     0.131 A 
ATOM     73  C   UNL A   1      48.338  27.545  23.515  1.00  0.00     0.055 A 
ATOM     74  C   UNL A   1      49.162  26.360  25.436  1.00  0.00     0.041 A 
ATOM     75  F   UNL A   1      48.026  26.516  27.475  1.00  0.00    -0.206 F 
ATOM     76  C   UNL A   1      49.256  26.658  24.080  1.00  0.00     0.022 A 
BRANCH  73  77
ATOM     77  S   UNL A   1      48.254  27.739  21.713  1.00  0.00     0.124 S 
ATOM     78  O   UNL A   1      49.317  28.713  21.473  1.00  0.00    -0.237 OA
ATOM     79  O   UNL A   1      48.510  26.386  21.236  1.00  0.00    -0.237 OA
ATOM     80  O   UNL A   1      46.900  28.239  21.485  1.00  0.00    -0.744 OA
ENDBRANCH  73  77
ENDBRANCH  56  70
BRANCH  57  81
ATOM     81  C   UNL A   1      39.526  30.675  31.489  1.00  0.00     0.023 A 
ATOM     82  C   UNL A   1      38.401  31.363  31.008  1.00  0.00     0.031 A 
ATOM     83  C   UNL A   1      39.591  30.409  32.870  1.00  0.00     0.131 A 
ATOM     84  C   UNL A   1      37.408  31.796  31.902  1.00  0.00     0.055 A 
ATOM     85  C   UNL A   1      38.572  30.785  33.746  1.00  0.00     0.041 A 
ATOM     86  F   UNL A   1      40.649  29.763  33.388  1.00  0.00    -0.206 F 
ATOM     87  C   UNL A   1      37.476  31.493  33.264  1.00  0.00     0.022 A 
BRANCH  84  88
ATOM     88  S   UNL A   1      36.068  32.845  31.274  1.00  0.00     0.124 S 
ATOM     89  O   UNL A   1      35.155  31.854  30.717  1.00  0.00    -0.237 OA
ATOM     90  O   UNL A   1      35.619  33.523  32.485  1.00  0.00    -0.237 OA
ATOM     91  O   UNL A   1      36.736  33.700  30.294  1.00  0.00    -0.744 OA
ENDBRANCH  84  88
ENDBRANCH  57  81
BRANCH  69  92
ATOM     92  C   UNL A   1      45.302  33.877  29.159  1.00  0.00     0.023 A 
ATOM     93  C   UNL A   1      44.827  34.939  28.371  1.00  0.00     0.031 A 
ATOM     94  C   UNL A   1      46.274  34.164  30.138  1.00  0.00     0.131 A 
ATOM     95  C   UNL A   1      45.359  36.227  28.544  1.00  0.00     0.055 A 
ATOM     96  C   UNL A   1      46.741  35.459  30.356  1.00  0.00     0.041 A 
ATOM     97  F   UNL A   1      46.771  33.187  30.914  1.00  0.00    -0.206 F 
ATOM     98  C   UNL A   1      46.292  36.499  29.548  1.00  0.00     0.022 A 
BRANCH  95  99
ATOM     99  S   UNL A   1      44.893  37.529  27.370  1.00  0.00     0.124 S 
ATOM    100  O   UNL A   1      43.705  36.957  26.742  1.00  0.00    -0.237 OA
ATOM    101  O   UNL A   1      44.662  38.673  28.246  1.00  0.00    -0.237 OA
ATOM    102  O   UNL A   1      46.061  37.640  26.500  1.00  0.00    -0.744 OA
ENDBRANCH  95  99
ENDBRANCH  69  92
ENDBRANCH  43  44
ENDBRANCH  36  38
ENDBRANCH  35  36
ENDBRANCH  34  35
ENDBRANCH  33  34
ENDBRANCH  32  33
ENDBRANCH   1  32
TORSDOF 23
ENDMDL
