MODEL 1
REMARK VINA RESULT:      -9.6      0.000      0.000
REMARK SMILES CC(=O)N[C@@H](Cc1c(OCC(C)C)ccc2ccccc12)C(=O)OCCOCCOCCOC(=O)c1ccc(-c2c3nc(c(-c4cc(S(=O)(=O)[O-])ccc4F)c4ccc([nH]4)c(-c4cc(S(=O)(=O)[O-])ccc4F)c4nc(c(-c5cc(S(=O)(=O)[O-])ccc5F)c5ccc2[nH]5)C=C4)C=C3)cc1
REMARK SMILES IDX 28 1 27 2 26 3 25 4 24 5 22 6 23 7 5 8 4 9 1 10 2 11 3 12
REMARK SMILES IDX 6 14 7 15 8 16 21 17 14 18 16 19 20 20 15 21 17 22 19 23
REMARK SMILES IDX 18 24 9 25 10 26 11 27 12 28 13 29 29 30 30 31 31 32 32 33
REMARK SMILES IDX 33 34 34 35 35 36 36 37 37 38 98 39 38 40 97 41 39 42 40 43
REMARK SMILES IDX 41 44 91 45 42 46 96 47 90 48 92 49 43 50 95 51 89 52 88 53
REMARK SMILES IDX 44 55 76 56 56 57 75 58 57 59 60 60 74 61 93 62 58 63 59 64
REMARK SMILES IDX 73 66 94 67 61 68 45 69 46 70 54 71 47 72 53 73 55 74 52 75
REMARK SMILES IDX 48 76 49 77 50 78 51 79 77 80 78 81 86 82 79 83 85 84 87 85
REMARK SMILES IDX 84 86 80 87 81 88 82 89 83 90 62 91 63 92 71 93 64 94 70 95
REMARK SMILES IDX 72 96 69 97 65 98 66 99 67 100 68 101
REMARK H PARENT 4 13 92 54 60 65
REMARK Flexibility Score: inf
ROOT
ATOM      1  C   UNL A   1      33.867  21.285  25.635  1.00  0.00     0.188 C 
ENDROOT
BRANCH   1   2
ATOM      2  O   UNL A   1      32.981  22.124  24.907  1.00  0.00    -0.376 OA
BRANCH   2   3
ATOM      3  C   UNL A   1      32.773  21.804  23.544  1.00  0.00     0.202 C 
BRANCH   3   4
ATOM      4  C   UNL A   1      33.144  22.863  22.503  1.00  0.00     0.261 C 
BRANCH   4   5
ATOM      5  O   UNL A   1      32.397  24.105  22.525  1.00  0.00    -0.462 OA
BRANCH   5   6
ATOM      6  C   UNL A   1      33.109  25.240  22.790  1.00  0.00     0.329 C 
ATOM      7  O   UNL A   1      34.064  25.616  22.114  1.00  0.00    -0.250 OA
BRANCH   6   8
ATOM      8  C   UNL A   1      32.657  26.018  24.056  1.00  0.00     0.196 C 
BRANCH   8   9
ATOM      9  N   UNL A   1      32.496  25.291  25.325  1.00  0.00    -0.343 N 
ATOM     10  C   UNL A   1      30.120  25.847  25.749  1.00  0.00     0.114 C 
ATOM     11  C   UNL A   1      31.417  25.204  26.156  1.00  0.00     0.217 C 
ATOM     12  O   UNL A   1      31.518  24.575  27.208  1.00  0.00    -0.275 OA
ATOM     13  H   UNL A   1      33.290  24.789  25.621  1.00  0.00     0.164 HD
ENDBRANCH   8   9
BRANCH   8  14
ATOM     14  C   UNL A   1      33.565  27.262  24.254  1.00  0.00     0.077 C 
BRANCH  14  15
ATOM     15  C   UNL A   1      32.811  28.519  24.698  1.00  0.00     0.005 A 
ATOM     16  C   UNL A   1      33.318  29.259  25.789  1.00  0.00     0.123 A 
ATOM     17  C   UNL A   1      31.587  28.935  24.077  1.00  0.00    -0.011 A 
ATOM     18  C   UNL A   1      32.526  30.219  26.405  1.00  0.00     0.047 A 
ATOM     19  C   UNL A   1      30.889  30.037  24.634  1.00  0.00    -0.018 A 
ATOM     20  C   UNL A   1      31.021  28.355  22.915  1.00  0.00     0.009 A 
ATOM     21  C   UNL A   1      31.327  30.614  25.825  1.00  0.00     0.012 A 
ATOM     22  C   UNL A   1      29.756  30.570  24.000  1.00  0.00     0.009 A 
ATOM     23  C   UNL A   1      29.893  28.896  22.288  1.00  0.00     0.001 A 
ATOM     24  C   UNL A   1      29.274  30.019  22.817  1.00  0.00     0.001 A 
BRANCH  16  25
ATOM     25  O   UNL A   1      34.634  29.049  26.101  1.00  0.00    -0.493 OA
BRANCH  25  26
ATOM     26  C   UNL A   1      35.022  28.851  27.456  1.00  0.00     0.232 C 
BRANCH  26  27
ATOM     27  C   UNL A   1      36.089  29.814  27.989  1.00  0.00     0.020 C 
ATOM     28  C   UNL A   1      35.787  31.284  27.735  1.00  0.00     0.011 C 
ATOM     29  C   UNL A   1      36.253  29.566  29.492  1.00  0.00     0.011 C 
ENDBRANCH  26  27
ENDBRANCH  25  26
ENDBRANCH  16  25
ENDBRANCH  14  15
ENDBRANCH   8  14
ENDBRANCH   6   8
ENDBRANCH   5   6
ENDBRANCH   4   5
ENDBRANCH   3   4
ENDBRANCH   2   3
ENDBRANCH   1   2
BRANCH   1  30
ATOM     30  C   UNL A   1      35.374  21.620  25.642  1.00  0.00     0.188 C 
BRANCH  30  31
ATOM     31  O   UNL A   1      36.199  20.793  24.835  1.00  0.00    -0.376 OA
BRANCH  31  32
ATOM     32  C   UNL A   1      37.528  21.270  24.668  1.00  0.00     0.202 C 
BRANCH  32  33
ATOM     33  C   UNL A   1      38.517  20.728  25.711  1.00  0.00     0.261 C 
BRANCH  33  34
ATOM     34  O   UNL A   1      39.694  21.533  25.907  1.00  0.00    -0.460 OA
BRANCH  34  35
ATOM     35  C   UNL A   1      40.335  21.389  27.092  1.00  0.00     0.338 C 
ATOM     36  O   UNL A   1      40.619  20.334  27.631  1.00  0.00    -0.246 OA
BRANCH  35  37
ATOM     37  C   UNL A   1      40.868  22.716  27.492  1.00  0.00     0.060 A 
ATOM     38  C   UNL A   1      40.356  23.859  26.859  1.00  0.00     0.016 A 
ATOM     39  C   UNL A   1      41.805  22.847  28.523  1.00  0.00     0.016 A 
ATOM     40  C   UNL A   1      40.811  25.129  27.223  1.00  0.00     0.010 A 
ATOM     41  C   UNL A   1      42.287  24.118  28.864  1.00  0.00     0.010 A 
ATOM     42  C   UNL A   1      41.823  25.260  28.183  1.00  0.00    -0.014 A 
BRANCH  42  43
ATOM     43  C   UNL A   1      42.607  26.524  28.217  1.00  0.00     0.031 A 
ATOM     44  C   UNL A   1      42.019  27.671  29.001  1.00  0.00     0.074 A 
ATOM     45  C   UNL A   1      43.816  26.651  27.640  1.00  0.00     0.049 A 
ATOM     46  N   UNL A   1      42.490  28.871  29.214  1.00  0.00    -0.248 NA
ATOM     47  C   UNL A   1      40.711  27.418  29.629  1.00  0.00     0.031 C 
ATOM     48  C   UNL A   1      44.516  25.608  26.894  1.00  0.00     0.029 A 
ATOM     49  N   UNL A   1      44.673  27.725  27.600  1.00  0.00    -0.354 N 
ATOM     50  C   UNL A   1      41.541  29.512  30.005  1.00  0.00     0.074 A 
ATOM     51  C   UNL A   1      40.448  28.584  30.191  1.00  0.00     0.031 C 
ATOM     52  C   UNL A   1      45.695  26.096  26.466  1.00  0.00     0.029 A 
ATOM     53  C   UNL A   1      45.825  27.493  26.885  1.00  0.00     0.049 A 
ATOM     54  H   UNL A   1      44.480  28.583  28.043  1.00  0.00     0.167 HD
ATOM     55  C   UNL A   1      41.578  30.756  30.542  1.00  0.00     0.034 A 
ATOM     56  C   UNL A   1      46.853  28.318  26.591  1.00  0.00     0.034 A 
ATOM     57  C   UNL A   1      42.657  31.686  30.328  1.00  0.00     0.049 A 
ATOM     58  C   UNL A   1      46.834  29.734  27.127  1.00  0.00     0.074 A 
ATOM     59  C   UNL A   1      42.792  32.976  30.809  1.00  0.00     0.029 A 
ATOM     60  N   UNL A   1      43.784  31.430  29.557  1.00  0.00    -0.354 N 
ATOM     61  N   UNL A   1      45.934  30.327  27.881  1.00  0.00    -0.248 NA
ATOM     62  C   UNL A   1      47.981  30.586  26.784  1.00  0.00     0.031 C 
ATOM     63  C   UNL A   1      43.962  33.525  30.269  1.00  0.00     0.029 A 
ATOM     64  C   UNL A   1      44.604  32.548  29.524  1.00  0.00     0.049 A 
ATOM     65  H   UNL A   1      43.973  30.579  29.098  1.00  0.00     0.167 HD
ATOM     66  C   UNL A   1      46.429  31.608  28.129  1.00  0.00     0.074 A 
ATOM     67  C   UNL A   1      47.711  31.691  27.463  1.00  0.00     0.031 C 
ATOM     68  C   UNL A   1      45.878  32.623  28.846  1.00  0.00     0.034 A 
BRANCH  55  69
ATOM     69  C   UNL A   1      40.379  31.185  31.354  1.00  0.00     0.023 A 
ATOM     70  C   UNL A   1      40.384  31.144  32.760  1.00  0.00     0.031 A 
ATOM     71  C   UNL A   1      39.194  31.580  30.711  1.00  0.00     0.131 A 
ATOM     72  C   UNL A   1      39.204  31.411  33.471  1.00  0.00     0.055 A 
ATOM     73  C   UNL A   1      38.048  31.929  31.428  1.00  0.00     0.041 A 
ATOM     74  F   UNL A   1      39.120  31.610  29.371  1.00  0.00    -0.206 F 
ATOM     75  C   UNL A   1      38.043  31.829  32.816  1.00  0.00     0.022 A 
BRANCH  72  76
ATOM     76  S   UNL A   1      39.159  31.048  35.249  1.00  0.00     0.124 S 
ATOM     77  O   UNL A   1      37.734  31.179  35.540  1.00  0.00    -0.237 OA
ATOM     78  O   UNL A   1      39.704  29.696  35.308  1.00  0.00    -0.237 OA
ATOM     79  O   UNL A   1      40.004  32.088  35.832  1.00  0.00    -0.744 OA
ENDBRANCH  72  76
ENDBRANCH  55  69
BRANCH  56  80
ATOM     80  C   UNL A   1      47.978  27.861  25.722  1.00  0.00     0.023 A 
ATOM     81  C   UNL A   1      47.921  27.980  24.322  1.00  0.00     0.031 A 
ATOM     82  C   UNL A   1      49.099  27.219  26.279  1.00  0.00     0.131 A 
ATOM     83  C   UNL A   1      48.936  27.420  23.528  1.00  0.00     0.055 A 
ATOM     84  C   UNL A   1      50.131  26.711  25.487  1.00  0.00     0.041 A 
ATOM     85  F   UNL A   1      49.204  27.069  27.609  1.00  0.00    -0.206 F 
ATOM     86  C   UNL A   1      50.046  26.798  24.101  1.00  0.00     0.022 A 
BRANCH  83  87
ATOM     87  S   UNL A   1      48.739  27.435  21.722  1.00  0.00     0.124 S 
ATOM     88  O   UNL A   1      47.453  28.103  21.569  1.00  0.00    -0.237 OA
ATOM     89  O   UNL A   1      49.912  28.192  21.297  1.00  0.00    -0.237 OA
ATOM     90  O   UNL A   1      48.753  26.017  21.367  1.00  0.00    -0.744 OA
ENDBRANCH  83  87
ENDBRANCH  56  80
BRANCH  68  91
ATOM     91  C   UNL A   1      46.693  33.888  28.989  1.00  0.00     0.023 A 
ATOM     92  C   UNL A   1      46.588  34.950  28.073  1.00  0.00     0.031 A 
ATOM     93  C   UNL A   1      47.614  34.021  30.045  1.00  0.00     0.131 A 
ATOM     94  C   UNL A   1      47.444  36.057  28.181  1.00  0.00     0.055 A 
ATOM     95  C   UNL A   1      48.411  35.158  30.191  1.00  0.00     0.041 A 
ATOM     96  F   UNL A   1      47.759  33.042  30.953  1.00  0.00    -0.206 F 
ATOM     97  C   UNL A   1      48.342  36.175  29.244  1.00  0.00     0.022 A 
BRANCH  94  98
ATOM     98  S   UNL A   1      47.464  37.276  26.838  1.00  0.00     0.124 S 
ATOM     99  O   UNL A   1      46.440  36.754  25.938  1.00  0.00    -0.237 OA
ATOM    100  O   UNL A   1      47.130  38.514  27.536  1.00  0.00    -0.237 OA
ATOM    101  O   UNL A   1      48.833  37.203  26.328  1.00  0.00    -0.744 OA
ENDBRANCH  94  98
ENDBRANCH  68  91
ENDBRANCH  42  43
ENDBRANCH  35  37
ENDBRANCH  34  35
ENDBRANCH  33  34
ENDBRANCH  32  33
ENDBRANCH  31  32
ENDBRANCH  30  31
ENDBRANCH   1  30
TORSDOF 26
ENDMDL
MODEL 2
REMARK VINA RESULT:      -9.1      1.725      7.931
REMARK SMILES CC(=O)N[C@@H](Cc1c(OCC(C)C)ccc2ccccc12)C(=O)OCCOCCOCCOC(=O)c1ccc(-c2c3nc(c(-c4cc(S(=O)(=O)[O-])ccc4F)c4ccc([nH]4)c(-c4cc(S(=O)(=O)[O-])ccc4F)c4nc(c(-c5cc(S(=O)(=O)[O-])ccc5F)c5ccc2[nH]5)C=C4)C=C3)cc1
REMARK SMILES IDX 28 1 27 2 26 3 25 4 24 5 22 6 23 7 5 8 4 9 1 10 2 11 3 12
REMARK SMILES IDX 6 14 7 15 8 16 21 17 14 18 16 19 20 20 15 21 17 22 19 23
REMARK SMILES IDX 18 24 9 25 10 26 11 27 12 28 13 29 29 30 30 31 31 32 32 33
REMARK SMILES IDX 33 34 34 35 35 36 36 37 37 38 98 39 38 40 97 41 39 42 40 43
REMARK SMILES IDX 41 44 91 45 42 46 96 47 90 48 92 49 43 50 95 51 89 52 88 53
REMARK SMILES IDX 44 55 76 56 56 57 75 58 57 59 60 60 74 61 93 62 58 63 59 64
REMARK SMILES IDX 73 66 94 67 61 68 45 69 46 70 54 71 47 72 53 73 55 74 52 75
REMARK SMILES IDX 48 76 49 77 50 78 51 79 77 80 78 81 86 82 79 83 85 84 87 85
REMARK SMILES IDX 84 86 80 87 81 88 82 89 83 90 62 91 63 92 71 93 64 94 70 95
REMARK SMILES IDX 72 96 69 97 65 98 66 99 67 100 68 101
REMARK H PARENT 4 13 92 54 60 65
REMARK Flexibility Score: inf
ROOT
ATOM      1  C   UNL A   1      33.302  20.941  24.525  1.00  0.00     0.188 C 
ENDROOT
BRANCH   1   2
ATOM      2  O   UNL A   1      32.622  20.696  23.303  1.00  0.00    -0.376 OA
BRANCH   2   3
ATOM      3  C   UNL A   1      32.139  21.827  22.602  1.00  0.00     0.202 C 
BRANCH   3   4
ATOM      4  C   UNL A   1      32.704  23.196  22.989  1.00  0.00     0.261 C 
BRANCH   4   5
ATOM      5  O   UNL A   1      31.906  24.360  22.658  1.00  0.00    -0.462 OA
BRANCH   5   6
ATOM      6  C   UNL A   1      32.550  25.565  22.677  1.00  0.00     0.329 C 
ATOM      7  O   UNL A   1      33.593  25.788  22.068  1.00  0.00    -0.250 OA
BRANCH   6   8
ATOM      8  C   UNL A   1      31.891  26.647  23.576  1.00  0.00     0.196 C 
BRANCH   8   9
ATOM      9  N   UNL A   1      31.559  26.316  24.971  1.00  0.00    -0.343 N 
ATOM     10  C   UNL A   1      29.137  25.897  24.665  1.00  0.00     0.114 C 
ATOM     11  C   UNL A   1      30.354  26.017  25.539  1.00  0.00     0.217 C 
ATOM     12  O   UNL A   1      30.295  25.820  26.751  1.00  0.00    -0.275 OA
ATOM     13  H   UNL A   1      32.324  26.310  25.590  1.00  0.00     0.164 HD
ENDBRANCH   8   9
BRANCH   8  14
ATOM     14  C   UNL A   1      32.724  27.956  23.512  1.00  0.00     0.077 C 
BRANCH  14  15
ATOM     15  C   UNL A   1      32.346  28.988  24.578  1.00  0.00     0.005 A 
ATOM     16  C   UNL A   1      31.105  29.652  24.462  1.00  0.00     0.123 A 
ATOM     17  C   UNL A   1      33.230  29.337  25.652  1.00  0.00    -0.011 A 
ATOM     18  C   UNL A   1      30.850  30.786  25.223  1.00  0.00     0.047 A 
ATOM     19  C   UNL A   1      32.854  30.394  26.519  1.00  0.00    -0.018 A 
ATOM     20  C   UNL A   1      34.452  28.683  25.950  1.00  0.00     0.009 A 
ATOM     21  C   UNL A   1      31.712  31.147  26.251  1.00  0.00     0.012 A 
ATOM     22  C   UNL A   1      33.614  30.698  27.660  1.00  0.00     0.009 A 
ATOM     23  C   UNL A   1      35.200  28.992  27.092  1.00  0.00     0.001 A 
ATOM     24  C   UNL A   1      34.768  29.982  27.961  1.00  0.00     0.001 A 
BRANCH  16  25
ATOM     25  O   UNL A   1      30.168  29.047  23.668  1.00  0.00    -0.493 OA
BRANCH  25  26
ATOM     26  C   UNL A   1      29.591  29.760  22.580  1.00  0.00     0.232 C 
BRANCH  26  27
ATOM     27  C   UNL A   1      28.068  29.927  22.630  1.00  0.00     0.020 C 
ATOM     28  C   UNL A   1      27.321  28.703  23.142  1.00  0.00     0.011 C 
ATOM     29  C   UNL A   1      27.745  31.141  23.508  1.00  0.00     0.011 C 
ENDBRANCH  26  27
ENDBRANCH  25  26
ENDBRANCH  16  25
ENDBRANCH  14  15
ENDBRANCH   8  14
ENDBRANCH   6   8
ENDBRANCH   5   6
ENDBRANCH   4   5
ENDBRANCH   3   4
ENDBRANCH   2   3
ENDBRANCH   1   2
BRANCH   1  30
ATOM     30  C   UNL A   1      34.424  19.974  24.962  1.00  0.00     0.188 C 
BRANCH  30  31
ATOM     31  O   UNL A   1      35.750  20.381  24.657  1.00  0.00    -0.376 OA
BRANCH  31  32
ATOM     32  C   UNL A   1      36.379  21.145  25.679  1.00  0.00     0.202 C 
BRANCH  32  33
ATOM     33  C   UNL A   1      37.843  21.499  25.375  1.00  0.00     0.261 C 
BRANCH  33  34
ATOM     34  O   UNL A   1      38.426  22.476  26.257  1.00  0.00    -0.460 OA
BRANCH  34  35
ATOM     35  C   UNL A   1      37.819  23.686  26.306  1.00  0.00     0.338 C 
ATOM     36  O   UNL A   1      36.624  23.894  26.193  1.00  0.00    -0.246 OA
BRANCH  35  37
ATOM     37  C   UNL A   1      38.812  24.682  26.783  1.00  0.00     0.060 A 
ATOM     38  C   UNL A   1      38.826  25.008  28.149  1.00  0.00     0.016 A 
ATOM     39  C   UNL A   1      39.763  25.237  25.921  1.00  0.00     0.016 A 
ATOM     40  C   UNL A   1      39.760  25.920  28.645  1.00  0.00     0.010 A 
ATOM     41  C   UNL A   1      40.678  26.178  26.412  1.00  0.00     0.010 A 
ATOM     42  C   UNL A   1      40.650  26.556  27.768  1.00  0.00    -0.014 A 
BRANCH  42  43
ATOM     43  C   UNL A   1      41.290  27.826  28.207  1.00  0.00     0.031 A 
ATOM     44  C   UNL A   1      42.763  27.981  27.922  1.00  0.00     0.074 A 
ATOM     45  C   UNL A   1      40.603  28.833  28.777  1.00  0.00     0.049 A 
ATOM     46  N   UNL A   1      43.566  28.981  28.174  1.00  0.00    -0.248 NA
ATOM     47  C   UNL A   1      43.415  26.839  27.259  1.00  0.00     0.031 C 
ATOM     48  C   UNL A   1      39.170  28.829  29.064  1.00  0.00     0.029 A 
ATOM     49  N   UNL A   1      41.029  30.065  29.211  1.00  0.00    -0.354 N 
ATOM     50  C   UNL A   1      44.812  28.592  27.695  1.00  0.00     0.074 A 
ATOM     51  C   UNL A   1      44.669  27.247  27.183  1.00  0.00     0.031 C 
ATOM     52  C   UNL A   1      38.837  30.003  29.633  1.00  0.00     0.029 A 
ATOM     53  C   UNL A   1      40.035  30.833  29.772  1.00  0.00     0.049 A 
ATOM     54  H   UNL A   1      41.961  30.371  29.127  1.00  0.00     0.167 HD
ATOM     55  C   UNL A   1      45.973  29.291  27.668  1.00  0.00     0.034 A 
ATOM     56  C   UNL A   1      40.093  32.054  30.345  1.00  0.00     0.034 A 
ATOM     57  C   UNL A   1      46.116  30.620  28.206  1.00  0.00     0.049 A 
ATOM     58  C   UNL A   1      41.419  32.785  30.385  1.00  0.00     0.074 A 
ATOM     59  C   UNL A   1      47.247  31.416  28.248  1.00  0.00     0.029 A 
ATOM     60  N   UNL A   1      45.097  31.345  28.811  1.00  0.00    -0.354 N 
ATOM     61  N   UNL A   1      42.590  32.410  29.922  1.00  0.00    -0.248 NA
ATOM     62  C   UNL A   1      41.422  34.113  31.013  1.00  0.00     0.031 C 
ATOM     63  C   UNL A   1      46.930  32.590  28.943  1.00  0.00     0.029 A 
ATOM     64  C   UNL A   1      45.580  32.567  29.255  1.00  0.00     0.049 A 
ATOM     65  H   UNL A   1      44.167  31.036  28.911  1.00  0.00     0.167 HD
ATOM     66  C   UNL A   1      43.458  33.474  30.171  1.00  0.00     0.074 A 
ATOM     67  C   UNL A   1      42.669  34.508  30.805  1.00  0.00     0.031 C 
ATOM     68  C   UNL A   1      44.785  33.589  29.897  1.00  0.00     0.034 A 
BRANCH  55  69
ATOM     69  C   UNL A   1      47.181  28.591  27.092  1.00  0.00     0.023 A 
ATOM     70  C   UNL A   1      47.373  28.467  25.704  1.00  0.00     0.031 A 
ATOM     71  C   UNL A   1      48.119  27.983  27.944  1.00  0.00     0.131 A 
ATOM     72  C   UNL A   1      48.428  27.684  25.211  1.00  0.00     0.055 A 
ATOM     73  C   UNL A   1      49.216  27.278  27.446  1.00  0.00     0.041 A 
ATOM     74  F   UNL A   1      47.972  28.042  29.276  1.00  0.00    -0.206 F 
ATOM     75  C   UNL A   1      49.367  27.111  26.073  1.00  0.00     0.022 A 
BRANCH  72  76
ATOM     76  S   UNL A   1      48.465  27.289  23.440  1.00  0.00     0.124 S 
ATOM     77  O   UNL A   1      49.766  27.824  23.047  1.00  0.00    -0.237 OA
ATOM     78  O   UNL A   1      48.343  25.836  23.439  1.00  0.00    -0.237 OA
ATOM     79  O   UNL A   1      47.315  28.013  22.904  1.00  0.00    -0.744 OA
ENDBRANCH  72  76
ENDBRANCH  55  69
BRANCH  56  80
ATOM     80  C   UNL A   1      38.881  32.669  30.965  1.00  0.00     0.023 A 
ATOM     81  C   UNL A   1      38.689  32.674  32.358  1.00  0.00     0.031 A 
ATOM     82  C   UNL A   1      37.850  33.188  30.160  1.00  0.00     0.131 A 
ATOM     83  C   UNL A   1      37.478  33.138  32.898  1.00  0.00     0.055 A 
ATOM     84  C   UNL A   1      36.670  33.698  30.706  1.00  0.00     0.041 A 
ATOM     85  F   UNL A   1      37.973  33.201  28.824  1.00  0.00    -0.206 F 
ATOM     86  C   UNL A   1      36.474  33.662  32.083  1.00  0.00     0.022 A 
BRANCH  83  87
ATOM     87  S   UNL A   1      37.196  32.963  34.684  1.00  0.00     0.124 S 
ATOM     88  O   UNL A   1      37.378  31.530  34.874  1.00  0.00    -0.237 OA
ATOM     89  O   UNL A   1      38.236  33.823  35.239  1.00  0.00    -0.237 OA
ATOM     90  O   UNL A   1      35.829  33.449  34.861  1.00  0.00    -0.744 OA
ENDBRANCH  83  87
ENDBRANCH  56  80
BRANCH  68  91
ATOM     91  C   UNL A   1      45.447  34.905  30.235  1.00  0.00     0.023 A 
ATOM     92  C   UNL A   1      45.513  35.966  29.314  1.00  0.00     0.031 A 
ATOM     93  C   UNL A   1      46.052  35.090  31.493  1.00  0.00     0.131 A 
ATOM     94  C   UNL A   1      46.235  37.126  29.630  1.00  0.00     0.055 A 
ATOM     95  C   UNL A   1      46.706  36.276  31.830  1.00  0.00     0.041 A 
ATOM     96  F   UNL A   1      46.023  34.115  32.416  1.00  0.00    -0.206 F 
ATOM     97  C   UNL A   1      46.817  37.295  30.889  1.00  0.00     0.022 A 
BRANCH  94  98
ATOM     98  S   UNL A   1      46.520  38.356  28.328  1.00  0.00     0.124 S 
ATOM     99  O   UNL A   1      47.960  38.245  28.115  1.00  0.00    -0.237 OA
ATOM    100  O   UNL A   1      45.676  37.865  27.245  1.00  0.00    -0.237 OA
ATOM    101  O   UNL A   1      46.080  39.610  28.938  1.00  0.00    -0.744 OA
ENDBRANCH  94  98
ENDBRANCH  68  91
ENDBRANCH  42  43
ENDBRANCH  35  37
ENDBRANCH  34  35
ENDBRANCH  33  34
ENDBRANCH  32  33
ENDBRANCH  31  32
ENDBRANCH  30  31
ENDBRANCH   1  30
TORSDOF 26
ENDMDL
MODEL 3
REMARK VINA RESULT:      -8.9      2.590      3.136
REMARK SMILES CC(=O)N[C@@H](Cc1c(OCC(C)C)ccc2ccccc12)C(=O)OCCOCCOCCOC(=O)c1ccc(-c2c3nc(c(-c4cc(S(=O)(=O)[O-])ccc4F)c4ccc([nH]4)c(-c4cc(S(=O)(=O)[O-])ccc4F)c4nc(c(-c5cc(S(=O)(=O)[O-])ccc5F)c5ccc2[nH]5)C=C4)C=C3)cc1
REMARK SMILES IDX 28 1 27 2 26 3 25 4 24 5 22 6 23 7 5 8 4 9 1 10 2 11 3 12
REMARK SMILES IDX 6 14 7 15 8 16 21 17 14 18 16 19 20 20 15 21 17 22 19 23
REMARK SMILES IDX 18 24 9 25 10 26 11 27 12 28 13 29 29 30 30 31 31 32 32 33
REMARK SMILES IDX 33 34 34 35 35 36 36 37 37 38 98 39 38 40 97 41 39 42 40 43
REMARK SMILES IDX 41 44 91 45 42 46 96 47 90 48 92 49 43 50 95 51 89 52 88 53
REMARK SMILES IDX 44 55 76 56 56 57 75 58 57 59 60 60 74 61 93 62 58 63 59 64
REMARK SMILES IDX 73 66 94 67 61 68 45 69 46 70 54 71 47 72 53 73 55 74 52 75
REMARK SMILES IDX 48 76 49 77 50 78 51 79 77 80 78 81 86 82 79 83 85 84 87 85
REMARK SMILES IDX 84 86 80 87 81 88 82 89 83 90 62 91 63 92 71 93 64 94 70 95
REMARK SMILES IDX 72 96 69 97 65 98 66 99 67 100 68 101
REMARK H PARENT 4 13 92 54 60 65
REMARK Flexibility Score: inf
ROOT
ATOM      1  C   UNL A   1      33.836  21.348  25.678  1.00  0.00     0.188 C 
ENDROOT
BRANCH   1   2
ATOM      2  O   UNL A   1      33.251  22.435  24.976  1.00  0.00    -0.376 OA
BRANCH   2   3
ATOM      3  C   UNL A   1      33.262  22.362  23.562  1.00  0.00     0.202 C 
BRANCH   3   4
ATOM      4  C   UNL A   1      34.338  23.158  22.819  1.00  0.00     0.261 C 
BRANCH   4   5
ATOM      5  O   UNL A   1      34.422  24.578  23.096  1.00  0.00    -0.462 OA
BRANCH   5   6
ATOM      6  C   UNL A   1      33.271  25.298  22.945  1.00  0.00     0.329 C 
ATOM      7  O   UNL A   1      32.679  25.417  21.875  1.00  0.00    -0.250 OA
BRANCH   6   8
ATOM      8  C   UNL A   1      32.771  26.012  24.231  1.00  0.00     0.196 C 
BRANCH   8   9
ATOM      9  N   UNL A   1      32.515  25.215  25.441  1.00  0.00    -0.343 N 
ATOM     10  C   UNL A   1      30.151  25.866  25.797  1.00  0.00     0.114 C 
ATOM     11  C   UNL A   1      31.394  25.132  26.217  1.00  0.00     0.217 C 
ATOM     12  O   UNL A   1      31.415  24.432  27.228  1.00  0.00    -0.275 OA
ATOM     13  H   UNL A   1      33.268  24.654  25.737  1.00  0.00     0.164 HD
ENDBRANCH   8   9
BRANCH   8  14
ATOM     14  C   UNL A   1      33.703  27.210  24.557  1.00  0.00     0.077 C 
BRANCH  14  15
ATOM     15  C   UNL A   1      32.963  28.468  25.021  1.00  0.00     0.005 A 
ATOM     16  C   UNL A   1      33.412  29.120  26.192  1.00  0.00     0.123 A 
ATOM     17  C   UNL A   1      31.805  28.969  24.339  1.00  0.00    -0.011 A 
ATOM     18  C   UNL A   1      32.610  30.074  26.806  1.00  0.00     0.047 A 
ATOM     19  C   UNL A   1      31.106  30.063  24.911  1.00  0.00    -0.018 A 
ATOM     20  C   UNL A   1      31.310  28.482  23.104  1.00  0.00     0.009 A 
ATOM     21  C   UNL A   1      31.473  30.550  26.165  1.00  0.00     0.012 A 
ATOM     22  C   UNL A   1      30.045  30.678  24.229  1.00  0.00     0.009 A 
ATOM     23  C   UNL A   1      30.252  29.105  22.432  1.00  0.00     0.001 A 
ATOM     24  C   UNL A   1      29.636  30.218  22.982  1.00  0.00     0.001 A 
BRANCH  16  25
ATOM     25  O   UNL A   1      34.692  28.839  26.586  1.00  0.00    -0.493 OA
BRANCH  25  26
ATOM     26  C   UNL A   1      35.450  29.817  27.289  1.00  0.00     0.232 C 
BRANCH  26  27
ATOM     27  C   UNL A   1      36.587  29.273  28.162  1.00  0.00     0.020 C 
ATOM     28  C   UNL A   1      37.979  29.690  27.707  1.00  0.00     0.011 C 
ATOM     29  C   UNL A   1      36.349  29.735  29.604  1.00  0.00     0.011 C 
ENDBRANCH  26  27
ENDBRANCH  25  26
ENDBRANCH  16  25
ENDBRANCH  14  15
ENDBRANCH   8  14
ENDBRANCH   6   8
ENDBRANCH   5   6
ENDBRANCH   4   5
ENDBRANCH   3   4
ENDBRANCH   2   3
ENDBRANCH   1   2
BRANCH   1  30
ATOM     30  C   UNL A   1      35.313  21.452  26.116  1.00  0.00     0.188 C 
BRANCH  30  31
ATOM     31  O   UNL A   1      36.274  21.424  25.071  1.00  0.00    -0.376 OA
BRANCH  31  32
ATOM     32  C   UNL A   1      37.482  22.117  25.364  1.00  0.00     0.202 C 
BRANCH  32  33
ATOM     33  C   UNL A   1      38.648  21.194  25.750  1.00  0.00     0.261 C 
BRANCH  33  34
ATOM     34  O   UNL A   1      39.585  21.760  26.686  1.00  0.00    -0.460 OA
BRANCH  34  35
ATOM     35  C   UNL A   1      40.760  21.104  26.837  1.00  0.00     0.338 C 
ATOM     36  O   UNL A   1      40.923  19.899  26.768  1.00  0.00    -0.246 OA
BRANCH  35  37
ATOM     37  C   UNL A   1      41.853  22.109  26.834  1.00  0.00     0.060 A 
ATOM     38  C   UNL A   1      42.668  22.212  27.972  1.00  0.00     0.016 A 
ATOM     39  C   UNL A   1      42.123  22.893  25.707  1.00  0.00     0.016 A 
ATOM     40  C   UNL A   1      43.724  23.126  28.002  1.00  0.00     0.010 A 
ATOM     41  C   UNL A   1      43.160  23.834  25.750  1.00  0.00     0.010 A 
ATOM     42  C   UNL A   1      43.936  23.985  26.915  1.00  0.00    -0.014 A 
BRANCH  42  43
ATOM     43  C   UNL A   1      44.723  25.228  27.138  1.00  0.00     0.031 A 
ATOM     44  C   UNL A   1      44.101  26.279  28.024  1.00  0.00     0.074 A 
ATOM     45  C   UNL A   1      45.959  25.411  26.638  1.00  0.00     0.049 A 
ATOM     46  N   UNL A   1      44.566  27.440  28.402  1.00  0.00    -0.248 NA
ATOM     47  C   UNL A   1      42.763  25.965  28.554  1.00  0.00     0.031 C 
ATOM     48  C   UNL A   1      46.690  24.458  25.807  1.00  0.00     0.029 A 
ATOM     49  N   UNL A   1      46.821  26.473  26.769  1.00  0.00    -0.354 N 
ATOM     50  C   UNL A   1      43.583  27.990  29.218  1.00  0.00     0.074 A 
ATOM     51  C   UNL A   1      42.478  27.058  29.238  1.00  0.00     0.031 C 
ATOM     52  C   UNL A   1      47.891  24.982  25.498  1.00  0.00     0.029 A 
ATOM     53  C   UNL A   1      48.006  26.317  26.088  1.00  0.00     0.049 A 
ATOM     54  H   UNL A   1      46.610  27.274  27.303  1.00  0.00     0.167 HD
ATOM     55  C   UNL A   1      43.598  29.161  29.902  1.00  0.00     0.034 A 
ATOM     56  C   UNL A   1      49.050  27.161  25.945  1.00  0.00     0.034 A 
ATOM     57  C   UNL A   1      44.690  30.099  29.853  1.00  0.00     0.049 A 
ATOM     58  C   UNL A   1      49.011  28.503  26.646  1.00  0.00     0.074 A 
ATOM     59  C   UNL A   1      44.806  31.321  30.491  1.00  0.00     0.029 A 
ATOM     60  N   UNL A   1      45.852  29.926  29.112  1.00  0.00    -0.354 N 
ATOM     61  N   UNL A   1      48.078  29.010  27.421  1.00  0.00    -0.248 NA
ATOM     62  C   UNL A   1      50.176  29.378  26.463  1.00  0.00     0.031 C 
ATOM     63  C   UNL A   1      46.003  31.919  30.079  1.00  0.00     0.029 A 
ATOM     64  C   UNL A   1      46.677  31.032  29.254  1.00  0.00     0.049 A 
ATOM     65  H   UNL A   1      46.060  29.134  28.564  1.00  0.00     0.167 HD
ATOM     66  C   UNL A   1      48.565  30.247  27.845  1.00  0.00     0.074 A 
ATOM     67  C   UNL A   1      49.879  30.397  27.256  1.00  0.00     0.031 C 
ATOM     68  C   UNL A   1      47.984  31.174  28.652  1.00  0.00     0.034 A 
BRANCH  55  69
ATOM     69  C   UNL A   1      42.362  29.502  30.700  1.00  0.00     0.023 A 
ATOM     70  C   UNL A   1      42.319  29.351  32.099  1.00  0.00     0.031 A 
ATOM     71  C   UNL A   1      41.191  29.923  30.047  1.00  0.00     0.131 A 
ATOM     72  C   UNL A   1      41.110  29.538  32.785  1.00  0.00     0.055 A 
ATOM     73  C   UNL A   1      40.014  30.192  30.748  1.00  0.00     0.041 A 
ATOM     74  F   UNL A   1      41.163  30.056  28.712  1.00  0.00    -0.206 F 
ATOM     75  C   UNL A   1      39.963  29.983  32.122  1.00  0.00     0.022 A 
BRANCH  72  76
ATOM     76  S   UNL A   1      41.012  29.036  34.526  1.00  0.00     0.124 S 
ATOM     77  O   UNL A   1      40.971  27.580  34.410  1.00  0.00    -0.237 OA
ATOM     78  O   UNL A   1      42.235  29.599  35.086  1.00  0.00    -0.237 OA
ATOM     79  O   UNL A   1      39.771  29.651  34.991  1.00  0.00    -0.744 OA
ENDBRANCH  72  76
ENDBRANCH  55  69
BRANCH  56  80
ATOM     80  C   UNL A   1      50.215  26.801  25.083  1.00  0.00     0.023 A 
ATOM     81  C   UNL A   1      51.301  26.063  25.586  1.00  0.00     0.031 A 
ATOM     82  C   UNL A   1      50.296  27.266  23.758  1.00  0.00     0.131 A 
ATOM     83  C   UNL A   1      52.439  25.857  24.788  1.00  0.00     0.055 A 
ATOM     84  C   UNL A   1      51.408  27.012  22.951  1.00  0.00     0.041 A 
ATOM     85  F   UNL A   1      49.293  27.983  23.227  1.00  0.00    -0.206 F 
ATOM     86  C   UNL A   1      52.494  26.315  23.471  1.00  0.00     0.022 A 
BRANCH  83  87
ATOM     87  S   UNL A   1      53.892  25.057  25.529  1.00  0.00     0.124 S 
ATOM     88  O   UNL A   1      53.875  25.604  26.880  1.00  0.00    -0.237 OA
ATOM     89  O   UNL A   1      53.554  23.643  25.403  1.00  0.00    -0.237 OA
ATOM     90  O   UNL A   1      54.996  25.509  24.685  1.00  0.00    -0.744 OA
ENDBRANCH  83  87
ENDBRANCH  56  80
BRANCH  68  91
ATOM     91  C   UNL A   1      48.795  32.406  28.985  1.00  0.00     0.023 A 
ATOM     92  C   UNL A   1      49.624  32.468  30.120  1.00  0.00     0.031 A 
ATOM     93  C   UNL A   1      48.713  33.549  28.168  1.00  0.00     0.131 A 
ATOM     94  C   UNL A   1      50.270  33.669  30.450  1.00  0.00     0.055 A 
ATOM     95  C   UNL A   1      49.417  34.718  28.462  1.00  0.00     0.041 A 
ATOM     96  F   UNL A   1      47.939  33.552  27.071  1.00  0.00    -0.206 F 
ATOM     97  C   UNL A   1      50.186  34.788  29.619  1.00  0.00     0.022 A 
BRANCH  94  98
ATOM     98  S   UNL A   1      51.113  33.791  32.052  1.00  0.00     0.124 S 
ATOM     99  O   UNL A   1      52.439  34.261  31.662  1.00  0.00    -0.237 OA
ATOM    100  O   UNL A   1      50.281  34.753  32.769  1.00  0.00    -0.237 OA
ATOM    101  O   UNL A   1      51.067  32.425  32.570  1.00  0.00    -0.744 OA
ENDBRANCH  94  98
ENDBRANCH  68  91
ENDBRANCH  42  43
ENDBRANCH  35  37
ENDBRANCH  34  35
ENDBRANCH  33  34
ENDBRANCH  32  33
ENDBRANCH  31  32
ENDBRANCH  30  31
ENDBRANCH   1  30
TORSDOF 26
ENDMDL
