MODEL 1
REMARK VINA RESULT:     -10.5      0.000      0.000
REMARK SMILES C[C@@H]1[C@H](C(=O)OCCOCCOCCOC(=O)c2ccc(-c3c4nc(c(-c5cc(S(=O)(=O)[O-])ccc5F)c5ccc([nH]5)c(-c5cc(S(=O)(=O)[O-])ccc5F)c5nc(c(-c6cc(S(=O)(=O)[O-])ccc6F)c6ccc3[nH]6)C=C5)C=C4)cc2)CCN1S(=O)(=O)c1cc(F)cc(F)c1
REMARK SMILES IDX 11 1 10 2 9 3 8 4 7 5 6 6 4 7 5 8 3 9 1 10 2 11 83 12 81 13
REMARK SMILES IDX 82 14 84 15 85 16 86 17 87 18 88 19 94 20 89 21 92 22 90 23
REMARK SMILES IDX 91 24 93 25 12 26 13 27 14 28 15 29 16 30 17 31 18 32 19 33
REMARK SMILES IDX 80 34 20 35 79 36 21 37 22 38 23 39 73 40 24 41 78 42 72 43
REMARK SMILES IDX 74 44 25 45 77 46 71 47 70 48 26 50 58 51 38 52 57 53 39 54
REMARK SMILES IDX 42 55 56 56 75 57 40 58 41 59 55 61 76 62 43 63 27 64 28 65
REMARK SMILES IDX 36 66 29 67 35 68 37 69 34 70 30 71 31 72 32 73 33 74 59 75
REMARK SMILES IDX 60 76 68 77 61 78 67 79 69 80 66 81 62 82 63 83 64 84 65 85
REMARK SMILES IDX 44 86 45 87 53 88 46 89 52 90 54 91 51 92 47 93 48 94 49 95
REMARK SMILES IDX 50 96
REMARK H PARENT 74 49 42 60
REMARK Flexibility Score: inf
ROOT
ATOM      1  C   UNL A   1      35.466  20.183  24.983  1.00  0.00     0.188 C 
ENDROOT
BRANCH   1   2
ATOM      2  C   UNL A   1      35.542  21.490  25.784  1.00  0.00     0.188 C 
BRANCH   2   3
ATOM      3  O   UNL A   1      35.491  22.702  25.035  1.00  0.00    -0.376 OA
BRANCH   3   4
ATOM      4  C   UNL A   1      34.242  23.403  25.013  1.00  0.00     0.202 C 
BRANCH   4   5
ATOM      5  C   UNL A   1      33.042  22.674  25.630  1.00  0.00     0.261 C 
BRANCH   5   6
ATOM      6  O   UNL A   1      31.816  23.333  25.255  1.00  0.00    -0.463 OA
BRANCH   6   7
ATOM      7  C   UNL A   1      31.203  24.051  26.224  1.00  0.00     0.310 C 
ATOM      8  O   UNL A   1      31.284  23.802  27.420  1.00  0.00    -0.252 OA
BRANCH   7   9
ATOM      9  C   UNL A   1      30.520  25.280  25.659  1.00  0.00     0.118 C 
ATOM     10  C   UNL A   1      32.647  26.694  26.047  1.00  0.00     0.027 C 
ATOM     11  C   UNL A   1      31.126  26.667  25.963  1.00  0.00     0.084 C 
ATOM     12  N   UNL A   1      30.555  27.544  24.878  1.00  0.00    -0.194 NA
ATOM     13  C   UNL A   1      30.511  25.252  24.142  1.00  0.00     0.034 C 
ATOM     14  C   UNL A   1      30.085  26.657  23.767  1.00  0.00     0.104 C 
BRANCH  12  15
ATOM     15  S   UNL A   1      31.224  29.004  24.330  1.00  0.00     0.243 S 
ATOM     16  O   UNL A   1      31.600  29.807  25.473  1.00  0.00    -0.207 OA
ATOM     17  O   UNL A   1      32.228  28.636  23.348  1.00  0.00    -0.207 OA
BRANCH  15  18
ATOM     18  C   UNL A   1      30.003  29.923  23.425  1.00  0.00     0.088 A 
ATOM     19  C   UNL A   1      29.643  31.177  23.944  1.00  0.00     0.061 A 
ATOM     20  C   UNL A   1      29.366  29.444  22.284  1.00  0.00     0.061 A 
ATOM     21  C   UNL A   1      28.643  31.921  23.328  1.00  0.00     0.127 A 
ATOM     22  C   UNL A   1      28.367  30.212  21.688  1.00  0.00     0.127 A 
ATOM     23  F   UNL A   1      28.282  33.100  23.852  1.00  0.00    -0.207 F 
ATOM     24  C   UNL A   1      27.995  31.448  22.198  1.00  0.00     0.078 A 
ATOM     25  F   UNL A   1      27.727  29.728  20.616  1.00  0.00    -0.207 F 
ENDBRANCH  15  18
ENDBRANCH  12  15
ENDBRANCH   7   9
ENDBRANCH   6   7
ENDBRANCH   5   6
ENDBRANCH   4   5
ENDBRANCH   3   4
ENDBRANCH   2   3
ENDBRANCH   1   2
BRANCH   1  26
ATOM     26  O   UNL A   1      36.677  19.455  24.970  1.00  0.00    -0.376 OA
BRANCH  26  27
ATOM     27  C   UNL A   1      37.919  20.135  25.128  1.00  0.00     0.202 C 
BRANCH  27  28
ATOM     28  C   UNL A   1      39.213  19.355  25.444  1.00  0.00     0.261 C 
BRANCH  28  29
ATOM     29  O   UNL A   1      40.050  19.877  26.485  1.00  0.00    -0.460 OA
BRANCH  29  30
ATOM     30  C   UNL A   1      41.394  19.819  26.297  1.00  0.00     0.338 C 
ATOM     31  O   UNL A   1      42.020  18.895  25.817  1.00  0.00    -0.246 OA
BRANCH  30  32
ATOM     32  C   UNL A   1      41.910  21.198  26.500  1.00  0.00     0.060 A 
ATOM     33  C   UNL A   1      42.293  21.583  27.793  1.00  0.00     0.016 A 
ATOM     34  C   UNL A   1      42.131  22.056  25.417  1.00  0.00     0.016 A 
ATOM     35  C   UNL A   1      42.880  22.833  28.007  1.00  0.00     0.010 A 
ATOM     36  C   UNL A   1      42.702  23.312  25.635  1.00  0.00     0.010 A 
ATOM     37  C   UNL A   1      43.058  23.716  26.933  1.00  0.00    -0.014 A 
BRANCH  37  38
ATOM     38  C   UNL A   1      43.389  25.140  27.186  1.00  0.00     0.031 A 
ATOM     39  C   UNL A   1      44.802  25.581  26.920  1.00  0.00     0.074 A 
ATOM     40  C   UNL A   1      42.476  26.019  27.639  1.00  0.00     0.049 A 
ATOM     41  N   UNL A   1      45.370  26.739  27.131  1.00  0.00    -0.248 NA
ATOM     42  C   UNL A   1      45.696  24.567  26.336  1.00  0.00     0.031 C 
ATOM     43  C   UNL A   1      41.066  25.726  27.888  1.00  0.00     0.029 A 
ATOM     44  N   UNL A   1      42.609  27.343  27.978  1.00  0.00    -0.354 N 
ATOM     45  C   UNL A   1      46.685  26.595  26.702  1.00  0.00     0.074 A 
ATOM     46  C   UNL A   1      46.839  25.227  26.258  1.00  0.00     0.031 C 
ATOM     47  C   UNL A   1      40.466  26.837  28.353  1.00  0.00     0.029 A 
ATOM     48  C   UNL A   1      41.455  27.908  28.472  1.00  0.00     0.049 A 
ATOM     49  H   UNL A   1      43.451  27.843  27.878  1.00  0.00     0.167 HD
ATOM     50  C   UNL A   1      47.673  27.522  26.671  1.00  0.00     0.034 A 
ATOM     51  C   UNL A   1      41.237  29.138  28.985  1.00  0.00     0.034 A 
ATOM     52  C   UNL A   1      47.520  28.871  27.148  1.00  0.00     0.049 A 
ATOM     53  C   UNL A   1      42.387  30.119  29.051  1.00  0.00     0.074 A 
ATOM     54  C   UNL A   1      48.459  29.885  27.187  1.00  0.00     0.029 A 
ATOM     55  N   UNL A   1      46.351  29.392  27.689  1.00  0.00    -0.354 N 
ATOM     56  N   UNL A   1      43.628  29.971  28.647  1.00  0.00    -0.248 NA
ATOM     57  C   UNL A   1      42.104  31.435  29.642  1.00  0.00     0.031 C 
ATOM     58  C   UNL A   1      47.878  30.998  27.805  1.00  0.00     0.029 A 
ATOM     59  C   UNL A   1      46.553  30.703  28.086  1.00  0.00     0.049 A 
ATOM     60  H   UNL A   1      45.502  28.901  27.774  1.00  0.00     0.167 HD
ATOM     61  C   UNL A   1      44.260  31.187  28.903  1.00  0.00     0.074 A 
ATOM     62  C   UNL A   1      43.262  32.059  29.487  1.00  0.00     0.031 C 
ATOM     63  C   UNL A   1      45.546  31.557  28.669  1.00  0.00     0.034 A 
BRANCH  50  64
ATOM     64  C   UNL A   1      49.013  27.071  26.149  1.00  0.00     0.023 A 
ATOM     65  C   UNL A   1      49.494  27.494  24.898  1.00  0.00     0.031 A 
ATOM     66  C   UNL A   1      49.793  26.163  26.885  1.00  0.00     0.131 A 
ATOM     67  C   UNL A   1      50.684  26.956  24.389  1.00  0.00     0.055 A 
ATOM     68  C   UNL A   1      51.016  25.690  26.406  1.00  0.00     0.041 A 
ATOM     69  F   UNL A   1      49.368  25.702  28.072  1.00  0.00    -0.206 F 
ATOM     70  C   UNL A   1      51.462  26.075  25.145  1.00  0.00     0.022 A 
BRANCH  67  71
ATOM     71  S   UNL A   1      51.128  27.309  22.666  1.00  0.00     0.124 S 
ATOM     72  O   UNL A   1      51.251  28.765  22.686  1.00  0.00    -0.237 OA
ATOM     73  O   UNL A   1      52.371  26.566  22.501  1.00  0.00    -0.237 OA
ATOM     74  O   UNL A   1      49.989  26.798  21.907  1.00  0.00    -0.744 OA
ENDBRANCH  67  71
ENDBRANCH  50  64
BRANCH  51  75
ATOM     75  C   UNL A   1      39.899  29.516  29.530  1.00  0.00     0.023 A 
ATOM     76  C   UNL A   1      39.651  29.514  30.912  1.00  0.00     0.031 A 
ATOM     77  C   UNL A   1      38.824  29.799  28.670  1.00  0.00     0.131 A 
ATOM     78  C   UNL A   1      38.351  29.734  31.392  1.00  0.00     0.055 A 
ATOM     79  C   UNL A   1      37.542  30.070  29.154  1.00  0.00     0.041 A 
ATOM     80  F   UNL A   1      39.003  29.809  27.340  1.00  0.00    -0.206 F 
ATOM     81  C   UNL A   1      37.296  30.024  30.522  1.00  0.00     0.022 A 
BRANCH  78  82
ATOM     82  S   UNL A   1      38.032  29.536  33.168  1.00  0.00     0.124 S 
ATOM     83  O   UNL A   1      37.375  28.234  33.208  1.00  0.00    -0.237 OA
ATOM     84  O   UNL A   1      39.379  29.593  33.724  1.00  0.00    -0.237 OA
ATOM     85  O   UNL A   1      37.179  30.678  33.489  1.00  0.00    -0.744 OA
ENDBRANCH  78  82
ENDBRANCH  51  75
BRANCH  63  86
ATOM     86  C   UNL A   1      45.925  32.980  28.993  1.00  0.00     0.023 A 
ATOM     87  C   UNL A   1      45.777  34.021  28.060  1.00  0.00     0.031 A 
ATOM     88  C   UNL A   1      46.442  33.298  30.263  1.00  0.00     0.131 A 
ATOM     89  C   UNL A   1      46.187  35.321  28.393  1.00  0.00     0.055 A 
ATOM     90  C   UNL A   1      46.796  34.602  30.608  1.00  0.00     0.041 A 
ATOM     91  F   UNL A   1      46.603  32.342  31.193  1.00  0.00    -0.206 F 
ATOM     92  C   UNL A   1      46.681  35.621  29.666  1.00  0.00     0.022 A 
BRANCH  89  93
ATOM     93  S   UNL A   1      46.140  36.606  27.114  1.00  0.00     0.124 S 
ATOM     94  O   UNL A   1      46.624  35.885  25.941  1.00  0.00    -0.237 OA
ATOM     95  O   UNL A   1      44.729  36.977  27.097  1.00  0.00    -0.237 OA
ATOM     96  O   UNL A   1      47.044  37.634  27.626  1.00  0.00    -0.744 OA
ENDBRANCH  89  93
ENDBRANCH  63  86
ENDBRANCH  37  38
ENDBRANCH  30  32
ENDBRANCH  29  30
ENDBRANCH  28  29
ENDBRANCH  27  28
ENDBRANCH  26  27
ENDBRANCH   1  26
TORSDOF 22
ENDMDL
MODEL 2
REMARK VINA RESULT:     -10.4      2.463      2.857
REMARK SMILES C[C@@H]1[C@H](C(=O)OCCOCCOCCOC(=O)c2ccc(-c3c4nc(c(-c5cc(S(=O)(=O)[O-])ccc5F)c5ccc([nH]5)c(-c5cc(S(=O)(=O)[O-])ccc5F)c5nc(c(-c6cc(S(=O)(=O)[O-])ccc6F)c6ccc3[nH]6)C=C5)C=C4)cc2)CCN1S(=O)(=O)c1cc(F)cc(F)c1
REMARK SMILES IDX 11 1 10 2 9 3 8 4 7 5 6 6 4 7 5 8 3 9 1 10 2 11 83 12 81 13
REMARK SMILES IDX 82 14 84 15 85 16 86 17 87 18 88 19 94 20 89 21 92 22 90 23
REMARK SMILES IDX 91 24 93 25 12 26 13 27 14 28 15 29 16 30 17 31 18 32 19 33
REMARK SMILES IDX 80 34 20 35 79 36 21 37 22 38 23 39 73 40 24 41 78 42 72 43
REMARK SMILES IDX 74 44 25 45 77 46 71 47 70 48 26 50 58 51 38 52 57 53 39 54
REMARK SMILES IDX 42 55 56 56 75 57 40 58 41 59 55 61 76 62 43 63 27 64 28 65
REMARK SMILES IDX 36 66 29 67 35 68 37 69 34 70 30 71 31 72 32 73 33 74 59 75
REMARK SMILES IDX 60 76 68 77 61 78 67 79 69 80 66 81 62 82 63 83 64 84 65 85
REMARK SMILES IDX 44 86 45 87 53 88 46 89 52 90 54 91 51 92 47 93 48 94 49 95
REMARK SMILES IDX 50 96
REMARK H PARENT 74 49 42 60
REMARK Flexibility Score: inf
ROOT
ATOM      1  C   UNL A   1      35.609  20.459  25.049  1.00  0.00     0.188 C 
ENDROOT
BRANCH   1   2
ATOM      2  C   UNL A   1      35.764  21.466  26.197  1.00  0.00     0.188 C 
BRANCH   2   3
ATOM      3  O   UNL A   1      35.051  22.693  26.070  1.00  0.00    -0.376 OA
BRANCH   3   4
ATOM      4  C   UNL A   1      34.128  23.023  27.116  1.00  0.00     0.202 C 
BRANCH   4   5
ATOM      5  C   UNL A   1      32.911  22.101  27.263  1.00  0.00     0.261 C 
BRANCH   5   6
ATOM      6  O   UNL A   1      32.472  21.651  25.966  1.00  0.00    -0.463 OA
BRANCH   6   7
ATOM      7  C   UNL A   1      31.312  22.180  25.510  1.00  0.00     0.310 C 
ATOM      8  O   UNL A   1      30.258  22.165  26.132  1.00  0.00    -0.252 OA
BRANCH   7   9
ATOM      9  C   UNL A   1      31.513  22.917  24.201  1.00  0.00     0.118 C 
ATOM     10  C   UNL A   1      31.988  25.121  25.461  1.00  0.00     0.027 C 
ATOM     11  C   UNL A   1      31.443  24.458  24.202  1.00  0.00     0.084 C 
ATOM     12  N   UNL A   1      32.175  24.843  22.941  1.00  0.00    -0.194 NA
ATOM     13  C   UNL A   1      32.894  22.652  23.631  1.00  0.00     0.034 C 
ATOM     14  C   UNL A   1      33.021  23.680  22.525  1.00  0.00     0.104 C 
BRANCH  12  15
ATOM     15  S   UNL A   1      32.905  26.344  22.638  1.00  0.00     0.243 S 
ATOM     16  O   UNL A   1      34.035  26.505  23.526  1.00  0.00    -0.207 OA
ATOM     17  O   UNL A   1      33.105  26.405  21.202  1.00  0.00    -0.207 OA
BRANCH  15  18
ATOM     18  C   UNL A   1      31.762  27.654  23.004  1.00  0.00     0.088 A 
ATOM     19  C   UNL A   1      32.114  28.526  24.047  1.00  0.00     0.061 A 
ATOM     20  C   UNL A   1      30.542  27.816  22.355  1.00  0.00     0.061 A 
ATOM     21  C   UNL A   1      31.236  29.532  24.436  1.00  0.00     0.127 A 
ATOM     22  C   UNL A   1      29.681  28.834  22.767  1.00  0.00     0.127 A 
ATOM     23  F   UNL A   1      31.566  30.335  25.455  1.00  0.00    -0.207 F 
ATOM     24  C   UNL A   1      30.014  29.694  23.804  1.00  0.00     0.078 A 
ATOM     25  F   UNL A   1      28.490  28.959  22.169  1.00  0.00    -0.207 F 
ENDBRANCH  15  18
ENDBRANCH  12  15
ENDBRANCH   7   9
ENDBRANCH   6   7
ENDBRANCH   5   6
ENDBRANCH   4   5
ENDBRANCH   3   4
ENDBRANCH   2   3
ENDBRANCH   1   2
BRANCH   1  26
ATOM     26  O   UNL A   1      36.828  19.871  24.642  1.00  0.00    -0.376 OA
BRANCH  26  27
ATOM     27  C   UNL A   1      38.067  20.452  25.040  1.00  0.00     0.202 C 
BRANCH  27  28
ATOM     28  C   UNL A   1      39.291  19.566  25.353  1.00  0.00     0.261 C 
BRANCH  28  29
ATOM     29  O   UNL A   1      40.097  19.942  26.478  1.00  0.00    -0.460 OA
BRANCH  29  30
ATOM     30  C   UNL A   1      41.439  20.032  26.287  1.00  0.00     0.338 C 
ATOM     31  O   UNL A   1      42.148  19.220  25.728  1.00  0.00    -0.246 OA
BRANCH  30  32
ATOM     32  C   UNL A   1      41.819  21.433  26.609  1.00  0.00     0.060 A 
ATOM     33  C   UNL A   1      42.084  21.760  27.947  1.00  0.00     0.016 A 
ATOM     34  C   UNL A   1      42.033  22.377  25.599  1.00  0.00     0.016 A 
ATOM     35  C   UNL A   1      42.546  23.037  28.278  1.00  0.00     0.010 A 
ATOM     36  C   UNL A   1      42.477  23.658  25.933  1.00  0.00     0.010 A 
ATOM     37  C   UNL A   1      42.714  24.002  27.275  1.00  0.00    -0.014 A 
BRANCH  37  38
ATOM     38  C   UNL A   1      42.903  25.428  27.638  1.00  0.00     0.031 A 
ATOM     39  C   UNL A   1      44.296  25.988  27.545  1.00  0.00     0.074 A 
ATOM     40  C   UNL A   1      41.881  26.208  28.038  1.00  0.00     0.049 A 
ATOM     41  N   UNL A   1      44.745  27.169  27.877  1.00  0.00    -0.248 NA
ATOM     42  C   UNL A   1      45.322  25.080  27.005  1.00  0.00     0.031 C 
ATOM     43  C   UNL A   1      40.481  25.797  28.121  1.00  0.00     0.029 A 
ATOM     44  N   UNL A   1      41.873  27.515  28.460  1.00  0.00    -0.354 N 
ATOM     45  C   UNL A   1      46.104  27.150  27.582  1.00  0.00     0.074 A 
ATOM     46  C   UNL A   1      46.410  25.827  27.083  1.00  0.00     0.031 C 
ATOM     47  C   UNL A   1      39.751  26.829  28.579  1.00  0.00     0.029 A 
ATOM     48  C   UNL A   1      40.634  27.961  28.859  1.00  0.00     0.049 A 
ATOM     49  H   UNL A   1      42.679  28.080  28.476  1.00  0.00     0.167 HD
ATOM     50  C   UNL A   1      47.013  28.148  27.705  1.00  0.00     0.034 A 
ATOM     51  C   UNL A   1      40.268  29.138  29.413  1.00  0.00     0.034 A 
ATOM     52  C   UNL A   1      46.705  29.449  28.236  1.00  0.00     0.049 A 
ATOM     53  C   UNL A   1      41.324  30.195  29.651  1.00  0.00     0.074 A 
ATOM     54  C   UNL A   1      47.552  30.526  28.427  1.00  0.00     0.029 A 
ATOM     55  N   UNL A   1      45.450  29.848  28.677  1.00  0.00    -0.354 N 
ATOM     56  N   UNL A   1      42.607  30.165  29.373  1.00  0.00    -0.248 NA
ATOM     57  C   UNL A   1      40.878  31.448  30.279  1.00  0.00     0.031 C 
ATOM     58  C   UNL A   1      46.825  31.552  29.040  1.00  0.00     0.029 A 
ATOM     59  C   UNL A   1      45.506  31.143  29.163  1.00  0.00     0.049 A 
ATOM     60  H   UNL A   1      44.639  29.291  28.646  1.00  0.00     0.167 HD
ATOM     61  C   UNL A   1      43.111  31.406  29.759  1.00  0.00     0.074 A 
ATOM     62  C   UNL A   1      41.993  32.164  30.281  1.00  0.00     0.031 C 
ATOM     63  C   UNL A   1      44.380  31.883  29.682  1.00  0.00     0.034 A 
BRANCH  50  64
ATOM     64  C   UNL A   1      48.431  27.829  27.304  1.00  0.00     0.023 A 
ATOM     65  C   UNL A   1      48.916  28.133  26.020  1.00  0.00     0.031 A 
ATOM     66  C   UNL A   1      49.289  27.164  28.196  1.00  0.00     0.131 A 
ATOM     67  C   UNL A   1      50.197  27.709  25.639  1.00  0.00     0.055 A 
ATOM     68  C   UNL A   1      50.592  26.814  27.836  1.00  0.00     0.041 A 
ATOM     69  F   UNL A   1      48.868  26.823  29.424  1.00  0.00    -0.206 F 
ATOM     70  C   UNL A   1      51.048  27.073  26.546  1.00  0.00     0.022 A 
BRANCH  67  71
ATOM     71  S   UNL A   1      50.681  27.869  23.899  1.00  0.00     0.124 S 
ATOM     72  O   UNL A   1      49.385  27.816  23.226  1.00  0.00    -0.237 OA
ATOM     73  O   UNL A   1      51.359  29.160  23.877  1.00  0.00    -0.237 OA
ATOM     74  O   UNL A   1      51.541  26.709  23.673  1.00  0.00    -0.744 OA
ENDBRANCH  67  71
ENDBRANCH  50  64
BRANCH  51  75
ATOM     75  C   UNL A   1      38.857  29.382  29.833  1.00  0.00     0.023 A 
ATOM     76  C   UNL A   1      37.976  30.119  29.024  1.00  0.00     0.031 A 
ATOM     77  C   UNL A   1      38.394  28.957  31.090  1.00  0.00     0.131 A 
ATOM     78  C   UNL A   1      36.700  30.457  29.503  1.00  0.00     0.055 A 
ATOM     79  C   UNL A   1      37.105  29.250  31.541  1.00  0.00     0.041 A 
ATOM     80  F   UNL A   1      39.195  28.255  31.907  1.00  0.00    -0.206 F 
ATOM     81  C   UNL A   1      36.254  30.017  30.751  1.00  0.00     0.022 A 
BRANCH  78  82
ATOM     82  S   UNL A   1      35.664  31.567  28.510  1.00  0.00     0.124 S 
ATOM     83  O   UNL A   1      35.158  30.661  27.484  1.00  0.00    -0.237 OA
ATOM     84  O   UNL A   1      34.691  32.031  29.493  1.00  0.00    -0.237 OA
ATOM     85  O   UNL A   1      36.605  32.581  28.040  1.00  0.00    -0.744 OA
ENDBRANCH  78  82
ENDBRANCH  51  75
BRANCH  63  86
ATOM     86  C   UNL A   1      44.610  33.308  30.121  1.00  0.00     0.023 A 
ATOM     87  C   UNL A   1      44.991  33.631  31.434  1.00  0.00     0.031 A 
ATOM     88  C   UNL A   1      44.447  34.361  29.201  1.00  0.00     0.131 A 
ATOM     89  C   UNL A   1      45.149  34.975  31.806  1.00  0.00     0.055 A 
ATOM     90  C   UNL A   1      44.659  35.692  29.561  1.00  0.00     0.041 A 
ATOM     91  F   UNL A   1      44.085  34.109  27.933  1.00  0.00    -0.206 F 
ATOM     92  C   UNL A   1      45.000  36.005  30.874  1.00  0.00     0.022 A 
BRANCH  89  93
ATOM     93  S   UNL A   1      45.476  35.367  33.546  1.00  0.00     0.124 S 
ATOM     94  O   UNL A   1      46.010  36.723  33.457  1.00  0.00    -0.237 OA
ATOM     95  O   UNL A   1      44.152  35.242  34.148  1.00  0.00    -0.237 OA
ATOM     96  O   UNL A   1      46.440  34.347  33.954  1.00  0.00    -0.744 OA
ENDBRANCH  89  93
ENDBRANCH  63  86
ENDBRANCH  37  38
ENDBRANCH  30  32
ENDBRANCH  29  30
ENDBRANCH  28  29
ENDBRANCH  27  28
ENDBRANCH  26  27
ENDBRANCH   1  26
TORSDOF 22
ENDMDL
MODEL 3
REMARK VINA RESULT:     -10.3      1.444      7.515
REMARK SMILES C[C@@H]1[C@H](C(=O)OCCOCCOCCOC(=O)c2ccc(-c3c4nc(c(-c5cc(S(=O)(=O)[O-])ccc5F)c5ccc([nH]5)c(-c5cc(S(=O)(=O)[O-])ccc5F)c5nc(c(-c6cc(S(=O)(=O)[O-])ccc6F)c6ccc3[nH]6)C=C5)C=C4)cc2)CCN1S(=O)(=O)c1cc(F)cc(F)c1
REMARK SMILES IDX 11 1 10 2 9 3 8 4 7 5 6 6 4 7 5 8 3 9 1 10 2 11 83 12 81 13
REMARK SMILES IDX 82 14 84 15 85 16 86 17 87 18 88 19 94 20 89 21 92 22 90 23
REMARK SMILES IDX 91 24 93 25 12 26 13 27 14 28 15 29 16 30 17 31 18 32 19 33
REMARK SMILES IDX 80 34 20 35 79 36 21 37 22 38 23 39 73 40 24 41 78 42 72 43
REMARK SMILES IDX 74 44 25 45 77 46 71 47 70 48 26 50 58 51 38 52 57 53 39 54
REMARK SMILES IDX 42 55 56 56 75 57 40 58 41 59 55 61 76 62 43 63 27 64 28 65
REMARK SMILES IDX 36 66 29 67 35 68 37 69 34 70 30 71 31 72 32 73 33 74 59 75
REMARK SMILES IDX 60 76 68 77 61 78 67 79 69 80 66 81 62 82 63 83 64 84 65 85
REMARK SMILES IDX 44 86 45 87 53 88 46 89 52 90 54 91 51 92 47 93 48 94 49 95
REMARK SMILES IDX 50 96
REMARK H PARENT 74 49 42 60
REMARK Flexibility Score: inf
ROOT
ATOM      1  C   UNL A   1      35.230  20.026  24.926  1.00  0.00     0.188 C 
ENDROOT
BRANCH   1   2
ATOM      2  C   UNL A   1      35.323  21.383  25.637  1.00  0.00     0.188 C 
BRANCH   2   3
ATOM      3  O   UNL A   1      35.156  22.542  24.824  1.00  0.00    -0.376 OA
BRANCH   3   4
ATOM      4  C   UNL A   1      33.983  23.333  25.050  1.00  0.00     0.202 C 
BRANCH   4   5
ATOM      5  C   UNL A   1      32.824  22.638  25.775  1.00  0.00     0.261 C 
BRANCH   5   6
ATOM      6  O   UNL A   1      31.582  23.310  25.482  1.00  0.00    -0.463 OA
BRANCH   6   7
ATOM      7  C   UNL A   1      31.248  24.332  26.304  1.00  0.00     0.310 C 
ATOM      8  O   UNL A   1      31.625  24.433  27.464  1.00  0.00    -0.252 OA
BRANCH   7   9
ATOM      9  C   UNL A   1      30.467  25.403  25.570  1.00  0.00     0.118 C 
ATOM     10  C   UNL A   1      32.631  26.742  25.126  1.00  0.00     0.027 C 
ATOM     11  C   UNL A   1      31.125  26.783  25.356  1.00  0.00     0.084 C 
ATOM     12  N   UNL A   1      30.345  27.369  24.207  1.00  0.00    -0.194 NA
ATOM     13  C   UNL A   1      30.145  24.971  24.151  1.00  0.00     0.034 C 
ATOM     14  C   UNL A   1      29.654  26.246  23.498  1.00  0.00     0.104 C 
BRANCH  12  15
ATOM     15  S   UNL A   1      30.891  28.587  23.159  1.00  0.00     0.243 S 
ATOM     16  O   UNL A   1      31.965  29.313  23.800  1.00  0.00    -0.207 OA
ATOM     17  O   UNL A   1      31.123  27.937  21.882  1.00  0.00    -0.207 OA
BRANCH  15  18
ATOM     18  C   UNL A   1      29.582  29.750  22.857  1.00  0.00     0.088 A 
ATOM     19  C   UNL A   1      29.487  30.269  21.555  1.00  0.00     0.061 A 
ATOM     20  C   UNL A   1      28.704  30.196  23.840  1.00  0.00     0.061 A 
ATOM     21  C   UNL A   1      28.532  31.237  21.263  1.00  0.00     0.127 A 
ATOM     22  C   UNL A   1      27.756  31.167  23.517  1.00  0.00     0.127 A 
ATOM     23  F   UNL A   1      28.474  31.752  20.028  1.00  0.00    -0.207 F 
ATOM     24  C   UNL A   1      27.661  31.696  22.238  1.00  0.00     0.078 A 
ATOM     25  F   UNL A   1      26.943  31.625  24.476  1.00  0.00    -0.207 F 
ENDBRANCH  15  18
ENDBRANCH  12  15
ENDBRANCH   7   9
ENDBRANCH   6   7
ENDBRANCH   5   6
ENDBRANCH   4   5
ENDBRANCH   3   4
ENDBRANCH   2   3
ENDBRANCH   1   2
BRANCH   1  26
ATOM     26  O   UNL A   1      36.415  19.261  25.008  1.00  0.00    -0.376 OA
BRANCH  26  27
ATOM     27  C   UNL A   1      37.683  19.911  25.025  1.00  0.00     0.202 C 
BRANCH  27  28
ATOM     28  C   UNL A   1      38.967  19.129  25.373  1.00  0.00     0.261 C 
BRANCH  28  29
ATOM     29  O   UNL A   1      39.744  19.610  26.479  1.00  0.00    -0.460 OA
BRANCH  29  30
ATOM     30  C   UNL A   1      41.092  19.658  26.326  1.00  0.00     0.338 C 
ATOM     31  O   UNL A   1      41.789  18.829  25.775  1.00  0.00    -0.246 OA
BRANCH  30  32
ATOM     32  C   UNL A   1      41.510  21.040  26.679  1.00  0.00     0.060 A 
ATOM     33  C   UNL A   1      41.278  22.065  25.749  1.00  0.00     0.016 A 
ATOM     34  C   UNL A   1      42.007  21.345  27.951  1.00  0.00     0.016 A 
ATOM     35  C   UNL A   1      41.560  23.392  26.084  1.00  0.00     0.010 A 
ATOM     36  C   UNL A   1      42.305  22.670  28.278  1.00  0.00     0.010 A 
ATOM     37  C   UNL A   1      42.105  23.697  27.339  1.00  0.00    -0.014 A 
BRANCH  37  38
ATOM     38  C   UNL A   1      42.688  25.037  27.593  1.00  0.00     0.031 A 
ATOM     39  C   UNL A   1      41.811  26.059  28.263  1.00  0.00     0.074 A 
ATOM     40  C   UNL A   1      43.950  25.348  27.242  1.00  0.00     0.049 A 
ATOM     41  N   UNL A   1      42.045  27.317  28.525  1.00  0.00    -0.248 NA
ATOM     42  C   UNL A   1      40.483  25.588  28.692  1.00  0.00     0.031 C 
ATOM     43  C   UNL A   1      44.912  24.433  26.632  1.00  0.00     0.029 A 
ATOM     44  N   UNL A   1      44.634  26.535  27.345  1.00  0.00    -0.354 N 
ATOM     45  C   UNL A   1      40.898  27.788  29.154  1.00  0.00     0.074 A 
ATOM     46  C   UNL A   1      39.956  26.691  29.196  1.00  0.00     0.031 C 
ATOM     47  C   UNL A   1      46.060  25.096  26.404  1.00  0.00     0.029 A 
ATOM     48  C   UNL A   1      45.902  26.491  26.813  1.00  0.00     0.049 A 
ATOM     49  H   UNL A   1      44.252  27.342  27.760  1.00  0.00     0.167 HD
ATOM     50  C   UNL A   1      40.654  29.021  29.661  1.00  0.00     0.034 A 
ATOM     51  C   UNL A   1      46.814  27.475  26.653  1.00  0.00     0.034 A 
ATOM     52  C   UNL A   1      41.584  30.117  29.583  1.00  0.00     0.049 A 
ATOM     53  C   UNL A   1      46.473  28.873  27.120  1.00  0.00     0.074 A 
ATOM     54  C   UNL A   1      41.432  31.413  30.041  1.00  0.00     0.029 A 
ATOM     55  N   UNL A   1      42.840  30.049  28.992  1.00  0.00    -0.354 N 
ATOM     56  N   UNL A   1      45.383  29.310  27.709  1.00  0.00    -0.248 NA
ATOM     57  C   UNL A   1      47.490  29.913  26.899  1.00  0.00     0.031 C 
ATOM     58  C   UNL A   1      42.567  32.144  29.674  1.00  0.00     0.029 A 
ATOM     59  C   UNL A   1      43.461  31.285  29.051  1.00  0.00     0.049 A 
ATOM     60  H   UNL A   1      43.231  29.239  28.592  1.00  0.00     0.167 HD
ATOM     61  C   UNL A   1      45.601  30.663  27.960  1.00  0.00     0.074 A 
ATOM     62  C   UNL A   1      46.928  30.969  27.467  1.00  0.00     0.031 C 
ATOM     63  C   UNL A   1      44.784  31.572  28.552  1.00  0.00     0.034 A 
BRANCH  50  64
ATOM     64  C   UNL A   1      39.303  29.243  30.291  1.00  0.00     0.023 A 
ATOM     65  C   UNL A   1      38.290  29.954  29.623  1.00  0.00     0.031 A 
ATOM     66  C   UNL A   1      39.043  28.789  31.595  1.00  0.00     0.131 A 
ATOM     67  C   UNL A   1      37.091  30.251  30.287  1.00  0.00     0.055 A 
ATOM     68  C   UNL A   1      37.817  29.022  32.222  1.00  0.00     0.041 A 
ATOM     69  F   UNL A   1      39.984  28.132  32.290  1.00  0.00    -0.206 F 
ATOM     70  C   UNL A   1      36.838  29.769  31.573  1.00  0.00     0.022 A 
BRANCH  67  71
ATOM     71  S   UNL A   1      35.928  31.400  29.502  1.00  0.00     0.124 S 
ATOM     72  O   UNL A   1      36.837  32.342  28.853  1.00  0.00    -0.237 OA
ATOM     73  O   UNL A   1      35.172  30.526  28.613  1.00  0.00    -0.237 OA
ATOM     74  O   UNL A   1      35.174  31.947  30.628  1.00  0.00    -0.744 OA
ENDBRANCH  67  71
ENDBRANCH  50  64
BRANCH  51  75
ATOM     75  C   UNL A   1      48.120  27.208  25.981  1.00  0.00     0.023 A 
ATOM     76  C   UNL A   1      48.308  27.494  24.619  1.00  0.00     0.031 A 
ATOM     77  C   UNL A   1      49.172  26.580  26.672  1.00  0.00     0.131 A 
ATOM     78  C   UNL A   1      49.493  27.104  23.977  1.00  0.00     0.055 A 
ATOM     79  C   UNL A   1      50.372  26.242  26.041  1.00  0.00     0.041 A 
ATOM     80  F   UNL A   1      49.045  26.278  27.973  1.00  0.00    -0.206 F 
ATOM     81  C   UNL A   1      50.532  26.490  24.682  1.00  0.00     0.022 A 
BRANCH  78  82
ATOM     82  S   UNL A   1      49.622  27.319  22.180  1.00  0.00     0.124 S 
ATOM     83  O   UNL A   1      51.056  27.526  22.008  1.00  0.00    -0.237 OA
ATOM     84  O   UNL A   1      49.092  26.053  21.685  1.00  0.00    -0.237 OA
ATOM     85  O   UNL A   1      48.786  28.488  21.917  1.00  0.00    -0.744 OA
ENDBRANCH  78  82
ENDBRANCH  51  75
BRANCH  63  86
ATOM     86  C   UNL A   1      45.329  32.965  28.749  1.00  0.00     0.023 A 
ATOM     87  C   UNL A   1      45.447  33.876  27.685  1.00  0.00     0.031 A 
ATOM     88  C   UNL A   1      45.733  33.387  30.030  1.00  0.00     0.131 A 
ATOM     89  C   UNL A   1      46.002  35.145  27.910  1.00  0.00     0.055 A 
ATOM     90  C   UNL A   1      46.233  34.668  30.259  1.00  0.00     0.041 A 
ATOM     91  F   UNL A   1      45.640  32.557  31.082  1.00  0.00    -0.206 F 
ATOM     92  C   UNL A   1      46.381  35.552  29.193  1.00  0.00     0.022 A 
BRANCH  89  93
ATOM     93  S   UNL A   1      46.297  36.234  26.490  1.00  0.00     0.124 S 
ATOM     94  O   UNL A   1      47.731  36.482  26.591  1.00  0.00    -0.237 OA
ATOM     95  O   UNL A   1      45.871  35.404  25.368  1.00  0.00    -0.237 OA
ATOM     96  O   UNL A   1      45.446  37.391  26.763  1.00  0.00    -0.744 OA
ENDBRANCH  89  93
ENDBRANCH  63  86
ENDBRANCH  37  38
ENDBRANCH  30  32
ENDBRANCH  29  30
ENDBRANCH  28  29
ENDBRANCH  27  28
ENDBRANCH  26  27
ENDBRANCH   1  26
TORSDOF 22
ENDMDL
