MODEL 1
REMARK VINA RESULT:      -7.1      0.000      0.000
REMARK SMILES CCCC[C@H](CC)C(=O)N1[C@H](C(=O)OCCOCCOCCOC(=O)c2ccc(-c3c4nc(c(-c5cc(S(=O)(=O)[O-])ccc5F)c5ccc([nH]5)c(-c5cc(S(=O)(=O)[O-])ccc5F)c5nc(c(-c6cc(S(=O)(=O)[O-])ccc6F)c6ccc3[nH]6)C=C5)C=C4)cc2)COC12CCCCC2
REMARK SMILES IDX 18 1 17 2 16 3 15 4 14 5 12 6 13 7 11 8 10 9 91 10 89 11
REMARK SMILES IDX 90 12 92 13 96 14 93 15 95 16 94 17 8 18 9 19 5 20 4 21 3 22
REMARK SMILES IDX 2 23 1 24 6 25 7 26 19 27 20 28 21 29 22 30 23 31 24 32
REMARK SMILES IDX 25 33 26 34 27 35 88 36 28 37 87 38 29 39 30 40 31 41 81 42
REMARK SMILES IDX 32 43 86 44 80 45 82 46 33 47 85 48 79 49 78 50 34 52 66 53
REMARK SMILES IDX 46 54 65 55 47 56 50 57 64 58 83 59 48 60 49 61 63 63 84 64
REMARK SMILES IDX 51 65 35 66 36 67 44 68 37 69 43 70 45 71 42 72 38 73 39 74
REMARK SMILES IDX 40 75 41 76 67 77 68 78 76 79 69 80 75 81 77 82 74 83 70 84
REMARK SMILES IDX 71 85 72 86 73 87 52 88 53 89 61 90 54 91 60 92 62 93 59 94
REMARK SMILES IDX 55 95 56 96 57 97 58 98
REMARK H PARENT 82 51 50 62
REMARK Flexibility Score: inf
ROOT
ATOM      1  C   UNL A   1      37.736  29.523  27.919  1.00  0.00     0.188 C 
ENDROOT
BRANCH   1   2
ATOM      2  O   UNL A   1      39.117  29.328  28.138  1.00  0.00    -0.376 OA
BRANCH   2   3
ATOM      3  C   UNL A   1      40.003  29.021  27.083  1.00  0.00     0.202 C 
BRANCH   3   4
ATOM      4  C   UNL A   1      41.504  28.836  27.303  1.00  0.00     0.261 C 
BRANCH   4   5
ATOM      5  O   UNL A   1      41.938  27.485  27.423  1.00  0.00    -0.462 OA
BRANCH   5   6
ATOM      6  C   UNL A   1      42.040  27.004  28.701  1.00  0.00     0.331 C 
ATOM      7  O   UNL A   1      41.155  27.029  29.546  1.00  0.00    -0.250 OA
BRANCH   6   8
ATOM      8  C   UNL A   1      43.429  26.397  28.881  1.00  0.00     0.223 C 
ATOM      9  N   UNL A   1      43.702  25.226  28.066  1.00  0.00    -0.298 N 
ATOM     10  C   UNL A   1      44.981  25.416  27.361  1.00  0.00     0.144 C 
ATOM     11  C   UNL A   1      44.494  27.390  28.475  1.00  0.00     0.200 C 
ATOM     12  O   UNL A   1      45.572  26.583  28.000  1.00  0.00    -0.353 OA
ATOM     13  C   UNL A   1      46.022  24.318  27.591  1.00  0.00     0.059 C 
ATOM     14  C   UNL A   1      44.769  25.827  25.884  1.00  0.00     0.059 C 
ATOM     15  C   UNL A   1      47.279  24.475  26.741  1.00  0.00     0.005 C 
ATOM     16  C   UNL A   1      46.047  25.833  25.041  1.00  0.00     0.005 C 
ATOM     17  C   UNL A   1      46.923  24.609  25.270  1.00  0.00     0.000 C 
BRANCH   9  18
ATOM     18  C   UNL A   1      42.752  24.234  28.121  1.00  0.00     0.228 C 
ATOM     19  O   UNL A   1      42.741  23.446  29.082  1.00  0.00    -0.274 OA
BRANCH  18  20
ATOM     20  C   UNL A   1      41.851  23.823  26.965  1.00  0.00     0.078 C 
BRANCH  20  21
ATOM     21  C   UNL A   1      42.690  23.463  25.721  1.00  0.00     0.013 C 
BRANCH  21  22
ATOM     22  C   UNL A   1      43.462  22.129  25.816  1.00  0.00     0.001 C 
BRANCH  22  23
ATOM     23  C   UNL A   1      44.538  21.891  24.752  1.00  0.00    -0.003 C 
ATOM     24  C   UNL A   1      45.734  21.109  25.269  1.00  0.00     0.004 C 
ENDBRANCH  22  23
ENDBRANCH  21  22
ENDBRANCH  20  21
BRANCH  20  25
ATOM     25  C   UNL A   1      40.552  24.579  26.666  1.00  0.00     0.010 C 
ATOM     26  C   UNL A   1      39.258  23.838  26.931  1.00  0.00     0.005 C 
ENDBRANCH  20  25
ENDBRANCH  18  20
ENDBRANCH   9  18
ENDBRANCH   6   8
ENDBRANCH   5   6
ENDBRANCH   4   5
ENDBRANCH   3   4
ENDBRANCH   2   3
ENDBRANCH   1   2
BRANCH   1  27
ATOM     27  C   UNL A   1      37.019  30.823  28.344  1.00  0.00     0.188 C 
BRANCH  27  28
ATOM     28  O   UNL A   1      35.866  31.275  27.674  1.00  0.00    -0.376 OA
BRANCH  28  29
ATOM     29  C   UNL A   1      35.071  32.292  28.243  1.00  0.00     0.202 C 
BRANCH  29  30
ATOM     30  C   UNL A   1      34.739  32.362  29.743  1.00  0.00     0.261 C 
BRANCH  30  31
ATOM     31  O   UNL A   1      35.752  32.878  30.619  1.00  0.00    -0.460 OA
BRANCH  31  32
ATOM     32  C   UNL A   1      36.122  32.063  31.641  1.00  0.00     0.338 C 
ATOM     33  O   UNL A   1      35.846  30.874  31.755  1.00  0.00    -0.246 OA
BRANCH  32  34
ATOM     34  C   UNL A   1      37.088  32.753  32.527  1.00  0.00     0.060 A 
ATOM     35  C   UNL A   1      38.221  32.051  32.969  1.00  0.00     0.016 A 
ATOM     36  C   UNL A   1      36.869  34.062  32.955  1.00  0.00     0.016 A 
ATOM     37  C   UNL A   1      39.113  32.642  33.871  1.00  0.00     0.010 A 
ATOM     38  C   UNL A   1      37.750  34.643  33.877  1.00  0.00     0.010 A 
ATOM     39  C   UNL A   1      38.859  33.926  34.369  1.00  0.00    -0.014 A 
BRANCH  39  40
ATOM     40  C   UNL A   1      39.608  34.436  35.553  1.00  0.00     0.031 A 
ATOM     41  C   UNL A   1      39.092  34.085  36.927  1.00  0.00     0.074 A 
ATOM     42  C   UNL A   1      40.726  35.177  35.432  1.00  0.00     0.049 A 
ATOM     43  N   UNL A   1      39.495  34.496  38.102  1.00  0.00    -0.248 NA
ATOM     44  C   UNL A   1      37.961  33.145  36.975  1.00  0.00     0.031 C 
ATOM     45  C   UNL A   1      41.372  35.535  34.172  1.00  0.00     0.029 A 
ATOM     46  N   UNL A   1      41.511  35.775  36.391  1.00  0.00    -0.354 N 
ATOM     47  C   UNL A   1      38.667  33.869  39.027  1.00  0.00     0.074 A 
ATOM     48  C   UNL A   1      37.715  33.082  38.273  1.00  0.00     0.031 C 
ATOM     49  C   UNL A   1      42.441  36.308  34.434  1.00  0.00     0.029 A 
ATOM     50  C   UNL A   1      42.533  36.541  35.875  1.00  0.00     0.049 A 
ATOM     51  H   UNL A   1      41.356  35.667  37.357  1.00  0.00     0.167 HD
ATOM     52  C   UNL A   1      38.702  33.934  40.382  1.00  0.00     0.034 A 
ATOM     53  C   UNL A   1      43.413  37.363  36.490  1.00  0.00     0.034 A 
ATOM     54  C   UNL A   1      39.645  34.730  41.127  1.00  0.00     0.049 A 
ATOM     55  C   UNL A   1      43.360  37.508  37.998  1.00  0.00     0.074 A 
ATOM     56  C   UNL A   1      39.754  34.874  42.500  1.00  0.00     0.029 A 
ATOM     57  N   UNL A   1      40.637  35.523  40.565  1.00  0.00    -0.354 N 
ATOM     58  N   UNL A   1      42.561  36.921  38.861  1.00  0.00    -0.248 NA
ATOM     59  C   UNL A   1      44.333  38.421  38.616  1.00  0.00     0.031 C 
ATOM     60  C   UNL A   1      40.759  35.809  42.765  1.00  0.00     0.029 A 
ATOM     61  C   UNL A   1      41.342  36.178  41.564  1.00  0.00     0.049 A 
ATOM     62  H   UNL A   1      40.813  35.607  39.602  1.00  0.00     0.167 HD
ATOM     63  C   UNL A   1      42.970  37.362  40.120  1.00  0.00     0.074 A 
ATOM     64  C   UNL A   1      44.090  38.250  39.906  1.00  0.00     0.031 C 
ATOM     65  C   UNL A   1      42.466  37.055  41.344  1.00  0.00     0.034 A 
BRANCH  52  66
ATOM     66  C   UNL A   1      37.657  33.153  41.143  1.00  0.00     0.023 A 
ATOM     67  C   UNL A   1      36.363  33.658  41.352  1.00  0.00     0.031 A 
ATOM     68  C   UNL A   1      37.963  31.885  41.670  1.00  0.00     0.131 A 
ATOM     69  C   UNL A   1      35.441  32.927  42.115  1.00  0.00     0.055 A 
ATOM     70  C   UNL A   1      37.016  31.127  42.360  1.00  0.00     0.041 A 
ATOM     71  F   UNL A   1      39.191  31.362  41.524  1.00  0.00    -0.206 F 
ATOM     72  C   UNL A   1      35.750  31.652  42.597  1.00  0.00     0.022 A 
BRANCH  69  73
ATOM     73  S   UNL A   1      33.877  33.717  42.578  1.00  0.00     0.124 S 
ATOM     74  O   UNL A   1      34.287  34.539  43.715  1.00  0.00    -0.237 OA
ATOM     75  O   UNL A   1      33.516  34.440  41.364  1.00  0.00    -0.237 OA
ATOM     76  O   UNL A   1      33.009  32.590  42.915  1.00  0.00    -0.744 OA
ENDBRANCH  69  73
ENDBRANCH  52  66
BRANCH  53  77
ATOM     77  C   UNL A   1      44.388  38.176  35.699  1.00  0.00     0.023 A 
ATOM     78  C   UNL A   1      44.050  39.447  35.205  1.00  0.00     0.031 A 
ATOM     79  C   UNL A   1      45.640  37.645  35.335  1.00  0.00     0.131 A 
ATOM     80  C   UNL A   1      44.917  40.111  34.321  1.00  0.00     0.055 A 
ATOM     81  C   UNL A   1      46.530  38.342  34.514  1.00  0.00     0.041 A 
ATOM     82  F   UNL A   1      46.014  36.430  35.764  1.00  0.00    -0.206 F 
ATOM     83  C   UNL A   1      46.161  39.575  33.985  1.00  0.00     0.022 A 
BRANCH  80  84
ATOM     84  S   UNL A   1      44.334  41.624  33.503  1.00  0.00     0.124 S 
ATOM     85  O   UNL A   1      45.587  42.207  33.034  1.00  0.00    -0.237 OA
ATOM     86  O   UNL A   1      43.449  41.090  32.475  1.00  0.00    -0.237 OA
ATOM     87  O   UNL A   1      43.670  42.357  34.578  1.00  0.00    -0.744 OA
ENDBRANCH  80  84
ENDBRANCH  53  77
BRANCH  65  88
ATOM     88  C   UNL A   1      43.173  37.625  42.554  1.00  0.00     0.023 A 
ATOM     89  C   UNL A   1      42.797  38.847  43.137  1.00  0.00     0.031 A 
ATOM     90  C   UNL A   1      44.246  36.922  43.135  1.00  0.00     0.131 A 
ATOM     91  C   UNL A   1      43.523  39.357  44.225  1.00  0.00     0.055 A 
ATOM     92  C   UNL A   1      44.920  37.400  44.259  1.00  0.00     0.041 A 
ATOM     93  F   UNL A   1      44.655  35.750  42.620  1.00  0.00    -0.206 F 
ATOM     94  C   UNL A   1      44.569  38.633  44.801  1.00  0.00     0.022 A 
BRANCH  91  95
ATOM     95  S   UNL A   1      43.150  41.031  44.818  1.00  0.00     0.124 S 
ATOM     96  O   UNL A   1      44.220  41.257  45.784  1.00  0.00    -0.237 OA
ATOM     97  O   UNL A   1      43.220  41.820  43.592  1.00  0.00    -0.237 OA
ATOM     98  O   UNL A   1      41.812  40.900  45.394  1.00  0.00    -0.744 OA
ENDBRANCH  91  95
ENDBRANCH  65  88
ENDBRANCH  39  40
ENDBRANCH  32  34
ENDBRANCH  31  32
ENDBRANCH  30  31
ENDBRANCH  29  30
ENDBRANCH  28  29
ENDBRANCH  27  28
ENDBRANCH   1  27
TORSDOF 26
ENDMDL
MODEL 2
REMARK VINA RESULT:      -7.0      9.627     16.055
REMARK SMILES CCCC[C@H](CC)C(=O)N1[C@H](C(=O)OCCOCCOCCOC(=O)c2ccc(-c3c4nc(c(-c5cc(S(=O)(=O)[O-])ccc5F)c5ccc([nH]5)c(-c5cc(S(=O)(=O)[O-])ccc5F)c5nc(c(-c6cc(S(=O)(=O)[O-])ccc6F)c6ccc3[nH]6)C=C5)C=C4)cc2)COC12CCCCC2
REMARK SMILES IDX 18 1 17 2 16 3 15 4 14 5 12 6 13 7 11 8 10 9 91 10 89 11
REMARK SMILES IDX 90 12 92 13 96 14 93 15 95 16 94 17 8 18 9 19 5 20 4 21 3 22
REMARK SMILES IDX 2 23 1 24 6 25 7 26 19 27 20 28 21 29 22 30 23 31 24 32
REMARK SMILES IDX 25 33 26 34 27 35 88 36 28 37 87 38 29 39 30 40 31 41 81 42
REMARK SMILES IDX 32 43 86 44 80 45 82 46 33 47 85 48 79 49 78 50 34 52 66 53
REMARK SMILES IDX 46 54 65 55 47 56 50 57 64 58 83 59 48 60 49 61 63 63 84 64
REMARK SMILES IDX 51 65 35 66 36 67 44 68 37 69 43 70 45 71 42 72 38 73 39 74
REMARK SMILES IDX 40 75 41 76 67 77 68 78 76 79 69 80 75 81 77 82 74 83 70 84
REMARK SMILES IDX 71 85 72 86 73 87 52 88 53 89 61 90 54 91 60 92 62 93 59 94
REMARK SMILES IDX 55 95 56 96 57 97 58 98
REMARK H PARENT 82 51 50 62
REMARK Flexibility Score: inf
ROOT
ATOM      1  C   UNL A   1      45.551  42.969  26.930  1.00  0.00     0.188 C 
ENDROOT
BRANCH   1   2
ATOM      2  O   UNL A   1      44.587  43.572  26.094  1.00  0.00    -0.376 OA
BRANCH   2   3
ATOM      3  C   UNL A   1      44.189  42.988  24.872  1.00  0.00     0.202 C 
BRANCH   3   4
ATOM      4  C   UNL A   1      45.197  42.509  23.827  1.00  0.00     0.261 C 
BRANCH   4   5
ATOM      5  O   UNL A   1      45.230  43.269  22.624  1.00  0.00    -0.462 OA
BRANCH   5   6
ATOM      6  C   UNL A   1      44.765  42.632  21.505  1.00  0.00     0.331 C 
ATOM      7  O   UNL A   1      43.699  42.036  21.413  1.00  0.00    -0.250 OA
BRANCH   6   8
ATOM      8  C   UNL A   1      45.780  42.822  20.381  1.00  0.00     0.223 C 
ATOM      9  N   UNL A   1      45.838  44.161  19.821  1.00  0.00    -0.298 N 
ATOM     10  C   UNL A   1      47.239  44.614  19.798  1.00  0.00     0.144 C 
ATOM     11  C   UNL A   1      47.181  42.568  20.888  1.00  0.00     0.200 C 
ATOM     12  O   UNL A   1      48.009  43.412  20.087  1.00  0.00    -0.353 OA
ATOM     13  C   UNL A   1      47.761  45.051  18.427  1.00  0.00     0.059 C 
ATOM     14  C   UNL A   1      47.551  45.584  20.963  1.00  0.00     0.059 C 
ATOM     15  C   UNL A   1      49.168  45.641  18.464  1.00  0.00     0.005 C 
ATOM     16  C   UNL A   1      48.923  46.256  20.876  1.00  0.00     0.005 C 
ATOM     17  C   UNL A   1      49.254  46.768  19.481  1.00  0.00     0.000 C 
BRANCH   9  18
ATOM     18  C   UNL A   1      44.629  44.698  19.449  1.00  0.00     0.228 C 
ATOM     19  O   UNL A   1      43.948  45.317  20.284  1.00  0.00    -0.274 OA
BRANCH  18  20
ATOM     20  C   UNL A   1      43.892  44.379  18.156  1.00  0.00     0.078 C 
BRANCH  20  21
ATOM     21  C   UNL A   1      44.202  45.438  17.076  1.00  0.00     0.013 C 
BRANCH  21  22
ATOM     22  C   UNL A   1      44.168  46.901  17.569  1.00  0.00     0.001 C 
BRANCH  22  23
ATOM     23  C   UNL A   1      44.745  47.951  16.613  1.00  0.00    -0.003 C 
ATOM     24  C   UNL A   1      46.261  47.903  16.510  1.00  0.00     0.004 C 
ENDBRANCH  22  23
ENDBRANCH  21  22
ENDBRANCH  20  21
BRANCH  20  25
ATOM     25  C   UNL A   1      42.442  43.886  18.172  1.00  0.00     0.010 C 
ATOM     26  C   UNL A   1      41.362  44.949  18.155  1.00  0.00     0.005 C 
ENDBRANCH  20  25
ENDBRANCH  18  20
ENDBRANCH   9  18
ENDBRANCH   6   8
ENDBRANCH   5   6
ENDBRANCH   4   5
ENDBRANCH   3   4
ENDBRANCH   2   3
ENDBRANCH   1   2
BRANCH   1  27
ATOM     27  C   UNL A   1      45.533  43.156  28.463  1.00  0.00     0.188 C 
BRANCH  27  28
ATOM     28  O   UNL A   1      44.322  43.193  29.180  1.00  0.00    -0.376 OA
BRANCH  28  29
ATOM     29  C   UNL A   1      44.164  44.096  30.254  1.00  0.00     0.202 C 
BRANCH  29  30
ATOM     30  C   UNL A   1      43.363  43.763  31.523  1.00  0.00     0.261 C 
BRANCH  30  31
ATOM     31  O   UNL A   1      42.276  42.835  31.392  1.00  0.00    -0.460 OA
BRANCH  31  32
ATOM     32  C   UNL A   1      42.346  41.727  32.173  1.00  0.00     0.338 C 
ATOM     33  O   UNL A   1      41.727  41.534  33.213  1.00  0.00    -0.246 OA
BRANCH  32  34
ATOM     34  C   UNL A   1      43.134  40.669  31.499  1.00  0.00     0.060 A 
ATOM     35  C   UNL A   1      42.793  40.305  30.187  1.00  0.00     0.016 A 
ATOM     36  C   UNL A   1      44.173  40.011  32.156  1.00  0.00     0.016 A 
ATOM     37  C   UNL A   1      43.461  39.254  29.546  1.00  0.00     0.010 A 
ATOM     38  C   UNL A   1      44.825  38.944  31.522  1.00  0.00     0.010 A 
ATOM     39  C   UNL A   1      44.450  38.534  30.227  1.00  0.00    -0.014 A 
BRANCH  39  40
ATOM     40  C   UNL A   1      44.938  37.232  29.689  1.00  0.00     0.031 A 
ATOM     41  C   UNL A   1      44.164  35.984  30.036  1.00  0.00     0.074 A 
ATOM     42  C   UNL A   1      46.027  37.143  28.900  1.00  0.00     0.049 A 
ATOM     43  N   UNL A   1      44.445  34.731  29.788  1.00  0.00    -0.248 NA
ATOM     44  C   UNL A   1      42.904  36.185  30.768  1.00  0.00     0.031 C 
ATOM     45  C   UNL A   1      46.829  38.271  28.433  1.00  0.00     0.029 A 
ATOM     46  N   UNL A   1      46.653  36.042  28.362  1.00  0.00    -0.354 N 
ATOM     47  C   UNL A   1      43.400  33.993  30.335  1.00  0.00     0.074 A 
ATOM     48  C   UNL A   1      42.502  34.939  30.963  1.00  0.00     0.031 C 
ATOM     49  C   UNL A   1      47.852  37.802  27.697  1.00  0.00     0.029 A 
ATOM     50  C   UNL A   1      47.809  36.340  27.676  1.00  0.00     0.049 A 
ATOM     51  H   UNL A   1      46.307  35.126  28.459  1.00  0.00     0.167 HD
ATOM     52  C   UNL A   1      43.200  32.651  30.310  1.00  0.00     0.034 A 
ATOM     53  C   UNL A   1      48.742  35.528  27.131  1.00  0.00     0.034 A 
ATOM     54  C   UNL A   1      44.106  31.713  29.695  1.00  0.00     0.049 A 
ATOM     55  C   UNL A   1      48.555  34.027  27.214  1.00  0.00     0.074 A 
ATOM     56  C   UNL A   1      44.000  30.334  29.627  1.00  0.00     0.029 A 
ATOM     57  N   UNL A   1      45.285  32.053  29.047  1.00  0.00    -0.354 N 
ATOM     58  N   UNL A   1      47.570  33.341  27.749  1.00  0.00    -0.248 NA
ATOM     59  C   UNL A   1      49.603  33.188  26.612  1.00  0.00     0.031 C 
ATOM     60  C   UNL A   1      45.150  29.836  29.007  1.00  0.00     0.029 A 
ATOM     61  C   UNL A   1      45.928  30.907  28.603  1.00  0.00     0.049 A 
ATOM     62  H   UNL A   1      45.617  32.970  28.922  1.00  0.00     0.167 HD
ATOM     63  C   UNL A   1      47.863  31.998  27.505  1.00  0.00     0.074 A 
ATOM     64  C   UNL A   1      49.105  31.971  26.766  1.00  0.00     0.031 C 
ATOM     65  C   UNL A   1      47.164  30.888  27.856  1.00  0.00     0.034 A 
BRANCH  52  66
ATOM     66  C   UNL A   1      41.973  32.117  31.009  1.00  0.00     0.023 A 
ATOM     67  C   UNL A   1      40.753  31.948  30.334  1.00  0.00     0.031 A 
ATOM     68  C   UNL A   1      42.025  31.774  32.372  1.00  0.00     0.131 A 
ATOM     69  C   UNL A   1      39.621  31.504  31.034  1.00  0.00     0.055 A 
ATOM     70  C   UNL A   1      40.917  31.257  33.044  1.00  0.00     0.041 A 
ATOM     71  F   UNL A   1      43.157  31.938  33.075  1.00  0.00    -0.206 F 
ATOM     72  C   UNL A   1      39.702  31.131  32.378  1.00  0.00     0.022 A 
BRANCH  69  73
ATOM     73  S   UNL A   1      38.013  31.542  30.198  1.00  0.00     0.124 S 
ATOM     74  O   UNL A   1      37.202  30.706  31.081  1.00  0.00    -0.237 OA
ATOM     75  O   UNL A   1      37.693  32.964  30.192  1.00  0.00    -0.237 OA
ATOM     76  O   UNL A   1      38.294  30.960  28.887  1.00  0.00    -0.744 OA
ENDBRANCH  69  73
ENDBRANCH  52  66
BRANCH  53  77
ATOM     77  C   UNL A   1      49.981  36.089  26.507  1.00  0.00     0.023 A 
ATOM     78  C   UNL A   1      51.010  36.638  27.292  1.00  0.00     0.031 A 
ATOM     79  C   UNL A   1      50.106  36.182  25.109  1.00  0.00     0.131 A 
ATOM     80  C   UNL A   1      52.078  37.314  26.677  1.00  0.00     0.055 A 
ATOM     81  C   UNL A   1      51.206  36.791  24.501  1.00  0.00     0.041 A 
ATOM     82  F   UNL A   1      49.149  35.689  24.307  1.00  0.00    -0.206 F 
ATOM     83  C   UNL A   1      52.191  37.380  25.288  1.00  0.00     0.022 A 
BRANCH  80  84
ATOM     84  S   UNL A   1      53.245  38.229  27.724  1.00  0.00     0.124 S 
ATOM     85  O   UNL A   1      54.374  37.306  27.783  1.00  0.00    -0.237 OA
ATOM     86  O   UNL A   1      53.453  39.448  26.952  1.00  0.00    -0.237 OA
ATOM     87  O   UNL A   1      52.515  38.402  28.978  1.00  0.00    -0.744 OA
ENDBRANCH  80  84
ENDBRANCH  53  77
BRANCH  65  88
ATOM     88  C   UNL A   1      47.686  29.551  27.378  1.00  0.00     0.023 A 
ATOM     89  C   UNL A   1      47.316  29.000  26.140  1.00  0.00     0.031 A 
ATOM     90  C   UNL A   1      48.577  28.817  28.185  1.00  0.00     0.131 A 
ATOM     91  C   UNL A   1      47.785  27.729  25.770  1.00  0.00     0.055 A 
ATOM     92  C   UNL A   1      49.094  27.586  27.781  1.00  0.00     0.041 A 
ATOM     93  F   UNL A   1      48.964  29.289  29.381  1.00  0.00    -0.206 F 
ATOM     94  C   UNL A   1      48.687  27.028  26.573  1.00  0.00     0.022 A 
BRANCH  91  95
ATOM     95  S   UNL A   1      47.123  26.956  24.267  1.00  0.00     0.124 S 
ATOM     96  O   UNL A   1      47.098  28.077  23.334  1.00  0.00    -0.237 OA
ATOM     97  O   UNL A   1      48.111  25.918  23.989  1.00  0.00    -0.237 OA
ATOM     98  O   UNL A   1      45.811  26.466  24.684  1.00  0.00    -0.744 OA
ENDBRANCH  91  95
ENDBRANCH  65  88
ENDBRANCH  39  40
ENDBRANCH  32  34
ENDBRANCH  31  32
ENDBRANCH  30  31
ENDBRANCH  29  30
ENDBRANCH  28  29
ENDBRANCH  27  28
ENDBRANCH   1  27
TORSDOF 26
ENDMDL
MODEL 3
REMARK VINA RESULT:      -6.9      5.112      7.626
REMARK SMILES CCCC[C@H](CC)C(=O)N1[C@H](C(=O)OCCOCCOCCOC(=O)c2ccc(-c3c4nc(c(-c5cc(S(=O)(=O)[O-])ccc5F)c5ccc([nH]5)c(-c5cc(S(=O)(=O)[O-])ccc5F)c5nc(c(-c6cc(S(=O)(=O)[O-])ccc6F)c6ccc3[nH]6)C=C5)C=C4)cc2)COC12CCCCC2
REMARK SMILES IDX 18 1 17 2 16 3 15 4 14 5 12 6 13 7 11 8 10 9 91 10 89 11
REMARK SMILES IDX 90 12 92 13 96 14 93 15 95 16 94 17 8 18 9 19 5 20 4 21 3 22
REMARK SMILES IDX 2 23 1 24 6 25 7 26 19 27 20 28 21 29 22 30 23 31 24 32
REMARK SMILES IDX 25 33 26 34 27 35 88 36 28 37 87 38 29 39 30 40 31 41 81 42
REMARK SMILES IDX 32 43 86 44 80 45 82 46 33 47 85 48 79 49 78 50 34 52 66 53
REMARK SMILES IDX 46 54 65 55 47 56 50 57 64 58 83 59 48 60 49 61 63 63 84 64
REMARK SMILES IDX 51 65 35 66 36 67 44 68 37 69 43 70 45 71 42 72 38 73 39 74
REMARK SMILES IDX 40 75 41 76 67 77 68 78 76 79 69 80 75 81 77 82 74 83 70 84
REMARK SMILES IDX 71 85 72 86 73 87 52 88 53 89 61 90 54 91 60 92 62 93 59 94
REMARK SMILES IDX 55 95 56 96 57 97 58 98
REMARK H PARENT 82 51 50 62
REMARK Flexibility Score: inf
ROOT
ATOM      1  C   UNL A   1      40.095  26.342  28.606  1.00  0.00     0.188 C 
ENDROOT
BRANCH   1   2
ATOM      2  O   UNL A   1      40.059  25.051  28.037  1.00  0.00    -0.376 OA
BRANCH   2   3
ATOM      3  C   UNL A   1      38.950  24.594  27.293  1.00  0.00     0.202 C 
BRANCH   3   4
ATOM      4  C   UNL A   1      38.969  23.274  26.524  1.00  0.00     0.261 C 
BRANCH   4   5
ATOM      5  O   UNL A   1      37.747  22.930  25.879  1.00  0.00    -0.462 OA
BRANCH   5   6
ATOM      6  C   UNL A   1      37.775  21.791  25.120  1.00  0.00     0.331 C 
ATOM      7  O   UNL A   1      38.495  20.821  25.313  1.00  0.00    -0.250 OA
BRANCH   6   8
ATOM      8  C   UNL A   1      36.730  21.919  24.014  1.00  0.00     0.223 C 
ATOM      9  N   UNL A   1      35.349  21.903  24.465  1.00  0.00    -0.298 N 
ATOM     10  C   UNL A   1      34.637  23.054  23.882  1.00  0.00     0.144 C 
ATOM     11  C   UNL A   1      36.875  23.246  23.304  1.00  0.00     0.200 C 
ATOM     12  O   UNL A   1      35.552  23.566  22.871  1.00  0.00    -0.353 OA
ATOM     13  C   UNL A   1      33.379  22.707  23.083  1.00  0.00     0.059 C 
ATOM     14  C   UNL A   1      34.475  24.207  24.902  1.00  0.00     0.059 C 
ATOM     15  C   UNL A   1      32.594  23.927  22.612  1.00  0.00     0.005 C 
ATOM     16  C   UNL A   1      33.563  25.342  24.431  1.00  0.00     0.005 C 
ATOM     17  C   UNL A   1      32.280  24.850  23.777  1.00  0.00     0.000 C 
BRANCH   9  18
ATOM     18  C   UNL A   1      35.014  20.866  25.301  1.00  0.00     0.228 C 
ATOM     19  O   UNL A   1      35.686  19.821  25.286  1.00  0.00    -0.274 OA
BRANCH  18  20
ATOM     20  C   UNL A   1      33.709  20.757  26.078  1.00  0.00     0.078 C 
BRANCH  20  21
ATOM     21  C   UNL A   1      32.831  19.620  25.512  1.00  0.00     0.013 C 
BRANCH  21  22
ATOM     22  C   UNL A   1      33.183  19.176  24.076  1.00  0.00     0.001 C 
BRANCH  22  23
ATOM     23  C   UNL A   1      32.717  17.775  23.667  1.00  0.00    -0.003 C 
ATOM     24  C   UNL A   1      33.748  17.012  22.851  1.00  0.00     0.004 C 
ENDBRANCH  22  23
ENDBRANCH  21  22
ENDBRANCH  20  21
BRANCH  20  25
ATOM     25  C   UNL A   1      32.937  22.009  26.508  1.00  0.00     0.010 C 
ATOM     26  C   UNL A   1      33.108  22.452  27.947  1.00  0.00     0.005 C 
ENDBRANCH  20  25
ENDBRANCH  18  20
ENDBRANCH   9  18
ENDBRANCH   6   8
ENDBRANCH   5   6
ENDBRANCH   4   5
ENDBRANCH   3   4
ENDBRANCH   2   3
ENDBRANCH   1   2
BRANCH   1  27
ATOM     27  C   UNL A   1      38.969  27.371  28.362  1.00  0.00     0.188 C 
BRANCH  27  28
ATOM     28  O   UNL A   1      38.248  27.933  29.432  1.00  0.00    -0.376 OA
BRANCH  28  29
ATOM     29  C   UNL A   1      38.096  29.333  29.525  1.00  0.00     0.202 C 
BRANCH  29  30
ATOM     30  C   UNL A   1      36.864  30.007  30.152  1.00  0.00     0.261 C 
BRANCH  30  31
ATOM     31  O   UNL A   1      36.371  29.462  31.385  1.00  0.00    -0.460 OA
BRANCH  31  32
ATOM     32  C   UNL A   1      37.289  29.314  32.376  1.00  0.00     0.338 C 
ATOM     33  O   UNL A   1      37.443  28.321  33.076  1.00  0.00    -0.246 OA
BRANCH  32  34
ATOM     34  C   UNL A   1      38.235  30.454  32.377  1.00  0.00     0.060 A 
ATOM     35  C   UNL A   1      39.613  30.190  32.408  1.00  0.00     0.016 A 
ATOM     36  C   UNL A   1      37.778  31.773  32.388  1.00  0.00     0.016 A 
ATOM     37  C   UNL A   1      40.535  31.240  32.493  1.00  0.00     0.010 A 
ATOM     38  C   UNL A   1      38.702  32.821  32.497  1.00  0.00     0.010 A 
ATOM     39  C   UNL A   1      40.084  32.563  32.586  1.00  0.00    -0.014 A 
BRANCH  39  40
ATOM     40  C   UNL A   1      41.019  33.650  32.994  1.00  0.00     0.031 A 
ATOM     41  C   UNL A   1      41.073  34.032  34.453  1.00  0.00     0.074 A 
ATOM     42  C   UNL A   1      41.818  34.280  32.111  1.00  0.00     0.049 A 
ATOM     43  N   UNL A   1      41.713  35.011  35.037  1.00  0.00    -0.248 NA
ATOM     44  C   UNL A   1      40.289  33.192  35.373  1.00  0.00     0.031 C 
ATOM     45  C   UNL A   1      41.917  33.970  30.687  1.00  0.00     0.029 A 
ATOM     46  N   UNL A   1      42.691  35.328  32.286  1.00  0.00    -0.354 N 
ATOM     47  C   UNL A   1      41.408  34.909  36.391  1.00  0.00     0.074 A 
ATOM     48  C   UNL A   1      40.493  33.796  36.533  1.00  0.00     0.031 C 
ATOM     49  C   UNL A   1      42.785  34.823  30.115  1.00  0.00     0.029 A 
ATOM     50  C   UNL A   1      43.270  35.771  31.117  1.00  0.00     0.049 A 
ATOM     51  H   UNL A   1      42.885  35.726  33.166  1.00  0.00     0.167 HD
ATOM     52  C   UNL A   1      41.856  35.665  37.425  1.00  0.00     0.034 A 
ATOM     53  C   UNL A   1      44.066  36.838  30.879  1.00  0.00     0.034 A 
ATOM     54  C   UNL A   1      42.757  36.781  37.276  1.00  0.00     0.049 A 
ATOM     55  C   UNL A   1      44.462  37.737  32.033  1.00  0.00     0.074 A 
ATOM     56  C   UNL A   1      43.258  37.618  38.257  1.00  0.00     0.029 A 
ATOM     57  N   UNL A   1      43.287  37.221  36.070  1.00  0.00    -0.354 N 
ATOM     58  N   UNL A   1      44.153  37.639  33.306  1.00  0.00    -0.248 NA
ATOM     59  C   UNL A   1      45.322  38.889  31.718  1.00  0.00     0.031 C 
ATOM     60  C   UNL A   1      44.029  38.608  37.639  1.00  0.00     0.029 A 
ATOM     61  C   UNL A   1      44.086  38.334  36.283  1.00  0.00     0.049 A 
ATOM     62  H   UNL A   1      43.120  36.806  35.195  1.00  0.00     0.167 HD
ATOM     63  C   UNL A   1      44.818  38.688  33.942  1.00  0.00     0.074 A 
ATOM     64  C   UNL A   1      45.553  39.396  32.918  1.00  0.00     0.031 C 
ATOM     65  C   UNL A   1      44.825  39.031  35.256  1.00  0.00     0.034 A 
BRANCH  52  66
ATOM     66  C   UNL A   1      41.339  35.336  38.804  1.00  0.00     0.023 A 
ATOM     67  C   UNL A   1      41.827  34.239  39.534  1.00  0.00     0.031 A 
ATOM     68  C   UNL A   1      40.340  36.129  39.396  1.00  0.00     0.131 A 
ATOM     69  C   UNL A   1      41.279  33.933  40.788  1.00  0.00     0.055 A 
ATOM     70  C   UNL A   1      39.854  35.866  40.678  1.00  0.00     0.041 A 
ATOM     71  F   UNL A   1      39.816  37.174  38.736  1.00  0.00    -0.206 F 
ATOM     72  C   UNL A   1      40.315  34.755  41.377  1.00  0.00     0.022 A 
BRANCH  69  73
ATOM     73  S   UNL A   1      41.749  32.373  41.584  1.00  0.00     0.124 S 
ATOM     74  O   UNL A   1      42.295  31.620  40.456  1.00  0.00    -0.237 OA
ATOM     75  O   UNL A   1      42.713  32.808  42.587  1.00  0.00    -0.237 OA
ATOM     76  O   UNL A   1      40.486  31.862  42.111  1.00  0.00    -0.744 OA
ENDBRANCH  69  73
ENDBRANCH  52  66
BRANCH  53  77
ATOM     77  C   UNL A   1      44.503  37.177  29.489  1.00  0.00     0.023 A 
ATOM     78  C   UNL A   1      45.687  36.650  28.946  1.00  0.00     0.031 A 
ATOM     79  C   UNL A   1      43.795  38.120  28.721  1.00  0.00     0.131 A 
ATOM     80  C   UNL A   1      46.163  37.120  27.710  1.00  0.00     0.055 A 
ATOM     81  C   UNL A   1      44.235  38.530  27.460  1.00  0.00     0.041 A 
ATOM     82  F   UNL A   1      42.664  38.669  29.191  1.00  0.00    -0.206 F 
ATOM     83  C   UNL A   1      45.438  38.043  26.957  1.00  0.00     0.022 A 
BRANCH  80  84
ATOM     84  S   UNL A   1      47.819  36.611  27.166  1.00  0.00     0.124 S 
ATOM     85  O   UNL A   1      48.672  37.517  27.928  1.00  0.00    -0.237 OA
ATOM     86  O   UNL A   1      47.851  35.209  27.567  1.00  0.00    -0.237 OA
ATOM     87  O   UNL A   1      47.790  36.846  25.724  1.00  0.00    -0.744 OA
ENDBRANCH  80  84
ENDBRANCH  53  77
BRANCH  65  88
ATOM     88  C   UNL A   1      45.716  40.180  35.676  1.00  0.00     0.023 A 
ATOM     89  C   UNL A   1      47.047  39.988  36.083  1.00  0.00     0.031 A 
ATOM     90  C   UNL A   1      45.214  41.495  35.666  1.00  0.00     0.131 A 
ATOM     91  C   UNL A   1      47.812  41.083  36.516  1.00  0.00     0.055 A 
ATOM     92  C   UNL A   1      46.001  42.588  36.032  1.00  0.00     0.041 A 
ATOM     93  F   UNL A   1      43.948  41.742  35.291  1.00  0.00    -0.206 F 
ATOM     94  C   UNL A   1      47.304  42.383  36.475  1.00  0.00     0.022 A 
BRANCH  91  95
ATOM     95  S   UNL A   1      49.451  40.776  37.232  1.00  0.00     0.124 S 
ATOM     96  O   UNL A   1      49.130  39.917  38.367  1.00  0.00    -0.237 OA
ATOM     97  O   UNL A   1      50.159  40.135  36.128  1.00  0.00    -0.237 OA
ATOM     98  O   UNL A   1      49.929  42.112  37.581  1.00  0.00    -0.744 OA
ENDBRANCH  91  95
ENDBRANCH  65  88
ENDBRANCH  39  40
ENDBRANCH  32  34
ENDBRANCH  31  32
ENDBRANCH  30  31
ENDBRANCH  29  30
ENDBRANCH  28  29
ENDBRANCH  27  28
ENDBRANCH   1  27
TORSDOF 26
ENDMDL
