MODEL 1
REMARK VINA RESULT:      -9.9      0.000      0.000
REMARK SMILES Cc1cc(CNc2ccc(C(=O)OCCOCCOCCOC(=O)c3ccc(-c4c5nc(c(-c6cc(S(=O)(=O)[O-])ccc6F)c6ccc([nH]6)c(-c6cc(S(=O)(=O)[O-])ccc6F)c6nc(c(-c7cc(S(=O)(=O)[O-])ccc7F)c7ccc4[nH]7)C=C6)C=C5)cc3)c(F)c2F)sc1C
REMARK SMILES IDX 17 1 16 2 15 3 14 4 13 5 11 6 12 7 10 8 7 9 8 10 90 11 9 12
REMARK SMILES IDX 88 13 91 14 89 15 6 16 5 18 4 19 1 20 2 21 3 22 93 23 92 24
REMARK SMILES IDX 94 25 18 26 19 27 20 28 21 29 22 30 23 31 24 32 25 33 26 34
REMARK SMILES IDX 87 35 27 36 86 37 28 38 29 39 30 40 80 41 31 42 85 43 79 44
REMARK SMILES IDX 81 45 32 46 84 47 78 48 77 49 33 51 65 52 45 53 64 54 46 55
REMARK SMILES IDX 49 56 63 57 82 58 47 59 48 60 62 62 83 63 50 64 34 65 35 66
REMARK SMILES IDX 43 67 36 68 42 69 44 70 41 71 37 72 38 73 39 74 40 75 66 76
REMARK SMILES IDX 67 77 75 78 68 79 74 80 76 81 73 82 69 83 70 84 71 85 72 86
REMARK SMILES IDX 51 87 52 88 60 89 53 90 59 91 61 92 58 93 54 94 55 95 56 96
REMARK SMILES IDX 57 97
REMARK H PARENT 6 17 81 50 49 61
REMARK Flexibility Score: inf
ROOT
ATOM      1  C   UNL A   1      39.859  22.053  26.251  1.00  0.00     0.188 C 
ENDROOT
BRANCH   1   2
ATOM      2  O   UNL A   1      38.460  21.832  26.240  1.00  0.00    -0.376 OA
BRANCH   2   3
ATOM      3  C   UNL A   1      37.781  21.626  25.012  1.00  0.00     0.202 C 
BRANCH   3   4
ATOM      4  C   UNL A   1      36.883  22.703  24.388  1.00  0.00     0.261 C 
BRANCH   4   5
ATOM      5  O   UNL A   1      35.659  22.220  23.818  1.00  0.00    -0.460 OA
BRANCH   5   6
ATOM      6  C   UNL A   1      34.524  22.674  24.408  1.00  0.00     0.341 C 
ATOM      7  O   UNL A   1      33.998  22.243  25.417  1.00  0.00    -0.246 OA
BRANCH   6   8
ATOM      8  C   UNL A   1      34.078  23.916  23.761  1.00  0.00     0.099 A 
ATOM      9  C   UNL A   1      33.130  26.322  22.637  1.00  0.00     0.074 A 
ATOM     10  C   UNL A   1      33.719  26.318  23.904  1.00  0.00     0.030 A 
ATOM     11  C   UNL A   1      33.071  25.099  21.938  1.00  0.00     0.182 A 
ATOM     12  C   UNL A   1      34.172  25.120  24.474  1.00  0.00     0.021 A 
ATOM     13  C   UNL A   1      33.547  23.911  22.481  1.00  0.00     0.175 A 
ATOM     14  F   UNL A   1      32.538  25.083  20.703  1.00  0.00    -0.201 F 
ATOM     15  F   UNL A   1      33.456  22.776  21.773  1.00  0.00    -0.203 F 
BRANCH   9  16
ATOM     16  N   UNL A   1      32.611  27.455  22.044  1.00  0.00    -0.378 N 
ATOM     17  H   UNL A   1      32.403  27.397  21.083  1.00  0.00     0.161 HD
BRANCH  16  18
ATOM     18  C   UNL A   1      32.341  28.726  22.699  1.00  0.00     0.160 C 
BRANCH  18  19
ATOM     19  C   UNL A   1      30.869  29.034  22.641  1.00  0.00     0.024 A 
ATOM     20  C   UNL A   1      27.953  30.903  21.184  1.00  0.00     0.045 C 
ATOM     21  C   UNL A   1      28.829  29.975  21.959  1.00  0.00    -0.037 A 
ATOM     22  C   UNL A   1      30.256  30.002  21.871  1.00  0.00     0.021 A 
ATOM     23  C   UNL A   1      28.408  28.987  22.836  1.00  0.00     0.005 A 
ATOM     24  S   UNL A   1      29.724  28.119  23.511  1.00  0.00    -0.144 S 
ATOM     25  C   UNL A   1      27.010  28.628  23.219  1.00  0.00     0.056 C 
ENDBRANCH  18  19
ENDBRANCH  16  18
ENDBRANCH   9  16
ENDBRANCH   6   8
ENDBRANCH   5   6
ENDBRANCH   4   5
ENDBRANCH   3   4
ENDBRANCH   2   3
ENDBRANCH   1   2
BRANCH   1  26
ATOM     26  C   UNL A   1      40.795  21.065  26.977  1.00  0.00     0.188 C 
BRANCH  26  27
ATOM     27  O   UNL A   1      41.979  20.667  26.331  1.00  0.00    -0.376 OA
BRANCH  27  28
ATOM     28  C   UNL A   1      42.273  19.297  26.120  1.00  0.00     0.202 C 
BRANCH  28  29
ATOM     29  C   UNL A   1      43.527  18.723  25.432  1.00  0.00     0.261 C 
BRANCH  29  30
ATOM     30  O   UNL A   1      44.728  19.493  25.448  1.00  0.00    -0.460 OA
BRANCH  30  31
ATOM     31  C   UNL A   1      44.913  20.301  24.378  1.00  0.00     0.338 C 
ATOM     32  O   UNL A   1      44.577  20.082  23.221  1.00  0.00    -0.246 OA
BRANCH  31  33
ATOM     33  C   UNL A   1      45.437  21.594  24.848  1.00  0.00     0.060 A 
ATOM     34  C   UNL A   1      45.419  21.875  26.220  1.00  0.00     0.016 A 
ATOM     35  C   UNL A   1      45.921  22.533  23.936  1.00  0.00     0.016 A 
ATOM     36  C   UNL A   1      45.877  23.108  26.686  1.00  0.00     0.010 A 
ATOM     37  C   UNL A   1      46.358  23.776  24.402  1.00  0.00     0.010 A 
ATOM     38  C   UNL A   1      46.317  24.078  25.776  1.00  0.00    -0.014 A 
BRANCH  38  39
ATOM     39  C   UNL A   1      46.568  25.468  26.232  1.00  0.00     0.031 A 
ATOM     40  C   UNL A   1      45.389  26.317  26.621  1.00  0.00     0.074 A 
ATOM     41  C   UNL A   1      47.816  25.965  26.306  1.00  0.00     0.049 A 
ATOM     42  N   UNL A   1      45.345  27.581  26.948  1.00  0.00    -0.248 NA
ATOM     43  C   UNL A   1      44.081  25.642  26.636  1.00  0.00     0.031 C 
ATOM     44  C   UNL A   1      49.042  25.223  26.015  1.00  0.00     0.029 A 
ATOM     45  N   UNL A   1      48.257  27.223  26.638  1.00  0.00    -0.354 N 
ATOM     46  C   UNL A   1      44.008  27.857  27.209  1.00  0.00     0.074 A 
ATOM     47  C   UNL A   1      43.270  26.636  26.963  1.00  0.00     0.031 C 
ATOM     48  C   UNL A   1      50.096  26.044  26.170  1.00  0.00     0.029 A 
ATOM     49  C   UNL A   1      49.619  27.381  26.520  1.00  0.00     0.049 A 
ATOM     50  H   UNL A   1      47.654  27.944  26.933  1.00  0.00     0.167 HD
ATOM     51  C   UNL A   1      43.448  29.020  27.624  1.00  0.00     0.034 A 
ATOM     52  C   UNL A   1      50.382  28.487  26.646  1.00  0.00     0.034 A 
ATOM     53  C   UNL A   1      44.193  30.235  27.844  1.00  0.00     0.049 A 
ATOM     54  C   UNL A   1      49.718  29.803  26.989  1.00  0.00     0.074 A 
ATOM     55  C   UNL A   1      43.723  31.471  28.252  1.00  0.00     0.029 A 
ATOM     56  N   UNL A   1      45.563  30.371  27.664  1.00  0.00    -0.354 N 
ATOM     57  N   UNL A   1      48.450  30.055  27.223  1.00  0.00    -0.248 NA
ATOM     58  C   UNL A   1      50.589  30.983  27.086  1.00  0.00     0.031 C 
ATOM     59  C   UNL A   1      44.794  32.371  28.248  1.00  0.00     0.029 A 
ATOM     60  C   UNL A   1      45.949  31.677  27.924  1.00  0.00     0.049 A 
ATOM     61  H   UNL A   1      46.171  29.647  27.392  1.00  0.00     0.167 HD
ATOM     62  C   UNL A   1      48.385  31.412  27.540  1.00  0.00     0.074 A 
ATOM     63  C   UNL A   1      49.738  31.919  27.476  1.00  0.00     0.031 C 
ATOM     64  C   UNL A   1      47.304  32.170  27.862  1.00  0.00     0.034 A 
BRANCH  51  65
ATOM     65  C   UNL A   1      41.952  29.039  27.816  1.00  0.00     0.023 A 
ATOM     66  C   UNL A   1      41.372  28.980  29.095  1.00  0.00     0.031 A 
ATOM     67  C   UNL A   1      41.093  29.101  26.705  1.00  0.00     0.131 A 
ATOM     68  C   UNL A   1      39.977  28.922  29.228  1.00  0.00     0.055 A 
ATOM     69  C   UNL A   1      39.705  29.123  26.848  1.00  0.00     0.041 A 
ATOM     70  F   UNL A   1      41.590  29.133  25.458  1.00  0.00    -0.206 F 
ATOM     71  C   UNL A   1      39.139  29.021  28.115  1.00  0.00     0.022 A 
BRANCH  68  72
ATOM     72  S   UNL A   1      39.277  28.581  30.866  1.00  0.00     0.124 S 
ATOM     73  O   UNL A   1      38.683  27.261  30.664  1.00  0.00    -0.237 OA
ATOM     74  O   UNL A   1      40.452  28.627  31.728  1.00  0.00    -0.237 OA
ATOM     75  O   UNL A   1      38.316  29.666  31.061  1.00  0.00    -0.744 OA
ENDBRANCH  68  72
ENDBRANCH  51  65
BRANCH  52  76
ATOM     76  C   UNL A   1      51.856  28.433  26.403  1.00  0.00     0.023 A 
ATOM     77  C   UNL A   1      52.371  28.377  25.099  1.00  0.00     0.031 A 
ATOM     78  C   UNL A   1      52.764  28.341  27.472  1.00  0.00     0.131 A 
ATOM     79  C   UNL A   1      53.744  28.166  24.894  1.00  0.00     0.055 A 
ATOM     80  C   UNL A   1      54.138  28.199  27.264  1.00  0.00     0.041 A 
ATOM     81  F   UNL A   1      52.329  28.379  28.741  1.00  0.00    -0.206 F 
ATOM     82  C   UNL A   1      54.634  28.092  25.969  1.00  0.00     0.022 A 
BRANCH  79  83
ATOM     83  S   UNL A   1      54.332  27.863  23.206  1.00  0.00     0.124 S 
ATOM     84  O   UNL A   1      53.481  28.759  22.431  1.00  0.00    -0.237 OA
ATOM     85  O   UNL A   1      55.739  28.240  23.304  1.00  0.00    -0.237 OA
ATOM     86  O   UNL A   1      54.081  26.437  23.009  1.00  0.00    -0.744 OA
ENDBRANCH  79  83
ENDBRANCH  52  76
BRANCH  64  87
ATOM     87  C   UNL A   1      47.554  33.612  28.238  1.00  0.00     0.023 A 
ATOM     88  C   UNL A   1      47.581  34.641  27.281  1.00  0.00     0.031 A 
ATOM     89  C   UNL A   1      47.764  33.959  29.585  1.00  0.00     0.131 A 
ATOM     90  C   UNL A   1      47.866  35.957  27.676  1.00  0.00     0.055 A 
ATOM     91  C   UNL A   1      47.982  35.279  29.981  1.00  0.00     0.041 A 
ATOM     92  F   UNL A   1      47.751  33.019  30.544  1.00  0.00    -0.206 F 
ATOM     93  C   UNL A   1      48.047  36.286  29.023  1.00  0.00     0.022 A 
BRANCH  90  94
ATOM     94  S   UNL A   1      48.082  37.226  26.399  1.00  0.00     0.124 S 
ATOM     95  O   UNL A   1      49.196  36.688  25.623  1.00  0.00    -0.237 OA
ATOM     96  O   UNL A   1      46.784  37.224  25.733  1.00  0.00    -0.237 OA
ATOM     97  O   UNL A   1      48.385  38.435  27.162  1.00  0.00    -0.744 OA
ENDBRANCH  90  94
ENDBRANCH  64  87
ENDBRANCH  38  39
ENDBRANCH  31  33
ENDBRANCH  30  31
ENDBRANCH  29  30
ENDBRANCH  28  29
ENDBRANCH  27  28
ENDBRANCH  26  27
ENDBRANCH   1  26
TORSDOF 23
ENDMDL
MODEL 2
REMARK VINA RESULT:      -9.8      5.704     10.918
REMARK SMILES Cc1cc(CNc2ccc(C(=O)OCCOCCOCCOC(=O)c3ccc(-c4c5nc(c(-c6cc(S(=O)(=O)[O-])ccc6F)c6ccc([nH]6)c(-c6cc(S(=O)(=O)[O-])ccc6F)c6nc(c(-c7cc(S(=O)(=O)[O-])ccc7F)c7ccc4[nH]7)C=C6)C=C5)cc3)c(F)c2F)sc1C
REMARK SMILES IDX 17 1 16 2 15 3 14 4 13 5 11 6 12 7 10 8 7 9 8 10 90 11 9 12
REMARK SMILES IDX 88 13 91 14 89 15 6 16 5 18 4 19 1 20 2 21 3 22 93 23 92 24
REMARK SMILES IDX 94 25 18 26 19 27 20 28 21 29 22 30 23 31 24 32 25 33 26 34
REMARK SMILES IDX 87 35 27 36 86 37 28 38 29 39 30 40 80 41 31 42 85 43 79 44
REMARK SMILES IDX 81 45 32 46 84 47 78 48 77 49 33 51 65 52 45 53 64 54 46 55
REMARK SMILES IDX 49 56 63 57 82 58 47 59 48 60 62 62 83 63 50 64 34 65 35 66
REMARK SMILES IDX 43 67 36 68 42 69 44 70 41 71 37 72 38 73 39 74 40 75 66 76
REMARK SMILES IDX 67 77 75 78 68 79 74 80 76 81 73 82 69 83 70 84 71 85 72 86
REMARK SMILES IDX 51 87 52 88 60 89 53 90 59 91 61 92 58 93 54 94 55 95 56 96
REMARK SMILES IDX 57 97
REMARK H PARENT 6 17 81 50 49 61
REMARK Flexibility Score: inf
ROOT
ATOM      1  C   UNL A   1      46.202  20.304  24.795  1.00  0.00     0.188 C 
ENDROOT
BRANCH   1   2
ATOM      2  O   UNL A   1      46.043  21.299  25.791  1.00  0.00    -0.376 OA
BRANCH   2   3
ATOM      3  C   UNL A   1      45.477  22.556  25.458  1.00  0.00     0.202 C 
BRANCH   3   4
ATOM      4  C   UNL A   1      46.272  23.864  25.580  1.00  0.00     0.261 C 
BRANCH   4   5
ATOM      5  O   UNL A   1      45.536  25.055  25.271  1.00  0.00    -0.460 OA
BRANCH   5   6
ATOM      6  C   UNL A   1      46.288  26.139  24.956  1.00  0.00     0.341 C 
ATOM      7  O   UNL A   1      47.180  26.199  24.130  1.00  0.00    -0.246 OA
BRANCH   6   8
ATOM      8  C   UNL A   1      45.761  27.336  25.627  1.00  0.00     0.099 A 
ATOM      9  C   UNL A   1      44.842  29.603  27.030  1.00  0.00     0.074 A 
ATOM     10  C   UNL A   1      46.195  29.473  26.706  1.00  0.00     0.030 A 
ATOM     11  C   UNL A   1      43.964  28.590  26.594  1.00  0.00     0.182 A 
ATOM     12  C   UNL A   1      46.658  28.337  26.027  1.00  0.00     0.021 A 
ATOM     13  C   UNL A   1      44.408  27.475  25.893  1.00  0.00     0.175 A 
ATOM     14  F   UNL A   1      42.652  28.709  26.866  1.00  0.00    -0.201 F 
ATOM     15  F   UNL A   1      43.527  26.539  25.511  1.00  0.00    -0.203 F 
BRANCH   9  16
ATOM     16  N   UNL A   1      44.332  30.665  27.747  1.00  0.00    -0.378 N 
ATOM     17  H   UNL A   1      43.410  30.573  28.081  1.00  0.00     0.161 HD
BRANCH  16  18
ATOM     18  C   UNL A   1      45.021  31.909  28.058  1.00  0.00     0.160 C 
BRANCH  18  19
ATOM     19  C   UNL A   1      44.023  33.016  28.263  1.00  0.00     0.024 A 
ATOM     20  C   UNL A   1      41.266  34.634  30.239  1.00  0.00     0.045 C 
ATOM     21  C   UNL A   1      42.332  34.318  29.242  1.00  0.00    -0.037 A 
ATOM     22  C   UNL A   1      43.057  33.086  29.248  1.00  0.00     0.021 A 
ATOM     23  C   UNL A   1      42.763  35.138  28.210  1.00  0.00     0.005 A 
ATOM     24  S   UNL A   1      44.023  34.419  27.297  1.00  0.00    -0.144 S 
ATOM     25  C   UNL A   1      42.268  36.500  27.847  1.00  0.00     0.056 C 
ENDBRANCH  18  19
ENDBRANCH  16  18
ENDBRANCH   9  16
ENDBRANCH   6   8
ENDBRANCH   5   6
ENDBRANCH   4   5
ENDBRANCH   3   4
ENDBRANCH   2   3
ENDBRANCH   1   2
BRANCH   1  26
ATOM     26  C   UNL A   1      45.039  19.969  23.839  1.00  0.00     0.188 C 
BRANCH  26  27
ATOM     27  O   UNL A   1      44.188  18.900  24.170  1.00  0.00    -0.376 OA
BRANCH  27  28
ATOM     28  C   UNL A   1      43.475  18.883  25.394  1.00  0.00     0.202 C 
BRANCH  28  29
ATOM     29  C   UNL A   1      42.626  20.030  25.978  1.00  0.00     0.261 C 
BRANCH  29  30
ATOM     30  O   UNL A   1      41.273  19.760  26.342  1.00  0.00    -0.460 OA
BRANCH  30  31
ATOM     31  C   UNL A   1      40.421  20.806  26.226  1.00  0.00     0.338 C 
ATOM     32  O   UNL A   1      39.258  20.771  25.842  1.00  0.00    -0.246 OA
BRANCH  31  33
ATOM     33  C   UNL A   1      41.056  21.998  26.810  1.00  0.00     0.060 A 
ATOM     34  C   UNL A   1      41.520  21.943  28.131  1.00  0.00     0.016 A 
ATOM     35  C   UNL A   1      41.171  23.172  26.064  1.00  0.00     0.016 A 
ATOM     36  C   UNL A   1      42.093  23.071  28.717  1.00  0.00     0.010 A 
ATOM     37  C   UNL A   1      41.724  24.309  26.661  1.00  0.00     0.010 A 
ATOM     38  C   UNL A   1      42.168  24.270  27.996  1.00  0.00    -0.014 A 
BRANCH  38  39
ATOM     39  C   UNL A   1      42.541  25.531  28.684  1.00  0.00     0.031 A 
ATOM     40  C   UNL A   1      43.984  25.744  29.054  1.00  0.00     0.074 A 
ATOM     41  C   UNL A   1      41.622  26.471  28.970  1.00  0.00     0.049 A 
ATOM     42  N   UNL A   1      44.533  26.707  29.745  1.00  0.00    -0.248 NA
ATOM     43  C   UNL A   1      44.932  24.723  28.579  1.00  0.00     0.031 C 
ATOM     44  C   UNL A   1      40.207  26.409  28.608  1.00  0.00     0.029 A 
ATOM     45  N   UNL A   1      41.744  27.662  29.644  1.00  0.00    -0.354 N 
ATOM     46  C   UNL A   1      45.891  26.412  29.791  1.00  0.00     0.074 A 
ATOM     47  C   UNL A   1      46.073  25.159  29.090  1.00  0.00     0.031 C 
ATOM     48  C   UNL A   1      39.589  27.507  29.077  1.00  0.00     0.029 A 
ATOM     49  C   UNL A   1      40.550  28.326  29.814  1.00  0.00     0.049 A 
ATOM     50  H   UNL A   1      42.604  28.008  29.975  1.00  0.00     0.167 HD
ATOM     51  C   UNL A   1      46.894  27.125  30.359  1.00  0.00     0.034 A 
ATOM     52  C   UNL A   1      40.267  29.444  30.514  1.00  0.00     0.034 A 
ATOM     53  C   UNL A   1      46.695  28.361  31.073  1.00  0.00     0.049 A 
ATOM     54  C   UNL A   1      41.384  30.157  31.244  1.00  0.00     0.074 A 
ATOM     55  C   UNL A   1      47.639  29.157  31.697  1.00  0.00     0.029 A 
ATOM     56  N   UNL A   1      45.465  28.977  31.270  1.00  0.00    -0.354 N 
ATOM     57  N   UNL A   1      42.664  29.863  31.290  1.00  0.00    -0.248 NA
ATOM     58  C   UNL A   1      41.019  31.354  32.015  1.00  0.00     0.031 C 
ATOM     59  C   UNL A   1      46.974  30.213  32.331  1.00  0.00     0.029 A 
ATOM     60  C   UNL A   1      45.624  30.125  32.030  1.00  0.00     0.049 A 
ATOM     61  H   UNL A   1      44.606  28.646  30.921  1.00  0.00     0.167 HD
ATOM     62  C   UNL A   1      43.257  30.866  32.056  1.00  0.00     0.074 A 
ATOM     63  C   UNL A   1      42.200  31.774  32.442  1.00  0.00     0.031 C 
ATOM     64  C   UNL A   1      44.561  31.027  32.404  1.00  0.00     0.034 A 
BRANCH  51  65
ATOM     65  C   UNL A   1      48.288  26.554  30.269  1.00  0.00     0.023 A 
ATOM     66  C   UNL A   1      49.099  26.762  29.140  1.00  0.00     0.031 A 
ATOM     67  C   UNL A   1      48.807  25.777  31.319  1.00  0.00     0.131 A 
ATOM     68  C   UNL A   1      50.358  26.150  29.062  1.00  0.00     0.055 A 
ATOM     69  C   UNL A   1      50.092  25.236  31.269  1.00  0.00     0.041 A 
ATOM     70  F   UNL A   1      48.068  25.522  32.411  1.00  0.00    -0.206 F 
ATOM     71  C   UNL A   1      50.872  25.411  30.130  1.00  0.00     0.022 A 
BRANCH  68  72
ATOM     72  S   UNL A   1      51.260  26.223  27.490  1.00  0.00     0.124 S 
ATOM     73  O   UNL A   1      51.231  24.825  27.068  1.00  0.00    -0.237 OA
ATOM     74  O   UNL A   1      50.449  27.145  26.703  1.00  0.00    -0.237 OA
ATOM     75  O   UNL A   1      52.579  26.724  27.874  1.00  0.00    -0.744 OA
ENDBRANCH  68  72
ENDBRANCH  51  65
BRANCH  52  76
ATOM     76  C   UNL A   1      38.865  29.951  30.614  1.00  0.00     0.023 A 
ATOM     77  C   UNL A   1      38.420  31.008  29.805  1.00  0.00     0.031 A 
ATOM     78  C   UNL A   1      37.980  29.451  31.586  1.00  0.00     0.131 A 
ATOM     79  C   UNL A   1      37.154  31.575  30.024  1.00  0.00     0.055 A 
ATOM     80  C   UNL A   1      36.696  29.973  31.755  1.00  0.00     0.041 A 
ATOM     81  F   UNL A   1      38.354  28.447  32.394  1.00  0.00    -0.206 F 
ATOM     82  C   UNL A   1      36.283  31.055  30.984  1.00  0.00     0.022 A 
BRANCH  79  83
ATOM     83  S   UNL A   1      36.713  33.085  29.121  1.00  0.00     0.124 S 
ATOM     84  O   UNL A   1      35.977  32.546  27.984  1.00  0.00    -0.237 OA
ATOM     85  O   UNL A   1      35.922  33.809  30.112  1.00  0.00    -0.237 OA
ATOM     86  O   UNL A   1      38.009  33.682  28.802  1.00  0.00    -0.744 OA
ENDBRANCH  79  83
ENDBRANCH  52  76
BRANCH  64  87
ATOM     87  C   UNL A   1      44.924  32.268  33.185  1.00  0.00     0.023 A 
ATOM     88  C   UNL A   1      44.806  32.333  34.585  1.00  0.00     0.031 A 
ATOM     89  C   UNL A   1      45.402  33.407  32.511  1.00  0.00     0.131 A 
ATOM     90  C   UNL A   1      45.110  33.526  35.258  1.00  0.00     0.055 A 
ATOM     91  C   UNL A   1      45.764  34.569  33.192  1.00  0.00     0.041 A 
ATOM     92  F   UNL A   1      45.534  33.405  31.174  1.00  0.00    -0.206 F 
ATOM     93  C   UNL A   1      45.607  34.638  34.572  1.00  0.00     0.022 A 
BRANCH  90  94
ATOM     94  S   UNL A   1      44.766  33.639  37.035  1.00  0.00     0.124 S 
ATOM     95  O   UNL A   1      45.743  32.707  37.592  1.00  0.00    -0.237 OA
ATOM     96  O   UNL A   1      45.005  35.052  37.311  1.00  0.00    -0.237 OA
ATOM     97  O   UNL A   1      43.373  33.214  37.144  1.00  0.00    -0.744 OA
ENDBRANCH  90  94
ENDBRANCH  64  87
ENDBRANCH  38  39
ENDBRANCH  31  33
ENDBRANCH  30  31
ENDBRANCH  29  30
ENDBRANCH  28  29
ENDBRANCH  27  28
ENDBRANCH  26  27
ENDBRANCH   1  26
TORSDOF 23
ENDMDL
MODEL 3
REMARK VINA RESULT:      -9.5      2.109      2.675
REMARK SMILES Cc1cc(CNc2ccc(C(=O)OCCOCCOCCOC(=O)c3ccc(-c4c5nc(c(-c6cc(S(=O)(=O)[O-])ccc6F)c6ccc([nH]6)c(-c6cc(S(=O)(=O)[O-])ccc6F)c6nc(c(-c7cc(S(=O)(=O)[O-])ccc7F)c7ccc4[nH]7)C=C6)C=C5)cc3)c(F)c2F)sc1C
REMARK SMILES IDX 17 1 16 2 15 3 14 4 13 5 11 6 12 7 10 8 7 9 8 10 90 11 9 12
REMARK SMILES IDX 88 13 91 14 89 15 6 16 5 18 4 19 1 20 2 21 3 22 93 23 92 24
REMARK SMILES IDX 94 25 18 26 19 27 20 28 21 29 22 30 23 31 24 32 25 33 26 34
REMARK SMILES IDX 87 35 27 36 86 37 28 38 29 39 30 40 80 41 31 42 85 43 79 44
REMARK SMILES IDX 81 45 32 46 84 47 78 48 77 49 33 51 65 52 45 53 64 54 46 55
REMARK SMILES IDX 49 56 63 57 82 58 47 59 48 60 62 62 83 63 50 64 34 65 35 66
REMARK SMILES IDX 43 67 36 68 42 69 44 70 41 71 37 72 38 73 39 74 40 75 66 76
REMARK SMILES IDX 67 77 75 78 68 79 74 80 76 81 73 82 69 83 70 84 71 85 72 86
REMARK SMILES IDX 51 87 52 88 60 89 53 90 59 91 61 92 58 93 54 94 55 95 56 96
REMARK SMILES IDX 57 97
REMARK H PARENT 6 17 81 50 49 61
REMARK Flexibility Score: inf
ROOT
ATOM      1  C   UNL A   1      39.837  21.517  26.223  1.00  0.00     0.188 C 
ENDROOT
BRANCH   1   2
ATOM      2  O   UNL A   1      38.447  21.279  26.095  1.00  0.00    -0.376 OA
BRANCH   2   3
ATOM      3  C   UNL A   1      37.741  21.767  24.965  1.00  0.00     0.202 C 
BRANCH   3   4
ATOM      4  C   UNL A   1      36.361  22.426  25.090  1.00  0.00     0.261 C 
BRANCH   4   5
ATOM      5  O   UNL A   1      35.356  21.907  24.209  1.00  0.00    -0.460 OA
BRANCH   5   6
ATOM      6  C   UNL A   1      34.306  21.298  24.817  1.00  0.00     0.341 C 
ATOM      7  O   UNL A   1      34.288  20.186  25.310  1.00  0.00    -0.246 OA
BRANCH   6   8
ATOM      8  C   UNL A   1      33.195  22.246  24.981  1.00  0.00     0.099 A 
ATOM      9  C   UNL A   1      31.013  23.980  25.409  1.00  0.00     0.074 A 
ATOM     10  C   UNL A   1      31.928  23.729  26.435  1.00  0.00     0.030 A 
ATOM     11  C   UNL A   1      31.249  23.374  24.158  1.00  0.00     0.182 A 
ATOM     12  C   UNL A   1      33.002  22.851  26.232  1.00  0.00     0.021 A 
ATOM     13  C   UNL A   1      32.329  22.527  23.937  1.00  0.00     0.175 A 
ATOM     14  F   UNL A   1      30.400  23.627  23.146  1.00  0.00    -0.201 F 
ATOM     15  F   UNL A   1      32.497  21.972  22.728  1.00  0.00    -0.203 F 
BRANCH   9  16
ATOM     16  N   UNL A   1      29.904  24.787  25.562  1.00  0.00    -0.378 N 
ATOM     17  H   UNL A   1      29.161  24.423  26.095  1.00  0.00     0.161 HD
BRANCH  16  18
ATOM     18  C   UNL A   1      29.725  26.123  25.012  1.00  0.00     0.160 C 
BRANCH  18  19
ATOM     19  C   UNL A   1      31.024  26.881  25.064  1.00  0.00     0.024 A 
ATOM     20  C   UNL A   1      33.937  28.538  23.365  1.00  0.00     0.045 C 
ATOM     21  C   UNL A   1      32.948  28.027  24.360  1.00  0.00    -0.037 A 
ATOM     22  C   UNL A   1      31.834  27.209  23.995  1.00  0.00     0.021 A 
ATOM     23  C   UNL A   1      32.958  28.265  25.726  1.00  0.00     0.005 A 
ATOM     24  S   UNL A   1      31.635  27.519  26.521  1.00  0.00    -0.144 S 
ATOM     25  C   UNL A   1      33.945  29.060  26.517  1.00  0.00     0.056 C 
ENDBRANCH  18  19
ENDBRANCH  16  18
ENDBRANCH   9  16
ENDBRANCH   6   8
ENDBRANCH   5   6
ENDBRANCH   4   5
ENDBRANCH   3   4
ENDBRANCH   2   3
ENDBRANCH   1   2
BRANCH   1  26
ATOM     26  C   UNL A   1      40.758  20.434  26.822  1.00  0.00     0.188 C 
BRANCH  26  27
ATOM     27  O   UNL A   1      42.016  20.223  26.231  1.00  0.00    -0.376 OA
BRANCH  27  28
ATOM     28  C   UNL A   1      42.605  18.935  26.203  1.00  0.00     0.202 C 
BRANCH  28  29
ATOM     29  C   UNL A   1      43.817  18.497  25.358  1.00  0.00     0.261 C 
BRANCH  29  30
ATOM     30  O   UNL A   1      44.926  19.388  25.243  1.00  0.00    -0.460 OA
BRANCH  30  31
ATOM     31  C   UNL A   1      44.801  20.352  24.301  1.00  0.00     0.338 C 
ATOM     32  O   UNL A   1      44.531  20.194  23.116  1.00  0.00    -0.246 OA
BRANCH  31  33
ATOM     33  C   UNL A   1      44.867  21.667  24.958  1.00  0.00     0.060 A 
ATOM     34  C   UNL A   1      44.497  22.808  24.233  1.00  0.00     0.016 A 
ATOM     35  C   UNL A   1      45.313  21.775  26.276  1.00  0.00     0.016 A 
ATOM     36  C   UNL A   1      44.583  24.068  24.823  1.00  0.00     0.010 A 
ATOM     37  C   UNL A   1      45.422  23.042  26.858  1.00  0.00     0.010 A 
ATOM     38  C   UNL A   1      45.079  24.195  26.128  1.00  0.00    -0.014 A 
BRANCH  38  39
ATOM     39  C   UNL A   1      45.409  25.536  26.672  1.00  0.00     0.031 A 
ATOM     40  C   UNL A   1      44.333  26.301  27.392  1.00  0.00     0.074 A 
ATOM     41  C   UNL A   1      46.641  26.062  26.537  1.00  0.00     0.049 A 
ATOM     42  N   UNL A   1      44.349  27.521  27.859  1.00  0.00    -0.248 NA
ATOM     43  C   UNL A   1      43.063  25.587  27.607  1.00  0.00     0.031 C 
ATOM     44  C   UNL A   1      47.783  25.394  25.915  1.00  0.00     0.029 A 
ATOM     45  N   UNL A   1      47.131  27.291  26.907  1.00  0.00    -0.354 N 
ATOM     46  C   UNL A   1      43.095  27.725  28.424  1.00  0.00     0.074 A 
ATOM     47  C   UNL A   1      42.332  26.515  28.204  1.00  0.00     0.031 C 
ATOM     48  C   UNL A   1      48.838  26.227  25.935  1.00  0.00     0.029 A 
ATOM     49  C   UNL A   1      48.436  27.504  26.524  1.00  0.00     0.049 A 
ATOM     50  H   UNL A   1      46.599  27.957  27.399  1.00  0.00     0.167 HD
ATOM     51  C   UNL A   1      42.626  28.819  29.073  1.00  0.00     0.034 A 
ATOM     52  C   UNL A   1      49.199  28.613  26.608  1.00  0.00     0.034 A 
ATOM     53  C   UNL A   1      43.390  30.027  29.265  1.00  0.00     0.049 A 
ATOM     54  C   UNL A   1      48.612  29.863  27.226  1.00  0.00     0.074 A 
ATOM     55  C   UNL A   1      43.007  31.197  29.896  1.00  0.00     0.029 A 
ATOM     56  N   UNL A   1      44.690  30.225  28.818  1.00  0.00    -0.354 N 
ATOM     57  N   UNL A   1      47.420  30.049  27.747  1.00  0.00    -0.248 NA
ATOM     58  C   UNL A   1      49.474  31.053  27.268  1.00  0.00     0.031 C 
ATOM     59  C   UNL A   1      44.046  32.126  29.768  1.00  0.00     0.029 A 
ATOM     60  C   UNL A   1      45.111  31.507  29.133  1.00  0.00     0.049 A 
ATOM     61  H   UNL A   1      45.232  29.553  28.345  1.00  0.00     0.167 HD
ATOM     62  C   UNL A   1      47.412  31.362  28.219  1.00  0.00     0.074 A 
ATOM     63  C   UNL A   1      48.717  31.915  27.929  1.00  0.00     0.031 C 
ATOM     64  C   UNL A   1      46.418  32.047  28.843  1.00  0.00     0.034 A 
BRANCH  51  65
ATOM     65  C   UNL A   1      41.204  28.770  29.576  1.00  0.00     0.023 A 
ATOM     66  C   UNL A   1      40.141  29.313  28.834  1.00  0.00     0.031 A 
ATOM     67  C   UNL A   1      40.911  28.189  30.822  1.00  0.00     0.131 A 
ATOM     68  C   UNL A   1      38.845  29.317  29.372  1.00  0.00     0.055 A 
ATOM     69  C   UNL A   1      39.607  28.125  31.315  1.00  0.00     0.041 A 
ATOM     70  F   UNL A   1      41.890  27.678  31.586  1.00  0.00    -0.206 F 
ATOM     71  C   UNL A   1      38.566  28.703  30.595  1.00  0.00     0.022 A 
BRANCH  68  72
ATOM     72  S   UNL A   1      37.554  30.256  28.510  1.00  0.00     0.124 S 
ATOM     73  O   UNL A   1      36.345  29.772  29.173  1.00  0.00    -0.237 OA
ATOM     74  O   UNL A   1      37.927  31.637  28.791  1.00  0.00    -0.237 OA
ATOM     75  O   UNL A   1      37.701  29.840  27.116  1.00  0.00    -0.744 OA
ENDBRANCH  68  72
ENDBRANCH  51  65
BRANCH  52  76
ATOM     76  C   UNL A   1      50.588  28.632  26.056  1.00  0.00     0.023 A 
ATOM     77  C   UNL A   1      50.824  28.927  24.705  1.00  0.00     0.031 A 
ATOM     78  C   UNL A   1      51.688  28.262  26.849  1.00  0.00     0.131 A 
ATOM     79  C   UNL A   1      52.114  28.784  24.170  1.00  0.00     0.055 A 
ATOM     80  C   UNL A   1      52.982  28.187  26.329  1.00  0.00     0.041 A 
ATOM     81  F   UNL A   1      51.522  27.960  28.146  1.00  0.00    -0.206 F 
ATOM     82  C   UNL A   1      53.198  28.430  24.976  1.00  0.00     0.022 A 
BRANCH  79  83
ATOM     83  S   UNL A   1      52.331  28.944  22.376  1.00  0.00     0.124 S 
ATOM     84  O   UNL A   1      53.658  29.541  22.291  1.00  0.00    -0.237 OA
ATOM     85  O   UNL A   1      52.221  27.557  21.934  1.00  0.00    -0.237 OA
ATOM     86  O   UNL A   1      51.226  29.814  21.976  1.00  0.00    -0.744 OA
ENDBRANCH  79  83
ENDBRANCH  52  76
BRANCH  64  87
ATOM     87  C   UNL A   1      46.730  33.447  29.315  1.00  0.00     0.023 A 
ATOM     88  C   UNL A   1      46.559  34.571  28.488  1.00  0.00     0.031 A 
ATOM     89  C   UNL A   1      47.203  33.657  30.624  1.00  0.00     0.131 A 
ATOM     90  C   UNL A   1      46.910  35.846  28.959  1.00  0.00     0.055 A 
ATOM     91  C   UNL A   1      47.489  34.935  31.109  1.00  0.00     0.041 A 
ATOM     92  F   UNL A   1      47.387  32.622  31.459  1.00  0.00    -0.206 F 
ATOM     93  C   UNL A   1      47.355  36.037  30.270  1.00  0.00     0.022 A 
BRANCH  90  94
ATOM     94  S   UNL A   1      46.860  37.247  27.808  1.00  0.00     0.124 S 
ATOM     95  O   UNL A   1      46.712  38.381  28.717  1.00  0.00    -0.237 OA
ATOM     96  O   UNL A   1      48.147  37.140  27.129  1.00  0.00    -0.237 OA
ATOM     97  O   UNL A   1      45.694  36.965  26.974  1.00  0.00    -0.744 OA
ENDBRANCH  90  94
ENDBRANCH  64  87
ENDBRANCH  38  39
ENDBRANCH  31  33
ENDBRANCH  30  31
ENDBRANCH  29  30
ENDBRANCH  28  29
ENDBRANCH  27  28
ENDBRANCH  26  27
ENDBRANCH   1  26
TORSDOF 23
ENDMDL
