MODEL 1
REMARK VINA RESULT:     -10.5      0.000      0.000
REMARK SMILES C[C@H]1CCCC[C@H]1[N@H+]1[C@@H](C(=O)OCCOCCOCCOC(=O)c2ccc(-c3c4nc(c(-c5cc(S(=O)(=O)[O-])ccc5F)c5ccc([nH]5)c(-c5cc(S(=O)(=O)[O-])ccc5F)c5nc(c(-c6cc(S(=O)(=O)[O-])ccc6F)c6ccc3[nH]6)C=C5)C=C4)cc2)CC[C@@H]2CCCC[C@@H]21
REMARK SMILES IDX 17 1 16 2 15 3 14 4 13 5 12 6 10 7 11 8 9 9 8 10 94 11 87 13
REMARK SMILES IDX 89 14 93 15 88 16 90 17 92 18 91 19 7 20 1 21 2 22 3 23 4 24
REMARK SMILES IDX 6 25 5 26 18 27 19 28 20 29 21 30 22 31 23 32 24 33 25 34
REMARK SMILES IDX 86 35 26 36 85 37 27 38 28 39 29 40 79 41 30 42 84 43 78 44
REMARK SMILES IDX 80 45 31 46 83 47 77 48 76 49 32 51 64 52 44 53 63 54 45 55
REMARK SMILES IDX 48 56 62 57 81 58 46 59 47 60 61 62 82 63 49 64 33 65 34 66
REMARK SMILES IDX 42 67 35 68 41 69 43 70 40 71 36 72 37 73 38 74 39 75 65 76
REMARK SMILES IDX 66 77 74 78 67 79 73 80 75 81 72 82 68 83 69 84 70 85 71 86
REMARK SMILES IDX 50 87 51 88 59 89 52 90 58 91 60 92 57 93 53 94 54 95 55 96
REMARK SMILES IDX 56 97
REMARK H PARENT 8 12 80 50 48 61
REMARK Flexibility Score: inf
ROOT
ATOM      1  C   UNL A   1      37.939  22.094  25.653  1.00  0.00     0.188 C 
ENDROOT
BRANCH   1   2
ATOM      2  C   UNL A   1      36.613  21.295  25.569  1.00  0.00     0.188 C 
BRANCH   2   3
ATOM      3  O   UNL A   1      35.420  22.038  25.792  1.00  0.00    -0.376 OA
BRANCH   3   4
ATOM      4  C   UNL A   1      35.554  23.434  26.126  1.00  0.00     0.202 C 
BRANCH   4   5
ATOM      5  C   UNL A   1      35.240  24.482  25.028  1.00  0.00     0.261 C 
BRANCH   5   6
ATOM      6  O   UNL A   1      34.794  23.999  23.708  1.00  0.00    -0.459 OA
BRANCH   6   7
ATOM      7  C   UNL A   1      33.907  24.856  23.081  1.00  0.00     0.365 C 
ATOM      8  O   UNL A   1      33.579  24.639  21.910  1.00  0.00    -0.245 OA
BRANCH   7   9
ATOM      9  C   UNL A   1      33.458  26.177  23.813  1.00  0.00     0.295 C 
ATOM     10  N   UNL A   1      32.264  26.480  24.717  1.00  0.00    -0.318 N 
ATOM     11  C   UNL A   1      31.956  27.939  24.877  1.00  0.00     0.188 C 
ATOM     12  H   UNL A   1      32.831  25.896  25.331  1.00  0.00     0.349 HD
ATOM     13  C   UNL A   1      33.449  27.262  22.700  1.00  0.00     0.078 C 
ATOM     14  C   UNL A   1      33.181  28.839  24.653  1.00  0.00     0.048 C 
ATOM     15  C   UNL A   1      31.310  28.429  26.210  1.00  0.00     0.065 C 
ATOM     16  C   UNL A   1      33.683  28.669  23.227  1.00  0.00     0.016 C 
ATOM     17  C   UNL A   1      34.258  28.634  25.744  1.00  0.00     0.010 C 
ATOM     18  C   UNL A   1      32.300  28.834  27.304  1.00  0.00     0.006 C 
ATOM     19  C   UNL A   1      33.662  28.202  27.090  1.00  0.00     0.001 C 
BRANCH  10  20
ATOM     20  C   UNL A   1      31.143  25.626  25.132  1.00  0.00     0.187 C 
ATOM     21  C   UNL A   1      30.284  24.351  22.896  1.00  0.00     0.014 C 
ATOM     22  C   UNL A   1      30.755  24.310  24.347  1.00  0.00     0.044 C 
ATOM     23  C   UNL A   1      31.798  23.205  24.519  1.00  0.00     0.009 C 
ATOM     24  C   UNL A   1      31.974  22.845  25.979  1.00  0.00     0.001 C 
ATOM     25  C   UNL A   1      31.173  25.253  26.597  1.00  0.00     0.065 C 
ATOM     26  C   UNL A   1      32.073  24.069  26.844  1.00  0.00     0.006 C 
ENDBRANCH  10  20
ENDBRANCH   7   9
ENDBRANCH   6   7
ENDBRANCH   5   6
ENDBRANCH   4   5
ENDBRANCH   3   4
ENDBRANCH   2   3
ENDBRANCH   1   2
BRANCH   1  27
ATOM     27  O   UNL A   1      39.072  21.276  25.402  1.00  0.00    -0.376 OA
BRANCH  27  28
ATOM     28  C   UNL A   1      39.246  20.077  26.153  1.00  0.00     0.202 C 
BRANCH  28  29
ATOM     29  C   UNL A   1      40.383  19.137  25.724  1.00  0.00     0.261 C 
BRANCH  29  30
ATOM     30  O   UNL A   1      41.549  19.275  26.563  1.00  0.00    -0.460 OA
BRANCH  30  31
ATOM     31  C   UNL A   1      42.517  20.071  26.046  1.00  0.00     0.338 C 
ATOM     32  O   UNL A   1      43.237  19.785  25.098  1.00  0.00    -0.246 OA
BRANCH  31  33
ATOM     33  C   UNL A   1      42.422  21.438  26.616  1.00  0.00     0.060 A 
ATOM     34  C   UNL A   1      42.233  22.474  25.703  1.00  0.00     0.016 A 
ATOM     35  C   UNL A   1      42.501  21.736  27.980  1.00  0.00     0.016 A 
ATOM     36  C   UNL A   1      42.082  23.794  26.135  1.00  0.00     0.010 A 
ATOM     37  C   UNL A   1      42.389  23.074  28.415  1.00  0.00     0.010 A 
ATOM     38  C   UNL A   1      42.167  24.115  27.492  1.00  0.00    -0.014 A 
BRANCH  38  39
ATOM     39  C   UNL A   1      42.383  25.551  27.826  1.00  0.00     0.031 A 
ATOM     40  C   UNL A   1      43.693  26.143  27.375  1.00  0.00     0.074 A 
ATOM     41  C   UNL A   1      41.435  26.370  28.324  1.00  0.00     0.049 A 
ATOM     42  N   UNL A   1      44.178  27.345  27.542  1.00  0.00    -0.248 NA
ATOM     43  C   UNL A   1      44.561  25.240  26.605  1.00  0.00     0.031 C 
ATOM     44  C   UNL A   1      40.053  26.001  28.621  1.00  0.00     0.029 A 
ATOM     45  N   UNL A   1      41.495  27.709  28.641  1.00  0.00    -0.354 N 
ATOM     46  C   UNL A   1      45.413  27.338  26.904  1.00  0.00     0.074 A 
ATOM     47  C   UNL A   1      45.604  26.010  26.365  1.00  0.00     0.031 C 
ATOM     48  C   UNL A   1      39.397  27.090  29.069  1.00  0.00     0.029 A 
ATOM     49  C   UNL A   1      40.323  28.220  29.153  1.00  0.00     0.049 A 
ATOM     50  H   UNL A   1      42.305  28.254  28.511  1.00  0.00     0.167 HD
ATOM     51  C   UNL A   1      46.317  28.340  26.781  1.00  0.00     0.034 A 
ATOM     52  C   UNL A   1      40.046  29.444  29.659  1.00  0.00     0.034 A 
ATOM     53  C   UNL A   1      46.142  29.649  27.353  1.00  0.00     0.049 A 
ATOM     54  C   UNL A   1      41.143  30.491  29.708  1.00  0.00     0.074 A 
ATOM     55  C   UNL A   1      47.033  30.706  27.376  1.00  0.00     0.029 A 
ATOM     56  N   UNL A   1      44.999  30.078  28.017  1.00  0.00    -0.354 N 
ATOM     57  N   UNL A   1      42.361  30.443  29.218  1.00  0.00    -0.248 NA
ATOM     58  C   UNL A   1      40.829  31.753  30.394  1.00  0.00     0.031 C 
ATOM     59  C   UNL A   1      46.464  31.742  28.124  1.00  0.00     0.029 A 
ATOM     60  C   UNL A   1      45.177  31.372  28.482  1.00  0.00     0.049 A 
ATOM     61  H   UNL A   1      44.184  29.542  28.140  1.00  0.00     0.167 HD
ATOM     62  C   UNL A   1      42.937  31.683  29.496  1.00  0.00     0.074 A 
ATOM     63  C   UNL A   1      41.934  32.456  30.199  1.00  0.00     0.031 C 
ATOM     64  C   UNL A   1      44.177  32.144  29.185  1.00  0.00     0.034 A 
BRANCH  51  65
ATOM     65  C   UNL A   1      47.620  27.978  26.109  1.00  0.00     0.023 A 
ATOM     66  C   UNL A   1      47.804  28.118  24.721  1.00  0.00     0.031 A 
ATOM     67  C   UNL A   1      48.629  27.338  26.849  1.00  0.00     0.131 A 
ATOM     68  C   UNL A   1      48.906  27.508  24.104  1.00  0.00     0.055 A 
ATOM     69  C   UNL A   1      49.779  26.835  26.240  1.00  0.00     0.041 A 
ATOM     70  F   UNL A   1      48.492  27.143  28.169  1.00  0.00    -0.206 F 
ATOM     71  C   UNL A   1      49.910  26.893  24.856  1.00  0.00     0.022 A 
BRANCH  68  72
ATOM     72  S   UNL A   1      48.880  27.311  22.298  1.00  0.00     0.124 S 
ATOM     73  O   UNL A   1      48.629  25.876  22.164  1.00  0.00    -0.237 OA
ATOM     74  O   UNL A   1      47.789  28.191  21.899  1.00  0.00    -0.237 OA
ATOM     75  O   UNL A   1      50.215  27.741  21.888  1.00  0.00    -0.744 OA
ENDBRANCH  68  72
ENDBRANCH  51  65
BRANCH  52  76
ATOM     76  C   UNL A   1      38.703  29.756  30.247  1.00  0.00     0.023 A 
ATOM     77  C   UNL A   1      37.757  30.532  29.552  1.00  0.00     0.031 A 
ATOM     78  C   UNL A   1      38.389  29.368  31.562  1.00  0.00     0.131 A 
ATOM     79  C   UNL A   1      36.565  30.925  30.189  1.00  0.00     0.055 A 
ATOM     80  C   UNL A   1      37.180  29.717  32.170  1.00  0.00     0.041 A 
ATOM     81  F   UNL A   1      39.263  28.650  32.285  1.00  0.00    -0.206 F 
ATOM     82  C   UNL A   1      36.266  30.509  31.487  1.00  0.00     0.022 A 
BRANCH  79  83
ATOM     83  S   UNL A   1      35.440  32.061  29.326  1.00  0.00     0.124 S 
ATOM     84  O   UNL A   1      36.375  33.004  28.724  1.00  0.00    -0.237 OA
ATOM     85  O   UNL A   1      34.747  31.166  28.406  1.00  0.00    -0.237 OA
ATOM     86  O   UNL A   1      34.613  32.603  30.403  1.00  0.00    -0.744 OA
ENDBRANCH  79  83
ENDBRANCH  52  76
BRANCH  64  87
ATOM     87  C   UNL A   1      44.503  33.582  29.528  1.00  0.00     0.023 A 
ATOM     88  C   UNL A   1      44.159  34.658  28.690  1.00  0.00     0.031 A 
ATOM     89  C   UNL A   1      45.170  33.878  30.733  1.00  0.00     0.131 A 
ATOM     90  C   UNL A   1      44.528  35.967  29.041  1.00  0.00     0.055 A 
ATOM     91  C   UNL A   1      45.474  35.187  31.109  1.00  0.00     0.041 A 
ATOM     92  F   UNL A   1      45.528  32.895  31.574  1.00  0.00    -0.206 F 
ATOM     93  C   UNL A   1      45.165  36.240  30.254  1.00  0.00     0.022 A 
BRANCH  90  94
ATOM     94  S   UNL A   1      44.256  37.306  27.847  1.00  0.00     0.124 S 
ATOM     95  O   UNL A   1      45.619  37.730  27.547  1.00  0.00    -0.237 OA
ATOM     96  O   UNL A   1      43.550  36.622  26.767  1.00  0.00    -0.237 OA
ATOM     97  O   UNL A   1      43.455  38.275  28.593  1.00  0.00    -0.744 OA
ENDBRANCH  90  94
ENDBRANCH  64  87
ENDBRANCH  38  39
ENDBRANCH  31  33
ENDBRANCH  30  31
ENDBRANCH  29  30
ENDBRANCH  28  29
ENDBRANCH  27  28
ENDBRANCH   1  27
TORSDOF 21
ENDMDL
MODEL 2
REMARK VINA RESULT:     -10.0      3.928      7.794
REMARK SMILES C[C@H]1CCCC[C@H]1[N@H+]1[C@@H](C(=O)OCCOCCOCCOC(=O)c2ccc(-c3c4nc(c(-c5cc(S(=O)(=O)[O-])ccc5F)c5ccc([nH]5)c(-c5cc(S(=O)(=O)[O-])ccc5F)c5nc(c(-c6cc(S(=O)(=O)[O-])ccc6F)c6ccc3[nH]6)C=C5)C=C4)cc2)CC[C@@H]2CCCC[C@@H]21
REMARK SMILES IDX 17 1 16 2 15 3 14 4 13 5 12 6 10 7 11 8 9 9 8 10 94 11 87 13
REMARK SMILES IDX 89 14 93 15 88 16 90 17 92 18 91 19 7 20 1 21 2 22 3 23 4 24
REMARK SMILES IDX 6 25 5 26 18 27 19 28 20 29 21 30 22 31 23 32 24 33 25 34
REMARK SMILES IDX 86 35 26 36 85 37 27 38 28 39 29 40 79 41 30 42 84 43 78 44
REMARK SMILES IDX 80 45 31 46 83 47 77 48 76 49 32 51 64 52 44 53 63 54 45 55
REMARK SMILES IDX 48 56 62 57 81 58 46 59 47 60 61 62 82 63 49 64 33 65 34 66
REMARK SMILES IDX 42 67 35 68 41 69 43 70 40 71 36 72 37 73 38 74 39 75 65 76
REMARK SMILES IDX 66 77 74 78 67 79 73 80 75 81 72 82 68 83 69 84 70 85 71 86
REMARK SMILES IDX 50 87 51 88 59 89 52 90 58 91 60 92 57 93 53 94 54 95 55 96
REMARK SMILES IDX 56 97
REMARK H PARENT 8 12 80 50 48 61
REMARK Flexibility Score: inf
ROOT
ATOM      1  C   UNL A   1      44.812  22.676  25.405  1.00  0.00     0.188 C 
ENDROOT
BRANCH   1   2
ATOM      2  C   UNL A   1      44.132  23.957  25.952  1.00  0.00     0.188 C 
BRANCH   2   3
ATOM      3  O   UNL A   1      43.735  23.920  27.319  1.00  0.00    -0.376 OA
BRANCH   3   4
ATOM      4  C   UNL A   1      44.763  23.709  28.308  1.00  0.00     0.202 C 
BRANCH   4   5
ATOM      5  C   UNL A   1      44.343  23.656  29.799  1.00  0.00     0.261 C 
BRANCH   5   6
ATOM      6  O   UNL A   1      44.115  24.930  30.506  1.00  0.00    -0.459 OA
BRANCH   6   7
ATOM      7  C   UNL A   1      45.047  25.181  31.498  1.00  0.00     0.365 C 
ATOM      8  O   UNL A   1      46.212  25.448  31.183  1.00  0.00    -0.245 OA
BRANCH   7   9
ATOM      9  C   UNL A   1      44.649  24.963  33.007  1.00  0.00     0.295 C 
ATOM     10  N   UNL A   1      44.284  25.953  34.112  1.00  0.00    -0.318 N 
ATOM     11  C   UNL A   1      44.374  25.398  35.503  1.00  0.00     0.188 C 
ATOM     12  H   UNL A   1      43.456  26.008  33.520  1.00  0.00     0.349 HD
ATOM     13  C   UNL A   1      45.773  24.058  33.585  1.00  0.00     0.078 C 
ATOM     14  C   UNL A   1      44.201  23.872  35.551  1.00  0.00     0.048 C 
ATOM     15  C   UNL A   1      43.424  25.967  36.602  1.00  0.00     0.065 C 
ATOM     16  C   UNL A   1      45.317  23.207  34.761  1.00  0.00     0.016 C 
ATOM     17  C   UNL A   1      42.773  23.438  35.143  1.00  0.00     0.010 C 
ATOM     18  C   UNL A   1      42.078  25.251  36.735  1.00  0.00     0.006 C 
ATOM     19  C   UNL A   1      41.715  24.499  35.468  1.00  0.00     0.001 C 
BRANCH  10  20
ATOM     20  C   UNL A   1      44.247  27.422  34.101  1.00  0.00     0.187 C 
ATOM     21  C   UNL A   1      46.798  28.250  33.693  1.00  0.00     0.014 C 
ATOM     22  C   UNL A   1      45.318  28.283  33.321  1.00  0.00     0.044 C 
ATOM     23  C   UNL A   1      45.165  28.163  31.805  1.00  0.00     0.009 C 
ATOM     24  C   UNL A   1      43.789  28.611  31.359  1.00  0.00     0.001 C 
ATOM     25  C   UNL A   1      42.895  27.992  33.733  1.00  0.00     0.065 C 
ATOM     26  C   UNL A   1      42.710  28.047  32.239  1.00  0.00     0.006 C 
ENDBRANCH  10  20
ENDBRANCH   7   9
ENDBRANCH   6   7
ENDBRANCH   5   6
ENDBRANCH   4   5
ENDBRANCH   3   4
ENDBRANCH   2   3
ENDBRANCH   1   2
BRANCH   1  27
ATOM     27  O   UNL A   1      43.865  21.734  24.920  1.00  0.00    -0.376 OA
BRANCH  27  28
ATOM     28  C   UNL A   1      43.384  20.717  25.795  1.00  0.00     0.202 C 
BRANCH  28  29
ATOM     29  C   UNL A   1      41.947  20.864  26.320  1.00  0.00     0.261 C 
BRANCH  29  30
ATOM     30  O   UNL A   1      41.278  22.013  25.759  1.00  0.00    -0.460 OA
BRANCH  30  31
ATOM     31  C   UNL A   1      40.100  22.319  26.359  1.00  0.00     0.338 C 
ATOM     32  O   UNL A   1      39.163  21.547  26.513  1.00  0.00    -0.246 OA
BRANCH  31  33
ATOM     33  C   UNL A   1      40.189  23.640  27.029  1.00  0.00     0.060 A 
ATOM     34  C   UNL A   1      39.719  24.733  26.301  1.00  0.00     0.016 A 
ATOM     35  C   UNL A   1      40.696  23.845  28.316  1.00  0.00     0.016 A 
ATOM     36  C   UNL A   1      39.710  26.015  26.855  1.00  0.00     0.010 A 
ATOM     37  C   UNL A   1      40.727  25.147  28.861  1.00  0.00     0.010 A 
ATOM     38  C   UNL A   1      40.222  26.243  28.135  1.00  0.00    -0.014 A 
BRANCH  38  39
ATOM     39  C   UNL A   1      40.531  27.658  28.488  1.00  0.00     0.031 A 
ATOM     40  C   UNL A   1      41.933  28.121  28.191  1.00  0.00     0.074 A 
ATOM     41  C   UNL A   1      39.612  28.567  28.871  1.00  0.00     0.049 A 
ATOM     42  N   UNL A   1      42.505  29.274  28.410  1.00  0.00    -0.248 NA
ATOM     43  C   UNL A   1      42.796  27.132  27.528  1.00  0.00     0.031 C 
ATOM     44  C   UNL A   1      38.176  28.330  29.006  1.00  0.00     0.029 A 
ATOM     45  N   UNL A   1      39.759  29.899  29.189  1.00  0.00    -0.354 N 
ATOM     46  C   UNL A   1      43.799  29.146  27.919  1.00  0.00     0.074 A 
ATOM     47  C   UNL A   1      43.927  27.798  27.409  1.00  0.00     0.031 C 
ATOM     48  C   UNL A   1      37.577  29.481  29.374  1.00  0.00     0.029 A 
ATOM     49  C   UNL A   1      38.589  30.522  29.562  1.00  0.00     0.049 A 
ATOM     50  H   UNL A   1      40.626  30.365  29.154  1.00  0.00     0.167 HD
ATOM     51  C   UNL A   1      44.801  30.059  27.899  1.00  0.00     0.034 A 
ATOM     52  C   UNL A   1      38.370  31.773  30.029  1.00  0.00     0.034 A 
ATOM     53  C   UNL A   1      44.684  31.385  28.444  1.00  0.00     0.049 A 
ATOM     54  C   UNL A   1      39.547  32.714  30.203  1.00  0.00     0.074 A 
ATOM     55  C   UNL A   1      45.661  32.356  28.568  1.00  0.00     0.029 A 
ATOM     56  N   UNL A   1      43.517  31.926  28.970  1.00  0.00    -0.354 N 
ATOM     57  N   UNL A   1      40.804  32.548  29.857  1.00  0.00    -0.248 NA
ATOM     58  C   UNL A   1      39.275  34.009  30.844  1.00  0.00     0.031 C 
ATOM     59  C   UNL A   1      45.108  33.449  29.242  1.00  0.00     0.029 A 
ATOM     60  C   UNL A   1      43.760  33.204  29.450  1.00  0.00     0.049 A 
ATOM     61  H   UNL A   1      42.647  31.469  28.999  1.00  0.00     0.167 HD
ATOM     62  C   UNL A   1      41.456  33.734  30.197  1.00  0.00     0.074 A 
ATOM     63  C   UNL A   1      40.456  34.605  30.777  1.00  0.00     0.031 C 
ATOM     64  C   UNL A   1      42.762  34.074  30.030  1.00  0.00     0.034 A 
BRANCH  51  65
ATOM     65  C   UNL A   1      46.133  29.569  27.383  1.00  0.00     0.023 A 
ATOM     66  C   UNL A   1      46.328  29.233  26.031  1.00  0.00     0.031 A 
ATOM     67  C   UNL A   1      47.169  29.288  28.290  1.00  0.00     0.131 A 
ATOM     68  C   UNL A   1      47.473  28.517  25.653  1.00  0.00     0.055 A 
ATOM     69  C   UNL A   1      48.356  28.679  27.883  1.00  0.00     0.041 A 
ATOM     70  F   UNL A   1      47.025  29.552  29.598  1.00  0.00    -0.206 F 
ATOM     71  C   UNL A   1      48.503  28.264  26.563  1.00  0.00     0.022 A 
BRANCH  68  72
ATOM     72  S   UNL A   1      47.486  27.708  24.027  1.00  0.00     0.124 S 
ATOM     73  O   UNL A   1      46.776  28.688  23.206  1.00  0.00    -0.237 OA
ATOM     74  O   UNL A   1      48.910  27.561  23.758  1.00  0.00    -0.237 OA
ATOM     75  O   UNL A   1      46.759  26.461  24.260  1.00  0.00    -0.744 OA
ENDBRANCH  68  72
ENDBRANCH  51  65
BRANCH  52  76
ATOM     76  C   UNL A   1      37.004  32.215  30.457  1.00  0.00     0.023 A 
ATOM     77  C   UNL A   1      36.114  32.831  29.558  1.00  0.00     0.031 A 
ATOM     78  C   UNL A   1      36.609  32.121  31.804  1.00  0.00     0.131 A 
ATOM     79  C   UNL A   1      34.897  33.362  30.025  1.00  0.00     0.055 A 
ATOM     80  C   UNL A   1      35.376  32.602  32.252  1.00  0.00     0.041 A 
ATOM     81  F   UNL A   1      37.426  31.567  32.713  1.00  0.00    -0.206 F 
ATOM     82  C   UNL A   1      34.517  33.236  31.362  1.00  0.00     0.022 A 
BRANCH  79  83
ATOM     83  S   UNL A   1      33.844  34.294  28.875  1.00  0.00     0.124 S 
ATOM     84  O   UNL A   1      33.418  33.250  27.951  1.00  0.00    -0.237 OA
ATOM     85  O   UNL A   1      32.817  34.826  29.763  1.00  0.00    -0.237 OA
ATOM     86  O   UNL A   1      34.754  35.291  28.314  1.00  0.00    -0.744 OA
ENDBRANCH  79  83
ENDBRANCH  52  76
BRANCH  64  87
ATOM     87  C   UNL A   1      43.179  35.481  30.406  1.00  0.00     0.023 A 
ATOM     88  C   UNL A   1      43.204  36.536  29.476  1.00  0.00     0.031 A 
ATOM     89  C   UNL A   1      43.551  35.767  31.733  1.00  0.00     0.131 A 
ATOM     90  C   UNL A   1      43.643  37.810  29.874  1.00  0.00     0.055 A 
ATOM     91  C   UNL A   1      43.922  37.050  32.138  1.00  0.00     0.041 A 
ATOM     92  F   UNL A   1      43.550  34.801  32.666  1.00  0.00    -0.206 F 
ATOM     93  C   UNL A   1      43.983  38.078  31.203  1.00  0.00     0.022 A 
BRANCH  90  94
ATOM     94  S   UNL A   1      43.863  39.096  28.613  1.00  0.00     0.124 S 
ATOM     95  O   UNL A   1      42.543  39.717  28.578  1.00  0.00    -0.237 OA
ATOM     96  O   UNL A   1      44.935  39.909  29.179  1.00  0.00    -0.237 OA
ATOM     97  O   UNL A   1      44.225  38.342  27.413  1.00  0.00    -0.744 OA
ENDBRANCH  90  94
ENDBRANCH  64  87
ENDBRANCH  38  39
ENDBRANCH  31  33
ENDBRANCH  30  31
ENDBRANCH  29  30
ENDBRANCH  28  29
ENDBRANCH  27  28
ENDBRANCH   1  27
TORSDOF 21
ENDMDL
MODEL 3
REMARK VINA RESULT:      -9.8      5.214      9.997
REMARK SMILES C[C@H]1CCCC[C@H]1[N@H+]1[C@@H](C(=O)OCCOCCOCCOC(=O)c2ccc(-c3c4nc(c(-c5cc(S(=O)(=O)[O-])ccc5F)c5ccc([nH]5)c(-c5cc(S(=O)(=O)[O-])ccc5F)c5nc(c(-c6cc(S(=O)(=O)[O-])ccc6F)c6ccc3[nH]6)C=C5)C=C4)cc2)CC[C@@H]2CCCC[C@@H]21
REMARK SMILES IDX 17 1 16 2 15 3 14 4 13 5 12 6 10 7 11 8 9 9 8 10 94 11 87 13
REMARK SMILES IDX 89 14 93 15 88 16 90 17 92 18 91 19 7 20 1 21 2 22 3 23 4 24
REMARK SMILES IDX 6 25 5 26 18 27 19 28 20 29 21 30 22 31 23 32 24 33 25 34
REMARK SMILES IDX 86 35 26 36 85 37 27 38 28 39 29 40 79 41 30 42 84 43 78 44
REMARK SMILES IDX 80 45 31 46 83 47 77 48 76 49 32 51 64 52 44 53 63 54 45 55
REMARK SMILES IDX 48 56 62 57 81 58 46 59 47 60 61 62 82 63 49 64 33 65 34 66
REMARK SMILES IDX 42 67 35 68 41 69 43 70 40 71 36 72 37 73 38 74 39 75 65 76
REMARK SMILES IDX 66 77 74 78 67 79 73 80 75 81 72 82 68 83 69 84 70 85 71 86
REMARK SMILES IDX 50 87 51 88 59 89 52 90 58 91 60 92 57 93 53 94 54 95 55 96
REMARK SMILES IDX 56 97
REMARK H PARENT 8 12 80 50 48 61
REMARK Flexibility Score: inf
ROOT
ATOM      1  C   UNL A   1      49.803  27.262  23.983  1.00  0.00     0.188 C 
ENDROOT
BRANCH   1   2
ATOM      2  C   UNL A   1      48.652  26.281  23.640  1.00  0.00     0.188 C 
BRANCH   2   3
ATOM      3  O   UNL A   1      47.332  26.759  23.876  1.00  0.00    -0.376 OA
BRANCH   3   4
ATOM      4  C   UNL A   1      47.159  27.774  24.884  1.00  0.00     0.202 C 
BRANCH   4   5
ATOM      5  C   UNL A   1      45.764  27.921  25.543  1.00  0.00     0.261 C 
BRANCH   5   6
ATOM      6  O   UNL A   1      44.948  26.707  25.727  1.00  0.00    -0.459 OA
BRANCH   6   7
ATOM      7  C   UNL A   1      44.330  26.644  26.965  1.00  0.00     0.365 C 
ATOM      8  O   UNL A   1      44.565  27.519  27.805  1.00  0.00    -0.245 OA
BRANCH   7   9
ATOM      9  C   UNL A   1      43.470  25.377  27.338  1.00  0.00     0.295 C 
ATOM     10  N   UNL A   1      41.966  25.119  27.275  1.00  0.00    -0.318 N 
ATOM     11  C   UNL A   1      41.498  23.956  28.098  1.00  0.00     0.188 C 
ATOM     12  H   UNL A   1      42.206  25.119  26.284  1.00  0.00     0.349 HD
ATOM     13  C   UNL A   1      43.918  25.008  28.780  1.00  0.00     0.078 C 
ATOM     14  C   UNL A   1      42.594  22.906  28.331  1.00  0.00     0.048 C 
ATOM     15  C   UNL A   1      40.242  23.159  27.627  1.00  0.00     0.065 C 
ATOM     16  C   UNL A   1      43.744  23.532  29.106  1.00  0.00     0.016 C 
ATOM     17  C   UNL A   1      43.009  22.201  27.019  1.00  0.00     0.010 C 
ATOM     18  C   UNL A   1      40.529  21.983  26.690  1.00  0.00     0.006 C 
ATOM     19  C   UNL A   1      41.869  22.135  25.995  1.00  0.00     0.001 C 
BRANCH  10  20
ATOM     20  C   UNL A   1      40.862  26.009  26.890  1.00  0.00     0.187 C 
ATOM     21  C   UNL A   1      39.447  26.498  29.153  1.00  0.00     0.014 C 
ATOM     22  C   UNL A   1      40.187  27.002  27.917  1.00  0.00     0.044 C 
ATOM     23  C   UNL A   1      41.117  28.152  28.306  1.00  0.00     0.009 C 
ATOM     24  C   UNL A   1      41.536  28.949  27.090  1.00  0.00     0.001 C 
ATOM     25  C   UNL A   1      41.139  26.814  25.640  1.00  0.00     0.065 C 
ATOM     26  C   UNL A   1      41.936  28.055  25.951  1.00  0.00     0.006 C 
ENDBRANCH  10  20
ENDBRANCH   7   9
ENDBRANCH   6   7
ENDBRANCH   5   6
ENDBRANCH   4   5
ENDBRANCH   3   4
ENDBRANCH   2   3
ENDBRANCH   1   2
BRANCH   1  27
ATOM     27  O   UNL A   1      51.033  26.868  23.392  1.00  0.00    -0.376 OA
BRANCH  27  28
ATOM     28  C   UNL A   1      52.257  27.222  24.031  1.00  0.00     0.202 C 
BRANCH  28  29
ATOM     29  C   UNL A   1      52.162  27.881  25.416  1.00  0.00     0.261 C 
BRANCH  29  30
ATOM     30  O   UNL A   1      52.745  27.061  26.451  1.00  0.00    -0.460 OA
BRANCH  30  31
ATOM     31  C   UNL A   1      51.979  26.006  26.824  1.00  0.00     0.338 C 
ATOM     32  O   UNL A   1      52.284  24.828  26.692  1.00  0.00    -0.246 OA
BRANCH  31  33
ATOM     33  C   UNL A   1      50.831  26.466  27.644  1.00  0.00     0.060 A 
ATOM     34  C   UNL A   1      49.581  25.958  27.293  1.00  0.00     0.016 A 
ATOM     35  C   UNL A   1      50.930  27.348  28.725  1.00  0.00     0.016 A 
ATOM     36  C   UNL A   1      48.440  26.286  28.029  1.00  0.00     0.010 A 
ATOM     37  C   UNL A   1      49.771  27.713  29.443  1.00  0.00     0.010 A 
ATOM     38  C   UNL A   1      48.515  27.174  29.105  1.00  0.00    -0.014 A 
BRANCH  38  39
ATOM     39  C   UNL A   1      47.229  27.762  29.576  1.00  0.00     0.031 A 
ATOM     40  C   UNL A   1      46.565  27.058  30.730  1.00  0.00     0.074 A 
ATOM     41  C   UNL A   1      46.738  28.950  29.167  1.00  0.00     0.049 A 
ATOM     42  N   UNL A   1      45.436  27.310  31.336  1.00  0.00    -0.248 NA
ATOM     43  C   UNL A   1      47.310  25.918  31.285  1.00  0.00     0.031 C 
ATOM     44  C   UNL A   1      47.368  29.853  28.207  1.00  0.00     0.029 A 
ATOM     45  N   UNL A   1      45.592  29.614  29.545  1.00  0.00    -0.354 N 
ATOM     46  C   UNL A   1      45.331  26.353  32.339  1.00  0.00     0.074 A 
ATOM     47  C   UNL A   1      46.502  25.510  32.244  1.00  0.00     0.031 C 
ATOM     48  C   UNL A   1      46.602  30.955  28.078  1.00  0.00     0.029 A 
ATOM     49  C   UNL A   1      45.395  30.812  28.896  1.00  0.00     0.049 A 
ATOM     50  H   UNL A   1      44.967  29.262  30.221  1.00  0.00     0.167 HD
ATOM     51  C   UNL A   1      44.347  26.178  33.254  1.00  0.00     0.034 A 
ATOM     52  C   UNL A   1      44.351  31.672  28.935  1.00  0.00     0.034 A 
ATOM     53  C   UNL A   1      43.163  26.993  33.320  1.00  0.00     0.049 A 
ATOM     54  C   UNL A   1      43.156  31.345  29.811  1.00  0.00     0.074 A 
ATOM     55  C   UNL A   1      42.058  26.845  34.138  1.00  0.00     0.029 A 
ATOM     56  N   UNL A   1      42.921  28.107  32.525  1.00  0.00    -0.354 N 
ATOM     57  N   UNL A   1      42.998  30.363  30.670  1.00  0.00    -0.248 NA
ATOM     58  C   UNL A   1      41.992  32.237  29.709  1.00  0.00     0.031 C 
ATOM     59  C   UNL A   1      41.116  27.815  33.782  1.00  0.00     0.029 A 
ATOM     60  C   UNL A   1      41.671  28.634  32.811  1.00  0.00     0.049 A 
ATOM     61  H   UNL A   1      43.545  28.468  31.855  1.00  0.00     0.167 HD
ATOM     62  C   UNL A   1      41.739  30.552  31.242  1.00  0.00     0.074 A 
ATOM     63  C   UNL A   1      41.179  31.737  30.628  1.00  0.00     0.031 C 
ATOM     64  C   UNL A   1      41.111  29.818  32.198  1.00  0.00     0.034 A 
BRANCH  51  65
ATOM     65  C   UNL A   1      44.483  24.970  34.150  1.00  0.00     0.023 A 
ATOM     66  C   UNL A   1      45.022  25.064  35.446  1.00  0.00     0.031 A 
ATOM     67  C   UNL A   1      44.214  23.690  33.636  1.00  0.00     0.131 A 
ATOM     68  C   UNL A   1      45.396  23.896  36.126  1.00  0.00     0.055 A 
ATOM     69  C   UNL A   1      44.483  22.534  34.369  1.00  0.00     0.041 A 
ATOM     70  F   UNL A   1      43.734  23.537  32.393  1.00  0.00    -0.206 F 
ATOM     71  C   UNL A   1      45.104  22.631  35.610  1.00  0.00     0.022 A 
BRANCH  68  72
ATOM     72  S   UNL A   1      46.489  24.053  37.568  1.00  0.00     0.124 S 
ATOM     73  O   UNL A   1      46.096  22.889  38.362  1.00  0.00    -0.237 OA
ATOM     74  O   UNL A   1      47.816  23.998  36.967  1.00  0.00    -0.237 OA
ATOM     75  O   UNL A   1      46.115  25.343  38.144  1.00  0.00    -0.744 OA
ENDBRANCH  68  72
ENDBRANCH  51  65
BRANCH  52  76
ATOM     76  C   UNL A   1      44.316  32.893  28.067  1.00  0.00     0.023 A 
ATOM     77  C   UNL A   1      44.500  34.182  28.600  1.00  0.00     0.031 A 
ATOM     78  C   UNL A   1      43.991  32.792  26.702  1.00  0.00     0.131 A 
ATOM     79  C   UNL A   1      44.320  35.314  27.785  1.00  0.00     0.055 A 
ATOM     80  C   UNL A   1      43.866  33.918  25.884  1.00  0.00     0.041 A 
ATOM     81  F   UNL A   1      43.777  31.592  26.141  1.00  0.00    -0.206 F 
ATOM     82  C   UNL A   1      44.020  35.188  26.427  1.00  0.00     0.022 A 
BRANCH  79  83
ATOM     83  S   UNL A   1      44.403  36.964  28.538  1.00  0.00     0.124 S 
ATOM     84  O   UNL A   1      45.821  37.070  28.864  1.00  0.00    -0.237 OA
ATOM     85  O   UNL A   1      43.926  37.819  27.457  1.00  0.00    -0.237 OA
ATOM     86  O   UNL A   1      43.505  36.859  29.687  1.00  0.00    -0.744 OA
ENDBRANCH  79  83
ENDBRANCH  52  76
BRANCH  64  87
ATOM     87  C   UNL A   1      39.774  30.314  32.706  1.00  0.00     0.023 A 
ATOM     88  C   UNL A   1      39.631  30.974  33.940  1.00  0.00     0.031 A 
ATOM     89  C   UNL A   1      38.617  30.127  31.925  1.00  0.00     0.131 A 
ATOM     90  C   UNL A   1      38.357  31.372  34.379  1.00  0.00     0.055 A 
ATOM     91  C   UNL A   1      37.365  30.586  32.336  1.00  0.00     0.041 A 
ATOM     92  F   UNL A   1      38.688  29.502  30.739  1.00  0.00    -0.206 F 
ATOM     93  C   UNL A   1      37.227  31.200  33.575  1.00  0.00     0.022 A 
BRANCH  90  94
ATOM     94  S   UNL A   1      38.175  32.032  36.060  1.00  0.00     0.124 S 
ATOM     95  O   UNL A   1      37.923  30.822  36.836  1.00  0.00    -0.237 OA
ATOM     96  O   UNL A   1      39.465  32.675  36.284  1.00  0.00    -0.237 OA
ATOM     97  O   UNL A   1      37.038  32.946  35.949  1.00  0.00    -0.744 OA
ENDBRANCH  90  94
ENDBRANCH  64  87
ENDBRANCH  38  39
ENDBRANCH  31  33
ENDBRANCH  30  31
ENDBRANCH  29  30
ENDBRANCH  28  29
ENDBRANCH  27  28
ENDBRANCH   1  27
TORSDOF 21
ENDMDL
