MODEL 1
REMARK VINA RESULT:     -11.3      0.000      0.000
REMARK SMILES C=CCn1nc(C(=O)OCCOCCOCCOC(=O)c2ccc(-c3c4nc(c(-c5cc(S(=O)(=O)[O-])ccc5F)c5ccc([nH]5)c(-c5cc(S(=O)(=O)[O-])ccc5F)c5nc(c(-c6cc(S(=O)(=O)[O-])ccc6F)c6ccc3[nH]6)C=C5)C=C4)cc2)c2c1CC[C@@H]([NH+]1CCC(C(C)(C)O)CC1)C2
REMARK SMILES IDX 13 1 12 2 11 3 10 4 9 5 7 6 8 7 6 8 4 9 5 10 85 11 84 12
REMARK SMILES IDX 86 13 99 14 87 15 88 16 3 17 2 18 1 19 89 20 90 21 98 22
REMARK SMILES IDX 91 24 97 25 92 26 93 27 94 28 95 29 96 30 14 32 15 33 16 34
REMARK SMILES IDX 17 35 18 36 19 37 20 38 21 39 22 40 83 41 23 42 82 43 24 44
REMARK SMILES IDX 25 45 26 46 76 47 27 48 81 49 75 50 77 51 28 52 80 53 74 54
REMARK SMILES IDX 73 55 29 57 61 58 41 59 60 60 42 61 45 62 59 63 78 64 43 65
REMARK SMILES IDX 44 66 58 68 79 69 46 70 30 71 31 72 39 73 32 74 38 75 40 76
REMARK SMILES IDX 37 77 33 78 34 79 35 80 36 81 62 82 63 83 71 84 64 85 70 86
REMARK SMILES IDX 72 87 69 88 65 89 66 90 67 91 68 92 47 93 48 94 56 95 49 96
REMARK SMILES IDX 55 97 57 98 54 99 50 100 51 101 52 102 53 103
REMARK H PARENT 89 23 96 31 77 56 45 67
REMARK Flexibility Score: inf
ROOT
ATOM      1  C   UNL A   1      34.669  33.248  30.183  1.00  0.00     0.188 C 
ENDROOT
BRANCH   1   2
ATOM      2  O   UNL A   1      34.949  32.651  28.919  1.00  0.00    -0.376 OA
BRANCH   2   3
ATOM      3  C   UNL A   1      33.911  32.352  27.998  1.00  0.00     0.202 C 
BRANCH   3   4
ATOM      4  C   UNL A   1      33.857  30.983  27.299  1.00  0.00     0.261 C 
BRANCH   4   5
ATOM      5  O   UNL A   1      32.622  30.664  26.659  1.00  0.00    -0.458 OA
BRANCH   5   6
ATOM      6  C   UNL A   1      32.225  29.364  26.726  1.00  0.00     0.359 C 
ATOM      7  O   UNL A   1      32.361  28.654  27.723  1.00  0.00    -0.244 OA
BRANCH   6   8
ATOM      8  C   UNL A   1      31.585  28.915  25.479  1.00  0.00     0.174 A 
ATOM      9  N   UNL A   1      30.444  29.013  23.667  1.00  0.00    -0.265 N 
ATOM     10  N   UNL A   1      30.959  29.781  24.655  1.00  0.00    -0.165 NA
ATOM     11  C   UNL A   1      30.501  27.691  24.009  1.00  0.00     0.043 A 
ATOM     12  C   UNL A   1      31.508  27.601  24.946  1.00  0.00     0.014 A 
ATOM     13  C   UNL A   1      29.677  26.554  23.546  1.00  0.00     0.062 C 
ATOM     14  C   UNL A   1      32.129  26.311  25.370  1.00  0.00     0.105 C 
ATOM     15  C   UNL A   1      30.189  25.240  24.181  1.00  0.00     0.072 C 
ATOM     16  C   UNL A   1      31.715  25.121  24.441  1.00  0.00     0.189 C 
BRANCH   9  17
ATOM     17  C   UNL A   1      29.855  29.710  22.521  1.00  0.00     0.171 C 
BRANCH  17  18
ATOM     18  C   UNL A   1      28.358  29.836  22.483  1.00  0.00    -0.011 C 
ATOM     19  C   UNL A   1      27.653  30.551  23.374  1.00  0.00     0.006 C 
ENDBRANCH  17  18
ENDBRANCH   9  17
BRANCH  16  20
ATOM     20  N   UNL A   1      32.676  24.861  23.344  1.00  0.00    -0.332 N 
ATOM     21  C   UNL A   1      32.549  23.688  22.500  1.00  0.00     0.262 C 
ATOM     22  C   UNL A   1      34.088  25.090  23.634  1.00  0.00     0.262 C 
ATOM     23  H   UNL A   1      32.308  25.622  22.774  1.00  0.00     0.348 HD
ATOM     24  C   UNL A   1      33.174  22.411  23.061  1.00  0.00     0.068 C 
ATOM     25  C   UNL A   1      34.738  23.976  24.440  1.00  0.00     0.068 C 
ATOM     26  C   UNL A   1      34.432  22.536  23.959  1.00  0.00     0.031 C 
BRANCH  26  27
ATOM     27  C   UNL A   1      34.476  21.512  25.162  1.00  0.00     0.062 C 
ATOM     28  C   UNL A   1      35.849  21.397  25.827  1.00  0.00     0.042 C 
ATOM     29  C   UNL A   1      33.433  21.865  26.226  1.00  0.00     0.042 C 
BRANCH  27  30
ATOM     30  O   UNL A   1      34.140  20.198  24.704  1.00  0.00    -0.390 OA
ATOM     31  H   UNL A   1      33.920  19.636  25.464  1.00  0.00     0.211 HD
ENDBRANCH  27  30
ENDBRANCH  26  27
ENDBRANCH  16  20
ENDBRANCH   6   8
ENDBRANCH   5   6
ENDBRANCH   4   5
ENDBRANCH   3   4
ENDBRANCH   2   3
ENDBRANCH   1   2
BRANCH   1  32
ATOM     32  C   UNL A   1      35.299  32.715  31.491  1.00  0.00     0.188 C 
BRANCH  32  33
ATOM     33  O   UNL A   1      36.698  32.896  31.580  1.00  0.00    -0.376 OA
BRANCH  33  34
ATOM     34  C   UNL A   1      37.552  31.768  31.672  1.00  0.00     0.202 C 
BRANCH  34  35
ATOM     35  C   UNL A   1      38.483  31.397  30.519  1.00  0.00     0.261 C 
BRANCH  35  36
ATOM     36  O   UNL A   1      37.837  31.104  29.299  1.00  0.00    -0.460 OA
BRANCH  36  37
ATOM     37  C   UNL A   1      37.200  29.915  29.274  1.00  0.00     0.338 C 
ATOM     38  O   UNL A   1      36.114  29.657  29.763  1.00  0.00    -0.246 OA
BRANCH  37  39
ATOM     39  C   UNL A   1      38.084  28.940  28.633  1.00  0.00     0.060 A 
ATOM     40  C   UNL A   1      38.504  27.878  29.431  1.00  0.00     0.016 A 
ATOM     41  C   UNL A   1      38.770  29.342  27.478  1.00  0.00     0.016 A 
ATOM     42  C   UNL A   1      39.790  27.435  29.259  1.00  0.00     0.010 A 
ATOM     43  C   UNL A   1      40.062  28.921  27.327  1.00  0.00     0.010 A 
ATOM     44  C   UNL A   1      40.582  28.066  28.292  1.00  0.00    -0.014 A 
BRANCH  44  45
ATOM     45  C   UNL A   1      41.985  27.743  28.248  1.00  0.00     0.031 A 
ATOM     46  C   UNL A   1      42.214  26.442  27.596  1.00  0.00     0.074 A 
ATOM     47  C   UNL A   1      42.937  28.597  28.667  1.00  0.00     0.049 A 
ATOM     48  N   UNL A   1      42.527  25.331  28.168  1.00  0.00    -0.248 NA
ATOM     49  C   UNL A   1      41.788  26.299  26.194  1.00  0.00     0.031 C 
ATOM     50  C   UNL A   1      42.802  29.993  29.087  1.00  0.00     0.029 A 
ATOM     51  N   UNL A   1      44.278  28.404  28.707  1.00  0.00    -0.354 N 
ATOM     52  C   UNL A   1      42.610  24.410  27.135  1.00  0.00     0.074 A 
ATOM     53  C   UNL A   1      41.886  24.980  26.034  1.00  0.00     0.031 C 
ATOM     54  C   UNL A   1      44.026  30.574  29.096  1.00  0.00     0.029 A 
ATOM     55  C   UNL A   1      45.033  29.567  28.798  1.00  0.00     0.049 A 
ATOM     56  H   UNL A   1      44.686  27.508  28.673  1.00  0.00     0.167 HD
ATOM     57  C   UNL A   1      43.535  23.416  27.168  1.00  0.00     0.034 A 
ATOM     58  C   UNL A   1      46.367  29.677  28.533  1.00  0.00     0.034 A 
ATOM     59  C   UNL A   1      44.021  23.207  28.516  1.00  0.00     0.049 A 
ATOM     60  C   UNL A   1      46.930  28.301  28.668  1.00  0.00     0.074 A 
ATOM     61  C   UNL A   1      43.401  22.924  29.721  1.00  0.00     0.029 A 
ATOM     62  N   UNL A   1      45.260  23.713  28.852  1.00  0.00    -0.354 N 
ATOM     63  N   UNL A   1      46.955  27.652  29.804  1.00  0.00    -0.248 NA
ATOM     64  C   UNL A   1      46.947  27.455  27.479  1.00  0.00     0.031 C 
ATOM     65  C   UNL A   1      44.065  23.748  30.677  1.00  0.00     0.029 A 
ATOM     66  C   UNL A   1      45.117  24.403  30.034  1.00  0.00     0.049 A 
ATOM     67  H   UNL A   1      46.093  23.599  28.340  1.00  0.00     0.167 HD
ATOM     68  C   UNL A   1      46.560  26.357  29.495  1.00  0.00     0.074 A 
ATOM     69  C   UNL A   1      46.633  26.279  28.034  1.00  0.00     0.031 C 
ATOM     70  C   UNL A   1      45.917  25.561  30.404  1.00  0.00     0.034 A 
BRANCH  57  71
ATOM     71  C   UNL A   1      44.270  22.925  25.943  1.00  0.00     0.023 A 
ATOM     72  C   UNL A   1      44.304  21.536  25.737  1.00  0.00     0.031 A 
ATOM     73  C   UNL A   1      45.151  23.689  25.138  1.00  0.00     0.131 A 
ATOM     74  C   UNL A   1      45.235  20.965  24.853  1.00  0.00     0.055 A 
ATOM     75  C   UNL A   1      46.021  23.120  24.207  1.00  0.00     0.041 A 
ATOM     76  F   UNL A   1      45.301  25.011  25.262  1.00  0.00    -0.206 F 
ATOM     77  C   UNL A   1      46.091  21.747  24.084  1.00  0.00     0.022 A 
BRANCH  74  78
ATOM     78  S   UNL A   1      45.424  19.167  24.865  1.00  0.00     0.124 S 
ATOM     79  O   UNL A   1      45.565  18.878  23.441  1.00  0.00    -0.237 OA
ATOM     80  O   UNL A   1      46.622  18.999  25.679  1.00  0.00    -0.237 OA
ATOM     81  O   UNL A   1      44.182  18.702  25.478  1.00  0.00    -0.744 OA
ENDBRANCH  74  78
ENDBRANCH  57  71
BRANCH  58  82
ATOM     82  C   UNL A   1      47.025  30.785  27.768  1.00  0.00     0.023 A 
ATOM     83  C   UNL A   1      46.315  31.824  27.120  1.00  0.00     0.031 A 
ATOM     84  C   UNL A   1      48.429  30.954  27.851  1.00  0.00     0.131 A 
ATOM     85  C   UNL A   1      47.006  32.944  26.587  1.00  0.00     0.055 A 
ATOM     86  C   UNL A   1      49.103  32.054  27.321  1.00  0.00     0.041 A 
ATOM     87  F   UNL A   1      49.197  30.088  28.530  1.00  0.00    -0.206 F 
ATOM     88  C   UNL A   1      48.394  33.060  26.691  1.00  0.00     0.022 A 
BRANCH  85  89
ATOM     89  S   UNL A   1      46.104  34.324  25.800  1.00  0.00     0.124 S 
ATOM     90  O   UNL A   1      45.598  35.062  26.951  1.00  0.00    -0.237 OA
ATOM     91  O   UNL A   1      47.146  34.976  25.016  1.00  0.00    -0.237 OA
ATOM     92  O   UNL A   1      45.074  33.651  25.004  1.00  0.00    -0.744 OA
ENDBRANCH  85  89
ENDBRANCH  58  82
BRANCH  70  93
ATOM     93  C   UNL A   1      45.851  25.997  31.859  1.00  0.00     0.023 A 
ATOM     94  C   UNL A   1      44.714  26.544  32.503  1.00  0.00     0.031 A 
ATOM     95  C   UNL A   1      46.969  25.703  32.662  1.00  0.00     0.131 A 
ATOM     96  C   UNL A   1      44.736  26.776  33.897  1.00  0.00     0.055 A 
ATOM     97  C   UNL A   1      46.975  25.909  34.041  1.00  0.00     0.041 A 
ATOM     98  F   UNL A   1      48.072  25.163  32.119  1.00  0.00    -0.206 F 
ATOM     99  C   UNL A   1      45.859  26.451  34.664  1.00  0.00     0.022 A 
BRANCH  96 100
ATOM    100  S   UNL A   1      43.306  27.524  34.748  1.00  0.00     0.124 S 
ATOM    101  O   UNL A   1      43.117  28.789  34.048  1.00  0.00    -0.237 OA
ATOM    102  O   UNL A   1      42.262  26.522  34.555  1.00  0.00    -0.237 OA
ATOM    103  O   UNL A   1      43.767  27.659  36.132  1.00  0.00    -0.744 OA
ENDBRANCH  96 100
ENDBRANCH  70  93
ENDBRANCH  44  45
ENDBRANCH  37  39
ENDBRANCH  36  37
ENDBRANCH  35  36
ENDBRANCH  34  35
ENDBRANCH  33  34
ENDBRANCH  32  33
ENDBRANCH   1  32
TORSDOF 25
ENDMDL
MODEL 2
REMARK VINA RESULT:      -9.7      3.377      9.484
REMARK SMILES C=CCn1nc(C(=O)OCCOCCOCCOC(=O)c2ccc(-c3c4nc(c(-c5cc(S(=O)(=O)[O-])ccc5F)c5ccc([nH]5)c(-c5cc(S(=O)(=O)[O-])ccc5F)c5nc(c(-c6cc(S(=O)(=O)[O-])ccc6F)c6ccc3[nH]6)C=C5)C=C4)cc2)c2c1CC[C@@H]([NH+]1CCC(C(C)(C)O)CC1)C2
REMARK SMILES IDX 13 1 12 2 11 3 10 4 9 5 7 6 8 7 6 8 4 9 5 10 85 11 84 12
REMARK SMILES IDX 86 13 99 14 87 15 88 16 3 17 2 18 1 19 89 20 90 21 98 22
REMARK SMILES IDX 91 24 97 25 92 26 93 27 94 28 95 29 96 30 14 32 15 33 16 34
REMARK SMILES IDX 17 35 18 36 19 37 20 38 21 39 22 40 83 41 23 42 82 43 24 44
REMARK SMILES IDX 25 45 26 46 76 47 27 48 81 49 75 50 77 51 28 52 80 53 74 54
REMARK SMILES IDX 73 55 29 57 61 58 41 59 60 60 42 61 45 62 59 63 78 64 43 65
REMARK SMILES IDX 44 66 58 68 79 69 46 70 30 71 31 72 39 73 32 74 38 75 40 76
REMARK SMILES IDX 37 77 33 78 34 79 35 80 36 81 62 82 63 83 71 84 64 85 70 86
REMARK SMILES IDX 72 87 69 88 65 89 66 90 67 91 68 92 47 93 48 94 56 95 49 96
REMARK SMILES IDX 55 97 57 98 54 99 50 100 51 101 52 102 53 103
REMARK H PARENT 89 23 96 31 77 56 45 67
REMARK Flexibility Score: inf
ROOT
ATOM      1  C   UNL A   1      40.235  22.331  27.188  1.00  0.00     0.188 C 
ENDROOT
BRANCH   1   2
ATOM      2  O   UNL A   1      39.869  23.683  27.456  1.00  0.00    -0.376 OA
BRANCH   2   3
ATOM      3  C   UNL A   1      38.606  24.198  27.061  1.00  0.00     0.202 C 
BRANCH   3   4
ATOM      4  C   UNL A   1      37.863  23.604  25.853  1.00  0.00     0.261 C 
BRANCH   4   5
ATOM      5  O   UNL A   1      36.997  22.506  26.139  1.00  0.00    -0.458 OA
BRANCH   5   6
ATOM      6  C   UNL A   1      36.799  21.614  25.130  1.00  0.00     0.359 C 
ATOM      7  O   UNL A   1      37.710  21.098  24.480  1.00  0.00    -0.244 OA
BRANCH   6   8
ATOM      8  C   UNL A   1      35.373  21.313  24.929  1.00  0.00     0.174 A 
ATOM      9  N   UNL A   1      33.584  20.155  24.696  1.00  0.00    -0.265 N 
ATOM     10  N   UNL A   1      34.900  20.052  24.996  1.00  0.00    -0.165 NA
ATOM     11  C   UNL A   1      33.305  21.390  24.184  1.00  0.00     0.043 A 
ATOM     12  C   UNL A   1      34.310  22.212  24.649  1.00  0.00     0.014 A 
ATOM     13  C   UNL A   1      32.209  21.822  23.292  1.00  0.00     0.062 C 
ATOM     14  C   UNL A   1      34.246  23.704  24.599  1.00  0.00     0.105 C 
ATOM     15  C   UNL A   1      32.292  23.349  23.056  1.00  0.00     0.072 C 
ATOM     16  C   UNL A   1      32.817  24.223  24.227  1.00  0.00     0.189 C 
BRANCH   9  17
ATOM     17  C   UNL A   1      32.767  18.951  24.869  1.00  0.00     0.171 C 
BRANCH  17  18
ATOM     18  C   UNL A   1      32.536  18.093  23.657  1.00  0.00    -0.011 C 
ATOM     19  C   UNL A   1      33.476  17.295  23.127  1.00  0.00     0.006 C 
ENDBRANCH  17  18
ENDBRANCH   9  17
BRANCH  16  20
ATOM     20  N   UNL A   1      31.975  24.541  25.404  1.00  0.00    -0.332 N 
ATOM     21  C   UNL A   1      30.586  24.929  25.248  1.00  0.00     0.262 C 
ATOM     22  C   UNL A   1      32.583  25.353  26.452  1.00  0.00     0.262 C 
ATOM     23  H   UNL A   1      31.931  23.565  25.698  1.00  0.00     0.348 HD
ATOM     24  C   UNL A   1      30.355  26.411  24.951  1.00  0.00     0.068 C 
ATOM     25  C   UNL A   1      32.645  26.836  26.122  1.00  0.00     0.068 C 
ATOM     26  C   UNL A   1      31.346  27.447  25.544  1.00  0.00     0.031 C 
BRANCH  26  27
ATOM     27  C   UNL A   1      31.664  28.663  24.585  1.00  0.00     0.062 C 
ATOM     28  C   UNL A   1      30.661  28.831  23.444  1.00  0.00     0.042 C 
ATOM     29  C   UNL A   1      31.755  29.976  25.369  1.00  0.00     0.042 C 
BRANCH  27  30
ATOM     30  O   UNL A   1      32.946  28.484  23.971  1.00  0.00    -0.390 OA
ATOM     31  H   UNL A   1      33.623  28.935  24.499  1.00  0.00     0.211 HD
ENDBRANCH  27  30
ENDBRANCH  26  27
ENDBRANCH  16  20
ENDBRANCH   6   8
ENDBRANCH   5   6
ENDBRANCH   4   5
ENDBRANCH   3   4
ENDBRANCH   2   3
ENDBRANCH   1   2
BRANCH   1  32
ATOM     32  C   UNL A   1      41.311  21.974  26.136  1.00  0.00     0.188 C 
BRANCH  32  33
ATOM     33  O   UNL A   1      41.856  20.677  26.279  1.00  0.00    -0.376 OA
BRANCH  33  34
ATOM     34  C   UNL A   1      43.108  20.367  25.688  1.00  0.00     0.202 C 
BRANCH  34  35
ATOM     35  C   UNL A   1      43.934  21.451  24.999  1.00  0.00     0.261 C 
BRANCH  35  36
ATOM     36  O   UNL A   1      44.900  22.079  25.816  1.00  0.00    -0.460 OA
BRANCH  36  37
ATOM     37  C   UNL A   1      45.355  23.256  25.342  1.00  0.00     0.338 C 
ATOM     38  O   UNL A   1      45.444  23.589  24.173  1.00  0.00    -0.246 OA
BRANCH  37  39
ATOM     39  C   UNL A   1      45.822  24.052  26.478  1.00  0.00     0.060 A 
ATOM     40  C   UNL A   1      45.707  23.456  27.732  1.00  0.00     0.016 A 
ATOM     41  C   UNL A   1      45.928  25.440  26.302  1.00  0.00     0.016 A 
ATOM     42  C   UNL A   1      45.364  24.267  28.783  1.00  0.00     0.010 A 
ATOM     43  C   UNL A   1      45.555  26.243  27.344  1.00  0.00     0.010 A 
ATOM     44  C   UNL A   1      45.166  25.629  28.529  1.00  0.00    -0.014 A 
BRANCH  44  45
ATOM     45  C   UNL A   1      44.612  26.442  29.581  1.00  0.00     0.031 A 
ATOM     46  C   UNL A   1      43.295  26.982  29.201  1.00  0.00     0.074 A 
ATOM     47  C   UNL A   1      45.207  26.576  30.781  1.00  0.00     0.049 A 
ATOM     48  N   UNL A   1      43.023  28.194  28.857  1.00  0.00    -0.248 NA
ATOM     49  C   UNL A   1      42.220  26.018  28.914  1.00  0.00     0.031 C 
ATOM     50  C   UNL A   1      46.375  25.874  31.313  1.00  0.00     0.029 A 
ATOM     51  N   UNL A   1      44.807  27.329  31.835  1.00  0.00    -0.354 N 
ATOM     52  C   UNL A   1      41.664  28.188  28.581  1.00  0.00     0.074 A 
ATOM     53  C   UNL A   1      41.308  26.815  28.360  1.00  0.00     0.031 C 
ATOM     54  C   UNL A   1      46.428  26.054  32.655  1.00  0.00     0.029 A 
ATOM     55  C   UNL A   1      45.374  26.974  33.053  1.00  0.00     0.049 A 
ATOM     56  H   UNL A   1      44.165  28.071  31.744  1.00  0.00     0.167 HD
ATOM     57  C   UNL A   1      40.894  29.267  28.880  1.00  0.00     0.034 A 
ATOM     58  C   UNL A   1      44.914  27.339  34.284  1.00  0.00     0.034 A 
ATOM     59  C   UNL A   1      41.709  30.452  29.050  1.00  0.00     0.049 A 
ATOM     60  C   UNL A   1      44.088  28.565  34.071  1.00  0.00     0.074 A 
ATOM     61  C   UNL A   1      42.632  31.099  28.246  1.00  0.00     0.029 A 
ATOM     62  N   UNL A   1      41.970  30.890  30.332  1.00  0.00    -0.354 N 
ATOM     63  N   UNL A   1      44.592  29.696  33.647  1.00  0.00    -0.248 NA
ATOM     64  C   UNL A   1      42.667  28.385  33.793  1.00  0.00     0.031 C 
ATOM     65  C   UNL A   1      43.697  31.455  29.125  1.00  0.00     0.029 A 
ATOM     66  C   UNL A   1      43.325  31.109  30.426  1.00  0.00     0.049 A 
ATOM     67  H   UNL A   1      41.307  31.022  31.048  1.00  0.00     0.167 HD
ATOM     68  C   UNL A   1      43.694  30.164  32.696  1.00  0.00     0.074 A 
ATOM     69  C   UNL A   1      42.493  29.346  32.878  1.00  0.00     0.031 C 
ATOM     70  C   UNL A   1      44.095  30.949  31.650  1.00  0.00     0.034 A 
BRANCH  57  71
ATOM     71  C   UNL A   1      39.480  29.159  29.400  1.00  0.00     0.023 A 
ATOM     72  C   UNL A   1      38.517  29.987  28.800  1.00  0.00     0.031 A 
ATOM     73  C   UNL A   1      39.080  28.518  30.599  1.00  0.00     0.131 A 
ATOM     74  C   UNL A   1      37.283  30.222  29.427  1.00  0.00     0.055 A 
ATOM     75  C   UNL A   1      37.823  28.699  31.177  1.00  0.00     0.041 A 
ATOM     76  F   UNL A   1      39.898  27.762  31.337  1.00  0.00    -0.206 F 
ATOM     77  C   UNL A   1      36.927  29.581  30.609  1.00  0.00     0.022 A 
BRANCH  74  78
ATOM     78  S   UNL A   1      36.223  31.524  28.754  1.00  0.00     0.124 S 
ATOM     79  O   UNL A   1      37.201  32.557  28.428  1.00  0.00    -0.237 OA
ATOM     80  O   UNL A   1      35.599  30.847  27.624  1.00  0.00    -0.237 OA
ATOM     81  O   UNL A   1      35.329  31.837  29.867  1.00  0.00    -0.744 OA
ENDBRANCH  74  78
ENDBRANCH  57  71
BRANCH  58  82
ATOM     82  C   UNL A   1      44.803  26.448  35.485  1.00  0.00     0.023 A 
ATOM     83  C   UNL A   1      45.235  26.817  36.781  1.00  0.00     0.031 A 
ATOM     84  C   UNL A   1      44.043  25.255  35.401  1.00  0.00     0.131 A 
ATOM     85  C   UNL A   1      44.918  26.006  37.903  1.00  0.00     0.055 A 
ATOM     86  C   UNL A   1      43.739  24.460  36.507  1.00  0.00     0.041 A 
ATOM     87  F   UNL A   1      43.492  24.857  34.244  1.00  0.00    -0.206 F 
ATOM     88  C   UNL A   1      44.169  24.835  37.766  1.00  0.00     0.022 A 
BRANCH  85  89
ATOM     89  S   UNL A   1      45.414  26.494  39.592  1.00  0.00     0.124 S 
ATOM     90  O   UNL A   1      44.149  26.443  40.316  1.00  0.00    -0.237 OA
ATOM     91  O   UNL A   1      46.402  25.479  39.936  1.00  0.00    -0.237 OA
ATOM     92  O   UNL A   1      45.962  27.841  39.413  1.00  0.00    -0.744 OA
ENDBRANCH  85  89
ENDBRANCH  58  82
BRANCH  70  93
ATOM     93  C   UNL A   1      45.498  31.535  31.654  1.00  0.00     0.023 A 
ATOM     94  C   UNL A   1      46.656  30.899  31.147  1.00  0.00     0.031 A 
ATOM     95  C   UNL A   1      45.626  32.874  32.070  1.00  0.00     0.131 A 
ATOM     96  C   UNL A   1      47.877  31.606  31.077  1.00  0.00     0.055 A 
ATOM     97  C   UNL A   1      46.826  33.576  31.974  1.00  0.00     0.041 A 
ATOM     98  F   UNL A   1      44.562  33.545  32.541  1.00  0.00    -0.206 F 
ATOM     99  C   UNL A   1      47.960  32.942  31.481  1.00  0.00     0.022 A 
BRANCH  96 100
ATOM    100  S   UNL A   1      49.399  30.800  30.474  1.00  0.00     0.124 S 
ATOM    101  O   UNL A   1      50.143  30.520  31.696  1.00  0.00    -0.237 OA
ATOM    102  O   UNL A   1      48.879  29.638  29.759  1.00  0.00    -0.237 OA
ATOM    103  O   UNL A   1      50.005  31.818  29.612  1.00  0.00    -0.744 OA
ENDBRANCH  96 100
ENDBRANCH  70  93
ENDBRANCH  44  45
ENDBRANCH  37  39
ENDBRANCH  36  37
ENDBRANCH  35  36
ENDBRANCH  34  35
ENDBRANCH  33  34
ENDBRANCH  32  33
ENDBRANCH   1  32
TORSDOF 25
ENDMDL
MODEL 3
REMARK VINA RESULT:      -9.6      1.550      1.886
REMARK SMILES C=CCn1nc(C(=O)OCCOCCOCCOC(=O)c2ccc(-c3c4nc(c(-c5cc(S(=O)(=O)[O-])ccc5F)c5ccc([nH]5)c(-c5cc(S(=O)(=O)[O-])ccc5F)c5nc(c(-c6cc(S(=O)(=O)[O-])ccc6F)c6ccc3[nH]6)C=C5)C=C4)cc2)c2c1CC[C@@H]([NH+]1CCC(C(C)(C)O)CC1)C2
REMARK SMILES IDX 13 1 12 2 11 3 10 4 9 5 7 6 8 7 6 8 4 9 5 10 85 11 84 12
REMARK SMILES IDX 86 13 99 14 87 15 88 16 3 17 2 18 1 19 89 20 90 21 98 22
REMARK SMILES IDX 91 24 97 25 92 26 93 27 94 28 95 29 96 30 14 32 15 33 16 34
REMARK SMILES IDX 17 35 18 36 19 37 20 38 21 39 22 40 83 41 23 42 82 43 24 44
REMARK SMILES IDX 25 45 26 46 76 47 27 48 81 49 75 50 77 51 28 52 80 53 74 54
REMARK SMILES IDX 73 55 29 57 61 58 41 59 60 60 42 61 45 62 59 63 78 64 43 65
REMARK SMILES IDX 44 66 58 68 79 69 46 70 30 71 31 72 39 73 32 74 38 75 40 76
REMARK SMILES IDX 37 77 33 78 34 79 35 80 36 81 62 82 63 83 71 84 64 85 70 86
REMARK SMILES IDX 72 87 69 88 65 89 66 90 67 91 68 92 47 93 48 94 56 95 49 96
REMARK SMILES IDX 55 97 57 98 54 99 50 100 51 101 52 102 53 103
REMARK H PARENT 89 23 96 31 77 56 45 67
REMARK Flexibility Score: inf
ROOT
ATOM      1  C   UNL A   1      35.910  33.857  30.494  1.00  0.00     0.188 C 
ENDROOT
BRANCH   1   2
ATOM      2  O   UNL A   1      36.244  32.895  29.496  1.00  0.00    -0.376 OA
BRANCH   2   3
ATOM      3  C   UNL A   1      35.453  32.739  28.328  1.00  0.00     0.202 C 
BRANCH   3   4
ATOM      4  C   UNL A   1      34.317  31.703  28.286  1.00  0.00     0.261 C 
BRANCH   4   5
ATOM      5  O   UNL A   1      34.087  31.088  27.018  1.00  0.00    -0.458 OA
BRANCH   5   6
ATOM      6  C   UNL A   1      34.064  29.728  27.002  1.00  0.00     0.359 C 
ATOM      7  O   UNL A   1      34.836  29.019  27.650  1.00  0.00    -0.244 OA
BRANCH   6   8
ATOM      8  C   UNL A   1      32.988  29.202  26.147  1.00  0.00     0.174 A 
ATOM      9  N   UNL A   1      31.231  29.193  24.918  1.00  0.00    -0.265 N 
ATOM     10  N   UNL A   1      32.093  30.020  25.555  1.00  0.00    -0.165 NA
ATOM     11  C   UNL A   1      31.413  27.903  25.329  1.00  0.00     0.043 A 
ATOM     12  C   UNL A   1      32.705  27.853  25.808  1.00  0.00     0.014 A 
ATOM     13  C   UNL A   1      30.471  26.764  25.327  1.00  0.00     0.062 C 
ATOM     14  C   UNL A   1      33.439  26.579  26.072  1.00  0.00     0.105 C 
ATOM     15  C   UNL A   1      31.187  25.488  25.831  1.00  0.00     0.072 C 
ATOM     16  C   UNL A   1      32.693  25.334  25.488  1.00  0.00     0.189 C 
BRANCH   9  17
ATOM     17  C   UNL A   1      30.245  29.815  24.032  1.00  0.00     0.171 C 
BRANCH  17  18
ATOM     18  C   UNL A   1      30.207  29.348  22.603  1.00  0.00    -0.011 C 
ATOM     19  C   UNL A   1      29.154  29.536  21.793  1.00  0.00     0.006 C 
ENDBRANCH  17  18
ENDBRANCH   9  17
BRANCH  16  20
ATOM     20  N   UNL A   1      33.151  24.947  24.134  1.00  0.00    -0.332 N 
ATOM     21  C   UNL A   1      32.237  24.358  23.174  1.00  0.00     0.262 C 
ATOM     22  C   UNL A   1      34.442  24.274  24.039  1.00  0.00     0.262 C 
ATOM     23  H   UNL A   1      33.239  25.918  23.833  1.00  0.00     0.348 HD
ATOM     24  C   UNL A   1      32.042  22.847  23.304  1.00  0.00     0.068 C 
ATOM     25  C   UNL A   1      34.397  22.803  24.420  1.00  0.00     0.068 C 
ATOM     26  C   UNL A   1      33.231  21.989  23.809  1.00  0.00     0.031 C 
BRANCH  26  27
ATOM     27  C   UNL A   1      32.814  20.793  24.754  1.00  0.00     0.062 C 
ATOM     28  C   UNL A   1      32.722  19.443  24.042  1.00  0.00     0.042 C 
ATOM     29  C   UNL A   1      33.773  20.667  25.942  1.00  0.00     0.042 C 
BRANCH  27  30
ATOM     30  O   UNL A   1      31.520  21.038  25.319  1.00  0.00    -0.390 OA
ATOM     31  H   UNL A   1      30.959  20.257  25.193  1.00  0.00     0.211 HD
ENDBRANCH  27  30
ENDBRANCH  26  27
ENDBRANCH  16  20
ENDBRANCH   6   8
ENDBRANCH   5   6
ENDBRANCH   4   5
ENDBRANCH   3   4
ENDBRANCH   2   3
ENDBRANCH   1   2
BRANCH   1  32
ATOM     32  C   UNL A   1      34.965  33.514  31.670  1.00  0.00     0.188 C 
BRANCH  32  33
ATOM     33  O   UNL A   1      35.626  33.254  32.891  1.00  0.00    -0.376 OA
BRANCH  33  34
ATOM     34  C   UNL A   1      35.984  31.924  33.232  1.00  0.00     0.202 C 
BRANCH  34  35
ATOM     35  C   UNL A   1      37.390  31.398  32.950  1.00  0.00     0.261 C 
BRANCH  35  36
ATOM     36  O   UNL A   1      37.650  31.076  31.600  1.00  0.00    -0.460 OA
BRANCH  36  37
ATOM     37  C   UNL A   1      36.992  29.990  31.147  1.00  0.00     0.338 C 
ATOM     38  O   UNL A   1      35.833  29.689  31.374  1.00  0.00    -0.246 OA
BRANCH  37  39
ATOM     39  C   UNL A   1      37.942  29.163  30.399  1.00  0.00     0.060 A 
ATOM     40  C   UNL A   1      38.546  28.130  31.112  1.00  0.00     0.016 A 
ATOM     41  C   UNL A   1      38.489  29.700  29.225  1.00  0.00     0.016 A 
ATOM     42  C   UNL A   1      39.861  27.862  30.833  1.00  0.00     0.010 A 
ATOM     43  C   UNL A   1      39.809  29.454  28.968  1.00  0.00     0.010 A 
ATOM     44  C   UNL A   1      40.498  28.630  29.851  1.00  0.00    -0.014 A 
BRANCH  44  45
ATOM     45  C   UNL A   1      41.924  28.490  29.698  1.00  0.00     0.031 A 
ATOM     46  C   UNL A   1      42.262  27.289  28.916  1.00  0.00     0.074 A 
ATOM     47  C   UNL A   1      42.793  29.419  30.140  1.00  0.00     0.049 A 
ATOM     48  N   UNL A   1      42.744  26.181  29.364  1.00  0.00    -0.248 NA
ATOM     49  C   UNL A   1      41.763  27.214  27.533  1.00  0.00     0.031 C 
ATOM     50  C   UNL A   1      42.520  30.745  30.696  1.00  0.00     0.029 A 
ATOM     51  N   UNL A   1      44.147  29.392  30.087  1.00  0.00    -0.354 N 
ATOM     52  C   UNL A   1      42.867  25.369  28.247  1.00  0.00     0.074 A 
ATOM     53  C   UNL A   1      42.008  25.937  27.246  1.00  0.00     0.031 C 
ATOM     54  C   UNL A   1      43.663  31.472  30.690  1.00  0.00     0.029 A 
ATOM     55  C   UNL A   1      44.761  30.629  30.244  1.00  0.00     0.049 A 
ATOM     56  H   UNL A   1      44.656  28.560  29.947  1.00  0.00     0.167 HD
ATOM     57  C   UNL A   1      43.904  24.500  28.135  1.00  0.00     0.034 A 
ATOM     58  C   UNL A   1      46.051  30.927  29.915  1.00  0.00     0.034 A 
ATOM     59  C   UNL A   1      44.502  24.239  29.429  1.00  0.00     0.049 A 
ATOM     60  C   UNL A   1      46.784  29.625  29.890  1.00  0.00     0.074 A 
ATOM     61  C   UNL A   1      44.002  23.779  30.635  1.00  0.00     0.029 A 
ATOM     62  N   UNL A   1      45.691  24.866  29.740  1.00  0.00    -0.354 N 
ATOM     63  N   UNL A   1      46.962  28.890  30.958  1.00  0.00    -0.248 NA
ATOM     64  C   UNL A   1      46.822  28.894  28.628  1.00  0.00     0.031 C 
ATOM     65  C   UNL A   1      44.625  24.595  31.625  1.00  0.00     0.029 A 
ATOM     66  C   UNL A   1      45.546  25.430  30.987  1.00  0.00     0.049 A 
ATOM     67  H   UNL A   1      46.495  24.902  29.174  1.00  0.00     0.167 HD
ATOM     68  C   UNL A   1      46.704  27.587  30.552  1.00  0.00     0.074 A 
ATOM     69  C   UNL A   1      46.688  27.644  29.089  1.00  0.00     0.031 C 
ATOM     70  C   UNL A   1      46.224  26.642  31.418  1.00  0.00     0.034 A 
BRANCH  57  71
ATOM     71  C   UNL A   1      44.609  24.211  26.831  1.00  0.00     0.023 A 
ATOM     72  C   UNL A   1      44.292  23.002  26.191  1.00  0.00     0.031 A 
ATOM     73  C   UNL A   1      45.745  24.894  26.328  1.00  0.00     0.131 A 
ATOM     74  C   UNL A   1      45.124  22.481  25.187  1.00  0.00     0.055 A 
ATOM     75  C   UNL A   1      46.526  24.406  25.279  1.00  0.00     0.041 A 
ATOM     76  F   UNL A   1      46.230  26.014  26.872  1.00  0.00    -0.206 F 
ATOM     77  C   UNL A   1      46.237  23.176  24.724  1.00  0.00     0.022 A 
BRANCH  74  78
ATOM     78  S   UNL A   1      44.822  20.790  24.625  1.00  0.00     0.124 S 
ATOM     79  O   UNL A   1      46.017  20.104  25.105  1.00  0.00    -0.237 OA
ATOM     80  O   UNL A   1      43.574  20.467  25.309  1.00  0.00    -0.237 OA
ATOM     81  O   UNL A   1      44.721  20.930  23.174  1.00  0.00    -0.744 OA
ENDBRANCH  74  78
ENDBRANCH  57  71
BRANCH  58  82
ATOM     82  C   UNL A   1      46.520  32.170  29.221  1.00  0.00     0.023 A 
ATOM     83  C   UNL A   1      45.949  32.664  28.024  1.00  0.00     0.031 A 
ATOM     84  C   UNL A   1      47.433  33.033  29.874  1.00  0.00     0.131 A 
ATOM     85  C   UNL A   1      46.307  33.948  27.532  1.00  0.00     0.055 A 
ATOM     86  C   UNL A   1      47.786  34.291  29.383  1.00  0.00     0.041 A 
ATOM     87  F   UNL A   1      47.961  32.719  31.067  1.00  0.00    -0.206 F 
ATOM     88  C   UNL A   1      47.218  34.759  28.212  1.00  0.00     0.022 A 
BRANCH  85  89
ATOM     89  S   UNL A   1      45.538  34.630  26.022  1.00  0.00     0.124 S 
ATOM     90  O   UNL A   1      45.524  33.476  25.131  1.00  0.00    -0.237 OA
ATOM     91  O   UNL A   1      44.244  35.092  26.509  1.00  0.00    -0.237 OA
ATOM     92  O   UNL A   1      46.456  35.700  25.622  1.00  0.00    -0.744 OA
ENDBRANCH  85  89
ENDBRANCH  58  82
BRANCH  70  93
ATOM     93  C   UNL A   1      46.204  26.941  32.908  1.00  0.00     0.023 A 
ATOM     94  C   UNL A   1      45.149  27.578  33.606  1.00  0.00     0.031 A 
ATOM     95  C   UNL A   1      47.261  26.416  33.676  1.00  0.00     0.131 A 
ATOM     96  C   UNL A   1      45.187  27.669  35.015  1.00  0.00     0.055 A 
ATOM     97  C   UNL A   1      47.281  26.485  35.068  1.00  0.00     0.041 A 
ATOM     98  F   UNL A   1      48.283  25.780  33.081  1.00  0.00    -0.206 F 
ATOM     99  C   UNL A   1      46.245  27.117  35.744  1.00  0.00     0.022 A 
BRANCH  96 100
ATOM    100  S   UNL A   1      43.867  28.526  35.939  1.00  0.00     0.124 S 
ATOM    101  O   UNL A   1      44.129  29.936  35.676  1.00  0.00    -0.237 OA
ATOM    102  O   UNL A   1      42.655  27.976  35.341  1.00  0.00    -0.237 OA
ATOM    103  O   UNL A   1      44.100  28.113  37.325  1.00  0.00    -0.744 OA
ENDBRANCH  96 100
ENDBRANCH  70  93
ENDBRANCH  44  45
ENDBRANCH  37  39
ENDBRANCH  36  37
ENDBRANCH  35  36
ENDBRANCH  34  35
ENDBRANCH  33  34
ENDBRANCH  32  33
ENDBRANCH   1  32
TORSDOF 25
ENDMDL
