MODEL 1
REMARK VINA RESULT:     -10.6      0.000      0.000
REMARK SMILES O=C(OCCOCCOCCOC(=O)c1ccc2c(c1)=N[C@H](C(F)(F)F)N=2)c1ccc(-c2c3nc(c(-c4cc(S(=O)(=O)[O-])ccc4F)c4ccc([nH]4)c(-c4cc(S(=O)(=O)[O-])ccc4F)c4nc(c(-c5cc(S(=O)(=O)[O-])ccc5F)c5ccc2[nH]5)C=C4)C=C3)cc1
REMARK SMILES IDX 7 1 6 2 5 3 4 4 3 5 2 6 1 7 28 8 29 9 90 10 30 11 89 12
REMARK SMILES IDX 31 13 32 14 33 15 83 16 34 17 88 18 82 19 84 20 35 21 87 22
REMARK SMILES IDX 81 23 80 24 36 26 68 27 48 28 67 29 49 30 52 31 66 32 85 33
REMARK SMILES IDX 50 34 51 35 65 37 86 38 53 39 37 40 38 41 46 42 39 43 45 44
REMARK SMILES IDX 47 45 44 46 40 47 41 48 42 49 43 50 69 51 70 52 78 53 71 54
REMARK SMILES IDX 77 55 79 56 76 57 72 58 73 59 74 60 75 61 54 62 55 63 63 64
REMARK SMILES IDX 56 65 62 66 64 67 61 68 57 69 58 70 59 71 60 72 8 73 9 74
REMARK SMILES IDX 10 75 11 76 12 77 13 78 14 79 15 80 16 81 20 82 17 83 19 84
REMARK SMILES IDX 18 85 21 86 27 87 22 88 23 89 24 90 25 91 26 92
REMARK H PARENT 84 25 52 36
REMARK Flexibility Score: inf
ROOT
ATOM      1  C   UNL A   1      34.209  20.360  24.962  1.00  0.00     0.188 C 
ENDROOT
BRANCH   1   2
ATOM      2  O   UNL A   1      34.923  21.503  25.456  1.00  0.00    -0.376 OA
BRANCH   2   3
ATOM      3  C   UNL A   1      36.077  21.823  24.674  1.00  0.00     0.202 C 
BRANCH   3   4
ATOM      4  C   UNL A   1      37.107  22.715  25.374  1.00  0.00     0.261 C 
BRANCH   4   5
ATOM      5  O   UNL A   1      38.229  21.996  25.899  1.00  0.00    -0.460 OA
BRANCH   5   6
ATOM      6  C   UNL A   1      39.382  22.467  26.430  1.00  0.00     0.338 C 
ATOM      7  O   UNL A   1      40.262  21.637  26.667  1.00  0.00    -0.246 OA
BRANCH   6   8
ATOM      8  C   UNL A   1      39.662  23.903  26.798  1.00  0.00     0.060 A 
ATOM      9  C   UNL A   1      39.372  24.268  28.130  1.00  0.00     0.016 A 
ATOM     10  C   UNL A   1      40.192  24.897  25.970  1.00  0.00     0.016 A 
ATOM     11  C   UNL A   1      39.633  25.555  28.616  1.00  0.00     0.010 A 
ATOM     12  C   UNL A   1      40.472  26.179  26.451  1.00  0.00     0.010 A 
ATOM     13  C   UNL A   1      40.211  26.514  27.779  1.00  0.00    -0.014 A 
BRANCH  13  14
ATOM     14  C   UNL A   1      40.716  27.796  28.313  1.00  0.00     0.031 A 
ATOM     15  C   UNL A   1      42.179  28.053  28.493  1.00  0.00     0.074 A 
ATOM     16  C   UNL A   1      39.808  28.694  28.738  1.00  0.00     0.049 A 
ATOM     17  N   UNL A   1      42.773  29.163  28.841  1.00  0.00    -0.248 NA
ATOM     18  C   UNL A   1      43.096  26.923  28.276  1.00  0.00     0.031 C 
ATOM     19  C   UNL A   1      38.358  28.486  28.709  1.00  0.00     0.029 A 
ATOM     20  N   UNL A   1      39.957  29.939  29.291  1.00  0.00    -0.354 N 
ATOM     21  C   UNL A   1      44.134  28.888  28.829  1.00  0.00     0.074 A 
ATOM     22  C   UNL A   1      44.275  27.481  28.525  1.00  0.00     0.031 C 
ATOM     23  C   UNL A   1      37.751  29.568  29.219  1.00  0.00     0.029 A 
ATOM     24  C   UNL A   1      38.764  30.545  29.607  1.00  0.00     0.049 A 
ATOM     25  H   UNL A   1      40.833  30.358  29.447  1.00  0.00     0.167 HD
ATOM     26  C   UNL A   1      45.161  29.745  29.028  1.00  0.00     0.034 A 
ATOM     27  C   UNL A   1      38.513  31.763  30.128  1.00  0.00     0.034 A 
ATOM     28  C   UNL A   1      44.986  31.124  29.395  1.00  0.00     0.049 A 
ATOM     29  C   UNL A   1      39.674  32.698  30.347  1.00  0.00     0.074 A 
ATOM     30  C   UNL A   1      45.958  32.090  29.578  1.00  0.00     0.029 A 
ATOM     31  N   UNL A   1      43.764  31.729  29.653  1.00  0.00    -0.354 N 
ATOM     32  N   UNL A   1      40.954  32.482  30.147  1.00  0.00    -0.248 NA
ATOM     33  C   UNL A   1      39.363  34.052  30.822  1.00  0.00     0.031 C 
ATOM     34  C   UNL A   1      45.331  33.259  30.007  1.00  0.00     0.029 A 
ATOM     35  C   UNL A   1      43.961  33.046  30.026  1.00  0.00     0.049 A 
ATOM     36  H   UNL A   1      42.888  31.286  29.581  1.00  0.00     0.167 HD
ATOM     37  C   UNL A   1      41.594  33.685  30.424  1.00  0.00     0.074 A 
ATOM     38  C   UNL A   1      40.559  34.627  30.798  1.00  0.00     0.031 C 
ATOM     39  C   UNL A   1      42.917  33.982  30.369  1.00  0.00     0.034 A 
BRANCH  26  40
ATOM     40  C   UNL A   1      46.569  29.267  28.794  1.00  0.00     0.023 A 
ATOM     41  C   UNL A   1      47.050  29.019  27.497  1.00  0.00     0.031 A 
ATOM     42  C   UNL A   1      47.366  28.879  29.886  1.00  0.00     0.131 A 
ATOM     43  C   UNL A   1      48.286  28.381  27.328  1.00  0.00     0.055 A 
ATOM     44  C   UNL A   1      48.611  28.274  29.712  1.00  0.00     0.041 A 
ATOM     45  F   UNL A   1      46.935  29.077  31.141  1.00  0.00    -0.206 F 
ATOM     46  C   UNL A   1      49.072  28.014  28.428  1.00  0.00     0.022 A 
BRANCH  43  47
ATOM     47  S   UNL A   1      48.897  27.935  25.679  1.00  0.00     0.124 S 
ATOM     48  O   UNL A   1      50.116  28.736  25.590  1.00  0.00    -0.237 OA
ATOM     49  O   UNL A   1      49.101  26.496  25.807  1.00  0.00    -0.237 OA
ATOM     50  O   UNL A   1      47.819  28.346  24.786  1.00  0.00    -0.744 OA
ENDBRANCH  43  47
ENDBRANCH  26  40
BRANCH  27  51
ATOM     51  C   UNL A   1      37.095  32.179  30.327  1.00  0.00     0.023 A 
ATOM     52  C   UNL A   1      36.353  32.757  29.279  1.00  0.00     0.031 A 
ATOM     53  C   UNL A   1      36.515  32.140  31.605  1.00  0.00     0.131 A 
ATOM     54  C   UNL A   1      35.101  33.329  29.546  1.00  0.00     0.055 A 
ATOM     55  C   UNL A   1      35.241  32.652  31.852  1.00  0.00     0.041 A 
ATOM     56  F   UNL A   1      37.194  31.621  32.640  1.00  0.00    -0.206 F 
ATOM     57  C   UNL A   1      34.535  33.266  30.823  1.00  0.00     0.022 A 
BRANCH  54  58
ATOM     58  S   UNL A   1      34.236  34.304  28.283  1.00  0.00     0.124 S 
ATOM     59  O   UNL A   1      33.919  35.529  29.010  1.00  0.00    -0.237 OA
ATOM     60  O   UNL A   1      35.258  34.432  27.247  1.00  0.00    -0.237 OA
ATOM     61  O   UNL A   1      33.095  33.468  27.924  1.00  0.00    -0.744 OA
ENDBRANCH  54  58
ENDBRANCH  27  51
BRANCH  39  62
ATOM     62  C   UNL A   1      43.358  35.386  30.696  1.00  0.00     0.023 A 
ATOM     63  C   UNL A   1      43.373  35.818  32.037  1.00  0.00     0.031 A 
ATOM     64  C   UNL A   1      43.596  36.334  29.687  1.00  0.00     0.131 A 
ATOM     65  C   UNL A   1      43.581  37.170  32.330  1.00  0.00     0.055 A 
ATOM     66  C   UNL A   1      43.853  37.672  29.988  1.00  0.00     0.041 A 
ATOM     67  F   UNL A   1      43.573  35.974  28.394  1.00  0.00    -0.206 F 
ATOM     68  C   UNL A   1      43.829  38.098  31.313  1.00  0.00     0.022 A 
BRANCH  65  69
ATOM     69  S   UNL A   1      43.424  37.791  34.028  1.00  0.00     0.124 S 
ATOM     70  O   UNL A   1      42.915  39.142  33.806  1.00  0.00    -0.237 OA
ATOM     71  O   UNL A   1      42.468  36.854  34.613  1.00  0.00    -0.237 OA
ATOM     72  O   UNL A   1      44.781  37.713  34.559  1.00  0.00    -0.744 OA
ENDBRANCH  65  69
ENDBRANCH  39  62
ENDBRANCH  13  14
ENDBRANCH   6   8
ENDBRANCH   5   6
ENDBRANCH   4   5
ENDBRANCH   3   4
ENDBRANCH   2   3
ENDBRANCH   1   2
BRANCH   1  73
ATOM     73  C   UNL A   1      32.707  20.449  25.243  1.00  0.00     0.188 C 
BRANCH  73  74
ATOM     74  O   UNL A   1      32.005  21.517  24.610  1.00  0.00    -0.376 OA
BRANCH  74  75
ATOM     75  C   UNL A   1      31.288  22.414  25.455  1.00  0.00     0.202 C 
BRANCH  75  76
ATOM     76  C   UNL A   1      32.073  23.556  26.112  1.00  0.00     0.261 C 
BRANCH  76  77
ATOM     77  O   UNL A   1      32.309  24.698  25.270  1.00  0.00    -0.460 OA
BRANCH  77  78
ATOM     78  C   UNL A   1      31.795  25.861  25.747  1.00  0.00     0.338 C 
ATOM     79  O   UNL A   1      31.537  26.121  26.912  1.00  0.00    -0.246 OA
BRANCH  78  80
ATOM     80  C   UNL A   1      31.500  26.819  24.653  1.00  0.00     0.062 A 
ATOM     81  C   UNL A   1      31.478  26.319  23.287  1.00  0.00     0.018 A 
ATOM     82  C   UNL A   1      31.100  28.059  24.981  1.00  0.00     0.046 A 
ATOM     83  C   UNL A   1      31.015  27.032  22.251  1.00  0.00     0.031 A 
ATOM     84  C   UNL A   1      30.557  28.894  23.905  1.00  0.00     0.087 A 
ATOM     85  C   UNL A   1      30.517  28.381  22.520  1.00  0.00     0.086 A 
ATOM     86  N   UNL A   1      30.037  30.067  24.007  1.00  0.00    -0.247 NA
ATOM     87  N   UNL A   1      30.002  29.229  21.703  1.00  0.00    -0.247 NA
ATOM     88  C   UNL A   1      29.606  30.371  22.591  1.00  0.00     0.326 C 
BRANCH  88  89
ATOM     89  C   UNL A   1      28.074  30.660  22.488  1.00  0.00     0.431 C 
ATOM     90  F   UNL A   1      27.382  30.057  23.484  1.00  0.00    -0.167 F 
ATOM     91  F   UNL A   1      27.799  31.988  22.545  1.00  0.00    -0.167 F 
ATOM     92  F   UNL A   1      27.549  30.208  21.320  1.00  0.00    -0.167 F 
ENDBRANCH  88  89
ENDBRANCH  78  80
ENDBRANCH  77  78
ENDBRANCH  76  77
ENDBRANCH  75  76
ENDBRANCH  74  75
ENDBRANCH  73  74
ENDBRANCH   1  73
TORSDOF 21
ENDMDL
MODEL 2
REMARK VINA RESULT:      -9.9      2.058      2.334
REMARK SMILES O=C(OCCOCCOCCOC(=O)c1ccc2c(c1)=N[C@H](C(F)(F)F)N=2)c1ccc(-c2c3nc(c(-c4cc(S(=O)(=O)[O-])ccc4F)c4ccc([nH]4)c(-c4cc(S(=O)(=O)[O-])ccc4F)c4nc(c(-c5cc(S(=O)(=O)[O-])ccc5F)c5ccc2[nH]5)C=C4)C=C3)cc1
REMARK SMILES IDX 7 1 6 2 5 3 4 4 3 5 2 6 1 7 28 8 29 9 90 10 30 11 89 12
REMARK SMILES IDX 31 13 32 14 33 15 83 16 34 17 88 18 82 19 84 20 35 21 87 22
REMARK SMILES IDX 81 23 80 24 36 26 68 27 48 28 67 29 49 30 52 31 66 32 85 33
REMARK SMILES IDX 50 34 51 35 65 37 86 38 53 39 37 40 38 41 46 42 39 43 45 44
REMARK SMILES IDX 47 45 44 46 40 47 41 48 42 49 43 50 69 51 70 52 78 53 71 54
REMARK SMILES IDX 77 55 79 56 76 57 72 58 73 59 74 60 75 61 54 62 55 63 63 64
REMARK SMILES IDX 56 65 62 66 64 67 61 68 57 69 58 70 59 71 60 72 8 73 9 74
REMARK SMILES IDX 10 75 11 76 12 77 13 78 14 79 15 80 16 81 20 82 17 83 19 84
REMARK SMILES IDX 18 85 21 86 27 87 22 88 23 89 24 90 25 91 26 92
REMARK H PARENT 84 25 52 36
REMARK Flexibility Score: inf
ROOT
ATOM      1  C   UNL A   1      34.454  19.652  24.955  1.00  0.00     0.188 C 
ENDROOT
BRANCH   1   2
ATOM      2  O   UNL A   1      35.465  20.649  24.749  1.00  0.00    -0.376 OA
BRANCH   2   3
ATOM      3  C   UNL A   1      36.793  20.138  24.896  1.00  0.00     0.202 C 
BRANCH   3   4
ATOM      4  C   UNL A   1      37.890  21.203  24.987  1.00  0.00     0.261 C 
BRANCH   4   5
ATOM      5  O   UNL A   1      38.752  21.046  26.119  1.00  0.00    -0.460 OA
BRANCH   5   6
ATOM      6  C   UNL A   1      39.970  21.590  26.358  1.00  0.00     0.338 C 
ATOM      7  O   UNL A   1      40.947  20.860  26.180  1.00  0.00    -0.246 OA
BRANCH   6   8
ATOM      8  C   UNL A   1      40.226  22.987  26.865  1.00  0.00     0.060 A 
ATOM      9  C   UNL A   1      41.178  23.105  27.900  1.00  0.00     0.016 A 
ATOM     10  C   UNL A   1      39.640  24.171  26.407  1.00  0.00     0.016 A 
ATOM     11  C   UNL A   1      41.548  24.349  28.425  1.00  0.00     0.010 A 
ATOM     12  C   UNL A   1      40.015  25.419  26.913  1.00  0.00     0.010 A 
ATOM     13  C   UNL A   1      40.982  25.520  27.912  1.00  0.00    -0.014 A 
BRANCH  13  14
ATOM     14  C   UNL A   1      41.514  26.851  28.270  1.00  0.00     0.031 A 
ATOM     15  C   UNL A   1      42.950  27.211  28.053  1.00  0.00     0.074 A 
ATOM     16  C   UNL A   1      40.685  27.703  28.902  1.00  0.00     0.049 A 
ATOM     17  N   UNL A   1      43.532  28.370  28.210  1.00  0.00    -0.248 NA
ATOM     18  C   UNL A   1      43.858  26.136  27.623  1.00  0.00     0.031 C 
ATOM     19  C   UNL A   1      39.297  27.400  29.260  1.00  0.00     0.029 A 
ATOM     20  N   UNL A   1      40.882  28.975  29.372  1.00  0.00    -0.354 N 
ATOM     21  C   UNL A   1      44.858  28.184  27.845  1.00  0.00     0.074 A 
ATOM     22  C   UNL A   1      45.017  26.779  27.542  1.00  0.00     0.031 C 
ATOM     23  C   UNL A   1      38.768  28.458  29.892  1.00  0.00     0.029 A 
ATOM     24  C   UNL A   1      39.773  29.513  29.981  1.00  0.00     0.049 A 
ATOM     25  H   UNL A   1      41.736  29.457  29.284  1.00  0.00     0.167 HD
ATOM     26  C   UNL A   1      45.836  29.113  27.750  1.00  0.00     0.034 A 
ATOM     27  C   UNL A   1      39.579  30.730  30.526  1.00  0.00     0.034 A 
ATOM     28  C   UNL A   1      45.663  30.491  28.124  1.00  0.00     0.049 A 
ATOM     29  C   UNL A   1      40.684  31.747  30.414  1.00  0.00     0.074 A 
ATOM     30  C   UNL A   1      46.575  31.525  28.026  1.00  0.00     0.029 A 
ATOM     31  N   UNL A   1      44.510  31.023  28.684  1.00  0.00    -0.354 N 
ATOM     32  N   UNL A   1      41.879  31.608  29.887  1.00  0.00    -0.248 NA
ATOM     33  C   UNL A   1      40.410  33.095  30.928  1.00  0.00     0.031 C 
ATOM     34  C   UNL A   1      45.998  32.665  28.583  1.00  0.00     0.029 A 
ATOM     35  C   UNL A   1      44.701  32.363  28.967  1.00  0.00     0.049 A 
ATOM     36  H   UNL A   1      43.680  30.521  28.854  1.00  0.00     0.167 HD
ATOM     37  C   UNL A   1      42.480  32.861  29.963  1.00  0.00     0.074 A 
ATOM     38  C   UNL A   1      41.513  33.745  30.579  1.00  0.00     0.031 C 
ATOM     39  C   UNL A   1      43.717  33.241  29.555  1.00  0.00     0.034 A 
BRANCH  26  40
ATOM     40  C   UNL A   1      47.165  28.721  27.162  1.00  0.00     0.023 A 
ATOM     41  C   UNL A   1      47.281  28.330  25.818  1.00  0.00     0.031 A 
ATOM     42  C   UNL A   1      48.280  28.557  28.002  1.00  0.00     0.131 A 
ATOM     43  C   UNL A   1      48.484  27.774  25.360  1.00  0.00     0.055 A 
ATOM     44  C   UNL A   1      49.486  28.035  27.535  1.00  0.00     0.041 A 
ATOM     45  F   UNL A   1      48.205  28.897  29.299  1.00  0.00    -0.206 F 
ATOM     46  C   UNL A   1      49.588  27.631  26.209  1.00  0.00     0.022 A 
BRANCH  43  47
ATOM     47  S   UNL A   1      48.647  27.148  23.665  1.00  0.00     0.124 S 
ATOM     48  O   UNL A   1      50.096  27.021  23.535  1.00  0.00    -0.237 OA
ATOM     49  O   UNL A   1      47.912  25.889  23.733  1.00  0.00    -0.237 OA
ATOM     50  O   UNL A   1      48.040  28.193  22.849  1.00  0.00    -0.744 OA
ENDBRANCH  43  47
ENDBRANCH  26  40
BRANCH  27  51
ATOM     51  C   UNL A   1      38.235  31.060  31.084  1.00  0.00     0.023 A 
ATOM     52  C   UNL A   1      37.244  31.663  30.287  1.00  0.00     0.031 A 
ATOM     53  C   UNL A   1      37.980  30.911  32.457  1.00  0.00     0.131 A 
ATOM     54  C   UNL A   1      36.073  32.151  30.883  1.00  0.00     0.055 A 
ATOM     55  C   UNL A   1      36.784  31.340  33.034  1.00  0.00     0.041 A 
ATOM     56  F   UNL A   1      38.904  30.364  33.262  1.00  0.00    -0.206 F 
ATOM     57  C   UNL A   1      35.832  31.980  32.249  1.00  0.00     0.022 A 
BRANCH  54  58
ATOM     58  S   UNL A   1      34.897  33.157  29.934  1.00  0.00     0.124 S 
ATOM     59  O   UNL A   1      33.991  33.627  30.976  1.00  0.00    -0.237 OA
ATOM     60  O   UNL A   1      35.770  34.174  29.350  1.00  0.00    -0.237 OA
ATOM     61  O   UNL A   1      34.328  32.212  28.979  1.00  0.00    -0.744 OA
ENDBRANCH  54  58
ENDBRANCH  27  51
BRANCH  39  62
ATOM     62  C   UNL A   1      44.124  34.683  29.728  1.00  0.00     0.023 A 
ATOM     63  C   UNL A   1      43.754  35.634  28.756  1.00  0.00     0.031 A 
ATOM     64  C   UNL A   1      45.006  35.079  30.747  1.00  0.00     0.131 A 
ATOM     65  C   UNL A   1      44.297  36.922  28.801  1.00  0.00     0.055 A 
ATOM     66  C   UNL A   1      45.506  36.380  30.816  1.00  0.00     0.041 A 
ATOM     67  F   UNL A   1      45.402  34.203  31.684  1.00  0.00    -0.206 F 
ATOM     68  C   UNL A   1      45.165  37.303  29.830  1.00  0.00     0.022 A 
BRANCH  65  69
ATOM     69  S   UNL A   1      43.988  38.112  27.466  1.00  0.00     0.124 S 
ATOM     70  O   UNL A   1      42.961  37.427  26.686  1.00  0.00    -0.237 OA
ATOM     71  O   UNL A   1      43.530  39.289  28.202  1.00  0.00    -0.237 OA
ATOM     72  O   UNL A   1      45.284  38.250  26.811  1.00  0.00    -0.744 OA
ENDBRANCH  65  69
ENDBRANCH  39  62
ENDBRANCH  13  14
ENDBRANCH   6   8
ENDBRANCH   5   6
ENDBRANCH   4   5
ENDBRANCH   3   4
ENDBRANCH   2   3
ENDBRANCH   1   2
BRANCH   1  73
ATOM     73  C   UNL A   1      33.113  20.046  24.329  1.00  0.00     0.188 C 
BRANCH  73  74
ATOM     74  O   UNL A   1      33.098  21.255  23.571  1.00  0.00    -0.376 OA
BRANCH  74  75
ATOM     75  C   UNL A   1      31.870  21.614  22.944  1.00  0.00     0.202 C 
BRANCH  75  76
ATOM     76  C   UNL A   1      31.250  22.968  23.313  1.00  0.00     0.261 C 
BRANCH  76  77
ATOM     77  O   UNL A   1      32.142  23.890  23.964  1.00  0.00    -0.460 OA
BRANCH  77  78
ATOM     78  C   UNL A   1      31.520  24.829  24.721  1.00  0.00     0.338 C 
ATOM     79  O   UNL A   1      31.098  24.688  25.859  1.00  0.00    -0.246 OA
BRANCH  78  80
ATOM     80  C   UNL A   1      31.331  26.098  23.975  1.00  0.00     0.062 A 
ATOM     81  C   UNL A   1      31.753  26.149  22.584  1.00  0.00     0.018 A 
ATOM     82  C   UNL A   1      30.628  27.083  24.559  1.00  0.00     0.046 A 
ATOM     83  C   UNL A   1      31.438  27.154  21.756  1.00  0.00     0.031 A 
ATOM     84  C   UNL A   1      30.225  28.211  23.712  1.00  0.00     0.087 A 
ATOM     85  C   UNL A   1      30.637  28.254  22.294  1.00  0.00     0.086 A 
ATOM     86  N   UNL A   1      29.479  29.208  24.035  1.00  0.00    -0.247 NA
ATOM     87  N   UNL A   1      30.192  29.298  21.691  1.00  0.00    -0.247 NA
ATOM     88  C   UNL A   1      29.369  29.982  22.742  1.00  0.00     0.326 C 
BRANCH  88  89
ATOM     89  C   UNL A   1      27.888  30.152  22.277  1.00  0.00     0.431 C 
ATOM     90  F   UNL A   1      27.395  31.370  22.609  1.00  0.00    -0.167 F 
ATOM     91  F   UNL A   1      27.753  30.009  20.934  1.00  0.00    -0.167 F 
ATOM     92  F   UNL A   1      27.068  29.231  22.847  1.00  0.00    -0.167 F 
ENDBRANCH  88  89
ENDBRANCH  78  80
ENDBRANCH  77  78
ENDBRANCH  76  77
ENDBRANCH  75  76
ENDBRANCH  74  75
ENDBRANCH  73  74
ENDBRANCH   1  73
TORSDOF 21
ENDMDL
MODEL 3
REMARK VINA RESULT:      -9.9      2.811      3.616
REMARK SMILES O=C(OCCOCCOCCOC(=O)c1ccc2c(c1)=N[C@H](C(F)(F)F)N=2)c1ccc(-c2c3nc(c(-c4cc(S(=O)(=O)[O-])ccc4F)c4ccc([nH]4)c(-c4cc(S(=O)(=O)[O-])ccc4F)c4nc(c(-c5cc(S(=O)(=O)[O-])ccc5F)c5ccc2[nH]5)C=C4)C=C3)cc1
REMARK SMILES IDX 7 1 6 2 5 3 4 4 3 5 2 6 1 7 28 8 29 9 90 10 30 11 89 12
REMARK SMILES IDX 31 13 32 14 33 15 83 16 34 17 88 18 82 19 84 20 35 21 87 22
REMARK SMILES IDX 81 23 80 24 36 26 68 27 48 28 67 29 49 30 52 31 66 32 85 33
REMARK SMILES IDX 50 34 51 35 65 37 86 38 53 39 37 40 38 41 46 42 39 43 45 44
REMARK SMILES IDX 47 45 44 46 40 47 41 48 42 49 43 50 69 51 70 52 78 53 71 54
REMARK SMILES IDX 77 55 79 56 76 57 72 58 73 59 74 60 75 61 54 62 55 63 63 64
REMARK SMILES IDX 56 65 62 66 64 67 61 68 57 69 58 70 59 71 60 72 8 73 9 74
REMARK SMILES IDX 10 75 11 76 12 77 13 78 14 79 15 80 16 81 20 82 17 83 19 84
REMARK SMILES IDX 18 85 21 86 27 87 22 88 23 89 24 90 25 91 26 92
REMARK H PARENT 84 25 52 36
REMARK Flexibility Score: inf
ROOT
ATOM      1  C   UNL A   1      35.371  21.870  24.766  1.00  0.00     0.188 C 
ENDROOT
BRANCH   1   2
ATOM      2  O   UNL A   1      36.370  21.096  25.445  1.00  0.00    -0.376 OA
BRANCH   2   3
ATOM      3  C   UNL A   1      37.678  21.259  24.889  1.00  0.00     0.202 C 
BRANCH   3   4
ATOM      4  C   UNL A   1      38.758  21.686  25.887  1.00  0.00     0.261 C 
BRANCH   4   5
ATOM      5  O   UNL A   1      39.820  20.737  26.029  1.00  0.00    -0.460 OA
BRANCH   5   6
ATOM      6  C   UNL A   1      41.130  20.942  26.303  1.00  0.00     0.338 C 
ATOM      7  O   UNL A   1      41.887  19.982  26.144  1.00  0.00    -0.246 OA
BRANCH   6   8
ATOM      8  C   UNL A   1      41.730  22.223  26.827  1.00  0.00     0.060 A 
ATOM      9  C   UNL A   1      42.058  23.194  25.859  1.00  0.00     0.016 A 
ATOM     10  C   UNL A   1      41.975  22.553  28.164  1.00  0.00     0.016 A 
ATOM     11  C   UNL A   1      42.574  24.447  26.215  1.00  0.00     0.010 A 
ATOM     12  C   UNL A   1      42.472  23.807  28.530  1.00  0.00     0.010 A 
ATOM     13  C   UNL A   1      42.760  24.769  27.562  1.00  0.00    -0.014 A 
BRANCH  13  14
ATOM     14  C   UNL A   1      43.073  26.149  27.986  1.00  0.00     0.031 A 
ATOM     15  C   UNL A   1      44.475  26.670  28.003  1.00  0.00     0.074 A 
ATOM     16  C   UNL A   1      42.061  26.898  28.463  1.00  0.00     0.049 A 
ATOM     17  N   UNL A   1      44.889  27.886  28.241  1.00  0.00    -0.248 NA
ATOM     18  C   UNL A   1      45.556  25.706  27.741  1.00  0.00     0.031 C 
ATOM     19  C   UNL A   1      40.676  26.438  28.593  1.00  0.00     0.029 A 
ATOM     20  N   UNL A   1      42.034  28.181  28.944  1.00  0.00    -0.354 N 
ATOM     21  C   UNL A   1      46.270  27.852  28.100  1.00  0.00     0.074 A 
ATOM     22  C   UNL A   1      46.634  26.477  27.844  1.00  0.00     0.031 C 
ATOM     23  C   UNL A   1      39.935  27.425  29.116  1.00  0.00     0.029 A 
ATOM     24  C   UNL A   1      40.787  28.586  29.356  1.00  0.00     0.049 A 
ATOM     25  H   UNL A   1      42.831  28.756  28.992  1.00  0.00     0.167 HD
ATOM     26  C   UNL A   1      47.140  28.887  28.156  1.00  0.00     0.034 A 
ATOM     27  C   UNL A   1      40.370  29.770  29.848  1.00  0.00     0.034 A 
ATOM     28  C   UNL A   1      46.754  30.234  28.480  1.00  0.00     0.049 A 
ATOM     29  C   UNL A   1      41.358  30.906  29.906  1.00  0.00     0.074 A 
ATOM     30  C   UNL A   1      47.549  31.364  28.521  1.00  0.00     0.029 A 
ATOM     31  N   UNL A   1      45.473  30.629  28.836  1.00  0.00    -0.354 N 
ATOM     32  N   UNL A   1      42.631  30.906  29.585  1.00  0.00    -0.248 NA
ATOM     33  C   UNL A   1      40.854  32.210  30.353  1.00  0.00     0.031 C 
ATOM     34  C   UNL A   1      46.764  32.429  28.962  1.00  0.00     0.029 A 
ATOM     35  C   UNL A   1      45.463  31.980  29.131  1.00  0.00     0.049 A 
ATOM     36  H   UNL A   1      44.688  30.036  28.874  1.00  0.00     0.167 HD
ATOM     37  C   UNL A   1      43.067  32.217  29.743  1.00  0.00     0.074 A 
ATOM     38  C   UNL A   1      41.919  32.984  30.181  1.00  0.00     0.031 C 
ATOM     39  C   UNL A   1      44.303  32.738  29.540  1.00  0.00     0.034 A 
BRANCH  26  40
ATOM     40  C   UNL A   1      48.583  28.650  27.799  1.00  0.00     0.023 A 
ATOM     41  C   UNL A   1      49.014  28.659  26.462  1.00  0.00     0.031 A 
ATOM     42  C   UNL A   1      49.488  28.229  28.789  1.00  0.00     0.131 A 
ATOM     43  C   UNL A   1      50.313  28.231  26.152  1.00  0.00     0.055 A 
ATOM     44  C   UNL A   1      50.790  27.836  28.479  1.00  0.00     0.041 A 
ATOM     45  F   UNL A   1      49.110  28.185  30.076  1.00  0.00    -0.206 F 
ATOM     46  C   UNL A   1      51.205  27.827  27.153  1.00  0.00     0.022 A 
BRANCH  43  47
ATOM     47  S   UNL A   1      50.879  28.113  24.432  1.00  0.00     0.124 S 
ATOM     48  O   UNL A   1      49.640  27.774  23.736  1.00  0.00    -0.237 OA
ATOM     49  O   UNL A   1      51.387  29.459  24.184  1.00  0.00    -0.237 OA
ATOM     50  O   UNL A   1      51.881  27.054  24.467  1.00  0.00    -0.744 OA
ENDBRANCH  43  47
ENDBRANCH  26  40
BRANCH  27  51
ATOM     51  C   UNL A   1      38.925  29.943  30.174  1.00  0.00     0.023 A 
ATOM     52  C   UNL A   1      38.083  30.722  29.358  1.00  0.00     0.031 A 
ATOM     53  C   UNL A   1      38.405  29.453  31.383  1.00  0.00     0.131 A 
ATOM     54  C   UNL A   1      36.789  31.039  29.795  1.00  0.00     0.055 A 
ATOM     55  C   UNL A   1      37.095  29.717  31.782  1.00  0.00     0.041 A 
ATOM     56  F   UNL A   1      39.177  28.725  32.205  1.00  0.00    -0.206 F 
ATOM     57  C   UNL A   1      36.286  30.529  30.995  1.00  0.00     0.022 A 
BRANCH  54  58
ATOM     58  S   UNL A   1      35.774  32.246  28.896  1.00  0.00     0.124 S 
ATOM     59  O   UNL A   1      34.551  32.265  29.690  1.00  0.00    -0.237 OA
ATOM     60  O   UNL A   1      36.596  33.452  28.974  1.00  0.00    -0.237 OA
ATOM     61  O   UNL A   1      35.654  31.668  27.561  1.00  0.00    -0.744 OA
ENDBRANCH  54  58
ENDBRANCH  27  51
BRANCH  39  62
ATOM     62  C   UNL A   1      44.512  34.215  29.760  1.00  0.00     0.023 A 
ATOM     63  C   UNL A   1      44.476  35.096  28.660  1.00  0.00     0.031 A 
ATOM     64  C   UNL A   1      44.908  34.722  31.008  1.00  0.00     0.131 A 
ATOM     65  C   UNL A   1      44.870  36.428  28.824  1.00  0.00     0.055 A 
ATOM     66  C   UNL A   1      45.252  36.063  31.176  1.00  0.00     0.041 A 
ATOM     67  F   UNL A   1      44.976  33.916  32.080  1.00  0.00    -0.206 F 
ATOM     68  C   UNL A   1      45.250  36.919  30.077  1.00  0.00     0.022 A 
BRANCH  65  69
ATOM     69  S   UNL A   1      45.013  37.540  27.397  1.00  0.00     0.124 S 
ATOM     70  O   UNL A   1      46.023  36.863  26.589  1.00  0.00    -0.237 OA
ATOM     71  O   UNL A   1      43.658  37.516  26.849  1.00  0.00    -0.237 OA
ATOM     72  O   UNL A   1      45.427  38.811  27.982  1.00  0.00    -0.744 OA
ENDBRANCH  65  69
ENDBRANCH  39  62
ENDBRANCH  13  14
ENDBRANCH   6   8
ENDBRANCH   5   6
ENDBRANCH   4   5
ENDBRANCH   3   4
ENDBRANCH   2   3
ENDBRANCH   1   2
BRANCH   1  73
ATOM     73  C   UNL A   1      35.812  23.318  24.541  1.00  0.00     0.188 C 
BRANCH  73  74
ATOM     74  O   UNL A   1      34.785  24.250  24.203  1.00  0.00    -0.376 OA
BRANCH  74  75
ATOM     75  C   UNL A   1      33.457  23.744  24.103  1.00  0.00     0.202 C 
BRANCH  75  76
ATOM     76  C   UNL A   1      32.719  23.936  22.772  1.00  0.00     0.261 C 
BRANCH  76  77
ATOM     77  O   UNL A   1      33.536  24.399  21.682  1.00  0.00    -0.460 OA
BRANCH  77  78
ATOM     78  C   UNL A   1      33.009  25.441  20.991  1.00  0.00     0.338 C 
ATOM     79  O   UNL A   1      32.938  25.551  19.777  1.00  0.00    -0.246 OA
BRANCH  78  80
ATOM     80  C   UNL A   1      32.557  26.527  21.896  1.00  0.00     0.062 A 
ATOM     81  C   UNL A   1      31.128  26.757  22.036  1.00  0.00     0.018 A 
ATOM     82  C   UNL A   1      33.471  27.133  22.672  1.00  0.00     0.046 A 
ATOM     83  C   UNL A   1      30.600  27.552  22.977  1.00  0.00     0.031 A 
ATOM     84  C   UNL A   1      32.971  28.002  23.743  1.00  0.00     0.087 A 
ATOM     85  C   UNL A   1      31.519  28.222  23.898  1.00  0.00     0.086 A 
ATOM     86  N   UNL A   1      33.657  28.603  24.651  1.00  0.00    -0.247 NA
ATOM     87  N   UNL A   1      31.248  28.996  24.887  1.00  0.00    -0.247 NA
ATOM     88  C   UNL A   1      32.594  29.275  25.489  1.00  0.00     0.326 C 
BRANCH  88  89
ATOM     89  C   UNL A   1      32.647  28.826  26.984  1.00  0.00     0.431 C 
ATOM     90  F   UNL A   1      33.422  29.651  27.727  1.00  0.00    -0.167 F 
ATOM     91  F   UNL A   1      31.416  28.797  27.554  1.00  0.00    -0.167 F 
ATOM     92  F   UNL A   1      33.164  27.577  27.121  1.00  0.00    -0.167 F 
ENDBRANCH  88  89
ENDBRANCH  78  80
ENDBRANCH  77  78
ENDBRANCH  76  77
ENDBRANCH  75  76
ENDBRANCH  74  75
ENDBRANCH  73  74
ENDBRANCH   1  73
TORSDOF 21
ENDMDL
