MODEL 1
REMARK VINA RESULT:      -9.9      0.000      0.000
REMARK SMILES CN1C(=O)C(=Cc2ccc(OCc3cccc(C(=O)OCCOCCOCCOC(=O)c4ccc(-c5c6nc(c(-c7cc(S(=O)(=O)[O-])ccc7F)c7ccc([nH]7)c(-c7cc(S(=O)(=O)[O-])ccc7F)c7nc(c(-c8cc(S(=O)(=O)[O-])ccc8F)c8ccc5[nH]8)C=C7)C=C6)cc4)c3)c(Cl)c2)C(=O)N(C)C1=S
REMARK SMILES IDX 24 1 23 2 22 3 21 4 20 5 18 6 19 7 17 8 13 9 14 10 95 11
REMARK SMILES IDX 15 12 16 13 12 14 11 15 10 16 7 17 8 18 98 19 9 20 96 21
REMARK SMILES IDX 97 22 6 23 1 24 2 25 3 26 103 27 4 28 5 29 101 30 104 31
REMARK SMILES IDX 99 32 102 33 100 34 25 35 26 36 27 37 28 38 29 39 30 40
REMARK SMILES IDX 31 41 32 42 33 43 94 44 34 45 93 46 35 47 36 48 37 49 87 50
REMARK SMILES IDX 38 51 92 52 86 53 88 54 39 55 91 56 85 57 84 58 40 60 72 61
REMARK SMILES IDX 52 62 71 63 53 64 56 65 70 66 89 67 54 68 55 69 69 71 90 72
REMARK SMILES IDX 57 73 41 74 42 75 50 76 43 77 49 78 51 79 48 80 44 81 45 82
REMARK SMILES IDX 46 83 47 84 73 85 74 86 82 87 75 88 81 89 83 90 80 91 76 92
REMARK SMILES IDX 77 93 78 94 79 95 58 96 59 97 67 98 60 99 66 100 68 101
REMARK SMILES IDX 65 102 61 103 62 104 63 105 64 106
REMARK H PARENT 88 59 56 70
REMARK Flexibility Score: inf
ROOT
ATOM      1  C   UNL A   1      52.628  26.357  37.024  1.00  0.00     0.188 C 
ENDROOT
BRANCH   1   2
ATOM      2  O   UNL A   1      53.321  25.204  37.479  1.00  0.00    -0.376 OA
BRANCH   2   3
ATOM      3  C   UNL A   1      53.212  23.996  36.734  1.00  0.00     0.202 C 
BRANCH   3   4
ATOM      4  C   UNL A   1      51.809  23.543  36.339  1.00  0.00     0.261 C 
BRANCH   4   5
ATOM      5  O   UNL A   1      51.860  22.755  35.139  1.00  0.00    -0.460 OA
BRANCH   5   6
ATOM      6  C   UNL A   1      51.806  21.413  35.323  1.00  0.00     0.338 C 
ATOM      7  O   UNL A   1      52.663  20.703  35.819  1.00  0.00    -0.246 OA
BRANCH   6   8
ATOM      8  C   UNL A   1      50.437  20.965  35.008  1.00  0.00     0.060 A 
ATOM      9  C   UNL A   1      48.183  20.377  35.689  1.00  0.00    -0.010 A 
ATOM     10  C   UNL A   1      47.928  19.940  34.379  1.00  0.00     0.007 A 
ATOM     11  C   UNL A   1      49.467  20.846  36.007  1.00  0.00     0.023 A 
ATOM     12  C   UNL A   1      48.897  20.071  33.382  1.00  0.00     0.001 A 
ATOM     13  C   UNL A   1      50.146  20.603  33.690  1.00  0.00     0.016 A 
BRANCH   9  14
ATOM     14  C   UNL A   1      47.120  20.356  36.768  1.00  0.00     0.265 C 
BRANCH  14  15
ATOM     15  O   UNL A   1      47.394  19.606  37.957  1.00  0.00    -0.487 OA
BRANCH  15  16
ATOM     16  C   UNL A   1      46.561  18.603  38.368  1.00  0.00     0.138 A 
ATOM     17  C   UNL A   1      44.560  16.694  38.892  1.00  0.00    -0.023 A 
ATOM     18  C   UNL A   1      44.480  17.501  37.754  1.00  0.00     0.012 A 
ATOM     19  C   UNL A   1      45.643  16.836  39.761  1.00  0.00     0.032 A 
ATOM     20  C   UNL A   1      45.477  18.438  37.495  1.00  0.00     0.048 A 
ATOM     21  C   UNL A   1      46.660  17.765  39.488  1.00  0.00     0.083 A 
ATOM     22  Cl  UNL A   1      48.033  17.708  40.535  1.00  0.00    -0.080 Cl
BRANCH  17  23
ATOM     23  C   UNL A   1      43.555  15.648  39.105  1.00  0.00     0.027 C 
ATOM     24  C   UNL A   1      43.868  16.477  43.701  1.00  0.00     0.156 C 
ATOM     25  N   UNL A   1      43.228  15.688  42.646  1.00  0.00    -0.288 N 
ATOM     26  C   UNL A   1      43.119  16.348  41.430  1.00  0.00     0.265 C 
ATOM     27  C   UNL A   1      42.702  14.405  42.902  1.00  0.00     0.185 C 
ATOM     28  O   UNL A   1      43.151  17.570  41.304  1.00  0.00    -0.268 OA
ATOM     29  C   UNL A   1      42.932  15.453  40.283  1.00  0.00     0.106 C 
ATOM     30  N   UNL A   1      42.134  13.746  41.786  1.00  0.00    -0.288 N 
ATOM     31  S   UNL A   1      42.729  13.731  44.459  1.00  0.00    -0.040 S 
ATOM     32  C   UNL A   1      42.150  14.227  40.472  1.00  0.00     0.265 C 
ATOM     33  C   UNL A   1      41.496  12.431  41.888  1.00  0.00     0.156 C 
ATOM     34  O   UNL A   1      41.602  13.667  39.526  1.00  0.00    -0.268 OA
ENDBRANCH  17  23
ENDBRANCH  15  16
ENDBRANCH  14  15
ENDBRANCH   9  14
ENDBRANCH   6   8
ENDBRANCH   5   6
ENDBRANCH   4   5
ENDBRANCH   3   4
ENDBRANCH   2   3
ENDBRANCH   1   2
BRANCH   1  35
ATOM     35  C   UNL A   1      53.383  27.693  36.848  1.00  0.00     0.188 C 
BRANCH  35  36
ATOM     36  O   UNL A   1      52.706  28.885  36.481  1.00  0.00    -0.376 OA
BRANCH  36  37
ATOM     37  C   UNL A   1      53.443  30.077  36.259  1.00  0.00     0.202 C 
BRANCH  37  38
ATOM     38  C   UNL A   1      52.717  31.422  36.269  1.00  0.00     0.261 C 
BRANCH  38  39
ATOM     39  O   UNL A   1      51.628  31.499  35.342  1.00  0.00    -0.460 OA
BRANCH  39  40
ATOM     40  C   UNL A   1      51.989  31.744  34.057  1.00  0.00     0.338 C 
ATOM     41  O   UNL A   1      52.815  32.548  33.663  1.00  0.00    -0.246 OA
BRANCH  40  42
ATOM     42  C   UNL A   1      51.328  30.768  33.174  1.00  0.00     0.060 A 
ATOM     43  C   UNL A   1      50.160  31.160  32.509  1.00  0.00     0.016 A 
ATOM     44  C   UNL A   1      51.822  29.468  33.045  1.00  0.00     0.016 A 
ATOM     45  C   UNL A   1      49.463  30.239  31.728  1.00  0.00     0.010 A 
ATOM     46  C   UNL A   1      51.113  28.543  32.277  1.00  0.00     0.010 A 
ATOM     47  C   UNL A   1      49.919  28.918  31.635  1.00  0.00    -0.014 A 
BRANCH  47  48
ATOM     48  C   UNL A   1      49.073  27.884  30.993  1.00  0.00     0.031 A 
ATOM     49  C   UNL A   1      49.244  27.622  29.523  1.00  0.00     0.074 A 
ATOM     50  C   UNL A   1      48.163  27.199  31.706  1.00  0.00     0.049 A 
ATOM     51  N   UNL A   1      48.566  26.827  28.736  1.00  0.00    -0.248 NA
ATOM     52  C   UNL A   1      50.325  28.362  28.852  1.00  0.00     0.031 C 
ATOM     53  C   UNL A   1      47.938  27.339  33.143  1.00  0.00     0.029 A 
ATOM     54  N   UNL A   1      47.245  26.259  31.310  1.00  0.00    -0.354 N 
ATOM     55  C   UNL A   1      49.138  26.967  27.477  1.00  0.00     0.074 A 
ATOM     56  C   UNL A   1      50.195  27.949  27.601  1.00  0.00     0.031 C 
ATOM     57  C   UNL A   1      46.928  26.528  33.506  1.00  0.00     0.029 A 
ATOM     58  C   UNL A   1      46.412  25.843  32.322  1.00  0.00     0.049 A 
ATOM     59  H   UNL A   1      47.188  25.915  30.389  1.00  0.00     0.167 HD
ATOM     60  C   UNL A   1      48.814  26.331  26.324  1.00  0.00     0.034 A 
ATOM     61  C   UNL A   1      45.338  25.031  32.285  1.00  0.00     0.034 A 
ATOM     62  C   UNL A   1      47.737  25.378  26.209  1.00  0.00     0.049 A 
ATOM     63  C   UNL A   1      44.924  24.418  30.967  1.00  0.00     0.074 A 
ATOM     64  C   UNL A   1      47.329  24.667  25.094  1.00  0.00     0.029 A 
ATOM     65  N   UNL A   1      46.882  25.018  27.243  1.00  0.00    -0.354 N 
ATOM     66  N   UNL A   1      45.479  24.546  29.785  1.00  0.00    -0.248 NA
ATOM     67  C   UNL A   1      43.738  23.550  30.984  1.00  0.00     0.031 C 
ATOM     68  C   UNL A   1      46.189  23.932  25.436  1.00  0.00     0.029 A 
ATOM     69  C   UNL A   1      45.927  24.125  26.783  1.00  0.00     0.049 A 
ATOM     70  H   UNL A   1      46.945  25.348  28.168  1.00  0.00     0.167 HD
ATOM     71  C   UNL A   1      44.725  23.753  28.923  1.00  0.00     0.074 A 
ATOM     72  C   UNL A   1      43.683  23.144  29.724  1.00  0.00     0.031 C 
ATOM     73  C   UNL A   1      44.884  23.539  27.591  1.00  0.00     0.034 A 
BRANCH  60  74
ATOM     74  C   UNL A   1      49.602  26.699  25.093  1.00  0.00     0.023 A 
ATOM     75  C   UNL A   1      49.018  27.405  24.027  1.00  0.00     0.031 A 
ATOM     76  C   UNL A   1      50.944  26.299  24.963  1.00  0.00     0.131 A 
ATOM     77  C   UNL A   1      49.750  27.628  22.851  1.00  0.00     0.055 A 
ATOM     78  C   UNL A   1      51.690  26.589  23.820  1.00  0.00     0.041 A 
ATOM     79  F   UNL A   1      51.547  25.601  25.938  1.00  0.00    -0.206 F 
ATOM     80  C   UNL A   1      51.089  27.245  22.748  1.00  0.00     0.022 A 
BRANCH  77  81
ATOM     81  S   UNL A   1      48.884  28.299  21.405  1.00  0.00     0.124 S 
ATOM     82  O   UNL A   1      49.763  29.400  21.018  1.00  0.00    -0.237 OA
ATOM     83  O   UNL A   1      48.853  27.157  20.498  1.00  0.00    -0.237 OA
ATOM     84  O   UNL A   1      47.587  28.706  21.940  1.00  0.00    -0.744 OA
ENDBRANCH  77  81
ENDBRANCH  60  74
BRANCH  61  85
ATOM     85  C   UNL A   1      44.534  24.784  33.516  1.00  0.00     0.023 A 
ATOM     86  C   UNL A   1      43.581  25.714  33.959  1.00  0.00     0.031 A 
ATOM     87  C   UNL A   1      44.753  23.636  34.299  1.00  0.00     0.131 A 
ATOM     88  C   UNL A   1      42.914  25.503  35.176  1.00  0.00     0.055 A 
ATOM     89  C   UNL A   1      44.051  23.407  35.483  1.00  0.00     0.041 A 
ATOM     90  F   UNL A   1      45.656  22.718  33.921  1.00  0.00    -0.206 F 
ATOM     91  C   UNL A   1      43.132  24.350  35.934  1.00  0.00     0.022 A 
BRANCH  88  92
ATOM     92  S   UNL A   1      41.808  26.801  35.795  1.00  0.00     0.124 S 
ATOM     93  O   UNL A   1      40.717  26.015  36.362  1.00  0.00    -0.237 OA
ATOM     94  O   UNL A   1      42.662  27.497  36.750  1.00  0.00    -0.237 OA
ATOM     95  O   UNL A   1      41.470  27.562  34.593  1.00  0.00    -0.744 OA
ENDBRANCH  88  92
ENDBRANCH  61  85
BRANCH  73  96
ATOM     96  C   UNL A   1      43.931  22.571  26.932  1.00  0.00     0.023 A 
ATOM     97  C   UNL A   1      44.325  21.270  26.574  1.00  0.00     0.031 A 
ATOM     98  C   UNL A   1      42.608  22.961  26.659  1.00  0.00     0.131 A 
ATOM     99  C   UNL A   1      43.418  20.420  25.922  1.00  0.00     0.055 A 
ATOM    100  C   UNL A   1      41.694  22.094  26.058  1.00  0.00     0.041 A 
ATOM    101  F   UNL A   1      42.179  24.192  26.978  1.00  0.00    -0.206 F 
ATOM    102  C   UNL A   1      42.102  20.818  25.676  1.00  0.00     0.022 A 
BRANCH  99 103
ATOM    103  S   UNL A   1      44.001  18.806  25.333  1.00  0.00     0.124 S 
ATOM    104  O   UNL A   1      43.422  17.897  26.317  1.00  0.00    -0.237 OA
ATOM    105  O   UNL A   1      43.433  18.739  23.991  1.00  0.00    -0.237 OA
ATOM    106  O   UNL A   1      45.457  18.928  25.382  1.00  0.00    -0.744 OA
ENDBRANCH  99 103
ENDBRANCH  73  96
ENDBRANCH  47  48
ENDBRANCH  40  42
ENDBRANCH  39  40
ENDBRANCH  38  39
ENDBRANCH  37  38
ENDBRANCH  36  37
ENDBRANCH  35  36
ENDBRANCH   1  35
TORSDOF 24
ENDMDL
MODEL 2
REMARK VINA RESULT:      -9.8     13.470     19.716
REMARK SMILES CN1C(=O)C(=Cc2ccc(OCc3cccc(C(=O)OCCOCCOCCOC(=O)c4ccc(-c5c6nc(c(-c7cc(S(=O)(=O)[O-])ccc7F)c7ccc([nH]7)c(-c7cc(S(=O)(=O)[O-])ccc7F)c7nc(c(-c8cc(S(=O)(=O)[O-])ccc8F)c8ccc5[nH]8)C=C7)C=C6)cc4)c3)c(Cl)c2)C(=O)N(C)C1=S
REMARK SMILES IDX 24 1 23 2 22 3 21 4 20 5 18 6 19 7 17 8 13 9 14 10 95 11
REMARK SMILES IDX 15 12 16 13 12 14 11 15 10 16 7 17 8 18 98 19 9 20 96 21
REMARK SMILES IDX 97 22 6 23 1 24 2 25 3 26 103 27 4 28 5 29 101 30 104 31
REMARK SMILES IDX 99 32 102 33 100 34 25 35 26 36 27 37 28 38 29 39 30 40
REMARK SMILES IDX 31 41 32 42 33 43 94 44 34 45 93 46 35 47 36 48 37 49 87 50
REMARK SMILES IDX 38 51 92 52 86 53 88 54 39 55 91 56 85 57 84 58 40 60 72 61
REMARK SMILES IDX 52 62 71 63 53 64 56 65 70 66 89 67 54 68 55 69 69 71 90 72
REMARK SMILES IDX 57 73 41 74 42 75 50 76 43 77 49 78 51 79 48 80 44 81 45 82
REMARK SMILES IDX 46 83 47 84 73 85 74 86 82 87 75 88 81 89 83 90 80 91 76 92
REMARK SMILES IDX 77 93 78 94 79 95 58 96 59 97 67 98 60 99 66 100 68 101
REMARK SMILES IDX 65 102 61 103 62 104 63 105 64 106
REMARK H PARENT 88 59 56 70
REMARK Flexibility Score: inf
ROOT
ATOM      1  C   UNL A   1      48.014  44.167  36.116  1.00  0.00     0.188 C 
ENDROOT
BRANCH   1   2
ATOM      2  O   UNL A   1      47.445  44.683  34.923  1.00  0.00    -0.376 OA
BRANCH   2   3
ATOM      3  C   UNL A   1      46.074  44.421  34.644  1.00  0.00     0.202 C 
BRANCH   3   4
ATOM      4  C   UNL A   1      45.751  43.704  33.335  1.00  0.00     0.261 C 
BRANCH   4   5
ATOM      5  O   UNL A   1      44.330  43.640  33.140  1.00  0.00    -0.460 OA
BRANCH   5   6
ATOM      6  C   UNL A   1      43.909  43.828  31.866  1.00  0.00     0.338 C 
ATOM      7  O   UNL A   1      43.752  44.891  31.291  1.00  0.00    -0.246 OA
BRANCH   6   8
ATOM      8  C   UNL A   1      43.864  42.512  31.203  1.00  0.00     0.060 A 
ATOM      9  C   UNL A   1      43.907  41.135  29.204  1.00  0.00    -0.010 A 
ATOM     10  C   UNL A   1      43.586  40.020  29.995  1.00  0.00     0.007 A 
ATOM     11  C   UNL A   1      43.995  42.395  29.816  1.00  0.00     0.023 A 
ATOM     12  C   UNL A   1      43.466  40.140  31.381  1.00  0.00     0.001 A 
ATOM     13  C   UNL A   1      43.625  41.381  31.989  1.00  0.00     0.016 A 
BRANCH   9  14
ATOM     14  C   UNL A   1      44.156  41.023  27.714  1.00  0.00     0.265 C 
BRANCH  14  15
ATOM     15  O   UNL A   1      44.611  42.193  27.025  1.00  0.00    -0.487 OA
BRANCH  15  16
ATOM     16  C   UNL A   1      44.057  42.573  25.836  1.00  0.00     0.138 A 
ATOM     17  C   UNL A   1      42.736  42.936  23.376  1.00  0.00    -0.023 A 
ATOM     18  C   UNL A   1      42.463  41.812  24.161  1.00  0.00     0.012 A 
ATOM     19  C   UNL A   1      43.662  43.879  23.824  1.00  0.00     0.032 A 
ATOM     20  C   UNL A   1      43.113  41.642  25.381  1.00  0.00     0.048 A 
ATOM     21  C   UNL A   1      44.301  43.719  25.064  1.00  0.00     0.083 A 
ATOM     22  Cl  UNL A   1      45.273  45.048  25.588  1.00  0.00    -0.080 Cl
BRANCH  17  23
ATOM     23  C   UNL A   1      41.978  43.151  22.140  1.00  0.00     0.027 C 
ATOM     24  C   UNL A   1      46.046  43.857  19.933  1.00  0.00     0.156 C 
ATOM     25  N   UNL A   1      44.588  43.792  19.811  1.00  0.00    -0.288 N 
ATOM     26  C   UNL A   1      43.979  42.932  20.713  1.00  0.00     0.265 C 
ATOM     27  C   UNL A   1      43.903  44.491  18.794  1.00  0.00     0.185 C 
ATOM     28  O   UNL A   1      44.556  42.007  21.279  1.00  0.00    -0.268 OA
ATOM     29  C   UNL A   1      42.553  43.204  20.922  1.00  0.00     0.106 C 
ATOM     30  N   UNL A   1      42.495  44.359  18.808  1.00  0.00    -0.288 N 
ATOM     31  S   UNL A   1      44.736  45.396  17.625  1.00  0.00    -0.040 S 
ATOM     32  C   UNL A   1      41.758  43.685  19.789  1.00  0.00     0.265 C 
ATOM     33  C   UNL A   1      41.635  44.975  17.793  1.00  0.00     0.156 C 
ATOM     34  O   UNL A   1      40.539  43.533  19.753  1.00  0.00    -0.268 OA
ENDBRANCH  17  23
ENDBRANCH  15  16
ENDBRANCH  14  15
ENDBRANCH   9  14
ENDBRANCH   6   8
ENDBRANCH   5   6
ENDBRANCH   4   5
ENDBRANCH   3   4
ENDBRANCH   2   3
ENDBRANCH   1   2
BRANCH   1  35
ATOM     35  C   UNL A   1      49.544  44.206  36.323  1.00  0.00     0.188 C 
BRANCH  35  36
ATOM     36  O   UNL A   1      50.445  43.920  35.264  1.00  0.00    -0.376 OA
BRANCH  36  37
ATOM     37  C   UNL A   1      51.231  42.740  35.303  1.00  0.00     0.202 C 
BRANCH  37  38
ATOM     38  C   UNL A   1      50.615  41.443  35.824  1.00  0.00     0.261 C 
BRANCH  38  39
ATOM     39  O   UNL A   1      49.830  40.743  34.850  1.00  0.00    -0.460 OA
BRANCH  39  40
ATOM     40  C   UNL A   1      49.991  39.396  34.849  1.00  0.00     0.338 C 
ATOM     41  O   UNL A   1      51.036  38.778  34.940  1.00  0.00    -0.246 OA
BRANCH  40  42
ATOM     42  C   UNL A   1      48.667  38.750  34.870  1.00  0.00     0.060 A 
ATOM     43  C   UNL A   1      48.613  37.352  34.889  1.00  0.00     0.016 A 
ATOM     44  C   UNL A   1      47.498  39.511  34.818  1.00  0.00     0.016 A 
ATOM     45  C   UNL A   1      47.380  36.704  34.828  1.00  0.00     0.010 A 
ATOM     46  C   UNL A   1      46.265  38.860  34.739  1.00  0.00     0.010 A 
ATOM     47  C   UNL A   1      46.202  37.455  34.720  1.00  0.00    -0.014 A 
BRANCH  47  48
ATOM     48  C   UNL A   1      44.914  36.781  34.435  1.00  0.00     0.031 A 
ATOM     49  C   UNL A   1      44.596  36.400  33.016  1.00  0.00     0.074 A 
ATOM     50  C   UNL A   1      44.039  36.521  35.422  1.00  0.00     0.049 A 
ATOM     51  N   UNL A   1      43.505  35.878  32.520  1.00  0.00    -0.248 NA
ATOM     52  C   UNL A   1      45.654  36.650  32.024  1.00  0.00     0.031 C 
ATOM     53  C   UNL A   1      44.257  36.807  36.839  1.00  0.00     0.029 A 
ATOM     54  N   UNL A   1      42.783  35.972  35.377  1.00  0.00    -0.354 N 
ATOM     55  C   UNL A   1      43.743  35.731  31.158  1.00  0.00     0.074 A 
ATOM     56  C   UNL A   1      45.070  36.253  30.904  1.00  0.00     0.031 C 
ATOM     57  C   UNL A   1      43.159  36.449  37.528  1.00  0.00     0.029 A 
ATOM     58  C   UNL A   1      42.149  35.948  36.597  1.00  0.00     0.049 A 
ATOM     59  H   UNL A   1      42.373  35.629  34.550  1.00  0.00     0.167 HD
ATOM     60  C   UNL A   1      42.932  35.205  30.209  1.00  0.00     0.034 A 
ATOM     61  C   UNL A   1      40.888  35.594  36.916  1.00  0.00     0.034 A 
ATOM     62  C   UNL A   1      41.600  34.717  30.472  1.00  0.00     0.049 A 
ATOM     63  C   UNL A   1      39.961  35.114  35.823  1.00  0.00     0.074 A 
ATOM     64  C   UNL A   1      40.695  34.155  29.588  1.00  0.00     0.029 A 
ATOM     65  N   UNL A   1      40.971  34.753  31.710  1.00  0.00    -0.354 N 
ATOM     66  N   UNL A   1      40.200  34.967  34.541  1.00  0.00    -0.248 NA
ATOM     67  C   UNL A   1      38.594  34.753  36.225  1.00  0.00     0.031 C 
ATOM     68  C   UNL A   1      39.500  33.915  30.274  1.00  0.00     0.029 A 
ATOM     69  C   UNL A   1      39.680  34.259  31.606  1.00  0.00     0.049 A 
ATOM     70  H   UNL A   1      41.383  35.083  32.542  1.00  0.00     0.167 HD
ATOM     71  C   UNL A   1      39.021  34.470  33.989  1.00  0.00     0.074 A 
ATOM     72  C   UNL A   1      38.077  34.334  35.080  1.00  0.00     0.031 C 
ATOM     73  C   UNL A   1      38.745  34.146  32.699  1.00  0.00     0.034 A 
BRANCH  60  74
ATOM     74  C   UNL A   1      43.451  35.189  28.793  1.00  0.00     0.023 A 
ATOM     75  C   UNL A   1      44.153  34.086  28.277  1.00  0.00     0.031 A 
ATOM     76  C   UNL A   1      43.281  36.311  27.963  1.00  0.00     0.131 A 
ATOM     77  C   UNL A   1      44.720  34.154  26.996  1.00  0.00     0.055 A 
ATOM     78  C   UNL A   1      43.784  36.343  26.660  1.00  0.00     0.041 A 
ATOM     79  F   UNL A   1      42.640  37.402  28.409  1.00  0.00    -0.206 F 
ATOM     80  C   UNL A   1      44.522  35.267  26.175  1.00  0.00     0.022 A 
BRANCH  77  81
ATOM     81  S   UNL A   1      45.841  32.827  26.472  1.00  0.00     0.124 S 
ATOM     82  O   UNL A   1      46.947  33.585  25.893  1.00  0.00    -0.237 OA
ATOM     83  O   UNL A   1      46.124  32.140  27.728  1.00  0.00    -0.237 OA
ATOM     84  O   UNL A   1      45.046  32.066  25.511  1.00  0.00    -0.744 OA
ENDBRANCH  77  81
ENDBRANCH  60  74
BRANCH  61  85
ATOM     85  C   UNL A   1      40.397  35.727  38.317  1.00  0.00     0.023 A 
ATOM     86  C   UNL A   1      40.186  36.987  38.895  1.00  0.00     0.031 A 
ATOM     87  C   UNL A   1      40.187  34.588  39.116  1.00  0.00     0.131 A 
ATOM     88  C   UNL A   1      39.821  37.083  40.247  1.00  0.00     0.055 A 
ATOM     89  C   UNL A   1      39.777  34.687  40.445  1.00  0.00     0.041 A 
ATOM     90  F   UNL A   1      40.378  33.359  38.610  1.00  0.00    -0.206 F 
ATOM     91  C   UNL A   1      39.603  35.941  41.023  1.00  0.00     0.022 A 
BRANCH  88  92
ATOM     92  S   UNL A   1      39.712  38.728  41.003  1.00  0.00     0.124 S 
ATOM     93  O   UNL A   1      39.596  38.397  42.419  1.00  0.00    -0.237 OA
ATOM     94  O   UNL A   1      40.970  39.337  40.586  1.00  0.00    -0.237 OA
ATOM     95  O   UNL A   1      38.512  39.302  40.395  1.00  0.00    -0.744 OA
ENDBRANCH  88  92
ENDBRANCH  61  85
BRANCH  73  96
ATOM     96  C   UNL A   1      37.379  33.571  32.412  1.00  0.00     0.023 A 
ATOM     97  C   UNL A   1      36.272  34.392  32.134  1.00  0.00     0.031 A 
ATOM     98  C   UNL A   1      37.186  32.178  32.417  1.00  0.00     0.131 A 
ATOM     99  C   UNL A   1      35.012  33.814  31.917  1.00  0.00     0.055 A 
ATOM    100  C   UNL A   1      35.942  31.607  32.149  1.00  0.00     0.041 A 
ATOM    101  F   UNL A   1      38.209  31.348  32.678  1.00  0.00    -0.206 F 
ATOM    102  C   UNL A   1      34.843  32.427  31.907  1.00  0.00     0.022 A 
BRANCH  99 103
ATOM    103  S   UNL A   1      33.575  34.903  31.717  1.00  0.00     0.124 S 
ATOM    104  O   UNL A   1      33.129  34.571  30.367  1.00  0.00    -0.237 OA
ATOM    105  O   UNL A   1      32.701  34.470  32.801  1.00  0.00    -0.237 OA
ATOM    106  O   UNL A   1      34.135  36.244  31.872  1.00  0.00    -0.744 OA
ENDBRANCH  99 103
ENDBRANCH  73  96
ENDBRANCH  47  48
ENDBRANCH  40  42
ENDBRANCH  39  40
ENDBRANCH  38  39
ENDBRANCH  37  38
ENDBRANCH  36  37
ENDBRANCH  35  36
ENDBRANCH   1  35
TORSDOF 24
ENDMDL
MODEL 3
REMARK VINA RESULT:      -9.2      8.811     15.090
REMARK SMILES CN1C(=O)C(=Cc2ccc(OCc3cccc(C(=O)OCCOCCOCCOC(=O)c4ccc(-c5c6nc(c(-c7cc(S(=O)(=O)[O-])ccc7F)c7ccc([nH]7)c(-c7cc(S(=O)(=O)[O-])ccc7F)c7nc(c(-c8cc(S(=O)(=O)[O-])ccc8F)c8ccc5[nH]8)C=C7)C=C6)cc4)c3)c(Cl)c2)C(=O)N(C)C1=S
REMARK SMILES IDX 24 1 23 2 22 3 21 4 20 5 18 6 19 7 17 8 13 9 14 10 95 11
REMARK SMILES IDX 15 12 16 13 12 14 11 15 10 16 7 17 8 18 98 19 9 20 96 21
REMARK SMILES IDX 97 22 6 23 1 24 2 25 3 26 103 27 4 28 5 29 101 30 104 31
REMARK SMILES IDX 99 32 102 33 100 34 25 35 26 36 27 37 28 38 29 39 30 40
REMARK SMILES IDX 31 41 32 42 33 43 94 44 34 45 93 46 35 47 36 48 37 49 87 50
REMARK SMILES IDX 38 51 92 52 86 53 88 54 39 55 91 56 85 57 84 58 40 60 72 61
REMARK SMILES IDX 52 62 71 63 53 64 56 65 70 66 89 67 54 68 55 69 69 71 90 72
REMARK SMILES IDX 57 73 41 74 42 75 50 76 43 77 49 78 51 79 48 80 44 81 45 82
REMARK SMILES IDX 46 83 47 84 73 85 74 86 82 87 75 88 81 89 83 90 80 91 76 92
REMARK SMILES IDX 77 93 78 94 79 95 58 96 59 97 67 98 60 99 66 100 68 101
REMARK SMILES IDX 65 102 61 103 62 104 63 105 64 106
REMARK H PARENT 88 59 56 70
REMARK Flexibility Score: inf
ROOT
ATOM      1  C   UNL A   1      48.869  38.957  27.131  1.00  0.00     0.188 C 
ENDROOT
BRANCH   1   2
ATOM      2  O   UNL A   1      49.372  40.165  27.681  1.00  0.00    -0.376 OA
BRANCH   2   3
ATOM      3  C   UNL A   1      49.175  40.424  29.067  1.00  0.00     0.202 C 
BRANCH   3   4
ATOM      4  C   UNL A   1      48.133  41.476  29.440  1.00  0.00     0.261 C 
BRANCH   4   5
ATOM      5  O   UNL A   1      47.177  40.925  30.359  1.00  0.00    -0.460 OA
BRANCH   5   6
ATOM      6  C   UNL A   1      46.134  41.734  30.667  1.00  0.00     0.338 C 
ATOM      7  O   UNL A   1      45.900  42.839  30.210  1.00  0.00    -0.246 OA
BRANCH   6   8
ATOM      8  C   UNL A   1      45.196  40.967  31.508  1.00  0.00     0.060 A 
ATOM      9  C   UNL A   1      44.674  39.058  32.912  1.00  0.00    -0.010 A 
ATOM     10  C   UNL A   1      43.332  39.469  32.930  1.00  0.00     0.007 A 
ATOM     11  C   UNL A   1      45.596  39.792  32.151  1.00  0.00     0.023 A 
ATOM     12  C   UNL A   1      42.939  40.649  32.295  1.00  0.00     0.001 A 
ATOM     13  C   UNL A   1      43.874  41.411  31.600  1.00  0.00     0.016 A 
BRANCH   9  14
ATOM     14  C   UNL A   1      45.157  37.846  33.683  1.00  0.00     0.265 C 
BRANCH  14  15
ATOM     15  O   UNL A   1      44.902  36.554  33.119  1.00  0.00    -0.487 OA
BRANCH  15  16
ATOM     16  C   UNL A   1      43.920  35.746  33.619  1.00  0.00     0.138 A 
ATOM     17  C   UNL A   1      41.607  34.365  34.434  1.00  0.00    -0.023 A 
ATOM     18  C   UNL A   1      41.522  35.363  33.460  1.00  0.00     0.012 A 
ATOM     19  C   UNL A   1      42.847  34.053  34.993  1.00  0.00     0.032 A 
ATOM     20  C   UNL A   1      42.671  36.038  33.054  1.00  0.00     0.048 A 
ATOM     21  C   UNL A   1      44.009  34.718  34.568  1.00  0.00     0.083 A 
ATOM     22  Cl  UNL A   1      45.498  34.107  35.196  1.00  0.00    -0.080 Cl
BRANCH  17  23
ATOM     23  C   UNL A   1      40.407  33.598  34.785  1.00  0.00     0.027 C 
ATOM     24  C   UNL A   1      40.165  36.062  38.758  1.00  0.00     0.156 C 
ATOM     25  N   UNL A   1      39.560  35.012  37.937  1.00  0.00    -0.288 N 
ATOM     26  C   UNL A   1      39.759  35.170  36.573  1.00  0.00     0.265 C 
ATOM     27  C   UNL A   1      38.775  33.989  38.510  1.00  0.00     0.185 C 
ATOM     28  O   UNL A   1      40.032  36.242  36.037  1.00  0.00    -0.268 OA
ATOM     29  C   UNL A   1      39.588  33.936  35.800  1.00  0.00     0.106 C 
ATOM     30  N   UNL A   1      38.273  33.026  37.604  1.00  0.00    -0.288 N 
ATOM     31  S   UNL A   1      38.442  33.955  40.174  1.00  0.00    -0.040 S 
ATOM     32  C   UNL A   1      38.576  32.970  36.238  1.00  0.00     0.265 C 
ATOM     33  C   UNL A   1      37.397  31.928  38.024  1.00  0.00     0.156 C 
ATOM     34  O   UNL A   1      38.085  32.159  35.456  1.00  0.00    -0.268 OA
ENDBRANCH  17  23
ENDBRANCH  15  16
ENDBRANCH  14  15
ENDBRANCH   9  14
ENDBRANCH   6   8
ENDBRANCH   5   6
ENDBRANCH   4   5
ENDBRANCH   3   4
ENDBRANCH   2   3
ENDBRANCH   1   2
BRANCH   1  35
ATOM     35  C   UNL A   1      47.370  38.610  27.266  1.00  0.00     0.188 C 
BRANCH  35  36
ATOM     36  O   UNL A   1      46.411  39.085  26.335  1.00  0.00    -0.376 OA
BRANCH  36  37
ATOM     37  C   UNL A   1      46.024  40.449  26.351  1.00  0.00     0.202 C 
BRANCH  37  38
ATOM     38  C   UNL A   1      44.669  40.854  25.773  1.00  0.00     0.261 C 
BRANCH  38  39
ATOM     39  O   UNL A   1      43.656  41.060  26.764  1.00  0.00    -0.460 OA
BRANCH  39  40
ATOM     40  C   UNL A   1      42.593  40.223  26.676  1.00  0.00     0.338 C 
ATOM     41  O   UNL A   1      41.589  40.374  26.003  1.00  0.00    -0.246 OA
BRANCH  40  42
ATOM     42  C   UNL A   1      42.886  38.987  27.421  1.00  0.00     0.060 A 
ATOM     43  C   UNL A   1      42.862  37.772  26.724  1.00  0.00     0.016 A 
ATOM     44  C   UNL A   1      43.128  39.018  28.795  1.00  0.00     0.016 A 
ATOM     45  C   UNL A   1      43.056  36.575  27.411  1.00  0.00     0.010 A 
ATOM     46  C   UNL A   1      43.304  37.816  29.484  1.00  0.00     0.010 A 
ATOM     47  C   UNL A   1      43.245  36.589  28.799  1.00  0.00    -0.014 A 
BRANCH  47  48
ATOM     48  C   UNL A   1      43.232  35.320  29.564  1.00  0.00     0.031 A 
ATOM     49  C   UNL A   1      41.913  34.653  29.834  1.00  0.00     0.074 A 
ATOM     50  C   UNL A   1      44.375  34.778  30.018  1.00  0.00     0.049 A 
ATOM     51  N   UNL A   1      41.650  33.587  30.544  1.00  0.00    -0.248 NA
ATOM     52  C   UNL A   1      40.730  35.280  29.222  1.00  0.00     0.031 C 
ATOM     53  C   UNL A   1      45.715  35.313  29.783  1.00  0.00     0.029 A 
ATOM     54  N   UNL A   1      44.587  33.662  30.788  1.00  0.00    -0.354 N 
ATOM     55  C   UNL A   1      40.273  33.411  30.463  1.00  0.00     0.074 A 
ATOM     56  C   UNL A   1      39.756  34.501  29.663  1.00  0.00     0.031 C 
ATOM     57  C   UNL A   1      46.611  34.535  30.415  1.00  0.00     0.029 A 
ATOM     58  C   UNL A   1      45.905  33.473  31.131  1.00  0.00     0.049 A 
ATOM     59  H   UNL A   1      43.864  33.055  31.070  1.00  0.00     0.167 HD
ATOM     60  C   UNL A   1      39.513  32.427  31.003  1.00  0.00     0.034 A 
ATOM     61  C   UNL A   1      46.469  32.568  31.955  1.00  0.00     0.034 A 
ATOM     62  C   UNL A   1      40.039  31.364  31.824  1.00  0.00     0.049 A 
ATOM     63  C   UNL A   1      45.588  31.546  32.637  1.00  0.00     0.074 A 
ATOM     64  C   UNL A   1      39.362  30.311  32.413  1.00  0.00     0.029 A 
ATOM     65  N   UNL A   1      41.373  31.232  32.192  1.00  0.00    -0.354 N 
ATOM     66  N   UNL A   1      44.289  31.380  32.544  1.00  0.00    -0.248 NA
ATOM     67  C   UNL A   1      46.253  30.590  33.533  1.00  0.00     0.031 C 
ATOM     68  C   UNL A   1      40.270  29.583  33.189  1.00  0.00     0.029 A 
ATOM     69  C   UNL A   1      41.531  30.138  33.028  1.00  0.00     0.049 A 
ATOM     70  H   UNL A   1      42.100  31.828  31.901  1.00  0.00     0.167 HD
ATOM     71  C   UNL A   1      43.988  30.283  33.348  1.00  0.00     0.074 A 
ATOM     72  C   UNL A   1      45.241  29.824  33.911  1.00  0.00     0.031 C 
ATOM     73  C   UNL A   1      42.785  29.702  33.594  1.00  0.00     0.034 A 
BRANCH  60  74
ATOM     74  C   UNL A   1      38.026  32.499  30.763  1.00  0.00     0.023 A 
ATOM     75  C   UNL A   1      37.193  33.327  31.536  1.00  0.00     0.031 A 
ATOM     76  C   UNL A   1      37.426  31.697  29.776  1.00  0.00     0.131 A 
ATOM     77  C   UNL A   1      35.803  33.281  31.360  1.00  0.00     0.055 A 
ATOM     78  C   UNL A   1      36.048  31.712  29.554  1.00  0.00     0.041 A 
ATOM     79  F   UNL A   1      38.168  30.870  29.023  1.00  0.00    -0.206 F 
ATOM     80  C   UNL A   1      35.225  32.496  30.359  1.00  0.00     0.022 A 
BRANCH  77  81
ATOM     81  S   UNL A   1      34.749  34.154  32.551  1.00  0.00     0.124 S 
ATOM     82  O   UNL A   1      35.730  34.619  33.530  1.00  0.00    -0.237 OA
ATOM     83  O   UNL A   1      34.131  35.187  31.727  1.00  0.00    -0.237 OA
ATOM     84  O   UNL A   1      33.842  33.115  33.034  1.00  0.00    -0.744 OA
ENDBRANCH  77  81
ENDBRANCH  60  74
BRANCH  61  85
ATOM     85  C   UNL A   1      47.932  32.608  32.235  1.00  0.00     0.023 A 
ATOM     86  C   UNL A   1      48.463  33.481  33.196  1.00  0.00     0.031 A 
ATOM     87  C   UNL A   1      48.826  31.809  31.500  1.00  0.00     0.131 A 
ATOM     88  C   UNL A   1      49.854  33.570  33.365  1.00  0.00     0.055 A 
ATOM     89  C   UNL A   1      50.205  31.865  31.707  1.00  0.00     0.041 A 
ATOM     90  F   UNL A   1      48.369  30.959  30.567  1.00  0.00    -0.206 F 
ATOM     91  C   UNL A   1      50.728  32.758  32.637  1.00  0.00     0.022 A 
BRANCH  88  92
ATOM     92  S   UNL A   1      50.511  34.822  34.501  1.00  0.00     0.124 S 
ATOM     93  O   UNL A   1      51.751  35.206  33.834  1.00  0.00    -0.237 OA
ATOM     94  O   UNL A   1      49.447  35.820  34.502  1.00  0.00    -0.237 OA
ATOM     95  O   UNL A   1      50.678  34.090  35.756  1.00  0.00    -0.744 OA
ENDBRANCH  88  92
ENDBRANCH  61  85
BRANCH  73  96
ATOM     96  C   UNL A   1      42.781  28.478  34.477  1.00  0.00     0.023 A 
ATOM     97  C   UNL A   1      43.350  27.261  34.062  1.00  0.00     0.031 A 
ATOM     98  C   UNL A   1      42.197  28.533  35.755  1.00  0.00     0.131 A 
ATOM     99  C   UNL A   1      43.282  26.137  34.899  1.00  0.00     0.055 A 
ATOM    100  C   UNL A   1      42.179  27.427  36.605  1.00  0.00     0.041 A 
ATOM    101  F   UNL A   1      41.638  29.669  36.202  1.00  0.00    -0.206 F 
ATOM    102  C   UNL A   1      42.715  26.216  36.173  1.00  0.00     0.022 A 
BRANCH  99 103
ATOM    103  S   UNL A   1      43.884  24.544  34.273  1.00  0.00     0.124 S 
ATOM    104  O   UNL A   1      44.099  24.835  32.859  1.00  0.00    -0.237 OA
ATOM    105  O   UNL A   1      45.087  24.329  35.070  1.00  0.00    -0.237 OA
ATOM    106  O   UNL A   1      42.783  23.625  34.556  1.00  0.00    -0.744 OA
ENDBRANCH  99 103
ENDBRANCH  73  96
ENDBRANCH  47  48
ENDBRANCH  40  42
ENDBRANCH  39  40
ENDBRANCH  38  39
ENDBRANCH  37  38
ENDBRANCH  36  37
ENDBRANCH  35  36
ENDBRANCH   1  35
TORSDOF 24
ENDMDL
