MODEL 1
REMARK VINA RESULT:     -10.1      0.000      0.000
REMARK SMILES CC1(C)CCC[C@@](C)(CCC(=O)OCCOCCOCCOC(=O)c2ccc(-c3c4nc(c(-c5cc(S(=O)(=O)[O-])ccc5F)c5ccc([nH]5)c(-c5cc(S(=O)(=O)[O-])ccc5F)c5nc(c(-c6cc(S(=O)(=O)[O-])ccc6F)c6ccc3[nH]6)C=C5)C=C4)cc2)C1=O
REMARK SMILES IDX 18 1 17 2 16 3 15 4 14 5 13 6 11 7 12 8 10 9 9 10 7 11 1 12
REMARK SMILES IDX 2 13 3 14 4 15 88 16 5 17 89 18 6 19 8 20 19 21 20 22 21 23
REMARK SMILES IDX 22 24 23 25 24 26 25 27 26 28 87 29 27 30 86 31 28 32 29 33
REMARK SMILES IDX 30 34 80 35 31 36 85 37 79 38 81 39 32 40 84 41 78 42 77 43
REMARK SMILES IDX 33 45 65 46 45 47 64 48 46 49 49 50 63 51 82 52 47 53 48 54
REMARK SMILES IDX 62 56 83 57 50 58 34 59 35 60 43 61 36 62 42 63 44 64 41 65
REMARK SMILES IDX 37 66 38 67 39 68 40 69 66 70 67 71 75 72 68 73 74 74 76 75
REMARK SMILES IDX 73 76 69 77 70 78 71 79 72 80 51 81 52 82 60 83 53 84 59 85
REMARK SMILES IDX 61 86 58 87 54 88 55 89 56 90 57 91
REMARK H PARENT 81 44 49 55
REMARK Flexibility Score: inf
ROOT
ATOM      1  C   UNL A   1      40.905  20.170  26.509  1.00  0.00     0.188 C 
ENDROOT
BRANCH   1   2
ATOM      2  C   UNL A   1      39.583  20.783  26.020  1.00  0.00     0.188 C 
BRANCH   2   3
ATOM      3  O   UNL A   1      39.424  22.184  26.226  1.00  0.00    -0.376 OA
BRANCH   3   4
ATOM      4  C   UNL A   1      38.205  22.770  25.755  1.00  0.00     0.202 C 
BRANCH   4   5
ATOM      5  C   UNL A   1      36.925  21.942  25.956  1.00  0.00     0.261 C 
BRANCH   5   6
ATOM      6  O   UNL A   1      36.113  21.924  24.767  1.00  0.00    -0.463 OA
BRANCH   6   7
ATOM      7  C   UNL A   1      35.234  20.900  24.664  1.00  0.00     0.305 C 
ATOM      8  O   UNL A   1      35.483  19.722  24.894  1.00  0.00    -0.252 OA
BRANCH   7   9
ATOM      9  C   UNL A   1      33.830  21.395  24.391  1.00  0.00     0.124 C 
BRANCH   9  10
ATOM     10  C   UNL A   1      33.571  22.756  23.730  1.00  0.00     0.026 C 
BRANCH  10  11
ATOM     11  C   UNL A   1      32.869  23.910  24.498  1.00  0.00     0.027 C 
ATOM     12  C   UNL A   1      32.823  25.084  21.421  1.00  0.00     0.019 C 
ATOM     13  C   UNL A   1      32.489  25.839  22.713  1.00  0.00     0.024 C 
ATOM     14  C   UNL A   1      32.893  27.308  22.485  1.00  0.00     0.019 C 
ATOM     15  C   UNL A   1      30.988  25.746  23.019  1.00  0.00     0.014 C 
ATOM     16  C   UNL A   1      33.221  25.310  23.963  1.00  0.00     0.144 C 
ATOM     17  C   UNL A   1      30.559  24.311  23.324  1.00  0.00     0.002 C 
ATOM     18  O   UNL A   1      34.053  26.007  24.553  1.00  0.00    -0.298 OA
ATOM     19  C   UNL A   1      31.321  23.735  24.516  1.00  0.00     0.014 C 
ATOM     20  C   UNL A   1      33.295  23.809  25.987  1.00  0.00     0.020 C 
ENDBRANCH  10  11
ENDBRANCH   9  10
ENDBRANCH   7   9
ENDBRANCH   6   7
ENDBRANCH   5   6
ENDBRANCH   4   5
ENDBRANCH   3   4
ENDBRANCH   2   3
ENDBRANCH   1   2
BRANCH   1  21
ATOM     21  O   UNL A   1      41.765  19.740  25.462  1.00  0.00    -0.376 OA
BRANCH  21  22
ATOM     22  C   UNL A   1      43.160  19.645  25.741  1.00  0.00     0.202 C 
BRANCH  22  23
ATOM     23  C   UNL A   1      44.004  20.877  25.384  1.00  0.00     0.261 C 
BRANCH  23  24
ATOM     24  O   UNL A   1      43.664  22.056  26.137  1.00  0.00    -0.460 OA
BRANCH  24  25
ATOM     25  C   UNL A   1      43.652  23.241  25.475  1.00  0.00     0.338 C 
ATOM     26  O   UNL A   1      43.828  23.411  24.289  1.00  0.00    -0.246 OA
BRANCH  25  27
ATOM     27  C   UNL A   1      43.118  24.267  26.412  1.00  0.00     0.060 A 
ATOM     28  C   UNL A   1      43.594  25.580  26.304  1.00  0.00     0.016 A 
ATOM     29  C   UNL A   1      42.094  23.966  27.317  1.00  0.00     0.016 A 
ATOM     30  C   UNL A   1      43.066  26.586  27.118  1.00  0.00     0.010 A 
ATOM     31  C   UNL A   1      41.568  24.971  28.130  1.00  0.00     0.010 A 
ATOM     32  C   UNL A   1      42.067  26.282  28.054  1.00  0.00    -0.014 A 
BRANCH  32  33
ATOM     33  C   UNL A   1      41.670  27.269  29.087  1.00  0.00     0.031 A 
ATOM     34  C   UNL A   1      42.446  27.290  30.376  1.00  0.00     0.074 A 
ATOM     35  C   UNL A   1      40.634  28.109  28.905  1.00  0.00     0.049 A 
ATOM     36  N   UNL A   1      42.231  27.979  31.465  1.00  0.00    -0.248 NA
ATOM     37  C   UNL A   1      43.620  26.405  30.442  1.00  0.00     0.031 C 
ATOM     38  C   UNL A   1      39.829  28.211  27.688  1.00  0.00     0.029 A 
ATOM     39  N   UNL A   1      40.071  29.028  29.756  1.00  0.00    -0.354 N 
ATOM     40  C   UNL A   1      43.236  27.607  32.350  1.00  0.00     0.074 A 
ATOM     41  C   UNL A   1      44.043  26.609  31.680  1.00  0.00     0.031 C 
ATOM     42  C   UNL A   1      38.864  29.129  27.880  1.00  0.00     0.029 A 
ATOM     43  C   UNL A   1      38.954  29.648  29.244  1.00  0.00     0.049 A 
ATOM     44  H   UNL A   1      40.433  29.225  30.650  1.00  0.00     0.167 HD
ATOM     45  C   UNL A   1      43.468  28.057  33.606  1.00  0.00     0.034 A 
ATOM     46  C   UNL A   1      38.087  30.505  29.825  1.00  0.00     0.034 A 
ATOM     47  C   UNL A   1      42.652  29.041  34.270  1.00  0.00     0.049 A 
ATOM     48  C   UNL A   1      38.316  30.923  31.263  1.00  0.00     0.074 A 
ATOM     49  C   UNL A   1      42.816  29.581  35.533  1.00  0.00     0.029 A 
ATOM     50  N   UNL A   1      41.511  29.620  33.734  1.00  0.00    -0.354 N 
ATOM     51  N   UNL A   1      39.285  30.581  32.082  1.00  0.00    -0.248 NA
ATOM     52  C   UNL A   1      37.333  31.845  31.853  1.00  0.00     0.031 C 
ATOM     53  C   UNL A   1      41.733  30.429  35.790  1.00  0.00     0.029 A 
ATOM     54  C   UNL A   1      40.938  30.483  34.657  1.00  0.00     0.049 A 
ATOM     55  H   UNL A   1      41.158  29.445  32.832  1.00  0.00     0.167 HD
ATOM     56  C   UNL A   1      39.044  31.274  33.267  1.00  0.00     0.074 A 
ATOM     57  C   UNL A   1      37.851  32.064  33.052  1.00  0.00     0.031 C 
ATOM     58  C   UNL A   1      39.745  31.263  34.430  1.00  0.00     0.034 A 
BRANCH  45  59
ATOM     59  C   UNL A   1      44.620  27.446  34.360  1.00  0.00     0.023 A 
ATOM     60  C   UNL A   1      44.456  26.310  35.172  1.00  0.00     0.031 A 
ATOM     61  C   UNL A   1      45.902  28.016  34.271  1.00  0.00     0.131 A 
ATOM     62  C   UNL A   1      45.544  25.813  35.903  1.00  0.00     0.055 A 
ATOM     63  C   UNL A   1      46.996  27.474  34.945  1.00  0.00     0.041 A 
ATOM     64  F   UNL A   1      46.109  29.118  33.532  1.00  0.00    -0.206 F 
ATOM     65  C   UNL A   1      46.819  26.370  35.775  1.00  0.00     0.022 A 
BRANCH  62  66
ATOM     66  S   UNL A   1      45.247  24.495  37.114  1.00  0.00     0.124 S 
ATOM     67  O   UNL A   1      46.508  24.484  37.852  1.00  0.00    -0.237 OA
ATOM     68  O   UNL A   1      44.085  24.990  37.842  1.00  0.00    -0.237 OA
ATOM     69  O   UNL A   1      45.009  23.316  36.285  1.00  0.00    -0.744 OA
ENDBRANCH  62  66
ENDBRANCH  45  59
BRANCH  46  70
ATOM     70  C   UNL A   1      36.878  30.991  29.092  1.00  0.00     0.023 A 
ATOM     71  C   UNL A   1      35.907  30.095  28.616  1.00  0.00     0.031 A 
ATOM     72  C   UNL A   1      36.732  32.351  28.765  1.00  0.00     0.131 A 
ATOM     73  C   UNL A   1      34.874  30.557  27.784  1.00  0.00     0.055 A 
ATOM     74  C   UNL A   1      35.667  32.816  27.991  1.00  0.00     0.041 A 
ATOM     75  F   UNL A   1      37.634  33.253  29.185  1.00  0.00    -0.206 F 
ATOM     76  C   UNL A   1      34.740  31.914  27.480  1.00  0.00     0.022 A 
BRANCH  73  77
ATOM     77  S   UNL A   1      33.779  29.339  27.000  1.00  0.00     0.124 S 
ATOM     78  O   UNL A   1      34.725  28.301  26.607  1.00  0.00    -0.237 OA
ATOM     79  O   UNL A   1      32.872  29.003  28.093  1.00  0.00    -0.237 OA
ATOM     80  O   UNL A   1      33.176  30.085  25.897  1.00  0.00    -0.744 OA
ENDBRANCH  73  77
ENDBRANCH  46  70
BRANCH  58  81
ATOM     81  C   UNL A   1      39.269  32.173  35.537  1.00  0.00     0.023 A 
ATOM     82  C   UNL A   1      39.718  33.500  35.655  1.00  0.00     0.031 A 
ATOM     83  C   UNL A   1      38.350  31.700  36.492  1.00  0.00     0.131 A 
ATOM     84  C   UNL A   1      39.287  34.291  36.732  1.00  0.00     0.055 A 
ATOM     85  C   UNL A   1      37.878  32.511  37.525  1.00  0.00     0.041 A 
ATOM     86  F   UNL A   1      37.887  30.441  36.430  1.00  0.00    -0.206 F 
ATOM     87  C   UNL A   1      38.358  33.811  37.657  1.00  0.00     0.022 A 
BRANCH  84  88
ATOM     88  S   UNL A   1      40.025  35.934  36.959  1.00  0.00     0.124 S 
ATOM     89  O   UNL A   1      39.279  36.445  38.104  1.00  0.00    -0.237 OA
ATOM     90  O   UNL A   1      41.428  35.615  37.202  1.00  0.00    -0.237 OA
ATOM     91  O   UNL A   1      39.755  36.609  35.691  1.00  0.00    -0.744 OA
ENDBRANCH  84  88
ENDBRANCH  58  81
ENDBRANCH  32  33
ENDBRANCH  25  27
ENDBRANCH  24  25
ENDBRANCH  23  24
ENDBRANCH  22  23
ENDBRANCH  21  22
ENDBRANCH   1  21
TORSDOF 22
ENDMDL
MODEL 2
REMARK VINA RESULT:     -10.1      4.788      7.424
REMARK SMILES CC1(C)CCC[C@@](C)(CCC(=O)OCCOCCOCCOC(=O)c2ccc(-c3c4nc(c(-c5cc(S(=O)(=O)[O-])ccc5F)c5ccc([nH]5)c(-c5cc(S(=O)(=O)[O-])ccc5F)c5nc(c(-c6cc(S(=O)(=O)[O-])ccc6F)c6ccc3[nH]6)C=C5)C=C4)cc2)C1=O
REMARK SMILES IDX 18 1 17 2 16 3 15 4 14 5 13 6 11 7 12 8 10 9 9 10 7 11 1 12
REMARK SMILES IDX 2 13 3 14 4 15 88 16 5 17 89 18 6 19 8 20 19 21 20 22 21 23
REMARK SMILES IDX 22 24 23 25 24 26 25 27 26 28 87 29 27 30 86 31 28 32 29 33
REMARK SMILES IDX 30 34 80 35 31 36 85 37 79 38 81 39 32 40 84 41 78 42 77 43
REMARK SMILES IDX 33 45 65 46 45 47 64 48 46 49 49 50 63 51 82 52 47 53 48 54
REMARK SMILES IDX 62 56 83 57 50 58 34 59 35 60 43 61 36 62 42 63 44 64 41 65
REMARK SMILES IDX 37 66 38 67 39 68 40 69 66 70 67 71 75 72 68 73 74 74 76 75
REMARK SMILES IDX 73 76 69 77 70 78 71 79 72 80 51 81 52 82 60 83 53 84 59 85
REMARK SMILES IDX 61 86 58 87 54 88 55 89 56 90 57 91
REMARK H PARENT 81 44 49 55
REMARK Flexibility Score: inf
ROOT
ATOM      1  C   UNL A   1      34.489  21.134  25.790  1.00  0.00     0.188 C 
ENDROOT
BRANCH   1   2
ATOM      2  C   UNL A   1      33.695  22.127  24.927  1.00  0.00     0.188 C 
BRANCH   2   3
ATOM      3  O   UNL A   1      33.027  21.581  23.792  1.00  0.00    -0.376 OA
BRANCH   3   4
ATOM      4  C   UNL A   1      32.508  22.517  22.839  1.00  0.00     0.202 C 
BRANCH   4   5
ATOM      5  C   UNL A   1      33.362  23.768  22.575  1.00  0.00     0.261 C 
BRANCH   5   6
ATOM      6  O   UNL A   1      32.542  24.922  22.309  1.00  0.00    -0.463 OA
BRANCH   6   7
ATOM      7  C   UNL A   1      32.996  25.765  21.352  1.00  0.00     0.305 C 
ATOM      8  O   UNL A   1      32.911  25.581  20.143  1.00  0.00    -0.252 OA
BRANCH   7   9
ATOM      9  C   UNL A   1      33.478  27.072  21.943  1.00  0.00     0.124 C 
BRANCH   9  10
ATOM     10  C   UNL A   1      33.352  27.371  23.444  1.00  0.00     0.026 C 
BRANCH  10  11
ATOM     11  C   UNL A   1      32.081  28.042  24.034  1.00  0.00     0.027 C 
ATOM     12  C   UNL A   1      32.344  25.389  25.967  1.00  0.00     0.019 C 
ATOM     13  C   UNL A   1      31.161  26.359  25.869  1.00  0.00     0.024 C 
ATOM     14  C   UNL A   1      29.890  25.539  26.162  1.00  0.00     0.019 C 
ATOM     15  C   UNL A   1      31.305  27.492  26.896  1.00  0.00     0.014 C 
ATOM     16  C   UNL A   1      31.009  27.037  24.492  1.00  0.00     0.144 C 
ATOM     17  C   UNL A   1      32.516  28.375  26.597  1.00  0.00     0.002 C 
ATOM     18  O   UNL A   1      30.028  26.809  23.778  1.00  0.00    -0.298 OA
ATOM     19  C   UNL A   1      32.428  29.005  25.208  1.00  0.00     0.014 C 
ATOM     20  C   UNL A   1      31.484  28.961  22.934  1.00  0.00     0.020 C 
ENDBRANCH  10  11
ENDBRANCH   9  10
ENDBRANCH   7   9
ENDBRANCH   6   7
ENDBRANCH   5   6
ENDBRANCH   4   5
ENDBRANCH   3   4
ENDBRANCH   2   3
ENDBRANCH   1   2
BRANCH   1  21
ATOM     21  O   UNL A   1      35.062  20.060  25.055  1.00  0.00    -0.376 OA
BRANCH  21  22
ATOM     22  C   UNL A   1      36.483  20.009  24.948  1.00  0.00     0.202 C 
BRANCH  22  23
ATOM     23  C   UNL A   1      37.257  21.085  25.723  1.00  0.00     0.261 C 
BRANCH  23  24
ATOM     24  O   UNL A   1      38.645  21.186  25.356  1.00  0.00    -0.460 OA
BRANCH  24  25
ATOM     25  C   UNL A   1      39.566  21.069  26.347  1.00  0.00     0.338 C 
ATOM     26  O   UNL A   1      40.094  20.049  26.730  1.00  0.00    -0.246 OA
BRANCH  25  27
ATOM     27  C   UNL A   1      40.012  22.444  26.702  1.00  0.00     0.060 A 
ATOM     28  C   UNL A   1      39.319  23.531  26.151  1.00  0.00     0.016 A 
ATOM     29  C   UNL A   1      41.028  22.664  27.637  1.00  0.00     0.016 A 
ATOM     30  C   UNL A   1      39.662  24.837  26.515  1.00  0.00     0.010 A 
ATOM     31  C   UNL A   1      41.370  23.967  27.999  1.00  0.00     0.010 A 
ATOM     32  C   UNL A   1      40.706  25.063  27.422  1.00  0.00    -0.014 A 
BRANCH  32  33
ATOM     33  C   UNL A   1      41.245  26.429  27.633  1.00  0.00     0.031 A 
ATOM     34  C   UNL A   1      42.612  26.739  27.087  1.00  0.00     0.074 A 
ATOM     35  C   UNL A   1      40.557  27.366  28.312  1.00  0.00     0.049 A 
ATOM     36  N   UNL A   1      43.340  27.814  27.229  1.00  0.00    -0.248 NA
ATOM     37  C   UNL A   1      43.242  25.684  26.275  1.00  0.00     0.031 C 
ATOM     38  C   UNL A   1      39.210  27.200  28.858  1.00  0.00     0.029 A 
ATOM     39  N   UNL A   1      40.909  28.643  28.674  1.00  0.00    -0.354 N 
ATOM     40  C   UNL A   1      44.518  27.565  26.533  1.00  0.00     0.074 A 
ATOM     41  C   UNL A   1      44.417  26.226  25.995  1.00  0.00     0.031 C 
ATOM     42  C   UNL A   1      38.859  28.328  29.501  1.00  0.00     0.029 A 
ATOM     43  C   UNL A   1      39.969  29.280  29.451  1.00  0.00     0.049 A 
ATOM     44  H   UNL A   1      41.757  29.065  28.402  1.00  0.00     0.167 HD
ATOM     45  C   UNL A   1      45.585  28.380  26.356  1.00  0.00     0.034 A 
ATOM     46  C   UNL A   1      40.017  30.476  30.078  1.00  0.00     0.034 A 
ATOM     47  C   UNL A   1      45.683  29.708  26.907  1.00  0.00     0.049 A 
ATOM     48  C   UNL A   1      41.261  31.329  29.940  1.00  0.00     0.074 A 
ATOM     49  C   UNL A   1      46.711  30.622  26.767  1.00  0.00     0.029 A 
ATOM     50  N   UNL A   1      44.727  30.305  27.716  1.00  0.00    -0.354 N 
ATOM     51  N   UNL A   1      42.358  31.092  29.259  1.00  0.00    -0.248 NA
ATOM     52  C   UNL A   1      41.268  32.614  30.656  1.00  0.00     0.031 C 
ATOM     53  C   UNL A   1      46.412  31.740  27.551  1.00  0.00     0.029 A 
ATOM     54  C   UNL A   1      45.159  31.560  28.115  1.00  0.00     0.049 A 
ATOM     55  H   UNL A   1      43.867  29.898  27.970  1.00  0.00     0.167 HD
ATOM     56  C   UNL A   1      43.168  32.212  29.438  1.00  0.00     0.074 A 
ATOM     57  C   UNL A   1      42.427  33.131  30.276  1.00  0.00     0.031 C 
ATOM     58  C   UNL A   1      44.410  32.465  28.954  1.00  0.00     0.034 A 
BRANCH  45  59
ATOM     59  C   UNL A   1      46.754  27.833  25.579  1.00  0.00     0.023 A 
ATOM     60  C   UNL A   1      46.958  28.152  24.225  1.00  0.00     0.031 A 
ATOM     61  C   UNL A   1      47.672  26.970  26.201  1.00  0.00     0.131 A 
ATOM     62  C   UNL A   1      48.025  27.571  23.525  1.00  0.00     0.055 A 
ATOM     63  C   UNL A   1      48.772  26.452  25.519  1.00  0.00     0.041 A 
ATOM     64  F   UNL A   1      47.508  26.610  27.484  1.00  0.00    -0.206 F 
ATOM     65  C   UNL A   1      48.949  26.744  24.169  1.00  0.00     0.022 A 
BRANCH  62  66
ATOM     66  S   UNL A   1      48.126  27.820  21.731  1.00  0.00     0.124 S 
ATOM     67  O   UNL A   1      46.800  28.356  21.434  1.00  0.00    -0.237 OA
ATOM     68  O   UNL A   1      49.237  28.757  21.604  1.00  0.00    -0.237 OA
ATOM     69  O   UNL A   1      48.379  26.478  21.213  1.00  0.00    -0.744 OA
ENDBRANCH  62  66
ENDBRANCH  45  59
BRANCH  46  70
ATOM     70  C   UNL A   1      38.893  30.932  30.951  1.00  0.00     0.023 A 
ATOM     71  C   UNL A   1      37.833  31.695  30.435  1.00  0.00     0.031 A 
ATOM     72  C   UNL A   1      38.920  30.700  32.339  1.00  0.00     0.131 A 
ATOM     73  C   UNL A   1      36.884  32.255  31.305  1.00  0.00     0.055 A 
ATOM     74  C   UNL A   1      37.937  31.206  33.192  1.00  0.00     0.041 A 
ATOM     75  F   UNL A   1      39.914  29.985  32.890  1.00  0.00    -0.206 F 
ATOM     76  C   UNL A   1      36.921  32.005  32.678  1.00  0.00     0.022 A 
BRANCH  73  77
ATOM     77  S   UNL A   1      35.670  33.424  30.629  1.00  0.00     0.124 S 
ATOM     78  O   UNL A   1      36.190  33.646  29.284  1.00  0.00    -0.237 OA
ATOM     79  O   UNL A   1      34.431  32.658  30.720  1.00  0.00    -0.237 OA
ATOM     80  O   UNL A   1      35.761  34.570  31.531  1.00  0.00    -0.744 OA
ENDBRANCH  73  77
ENDBRANCH  46  70
BRANCH  58  81
ATOM     81  C   UNL A   1      45.022  33.809  29.274  1.00  0.00     0.023 A 
ATOM     82  C   UNL A   1      44.783  34.943  28.479  1.00  0.00     0.031 A 
ATOM     83  C   UNL A   1      45.859  33.953  30.395  1.00  0.00     0.131 A 
ATOM     84  C   UNL A   1      45.416  36.158  28.787  1.00  0.00     0.055 A 
ATOM     85  C   UNL A   1      46.436  35.178  30.731  1.00  0.00     0.041 A 
ATOM     86  F   UNL A   1      46.123  32.903  31.190  1.00  0.00    -0.206 F 
ATOM     87  C   UNL A   1      46.226  36.287  29.917  1.00  0.00     0.022 A 
BRANCH  84  88
ATOM     88  S   UNL A   1      45.234  37.553  27.639  1.00  0.00     0.124 S 
ATOM     89  O   UNL A   1      43.794  37.564  27.402  1.00  0.00    -0.237 OA
ATOM     90  O   UNL A   1      45.760  38.668  28.418  1.00  0.00    -0.237 OA
ATOM     91  O   UNL A   1      46.049  37.161  26.491  1.00  0.00    -0.744 OA
ENDBRANCH  84  88
ENDBRANCH  58  81
ENDBRANCH  32  33
ENDBRANCH  25  27
ENDBRANCH  24  25
ENDBRANCH  23  24
ENDBRANCH  22  23
ENDBRANCH  21  22
ENDBRANCH   1  21
TORSDOF 22
ENDMDL
MODEL 3
REMARK VINA RESULT:      -9.9      2.963      9.425
REMARK SMILES CC1(C)CCC[C@@](C)(CCC(=O)OCCOCCOCCOC(=O)c2ccc(-c3c4nc(c(-c5cc(S(=O)(=O)[O-])ccc5F)c5ccc([nH]5)c(-c5cc(S(=O)(=O)[O-])ccc5F)c5nc(c(-c6cc(S(=O)(=O)[O-])ccc6F)c6ccc3[nH]6)C=C5)C=C4)cc2)C1=O
REMARK SMILES IDX 18 1 17 2 16 3 15 4 14 5 13 6 11 7 12 8 10 9 9 10 7 11 1 12
REMARK SMILES IDX 2 13 3 14 4 15 88 16 5 17 89 18 6 19 8 20 19 21 20 22 21 23
REMARK SMILES IDX 22 24 23 25 24 26 25 27 26 28 87 29 27 30 86 31 28 32 29 33
REMARK SMILES IDX 30 34 80 35 31 36 85 37 79 38 81 39 32 40 84 41 78 42 77 43
REMARK SMILES IDX 33 45 65 46 45 47 64 48 46 49 49 50 63 51 82 52 47 53 48 54
REMARK SMILES IDX 62 56 83 57 50 58 34 59 35 60 43 61 36 62 42 63 44 64 41 65
REMARK SMILES IDX 37 66 38 67 39 68 40 69 66 70 67 71 75 72 68 73 74 74 76 75
REMARK SMILES IDX 73 76 69 77 70 78 71 79 72 80 51 81 52 82 60 83 53 84 59 85
REMARK SMILES IDX 61 86 58 87 54 88 55 89 56 90 57 91
REMARK H PARENT 81 44 49 55
REMARK Flexibility Score: inf
ROOT
ATOM      1  C   UNL A   1      31.998  29.524  26.885  1.00  0.00     0.188 C 
ENDROOT
BRANCH   1   2
ATOM      2  C   UNL A   1      32.186  28.004  27.002  1.00  0.00     0.188 C 
BRANCH   2   3
ATOM      3  O   UNL A   1      33.408  27.479  26.490  1.00  0.00    -0.376 OA
BRANCH   3   4
ATOM      4  C   UNL A   1      33.345  26.829  25.214  1.00  0.00     0.202 C 
BRANCH   4   5
ATOM      5  C   UNL A   1      32.066  27.058  24.392  1.00  0.00     0.261 C 
BRANCH   5   6
ATOM      6  O   UNL A   1      31.172  25.933  24.479  1.00  0.00    -0.463 OA
BRANCH   6   7
ATOM      7  C   UNL A   1      31.222  25.054  23.451  1.00  0.00     0.305 C 
ATOM      8  O   UNL A   1      31.678  25.286  22.337  1.00  0.00    -0.252 OA
BRANCH   7   9
ATOM      9  C   UNL A   1      30.803  23.665  23.884  1.00  0.00     0.124 C 
BRANCH   9  10
ATOM     10  C   UNL A   1      31.799  22.685  24.519  1.00  0.00     0.026 C 
BRANCH  10  11
ATOM     11  C   UNL A   1      32.811  21.882  23.656  1.00  0.00     0.027 C 
ATOM     12  C   UNL A   1      34.842  23.373  25.777  1.00  0.00     0.019 C 
ATOM     13  C   UNL A   1      35.220  22.606  24.503  1.00  0.00     0.024 C 
ATOM     14  C   UNL A   1      36.497  23.268  23.951  1.00  0.00     0.019 C 
ATOM     15  C   UNL A   1      35.488  21.129  24.822  1.00  0.00     0.014 C 
ATOM     16  C   UNL A   1      34.136  22.625  23.407  1.00  0.00     0.144 C 
ATOM     17  C   UNL A   1      34.225  20.416  25.305  1.00  0.00     0.002 C 
ATOM     18  O   UNL A   1      34.333  23.195  22.330  1.00  0.00    -0.298 OA
ATOM     19  C   UNL A   1      33.107  20.480  24.267  1.00  0.00     0.014 C 
ATOM     20  C   UNL A   1      32.128  21.583  22.294  1.00  0.00     0.020 C 
ENDBRANCH  10  11
ENDBRANCH   9  10
ENDBRANCH   7   9
ENDBRANCH   6   7
ENDBRANCH   5   6
ENDBRANCH   4   5
ENDBRANCH   3   4
ENDBRANCH   2   3
ENDBRANCH   1   2
BRANCH   1  21
ATOM     21  O   UNL A   1      33.206  30.240  26.666  1.00  0.00    -0.376 OA
BRANCH  21  22
ATOM     22  C   UNL A   1      33.547  31.274  27.588  1.00  0.00     0.202 C 
BRANCH  22  23
ATOM     23  C   UNL A   1      32.793  32.601  27.420  1.00  0.00     0.261 C 
BRANCH  23  24
ATOM     24  O   UNL A   1      33.593  33.766  27.689  1.00  0.00    -0.460 OA
BRANCH  24  25
ATOM     25  C   UNL A   1      33.506  34.315  28.928  1.00  0.00     0.338 C 
ATOM     26  O   UNL A   1      32.548  34.883  29.404  1.00  0.00    -0.246 OA
BRANCH  25  27
ATOM     27  C   UNL A   1      34.698  33.863  29.698  1.00  0.00     0.060 A 
ATOM     28  C   UNL A   1      35.969  34.213  29.223  1.00  0.00     0.016 A 
ATOM     29  C   UNL A   1      34.567  33.193  30.918  1.00  0.00     0.016 A 
ATOM     30  C   UNL A   1      37.109  33.869  29.955  1.00  0.00     0.010 A 
ATOM     31  C   UNL A   1      35.706  32.849  31.648  1.00  0.00     0.010 A 
ATOM     32  C   UNL A   1      36.985  33.163  31.159  1.00  0.00    -0.014 A 
BRANCH  32  33
ATOM     33  C   UNL A   1      38.177  32.577  31.821  1.00  0.00     0.031 A 
ATOM     34  C   UNL A   1      38.881  31.443  31.128  1.00  0.00     0.074 A 
ATOM     35  C   UNL A   1      38.611  33.017  33.017  1.00  0.00     0.049 A 
ATOM     36  N   UNL A   1      39.872  30.701  31.545  1.00  0.00    -0.248 NA
ATOM     37  C   UNL A   1      38.393  31.100  29.782  1.00  0.00     0.031 C 
ATOM     38  C   UNL A   1      38.037  34.132  33.770  1.00  0.00     0.029 A 
ATOM     39  N   UNL A   1      39.632  32.564  33.815  1.00  0.00    -0.354 N 
ATOM     40  C   UNL A   1      40.121  29.796  30.520  1.00  0.00     0.074 A 
ATOM     41  C   UNL A   1      39.159  30.065  29.473  1.00  0.00     0.031 C 
ATOM     42  C   UNL A   1      38.705  34.262  34.931  1.00  0.00     0.029 A 
ATOM     43  C   UNL A   1      39.723  33.216  35.024  1.00  0.00     0.049 A 
ATOM     44  H   UNL A   1      40.243  31.839  33.549  1.00  0.00     0.167 HD
ATOM     45  C   UNL A   1      41.069  28.831  30.454  1.00  0.00     0.034 A 
ATOM     46  C   UNL A   1      40.512  32.971  36.093  1.00  0.00     0.034 A 
ATOM     47  C   UNL A   1      42.016  28.561  31.506  1.00  0.00     0.049 A 
ATOM     48  C   UNL A   1      41.501  31.825  36.029  1.00  0.00     0.074 A 
ATOM     49  C   UNL A   1      43.030  27.620  31.529  1.00  0.00     0.029 A 
ATOM     50  N   UNL A   1      42.055  29.218  32.728  1.00  0.00    -0.354 N 
ATOM     51  N   UNL A   1      41.744  30.991  35.044  1.00  0.00    -0.248 NA
ATOM     52  C   UNL A   1      42.324  31.590  37.226  1.00  0.00     0.031 C 
ATOM     53  C   UNL A   1      43.633  27.657  32.790  1.00  0.00     0.029 A 
ATOM     54  C   UNL A   1      43.051  28.677  33.526  1.00  0.00     0.049 A 
ATOM     55  H   UNL A   1      41.463  29.959  32.990  1.00  0.00     0.167 HD
ATOM     56  C   UNL A   1      42.769  30.160  35.491  1.00  0.00     0.074 A 
ATOM     57  C   UNL A   1      43.110  30.602  36.827  1.00  0.00     0.031 C 
ATOM     58  C   UNL A   1      43.379  29.126  34.858  1.00  0.00     0.034 A 
BRANCH  45  59
ATOM     59  C   UNL A   1      41.089  27.961  29.224  1.00  0.00     0.023 A 
ATOM     60  C   UNL A   1      42.045  28.136  28.208  1.00  0.00     0.031 A 
ATOM     61  C   UNL A   1      40.130  26.947  29.062  1.00  0.00     0.131 A 
ATOM     62  C   UNL A   1      41.988  27.343  27.053  1.00  0.00     0.055 A 
ATOM     63  C   UNL A   1      40.122  26.115  27.943  1.00  0.00     0.041 A 
ATOM     64  F   UNL A   1      39.176  26.756  29.988  1.00  0.00    -0.206 F 
ATOM     65  C   UNL A   1      41.049  26.316  26.925  1.00  0.00     0.022 A 
BRANCH  62  66
ATOM     66  S   UNL A   1      43.086  27.746  25.667  1.00  0.00     0.124 S 
ATOM     67  O   UNL A   1      42.147  28.311  24.701  1.00  0.00    -0.237 OA
ATOM     68  O   UNL A   1      44.024  28.686  26.270  1.00  0.00    -0.237 OA
ATOM     69  O   UNL A   1      43.652  26.453  25.292  1.00  0.00    -0.744 OA
ENDBRANCH  62  66
ENDBRANCH  45  59
BRANCH  46  70
ATOM     70  C   UNL A   1      40.375  33.768  37.349  1.00  0.00     0.023 A 
ATOM     71  C   UNL A   1      39.573  33.321  38.412  1.00  0.00     0.031 A 
ATOM     72  C   UNL A   1      40.962  35.042  37.461  1.00  0.00     0.131 A 
ATOM     73  C   UNL A   1      39.323  34.166  39.506  1.00  0.00     0.055 A 
ATOM     74  C   UNL A   1      40.763  35.853  38.580  1.00  0.00     0.041 A 
ATOM     75  F   UNL A   1      41.731  35.526  36.473  1.00  0.00    -0.206 F 
ATOM     76  C   UNL A   1      39.923  35.423  39.603  1.00  0.00     0.022 A 
BRANCH  73  77
ATOM     77  S   UNL A   1      38.098  33.648  40.741  1.00  0.00     0.124 S 
ATOM     78  O   UNL A   1      37.790  34.912  41.401  1.00  0.00    -0.237 OA
ATOM     79  O   UNL A   1      37.045  33.086  39.903  1.00  0.00    -0.237 OA
ATOM     80  O   UNL A   1      38.828  32.679  41.557  1.00  0.00    -0.744 OA
ENDBRANCH  73  77
ENDBRANCH  46  70
BRANCH  58  81
ATOM     81  C   UNL A   1      44.513  28.438  35.582  1.00  0.00     0.023 A 
ATOM     82  C   UNL A   1      44.286  27.416  36.519  1.00  0.00     0.031 A 
ATOM     83  C   UNL A   1      45.843  28.816  35.326  1.00  0.00     0.131 A 
ATOM     84  C   UNL A   1      45.369  26.843  37.204  1.00  0.00     0.055 A 
ATOM     85  C   UNL A   1      46.920  28.200  35.966  1.00  0.00     0.041 A 
ATOM     86  F   UNL A   1      46.120  29.788  34.441  1.00  0.00    -0.206 F 
ATOM     87  C   UNL A   1      46.684  27.216  36.921  1.00  0.00     0.022 A 
BRANCH  84  88
ATOM     88  S   UNL A   1      45.030  25.658  38.537  1.00  0.00     0.124 S 
ATOM     89  O   UNL A   1      46.370  25.386  39.047  1.00  0.00    -0.237 OA
ATOM     90  O   UNL A   1      44.156  26.423  39.420  1.00  0.00    -0.237 OA
ATOM     91  O   UNL A   1      44.389  24.540  37.848  1.00  0.00    -0.744 OA
ENDBRANCH  84  88
ENDBRANCH  58  81
ENDBRANCH  32  33
ENDBRANCH  25  27
ENDBRANCH  24  25
ENDBRANCH  23  24
ENDBRANCH  22  23
ENDBRANCH  21  22
ENDBRANCH   1  21
TORSDOF 22
ENDMDL
