MODEL 1
REMARK VINA RESULT:     -10.8      0.000      0.000
REMARK SMILES O=C(OCCOCCOCCOC(=O)c1cccc2nc(Cl)c(Cl)nc12)c1ccc(-c2c3nc(c(-c4cc(S(=O)(=O)[O-])ccc4F)c4ccc([nH]4)c(-c4cc(S(=O)(=O)[O-])ccc4F)c4nc(c(-c5cc(S(=O)(=O)[O-])ccc5F)c5ccc2[nH]5)C=C4)C=C3)cc1
REMARK SMILES IDX 6 1 5 2 4 3 3 4 2 5 1 6 27 7 28 8 89 9 29 10 88 11 30 12
REMARK SMILES IDX 31 13 32 14 82 15 33 16 87 17 81 18 83 19 34 20 86 21 80 22
REMARK SMILES IDX 79 23 35 25 67 26 47 27 66 28 48 29 51 30 65 31 84 32 49 33
REMARK SMILES IDX 50 34 64 36 85 37 52 38 36 39 37 40 45 41 38 42 44 43 46 44
REMARK SMILES IDX 43 45 39 46 40 47 41 48 42 49 68 50 69 51 77 52 70 53 76 54
REMARK SMILES IDX 78 55 75 56 71 57 72 58 73 59 74 60 53 61 54 62 62 63 55 64
REMARK SMILES IDX 61 65 63 66 60 67 56 68 57 69 58 70 59 71 7 72 8 73 9 74
REMARK SMILES IDX 10 75 11 76 12 77 13 78 14 79 15 80 16 81 26 82 17 83 19 84
REMARK SMILES IDX 25 85 18 86 20 87 23 88 21 89 24 90 22 91
REMARK H PARENT 83 24 51 35
REMARK Flexibility Score: inf
ROOT
ATOM      1  O   UNL A   1      31.604  30.375  25.529  1.00  0.00    -0.376 OA
ENDROOT
BRANCH   1   2
ATOM      2  C   UNL A   1      31.703  31.147  26.726  1.00  0.00     0.202 C 
BRANCH   2   3
ATOM      3  C   UNL A   1      31.705  32.662  26.503  1.00  0.00     0.261 C 
BRANCH   3   4
ATOM      4  O   UNL A   1      32.211  33.405  27.620  1.00  0.00    -0.460 OA
BRANCH   4   5
ATOM      5  C   UNL A   1      33.478  33.812  27.878  1.00  0.00     0.338 C 
ATOM      6  O   UNL A   1      33.726  35.007  27.700  1.00  0.00    -0.246 OA
BRANCH   5   7
ATOM      7  C   UNL A   1      34.616  32.931  28.327  1.00  0.00     0.060 A 
ATOM      8  C   UNL A   1      35.911  33.485  28.227  1.00  0.00     0.016 A 
ATOM      9  C   UNL A   1      34.520  31.639  28.852  1.00  0.00     0.016 A 
ATOM     10  C   UNL A   1      37.048  32.795  28.666  1.00  0.00     0.010 A 
ATOM     11  C   UNL A   1      35.646  30.953  29.317  1.00  0.00     0.010 A 
ATOM     12  C   UNL A   1      36.914  31.531  29.247  1.00  0.00    -0.014 A 
BRANCH  12  13
ATOM     13  C   UNL A   1      38.028  30.882  29.971  1.00  0.00     0.031 A 
ATOM     14  C   UNL A   1      38.443  31.315  31.341  1.00  0.00     0.074 A 
ATOM     15  C   UNL A   1      38.770  29.987  29.291  1.00  0.00     0.049 A 
ATOM     16  N   UNL A   1      39.352  30.790  32.120  1.00  0.00    -0.248 NA
ATOM     17  C   UNL A   1      37.772  32.493  31.908  1.00  0.00     0.031 C 
ATOM     18  C   UNL A   1      38.531  29.593  27.902  1.00  0.00     0.029 A 
ATOM     19  N   UNL A   1      39.898  29.297  29.648  1.00  0.00    -0.354 N 
ATOM     20  C   UNL A   1      39.312  31.523  33.297  1.00  0.00     0.074 A 
ATOM     21  C   UNL A   1      38.363  32.593  33.093  1.00  0.00     0.031 C 
ATOM     22  C   UNL A   1      39.504  28.759  27.512  1.00  0.00     0.029 A 
ATOM     23  C   UNL A   1      40.436  28.560  28.620  1.00  0.00     0.049 A 
ATOM     24  H   UNL A   1      40.286  29.325  30.553  1.00  0.00     0.167 HD
ATOM     25  C   UNL A   1      39.986  31.294  34.447  1.00  0.00     0.034 A 
ATOM     26  C   UNL A   1      41.554  27.809  28.570  1.00  0.00     0.034 A 
ATOM     27  C   UNL A   1      41.001  30.284  34.585  1.00  0.00     0.049 A 
ATOM     28  C   UNL A   1      42.343  27.611  29.836  1.00  0.00     0.074 A 
ATOM     29  C   UNL A   1      41.696  29.919  35.723  1.00  0.00     0.029 A 
ATOM     30  N   UNL A   1      41.501  29.517  33.544  1.00  0.00    -0.354 N 
ATOM     31  N   UNL A   1      42.135  28.137  31.022  1.00  0.00    -0.248 NA
ATOM     32  C   UNL A   1      43.490  26.699  29.778  1.00  0.00     0.031 C 
ATOM     33  C   UNL A   1      42.666  28.985  35.354  1.00  0.00     0.029 A 
ATOM     34  C   UNL A   1      42.534  28.718  33.999  1.00  0.00     0.049 A 
ATOM     35  H   UNL A   1      41.168  29.537  32.617  1.00  0.00     0.167 HD
ATOM     36  C   UNL A   1      43.104  27.593  31.859  1.00  0.00     0.074 A 
ATOM     37  C   UNL A   1      43.890  26.688  31.044  1.00  0.00     0.031 C 
ATOM     38  C   UNL A   1      43.313  27.817  33.181  1.00  0.00     0.034 A 
BRANCH  25  39
ATOM     39  C   UNL A   1      39.619  32.090  35.672  1.00  0.00     0.023 A 
ATOM     40  C   UNL A   1      38.720  31.585  36.626  1.00  0.00     0.031 A 
ATOM     41  C   UNL A   1      40.048  33.424  35.798  1.00  0.00     0.131 A 
ATOM     42  C   UNL A   1      38.271  32.418  37.661  1.00  0.00     0.055 A 
ATOM     43  C   UNL A   1      39.616  34.241  36.843  1.00  0.00     0.041 A 
ATOM     44  F   UNL A   1      40.899  33.953  34.903  1.00  0.00    -0.206 F 
ATOM     45  C   UNL A   1      38.717  33.741  37.776  1.00  0.00     0.022 A 
BRANCH  42  46
ATOM     46  S   UNL A   1      37.046  31.844  38.869  1.00  0.00     0.124 S 
ATOM     47  O   UNL A   1      37.728  32.119  40.132  1.00  0.00    -0.237 OA
ATOM     48  O   UNL A   1      35.903  32.705  38.577  1.00  0.00    -0.237 OA
ATOM     49  O   UNL A   1      36.875  30.432  38.549  1.00  0.00    -0.744 OA
ENDBRANCH  42  46
ENDBRANCH  25  39
BRANCH  26  50
ATOM     50  C   UNL A   1      41.893  27.132  27.287  1.00  0.00     0.023 A 
ATOM     51  C   UNL A   1      41.820  25.731  27.171  1.00  0.00     0.031 A 
ATOM     52  C   UNL A   1      42.457  27.856  26.225  1.00  0.00     0.131 A 
ATOM     53  C   UNL A   1      42.370  25.095  26.051  1.00  0.00     0.055 A 
ATOM     54  C   UNL A   1      42.946  27.223  25.081  1.00  0.00     0.041 A 
ATOM     55  F   UNL A   1      42.567  29.192  26.302  1.00  0.00    -0.206 F 
ATOM     56  C   UNL A   1      42.922  25.834  25.000  1.00  0.00     0.022 A 
BRANCH  53  57
ATOM     57  S   UNL A   1      42.528  23.288  25.991  1.00  0.00     0.124 S 
ATOM     58  O   UNL A   1      43.482  23.029  27.066  1.00  0.00    -0.237 OA
ATOM     59  O   UNL A   1      41.156  22.856  26.249  1.00  0.00    -0.237 OA
ATOM     60  O   UNL A   1      43.013  23.028  24.639  1.00  0.00    -0.744 OA
ENDBRANCH  53  57
ENDBRANCH  26  50
BRANCH  38  61
ATOM     61  C   UNL A   1      44.443  27.091  33.866  1.00  0.00     0.023 A 
ATOM     62  C   UNL A   1      44.162  26.045  34.766  1.00  0.00     0.031 A 
ATOM     63  C   UNL A   1      45.769  27.544  33.762  1.00  0.00     0.131 A 
ATOM     64  C   UNL A   1      45.185  25.522  35.565  1.00  0.00     0.055 A 
ATOM     65  C   UNL A   1      46.794  26.985  34.525  1.00  0.00     0.041 A 
ATOM     66  F   UNL A   1      46.083  28.547  32.925  1.00  0.00    -0.206 F 
ATOM     67  C   UNL A   1      46.501  25.981  35.445  1.00  0.00     0.022 A 
BRANCH  64  68
ATOM     68  S   UNL A   1      44.826  24.309  36.864  1.00  0.00     0.124 S 
ATOM     69  O   UNL A   1      43.457  24.662  37.234  1.00  0.00    -0.237 OA
ATOM     70  O   UNL A   1      44.974  23.042  36.152  1.00  0.00    -0.237 OA
ATOM     71  O   UNL A   1      45.834  24.574  37.885  1.00  0.00    -0.744 OA
ENDBRANCH  64  68
ENDBRANCH  38  61
ENDBRANCH  12  13
ENDBRANCH   5   7
ENDBRANCH   4   5
ENDBRANCH   3   4
ENDBRANCH   2   3
ENDBRANCH   1   2
BRANCH   1  72
ATOM     72  C   UNL A   1      32.530  29.281  25.489  1.00  0.00     0.188 C 
BRANCH  72  73
ATOM     73  C   UNL A   1      32.053  28.093  26.327  1.00  0.00     0.188 C 
BRANCH  73  74
ATOM     74  O   UNL A   1      31.009  27.308  25.747  1.00  0.00    -0.376 OA
BRANCH  74  75
ATOM     75  C   UNL A   1      31.248  26.797  24.438  1.00  0.00     0.202 C 
BRANCH  75  76
ATOM     76  C   UNL A   1      31.631  25.317  24.307  1.00  0.00     0.261 C 
BRANCH  76  77
ATOM     77  O   UNL A   1      32.676  24.860  25.182  1.00  0.00    -0.460 OA
BRANCH  77  78
ATOM     78  C   UNL A   1      32.272  23.966  26.122  1.00  0.00     0.340 C 
ATOM     79  O   UNL A   1      31.725  24.204  27.185  1.00  0.00    -0.246 OA
BRANCH  78  80
ATOM     80  C   UNL A   1      32.756  22.622  25.790  1.00  0.00     0.088 A 
ATOM     81  C   UNL A   1      31.777  21.708  25.385  1.00  0.00     0.018 A 
ATOM     82  C   UNL A   1      34.125  22.335  25.729  1.00  0.00     0.105 A 
ATOM     83  C   UNL A   1      32.166  20.467  24.914  1.00  0.00     0.003 A 
ATOM     84  C   UNL A   1      34.497  21.043  25.261  1.00  0.00     0.091 A 
ATOM     85  N   UNL A   1      35.088  23.234  26.063  1.00  0.00    -0.230 NA
ATOM     86  C   UNL A   1      33.518  20.140  24.871  1.00  0.00     0.031 A 
ATOM     87  N   UNL A   1      35.783  20.663  25.145  1.00  0.00    -0.231 NA
ATOM     88  C   UNL A   1      36.376  22.837  25.929  1.00  0.00     0.167 A 
ATOM     89  C   UNL A   1      36.717  21.574  25.483  1.00  0.00     0.167 A 
ATOM     90  Cl  UNL A   1      37.519  24.059  26.309  1.00  0.00    -0.059 Cl
ATOM     91  Cl  UNL A   1      38.330  21.027  25.268  1.00  0.00    -0.059 Cl
ENDBRANCH  78  80
ENDBRANCH  77  78
ENDBRANCH  76  77
ENDBRANCH  75  76
ENDBRANCH  74  75
ENDBRANCH  73  74
ENDBRANCH  72  73
ENDBRANCH   1  72
TORSDOF 20
ENDMDL
MODEL 2
REMARK VINA RESULT:     -10.7      1.725      2.218
REMARK SMILES O=C(OCCOCCOCCOC(=O)c1cccc2nc(Cl)c(Cl)nc12)c1ccc(-c2c3nc(c(-c4cc(S(=O)(=O)[O-])ccc4F)c4ccc([nH]4)c(-c4cc(S(=O)(=O)[O-])ccc4F)c4nc(c(-c5cc(S(=O)(=O)[O-])ccc5F)c5ccc2[nH]5)C=C4)C=C3)cc1
REMARK SMILES IDX 6 1 5 2 4 3 3 4 2 5 1 6 27 7 28 8 89 9 29 10 88 11 30 12
REMARK SMILES IDX 31 13 32 14 82 15 33 16 87 17 81 18 83 19 34 20 86 21 80 22
REMARK SMILES IDX 79 23 35 25 67 26 47 27 66 28 48 29 51 30 65 31 84 32 49 33
REMARK SMILES IDX 50 34 64 36 85 37 52 38 36 39 37 40 45 41 38 42 44 43 46 44
REMARK SMILES IDX 43 45 39 46 40 47 41 48 42 49 68 50 69 51 77 52 70 53 76 54
REMARK SMILES IDX 78 55 75 56 71 57 72 58 73 59 74 60 53 61 54 62 62 63 55 64
REMARK SMILES IDX 61 65 63 66 60 67 56 68 57 69 58 70 59 71 7 72 8 73 9 74
REMARK SMILES IDX 10 75 11 76 12 77 13 78 14 79 15 80 16 81 26 82 17 83 19 84
REMARK SMILES IDX 25 85 18 86 20 87 23 88 21 89 24 90 22 91
REMARK H PARENT 83 24 51 35
REMARK Flexibility Score: inf
ROOT
ATOM      1  O   UNL A   1      31.772  30.371  25.550  1.00  0.00    -0.376 OA
ENDROOT
BRANCH   1   2
ATOM      2  C   UNL A   1      31.814  31.127  26.760  1.00  0.00     0.202 C 
BRANCH   2   3
ATOM      3  C   UNL A   1      31.759  32.644  26.560  1.00  0.00     0.261 C 
BRANCH   3   4
ATOM      4  O   UNL A   1      32.283  33.387  27.668  1.00  0.00    -0.460 OA
BRANCH   4   5
ATOM      5  C   UNL A   1      33.555  33.788  27.911  1.00  0.00     0.338 C 
ATOM      6  O   UNL A   1      33.810  34.980  27.721  1.00  0.00    -0.246 OA
BRANCH   5   7
ATOM      7  C   UNL A   1      34.691  32.902  28.355  1.00  0.00     0.060 A 
ATOM      8  C   UNL A   1      35.984  33.463  28.283  1.00  0.00     0.016 A 
ATOM      9  C   UNL A   1      34.594  31.599  28.851  1.00  0.00     0.016 A 
ATOM     10  C   UNL A   1      37.119  32.768  28.721  1.00  0.00     0.010 A 
ATOM     11  C   UNL A   1      35.717  30.908  29.316  1.00  0.00     0.010 A 
ATOM     12  C   UNL A   1      36.983  31.492  29.274  1.00  0.00    -0.014 A 
BRANCH  12  13
ATOM     13  C   UNL A   1      38.091  30.833  29.998  1.00  0.00     0.031 A 
ATOM     14  C   UNL A   1      38.507  31.258  31.370  1.00  0.00     0.074 A 
ATOM     15  C   UNL A   1      38.828  29.934  29.317  1.00  0.00     0.049 A 
ATOM     16  N   UNL A   1      39.411  30.724  32.149  1.00  0.00    -0.248 NA
ATOM     17  C   UNL A   1      37.844  32.440  31.938  1.00  0.00     0.031 C 
ATOM     18  C   UNL A   1      38.587  29.545  27.926  1.00  0.00     0.029 A 
ATOM     19  N   UNL A   1      39.949  29.233  29.673  1.00  0.00    -0.354 N 
ATOM     20  C   UNL A   1      39.375  31.455  33.327  1.00  0.00     0.074 A 
ATOM     21  C   UNL A   1      38.435  32.533  33.125  1.00  0.00     0.031 C 
ATOM     22  C   UNL A   1      39.555  28.705  27.536  1.00  0.00     0.029 A 
ATOM     23  C   UNL A   1      40.483  28.495  28.644  1.00  0.00     0.049 A 
ATOM     24  H   UNL A   1      40.336  29.257  30.579  1.00  0.00     0.167 HD
ATOM     25  C   UNL A   1      40.046  31.218  34.478  1.00  0.00     0.034 A 
ATOM     26  C   UNL A   1      41.595  27.736  28.595  1.00  0.00     0.034 A 
ATOM     27  C   UNL A   1      41.052  30.199  34.615  1.00  0.00     0.049 A 
ATOM     28  C   UNL A   1      42.380  27.529  29.861  1.00  0.00     0.074 A 
ATOM     29  C   UNL A   1      41.742  29.826  35.753  1.00  0.00     0.029 A 
ATOM     30  N   UNL A   1      41.547  29.431  33.572  1.00  0.00    -0.354 N 
ATOM     31  N   UNL A   1      42.175  28.053  31.048  1.00  0.00    -0.248 NA
ATOM     32  C   UNL A   1      43.521  26.607  29.802  1.00  0.00     0.031 C 
ATOM     33  C   UNL A   1      42.706  28.886  35.383  1.00  0.00     0.029 A 
ATOM     34  C   UNL A   1      42.574  28.623  34.027  1.00  0.00     0.049 A 
ATOM     35  H   UNL A   1      41.217  29.456  32.645  1.00  0.00     0.167 HD
ATOM     36  C   UNL A   1      43.138  27.499  31.885  1.00  0.00     0.074 A 
ATOM     37  C   UNL A   1      43.919  26.590  31.069  1.00  0.00     0.031 C 
ATOM     38  C   UNL A   1      43.347  27.718  33.208  1.00  0.00     0.034 A 
BRANCH  25  39
ATOM     39  C   UNL A   1      39.683  32.014  35.704  1.00  0.00     0.023 A 
ATOM     40  C   UNL A   1      38.786  31.509  36.661  1.00  0.00     0.031 A 
ATOM     41  C   UNL A   1      40.114  33.346  35.830  1.00  0.00     0.131 A 
ATOM     42  C   UNL A   1      38.340  32.341  37.697  1.00  0.00     0.055 A 
ATOM     43  C   UNL A   1      39.685  34.163  36.877  1.00  0.00     0.041 A 
ATOM     44  F   UNL A   1      40.962  33.875  34.933  1.00  0.00    -0.206 F 
ATOM     45  C   UNL A   1      38.789  33.663  37.812  1.00  0.00     0.022 A 
BRANCH  42  46
ATOM     46  S   UNL A   1      37.119  31.768  38.909  1.00  0.00     0.124 S 
ATOM     47  O   UNL A   1      37.849  31.932  40.164  1.00  0.00    -0.237 OA
ATOM     48  O   UNL A   1      36.018  32.705  38.700  1.00  0.00    -0.237 OA
ATOM     49  O   UNL A   1      36.860  30.388  38.517  1.00  0.00    -0.744 OA
ENDBRANCH  42  46
ENDBRANCH  25  39
BRANCH  26  50
ATOM     50  C   UNL A   1      41.931  27.060  27.309  1.00  0.00     0.023 A 
ATOM     51  C   UNL A   1      41.825  25.662  27.183  1.00  0.00     0.031 A 
ATOM     52  C   UNL A   1      42.523  27.777  26.259  1.00  0.00     0.131 A 
ATOM     53  C   UNL A   1      42.371  25.020  26.065  1.00  0.00     0.055 A 
ATOM     54  C   UNL A   1      43.009  27.140  25.116  1.00  0.00     0.041 A 
ATOM     55  F   UNL A   1      42.665  29.109  26.346  1.00  0.00    -0.206 F 
ATOM     56  C   UNL A   1      42.952  25.752  25.025  1.00  0.00     0.022 A 
BRANCH  53  57
ATOM     57  S   UNL A   1      42.486  23.210  25.993  1.00  0.00     0.124 S 
ATOM     58  O   UNL A   1      41.095  22.808  26.182  1.00  0.00    -0.237 OA
ATOM     59  O   UNL A   1      43.028  22.995  24.653  1.00  0.00    -0.237 OA
ATOM     60  O   UNL A   1      43.393  22.878  27.087  1.00  0.00    -0.744 OA
ENDBRANCH  53  57
ENDBRANCH  26  50
BRANCH  38  61
ATOM     61  C   UNL A   1      44.471  26.982  33.892  1.00  0.00     0.023 A 
ATOM     62  C   UNL A   1      45.775  27.511  33.863  1.00  0.00     0.031 A 
ATOM     63  C   UNL A   1      44.286  25.691  34.415  1.00  0.00     0.131 A 
ATOM     64  C   UNL A   1      46.852  26.730  34.300  1.00  0.00     0.055 A 
ATOM     65  C   UNL A   1      45.356  24.937  34.895  1.00  0.00     0.041 A 
ATOM     66  F   UNL A   1      43.061  25.140  34.453  1.00  0.00    -0.206 F 
ATOM     67  C   UNL A   1      46.649  25.450  34.822  1.00  0.00     0.022 A 
BRANCH  64  68
ATOM     68  S   UNL A   1      48.561  27.305  34.103  1.00  0.00     0.124 S 
ATOM     69  O   UNL A   1      48.877  26.850  32.751  1.00  0.00    -0.237 OA
ATOM     70  O   UNL A   1      48.419  28.751  34.258  1.00  0.00    -0.237 OA
ATOM     71  O   UNL A   1      49.287  26.630  35.173  1.00  0.00    -0.744 OA
ENDBRANCH  64  68
ENDBRANCH  38  61
ENDBRANCH  12  13
ENDBRANCH   5   7
ENDBRANCH   4   5
ENDBRANCH   3   4
ENDBRANCH   2   3
ENDBRANCH   1   2
BRANCH   1  72
ATOM     72  C   UNL A   1      32.821  29.398  25.459  1.00  0.00     0.188 C 
BRANCH  72  73
ATOM     73  C   UNL A   1      32.399  28.042  26.028  1.00  0.00     0.188 C 
BRANCH  73  74
ATOM     74  O   UNL A   1      31.766  27.155  25.104  1.00  0.00    -0.376 OA
BRANCH  74  75
ATOM     75  C   UNL A   1      32.420  26.964  23.852  1.00  0.00     0.202 C 
BRANCH  75  76
ATOM     76  C   UNL A   1      33.396  25.786  23.728  1.00  0.00     0.261 C 
BRANCH  76  77
ATOM     77  O   UNL A   1      34.311  25.611  24.824  1.00  0.00    -0.460 OA
BRANCH  77  78
ATOM     78  C   UNL A   1      34.110  24.480  25.549  1.00  0.00     0.340 C 
ATOM     79  O   UNL A   1      33.201  24.250  26.328  1.00  0.00    -0.246 OA
BRANCH  78  80
ATOM     80  C   UNL A   1      35.267  23.585  25.432  1.00  0.00     0.088 A 
ATOM     81  C   UNL A   1      36.504  24.149  25.760  1.00  0.00     0.018 A 
ATOM     82  C   UNL A   1      35.108  22.219  25.170  1.00  0.00     0.105 A 
ATOM     83  C   UNL A   1      37.622  23.337  25.819  1.00  0.00     0.003 A 
ATOM     84  C   UNL A   1      36.278  21.409  25.216  1.00  0.00     0.091 A 
ATOM     85  N   UNL A   1      33.902  21.648  24.910  1.00  0.00    -0.230 NA
ATOM     86  C   UNL A   1      37.503  21.980  25.533  1.00  0.00     0.031 A 
ATOM     87  N   UNL A   1      36.242  20.082  24.997  1.00  0.00    -0.231 NA
ATOM     88  C   UNL A   1      33.886  20.309  24.703  1.00  0.00     0.167 A 
ATOM     89  C   UNL A   1      35.034  19.542  24.741  1.00  0.00     0.167 A 
ATOM     90  Cl  UNL A   1      32.314  19.670  24.449  1.00  0.00    -0.059 Cl
ATOM     91  Cl  UNL A   1      35.068  17.841  24.515  1.00  0.00    -0.059 Cl
ENDBRANCH  78  80
ENDBRANCH  77  78
ENDBRANCH  76  77
ENDBRANCH  75  76
ENDBRANCH  74  75
ENDBRANCH  73  74
ENDBRANCH  72  73
ENDBRANCH   1  72
TORSDOF 20
ENDMDL
MODEL 3
REMARK VINA RESULT:     -10.6      4.703      7.434
REMARK SMILES O=C(OCCOCCOCCOC(=O)c1cccc2nc(Cl)c(Cl)nc12)c1ccc(-c2c3nc(c(-c4cc(S(=O)(=O)[O-])ccc4F)c4ccc([nH]4)c(-c4cc(S(=O)(=O)[O-])ccc4F)c4nc(c(-c5cc(S(=O)(=O)[O-])ccc5F)c5ccc2[nH]5)C=C4)C=C3)cc1
REMARK SMILES IDX 6 1 5 2 4 3 3 4 2 5 1 6 27 7 28 8 89 9 29 10 88 11 30 12
REMARK SMILES IDX 31 13 32 14 82 15 33 16 87 17 81 18 83 19 34 20 86 21 80 22
REMARK SMILES IDX 79 23 35 25 67 26 47 27 66 28 48 29 51 30 65 31 84 32 49 33
REMARK SMILES IDX 50 34 64 36 85 37 52 38 36 39 37 40 45 41 38 42 44 43 46 44
REMARK SMILES IDX 43 45 39 46 40 47 41 48 42 49 68 50 69 51 77 52 70 53 76 54
REMARK SMILES IDX 78 55 75 56 71 57 72 58 73 59 74 60 53 61 54 62 62 63 55 64
REMARK SMILES IDX 61 65 63 66 60 67 56 68 57 69 58 70 59 71 7 72 8 73 9 74
REMARK SMILES IDX 10 75 11 76 12 77 13 78 14 79 15 80 16 81 26 82 17 83 19 84
REMARK SMILES IDX 25 85 18 86 20 87 23 88 21 89 24 90 22 91
REMARK H PARENT 83 24 51 35
REMARK Flexibility Score: inf
ROOT
ATOM      1  O   UNL A   1      34.386  36.181  28.399  1.00  0.00    -0.376 OA
ENDROOT
BRANCH   1   2
ATOM      2  C   UNL A   1      34.609  34.942  27.724  1.00  0.00     0.202 C 
BRANCH   2   3
ATOM      3  C   UNL A   1      33.608  33.840  28.080  1.00  0.00     0.261 C 
BRANCH   3   4
ATOM      4  O   UNL A   1      34.212  32.692  28.690  1.00  0.00    -0.460 OA
BRANCH   4   5
ATOM      5  C   UNL A   1      34.576  31.512  28.129  1.00  0.00     0.338 C 
ATOM      6  O   UNL A   1      33.884  31.103  27.194  1.00  0.00    -0.246 OA
BRANCH   5   7
ATOM      7  C   UNL A   1      35.725  30.641  28.570  1.00  0.00     0.060 A 
ATOM      8  C   UNL A   1      36.917  30.757  27.823  1.00  0.00     0.016 A 
ATOM      9  C   UNL A   1      35.738  29.754  29.649  1.00  0.00     0.016 A 
ATOM     10  C   UNL A   1      38.077  30.049  28.165  1.00  0.00     0.010 A 
ATOM     11  C   UNL A   1      36.898  29.063  30.014  1.00  0.00     0.010 A 
ATOM     12  C   UNL A   1      38.080  29.219  29.289  1.00  0.00    -0.014 A 
BRANCH  12  13
ATOM     13  C   UNL A   1      39.332  28.671  29.851  1.00  0.00     0.031 A 
ATOM     14  C   UNL A   1      40.088  29.370  30.937  1.00  0.00     0.074 A 
ATOM     15  C   UNL A   1      39.866  27.594  29.243  1.00  0.00     0.049 A 
ATOM     16  N   UNL A   1      41.158  28.969  31.572  1.00  0.00    -0.248 NA
ATOM     17  C   UNL A   1      39.598  30.691  31.354  1.00  0.00     0.031 C 
ATOM     18  C   UNL A   1      39.276  26.915  28.088  1.00  0.00     0.029 A 
ATOM     19  N   UNL A   1      41.037  26.921  29.467  1.00  0.00    -0.354 N 
ATOM     20  C   UNL A   1      41.428  29.950  32.515  1.00  0.00     0.074 A 
ATOM     21  C   UNL A   1      40.473  31.013  32.302  1.00  0.00     0.031 C 
ATOM     22  C   UNL A   1      40.107  25.946  27.681  1.00  0.00     0.029 A 
ATOM     23  C   UNL A   1      41.287  25.935  28.543  1.00  0.00     0.049 A 
ATOM     24  H   UNL A   1      41.643  27.125  30.217  1.00  0.00     0.167 HD
ATOM     25  C   UNL A   1      42.369  29.938  33.487  1.00  0.00     0.034 A 
ATOM     26  C   UNL A   1      42.345  25.113  28.402  1.00  0.00     0.034 A 
ATOM     27  C   UNL A   1      43.372  28.914  33.608  1.00  0.00     0.049 A 
ATOM     28  C   UNL A   1      43.427  25.149  29.447  1.00  0.00     0.074 A 
ATOM     29  C   UNL A   1      44.328  28.766  34.595  1.00  0.00     0.029 A 
ATOM     30  N   UNL A   1      43.580  27.898  32.688  1.00  0.00    -0.354 N 
ATOM     31  N   UNL A   1      43.534  25.942  30.488  1.00  0.00    -0.248 NA
ATOM     32  C   UNL A   1      44.510  24.166  29.328  1.00  0.00     0.031 C 
ATOM     33  C   UNL A   1      45.160  27.705  34.232  1.00  0.00     0.029 A 
ATOM     34  C   UNL A   1      44.685  27.149  33.053  1.00  0.00     0.049 A 
ATOM     35  H   UNL A   1      43.024  27.732  31.893  1.00  0.00     0.167 HD
ATOM     36  C   UNL A   1      44.677  25.532  31.168  1.00  0.00     0.074 A 
ATOM     37  C   UNL A   1      45.218  24.412  30.424  1.00  0.00     0.031 C 
ATOM     38  C   UNL A   1      45.218  26.032  32.308  1.00  0.00     0.034 A 
BRANCH  25  39
ATOM     39  C   UNL A   1      42.336  31.015  34.539  1.00  0.00     0.023 A 
ATOM     40  C   UNL A   1      43.393  31.931  34.677  1.00  0.00     0.031 A 
ATOM     41  C   UNL A   1      41.317  31.020  35.508  1.00  0.00     0.131 A 
ATOM     42  C   UNL A   1      43.409  32.807  35.771  1.00  0.00     0.055 A 
ATOM     43  C   UNL A   1      41.326  31.910  36.582  1.00  0.00     0.041 A 
ATOM     44  F   UNL A   1      40.293  30.155  35.423  1.00  0.00    -0.206 F 
ATOM     45  C   UNL A   1      42.380  32.804  36.721  1.00  0.00     0.022 A 
BRANCH  42  46
ATOM     46  S   UNL A   1      44.791  33.950  36.044  1.00  0.00     0.124 S 
ATOM     47  O   UNL A   1      45.786  33.069  36.651  1.00  0.00    -0.237 OA
ATOM     48  O   UNL A   1      45.095  34.392  34.686  1.00  0.00    -0.237 OA
ATOM     49  O   UNL A   1      44.235  34.964  36.932  1.00  0.00    -0.744 OA
ENDBRANCH  42  46
ENDBRANCH  25  39
BRANCH  26  50
ATOM     50  C   UNL A   1      42.338  24.141  27.272  1.00  0.00     0.023 A 
ATOM     51  C   UNL A   1      41.633  22.927  27.372  1.00  0.00     0.031 A 
ATOM     52  C   UNL A   1      43.170  24.334  26.159  1.00  0.00     0.131 A 
ATOM     53  C   UNL A   1      41.832  21.925  26.414  1.00  0.00     0.055 A 
ATOM     54  C   UNL A   1      43.316  23.358  25.172  1.00  0.00     0.041 A 
ATOM     55  F   UNL A   1      43.879  25.468  26.033  1.00  0.00    -0.206 F 
ATOM     56  C   UNL A   1      42.661  22.138  25.308  1.00  0.00     0.022 A 
BRANCH  53  57
ATOM     57  S   UNL A   1      41.147  20.260  26.652  1.00  0.00     0.124 S 
ATOM     58  O   UNL A   1      42.270  19.411  26.265  1.00  0.00    -0.237 OA
ATOM     59  O   UNL A   1      40.823  20.268  28.077  1.00  0.00    -0.237 OA
ATOM     60  O   UNL A   1      39.994  20.230  25.757  1.00  0.00    -0.744 OA
ENDBRANCH  53  57
ENDBRANCH  26  50
BRANCH  38  61
ATOM     61  C   UNL A   1      46.476  25.400  32.847  1.00  0.00     0.023 A 
ATOM     62  C   UNL A   1      46.387  24.292  33.712  1.00  0.00     0.031 A 
ATOM     63  C   UNL A   1      47.733  25.992  32.648  1.00  0.00     0.131 A 
ATOM     64  C   UNL A   1      47.530  23.844  34.387  1.00  0.00     0.055 A 
ATOM     65  C   UNL A   1      48.877  25.510  33.284  1.00  0.00     0.041 A 
ATOM     66  F   UNL A   1      47.865  27.058  31.841  1.00  0.00    -0.206 F 
ATOM     67  C   UNL A   1      48.775  24.442  34.172  1.00  0.00     0.022 A 
BRANCH  64  68
ATOM     68  S   UNL A   1      47.419  22.545  35.647  1.00  0.00     0.124 S 
ATOM     69  O   UNL A   1      48.701  21.863  35.490  1.00  0.00    -0.237 OA
ATOM     70  O   UNL A   1      47.270  23.320  36.877  1.00  0.00    -0.237 OA
ATOM     71  O   UNL A   1      46.249  21.768  35.252  1.00  0.00    -0.744 OA
ENDBRANCH  64  68
ENDBRANCH  38  61
ENDBRANCH  12  13
ENDBRANCH   5   7
ENDBRANCH   4   5
ENDBRANCH   3   4
ENDBRANCH   2   3
ENDBRANCH   1   2
BRANCH   1  72
ATOM     72  C   UNL A   1      33.030  36.345  28.838  1.00  0.00     0.188 C 
BRANCH  72  73
ATOM     73  C   UNL A   1      32.938  36.561  30.350  1.00  0.00     0.188 C 
BRANCH  73  74
ATOM     74  O   UNL A   1      32.917  35.373  31.143  1.00  0.00    -0.376 OA
BRANCH  74  75
ATOM     75  C   UNL A   1      33.060  35.544  32.551  1.00  0.00     0.202 C 
BRANCH  75  76
ATOM     76  C   UNL A   1      34.364  36.167  33.066  1.00  0.00     0.261 C 
BRANCH  76  77
ATOM     77  O   UNL A   1      35.135  35.355  33.968  1.00  0.00    -0.460 OA
BRANCH  77  78
ATOM     78  C   UNL A   1      35.290  34.065  33.570  1.00  0.00     0.340 C 
ATOM     79  O   UNL A   1      34.717  33.081  34.006  1.00  0.00    -0.246 OA
BRANCH  78  80
ATOM     80  C   UNL A   1      36.416  33.948  32.638  1.00  0.00     0.088 A 
ATOM     81  C   UNL A   1      36.078  33.654  31.313  1.00  0.00     0.018 A 
ATOM     82  C   UNL A   1      37.721  34.275  33.028  1.00  0.00     0.105 A 
ATOM     83  C   UNL A   1      37.066  33.674  30.344  1.00  0.00     0.003 A 
ATOM     84  C   UNL A   1      38.722  34.266  32.016  1.00  0.00     0.091 A 
ATOM     85  N   UNL A   1      38.052  34.621  34.300  1.00  0.00    -0.230 NA
ATOM     86  C   UNL A   1      38.379  33.964  30.705  1.00  0.00     0.031 A 
ATOM     87  N   UNL A   1      40.005  34.579  32.271  1.00  0.00    -0.231 NA
ATOM     88  C   UNL A   1      39.346  34.944  34.535  1.00  0.00     0.167 A 
ATOM     89  C   UNL A   1      40.305  34.919  33.541  1.00  0.00     0.167 A 
ATOM     90  Cl  UNL A   1      39.654  35.430  36.151  1.00  0.00    -0.059 Cl
ATOM     91  Cl  UNL A   1      41.952  35.344  33.775  1.00  0.00    -0.059 Cl
ENDBRANCH  78  80
ENDBRANCH  77  78
ENDBRANCH  76  77
ENDBRANCH  75  76
ENDBRANCH  74  75
ENDBRANCH  73  74
ENDBRANCH  72  73
ENDBRANCH   1  72
TORSDOF 20
ENDMDL
