MODEL 1
REMARK VINA RESULT:     -10.3      0.000      0.000
REMARK SMILES CC(C)(C)OC(=O)N1CCN(c2nc3ccccc3s2)[C@H](C(=O)OCCOCCOCCOC(=O)c2ccc(-c3c4nc(c(-c5cc(S(=O)(=O)[O-])ccc5F)c5ccc([nH]5)c(-c5cc(S(=O)(=O)[O-])ccc5F)c5nc(c(-c6cc(S(=O)(=O)[O-])ccc6F)c6ccc3[nH]6)C=C5)C=C4)cc2)C1
REMARK SMILES IDX 28 1 27 2 26 3 25 4 24 5 22 6 23 7 21 8 8 9 9 10 99 11 10 12
REMARK SMILES IDX 11 13 6 14 7 15 5 16 2 17 1 18 3 19 4 20 12 21 13 22 20 23
REMARK SMILES IDX 14 24 19 25 15 26 18 27 16 28 17 29 29 30 30 31 31 32 32 33
REMARK SMILES IDX 33 34 34 35 35 36 36 37 37 38 98 39 38 40 97 41 39 42 40 43
REMARK SMILES IDX 41 44 91 45 42 46 96 47 90 48 92 49 43 50 95 51 89 52 88 53
REMARK SMILES IDX 44 55 76 56 56 57 75 58 57 59 60 60 74 61 93 62 58 63 59 64
REMARK SMILES IDX 73 66 94 67 61 68 45 69 46 70 54 71 47 72 53 73 55 74 52 75
REMARK SMILES IDX 48 76 49 77 50 78 51 79 77 80 78 81 86 82 79 83 85 84 87 85
REMARK SMILES IDX 84 86 80 87 81 88 82 89 83 90 62 91 63 92 71 93 64 94 70 95
REMARK SMILES IDX 72 96 69 97 65 98 66 99 67 100 68 101
REMARK H PARENT 92 54 60 65
REMARK Flexibility Score: inf
ROOT
ATOM      1  C   UNL A   1      32.769  21.880  22.893  1.00  0.00     0.188 C 
ENDROOT
BRANCH   1   2
ATOM      2  O   UNL A   1      33.266  23.175  22.612  1.00  0.00    -0.376 OA
BRANCH   2   3
ATOM      3  C   UNL A   1      32.925  23.666  21.326  1.00  0.00     0.202 C 
BRANCH   3   4
ATOM      4  C   UNL A   1      32.901  25.195  21.129  1.00  0.00     0.261 C 
BRANCH   4   5
ATOM      5  O   UNL A   1      33.824  26.001  21.903  1.00  0.00    -0.462 OA
BRANCH   5   6
ATOM      6  C   UNL A   1      33.329  26.990  22.697  1.00  0.00     0.330 C 
ATOM      7  O   UNL A   1      34.056  27.700  23.385  1.00  0.00    -0.250 OA
BRANCH   6   8
ATOM      8  C   UNL A   1      31.770  27.101  22.670  1.00  0.00     0.214 C 
ATOM      9  N   UNL A   1      29.755  28.667  22.632  1.00  0.00    -0.304 N 
ATOM     10  C   UNL A   1      29.106  27.890  23.694  1.00  0.00     0.144 C 
ATOM     11  C   UNL A   1      31.226  28.550  22.528  1.00  0.00     0.160 C 
ATOM     12  C   UNL A   1      29.603  26.436  23.717  1.00  0.00     0.141 C 
ATOM     13  N   UNL A   1      31.064  26.439  23.796  1.00  0.00    -0.331 N 
BRANCH   9  14
ATOM     14  C   UNL A   1      29.049  29.684  22.029  1.00  0.00     0.410 C 
ATOM     15  O   UNL A   1      28.126  29.499  21.235  1.00  0.00    -0.224 OA
BRANCH  14  16
ATOM     16  O   UNL A   1      29.533  30.902  22.365  1.00  0.00    -0.444 OA
BRANCH  16  17
ATOM     17  C   UNL A   1      28.773  31.816  23.196  1.00  0.00     0.106 C 
ATOM     18  C   UNL A   1      28.418  32.969  22.245  1.00  0.00     0.056 C 
ATOM     19  C   UNL A   1      29.640  32.350  24.337  1.00  0.00     0.056 C 
ATOM     20  C   UNL A   1      27.465  31.203  23.713  1.00  0.00     0.056 C 
ENDBRANCH  16  17
ENDBRANCH  14  16
ENDBRANCH   9  14
BRANCH  13  21
ATOM     21  C   UNL A   1      31.668  25.558  24.622  1.00  0.00     0.187 A 
ATOM     22  N   UNL A   1      32.934  25.547  24.958  1.00  0.00    -0.220 NA
ATOM     23  S   UNL A   1      30.760  24.231  25.200  1.00  0.00    -0.097 S 
ATOM     24  C   UNL A   1      33.180  24.501  25.847  1.00  0.00     0.084 A 
ATOM     25  C   UNL A   1      32.068  23.726  26.171  1.00  0.00     0.056 A 
ATOM     26  C   UNL A   1      34.418  24.144  26.419  1.00  0.00     0.030 A 
ATOM     27  C   UNL A   1      32.113  22.654  27.077  1.00  0.00     0.021 A 
ATOM     28  C   UNL A   1      34.490  23.049  27.295  1.00  0.00     0.002 A 
ATOM     29  C   UNL A   1      33.351  22.319  27.623  1.00  0.00     0.002 A 
ENDBRANCH  13  21
ENDBRANCH   6   8
ENDBRANCH   5   6
ENDBRANCH   4   5
ENDBRANCH   3   4
ENDBRANCH   2   3
ENDBRANCH   1   2
BRANCH   1  30
ATOM     30  C   UNL A   1      33.554  21.177  24.006  1.00  0.00     0.188 C 
BRANCH  30  31
ATOM     31  O   UNL A   1      34.908  21.533  24.237  1.00  0.00    -0.376 OA
BRANCH  31  32
ATOM     32  C   UNL A   1      35.698  20.629  24.992  1.00  0.00     0.202 C 
BRANCH  32  33
ATOM     33  C   UNL A   1      37.206  20.904  25.135  1.00  0.00     0.261 C 
BRANCH  33  34
ATOM     34  O   UNL A   1      37.591  22.200  25.645  1.00  0.00    -0.460 OA
BRANCH  34  35
ATOM     35  C   UNL A   1      38.837  22.271  26.191  1.00  0.00     0.338 C 
ATOM     36  O   UNL A   1      39.673  21.382  26.179  1.00  0.00    -0.246 OA
BRANCH  35  37
ATOM     37  C   UNL A   1      39.145  23.650  26.667  1.00  0.00     0.060 A 
ATOM     38  C   UNL A   1      39.718  24.561  25.765  1.00  0.00     0.016 A 
ATOM     39  C   UNL A   1      38.962  24.033  27.996  1.00  0.00     0.016 A 
ATOM     40  C   UNL A   1      40.133  25.836  26.188  1.00  0.00     0.010 A 
ATOM     41  C   UNL A   1      39.396  25.304  28.422  1.00  0.00     0.010 A 
ATOM     42  C   UNL A   1      40.008  26.213  27.531  1.00  0.00    -0.014 A 
BRANCH  42  43
ATOM     43  C   UNL A   1      40.676  27.447  28.060  1.00  0.00     0.031 A 
ATOM     44  C   UNL A   1      39.818  28.545  28.618  1.00  0.00     0.074 A 
ATOM     45  C   UNL A   1      42.012  27.627  28.081  1.00  0.00     0.049 A 
ATOM     46  N   UNL A   1      40.169  29.733  29.037  1.00  0.00    -0.248 NA
ATOM     47  C   UNL A   1      38.385  28.250  28.752  1.00  0.00     0.031 C 
ATOM     48  C   UNL A   1      42.985  26.604  27.763  1.00  0.00     0.029 A 
ATOM     49  N   UNL A   1      42.790  28.729  28.365  1.00  0.00    -0.354 N 
ATOM     50  C   UNL A   1      39.009  30.318  29.524  1.00  0.00     0.074 A 
ATOM     51  C   UNL A   1      37.933  29.377  29.284  1.00  0.00     0.031 C 
ATOM     52  C   UNL A   1      44.220  27.131  27.757  1.00  0.00     0.029 A 
ATOM     53  C   UNL A   1      44.128  28.547  28.077  1.00  0.00     0.049 A 
ATOM     54  H   UNL A   1      42.426  29.565  28.737  1.00  0.00     0.167 HD
ATOM     55  C   UNL A   1      38.863  31.514  30.142  1.00  0.00     0.034 A 
ATOM     56  C   UNL A   1      45.164  29.410  28.055  1.00  0.00     0.034 A 
ATOM     57  C   UNL A   1      39.931  32.461  30.352  1.00  0.00     0.049 A 
ATOM     58  C   UNL A   1      44.938  30.819  28.533  1.00  0.00     0.074 A 
ATOM     59  C   UNL A   1      39.869  33.703  30.961  1.00  0.00     0.029 A 
ATOM     60  N   UNL A   1      41.248  32.290  29.946  1.00  0.00    -0.354 N 
ATOM     61  N   UNL A   1      43.832  31.361  28.984  1.00  0.00    -0.248 NA
ATOM     62  C   UNL A   1      46.101  31.716  28.550  1.00  0.00     0.031 C 
ATOM     63  C   UNL A   1      41.120  34.316  30.844  1.00  0.00     0.029 A 
ATOM     64  C   UNL A   1      41.993  33.422  30.248  1.00  0.00     0.049 A 
ATOM     65  H   UNL A   1      41.603  31.482  29.508  1.00  0.00     0.167 HD
ATOM     66  C   UNL A   1      44.184  32.639  29.404  1.00  0.00     0.074 A 
ATOM     67  C   UNL A   1      45.599  32.789  29.142  1.00  0.00     0.031 C 
ATOM     68  C   UNL A   1      43.403  33.586  29.979  1.00  0.00     0.034 A 
BRANCH  55  69
ATOM     69  C   UNL A   1      37.473  31.881  30.590  1.00  0.00     0.023 A 
ATOM     70  C   UNL A   1      36.559  32.499  29.719  1.00  0.00     0.031 A 
ATOM     71  C   UNL A   1      37.065  31.630  31.911  1.00  0.00     0.131 A 
ATOM     72  C   UNL A   1      35.305  32.905  30.198  1.00  0.00     0.055 A 
ATOM     73  C   UNL A   1      35.787  31.962  32.359  1.00  0.00     0.041 A 
ATOM     74  F   UNL A   1      37.909  31.067  32.790  1.00  0.00    -0.206 F 
ATOM     75  C   UNL A   1      34.903  32.616  31.505  1.00  0.00     0.022 A 
BRANCH  72  76
ATOM     76  S   UNL A   1      34.264  33.940  29.134  1.00  0.00     0.124 S 
ATOM     77  O   UNL A   1      35.240  34.883  28.596  1.00  0.00    -0.237 OA
ATOM     78  O   UNL A   1      33.720  32.972  28.189  1.00  0.00    -0.237 OA
ATOM     79  O   UNL A   1      33.295  34.519  30.064  1.00  0.00    -0.744 OA
ENDBRANCH  72  76
ENDBRANCH  55  69
BRANCH  56  80
ATOM     80  C   UNL A   1      46.503  29.003  27.530  1.00  0.00     0.023 A 
ATOM     81  C   UNL A   1      46.708  28.718  26.169  1.00  0.00     0.031 A 
ATOM     82  C   UNL A   1      47.574  28.775  28.414  1.00  0.00     0.131 A 
ATOM     83  C   UNL A   1      47.927  28.164  25.743  1.00  0.00     0.055 A 
ATOM     84  C   UNL A   1      48.803  28.274  27.977  1.00  0.00     0.041 A 
ATOM     85  F   UNL A   1      47.435  29.016  29.727  1.00  0.00    -0.206 F 
ATOM     86  C   UNL A   1      48.980  27.952  26.635  1.00  0.00     0.022 A 
BRANCH  83  87
ATOM     87  S   UNL A   1      48.075  27.603  24.023  1.00  0.00     0.124 S 
ATOM     88  O   UNL A   1      47.665  26.208  24.131  1.00  0.00    -0.237 OA
ATOM     89  O   UNL A   1      47.149  28.494  23.333  1.00  0.00    -0.237 OA
ATOM     90  O   UNL A   1      49.488  27.818  23.716  1.00  0.00    -0.744 OA
ENDBRANCH  83  87
ENDBRANCH  56  80
BRANCH  68  91
ATOM     91  C   UNL A   1      44.083  34.857  30.429  1.00  0.00     0.023 A 
ATOM     92  C   UNL A   1      44.667  34.976  31.702  1.00  0.00     0.031 A 
ATOM     93  C   UNL A   1      44.120  35.976  29.578  1.00  0.00     0.131 A 
ATOM     94  C   UNL A   1      45.204  36.207  32.111  1.00  0.00     0.055 A 
ATOM     95  C   UNL A   1      44.721  37.174  29.963  1.00  0.00     0.041 A 
ATOM     96  F   UNL A   1      43.568  35.924  28.354  1.00  0.00    -0.206 F 
ATOM     97  C   UNL A   1      45.254  37.300  31.242  1.00  0.00     0.022 A 
BRANCH  94  98
ATOM     98  S   UNL A   1      45.736  36.392  33.835  1.00  0.00     0.124 S 
ATOM     99  O   UNL A   1      46.059  35.017  34.200  1.00  0.00    -0.237 OA
ATOM    100  O   UNL A   1      46.871  37.302  33.716  1.00  0.00    -0.237 OA
ATOM    101  O   UNL A   1      44.560  36.951  34.499  1.00  0.00    -0.744 OA
ENDBRANCH  94  98
ENDBRANCH  68  91
ENDBRANCH  42  43
ENDBRANCH  35  37
ENDBRANCH  34  35
ENDBRANCH  33  34
ENDBRANCH  32  33
ENDBRANCH  31  32
ENDBRANCH  30  31
ENDBRANCH   1  30
TORSDOF 24
ENDMDL
MODEL 2
REMARK VINA RESULT:     -10.2      2.608      7.879
REMARK SMILES CC(C)(C)OC(=O)N1CCN(c2nc3ccccc3s2)[C@H](C(=O)OCCOCCOCCOC(=O)c2ccc(-c3c4nc(c(-c5cc(S(=O)(=O)[O-])ccc5F)c5ccc([nH]5)c(-c5cc(S(=O)(=O)[O-])ccc5F)c5nc(c(-c6cc(S(=O)(=O)[O-])ccc6F)c6ccc3[nH]6)C=C5)C=C4)cc2)C1
REMARK SMILES IDX 28 1 27 2 26 3 25 4 24 5 22 6 23 7 21 8 8 9 9 10 99 11 10 12
REMARK SMILES IDX 11 13 6 14 7 15 5 16 2 17 1 18 3 19 4 20 12 21 13 22 20 23
REMARK SMILES IDX 14 24 19 25 15 26 18 27 16 28 17 29 29 30 30 31 31 32 32 33
REMARK SMILES IDX 33 34 34 35 35 36 36 37 37 38 98 39 38 40 97 41 39 42 40 43
REMARK SMILES IDX 41 44 91 45 42 46 96 47 90 48 92 49 43 50 95 51 89 52 88 53
REMARK SMILES IDX 44 55 76 56 56 57 75 58 57 59 60 60 74 61 93 62 58 63 59 64
REMARK SMILES IDX 73 66 94 67 61 68 45 69 46 70 54 71 47 72 53 73 55 74 52 75
REMARK SMILES IDX 48 76 49 77 50 78 51 79 77 80 78 81 86 82 79 83 85 84 87 85
REMARK SMILES IDX 84 86 80 87 81 88 82 89 83 90 62 91 63 92 71 93 64 94 70 95
REMARK SMILES IDX 72 96 69 97 65 98 66 99 67 100 68 101
REMARK H PARENT 92 54 60 65
REMARK Flexibility Score: inf
ROOT
ATOM      1  C   UNL A   1      35.988  21.671  26.064  1.00  0.00     0.188 C 
ENDROOT
BRANCH   1   2
ATOM      2  O   UNL A   1      36.426  23.016  26.030  1.00  0.00    -0.376 OA
BRANCH   2   3
ATOM      3  C   UNL A   1      35.702  23.845  25.136  1.00  0.00     0.202 C 
BRANCH   3   4
ATOM      4  C   UNL A   1      34.795  24.932  25.747  1.00  0.00     0.261 C 
BRANCH   4   5
ATOM      5  O   UNL A   1      34.320  25.994  24.884  1.00  0.00    -0.462 OA
BRANCH   5   6
ATOM      6  C   UNL A   1      33.479  26.934  25.396  1.00  0.00     0.330 C 
ATOM      7  O   UNL A   1      33.526  27.280  26.572  1.00  0.00    -0.250 OA
BRANCH   6   8
ATOM      8  C   UNL A   1      32.445  27.488  24.362  1.00  0.00     0.214 C 
ATOM      9  N   UNL A   1      30.580  29.173  23.922  1.00  0.00    -0.304 N 
ATOM     10  C   UNL A   1      29.746  28.124  23.327  1.00  0.00     0.144 C 
ATOM     11  C   UNL A   1      31.645  28.729  24.848  1.00  0.00     0.160 C 
ATOM     12  C   UNL A   1      30.596  26.973  22.766  1.00  0.00     0.141 C 
ATOM     13  N   UNL A   1      31.489  26.491  23.820  1.00  0.00    -0.331 N 
BRANCH   9  14
ATOM     14  C   UNL A   1      30.142  30.478  23.869  1.00  0.00     0.410 C 
ATOM     15  O   UNL A   1      30.050  31.209  24.856  1.00  0.00    -0.224 OA
BRANCH  14  16
ATOM     16  O   UNL A   1      29.768  30.834  22.619  1.00  0.00    -0.444 OA
BRANCH  16  17
ATOM     17  C   UNL A   1      28.425  31.303  22.335  1.00  0.00     0.106 C 
ATOM     18  C   UNL A   1      28.584  32.827  22.216  1.00  0.00     0.056 C 
ATOM     19  C   UNL A   1      27.487  30.982  23.499  1.00  0.00     0.056 C 
ATOM     20  C   UNL A   1      27.880  30.775  21.001  1.00  0.00     0.056 C 
ENDBRANCH  16  17
ENDBRANCH  14  16
ENDBRANCH   9  14
BRANCH  13  21
ATOM     21  C   UNL A   1      31.661  25.159  23.961  1.00  0.00     0.187 A 
ATOM     22  N   UNL A   1      32.248  24.355  23.110  1.00  0.00    -0.220 NA
ATOM     23  S   UNL A   1      30.938  24.383  25.301  1.00  0.00    -0.097 S 
ATOM     24  C   UNL A   1      32.254  23.054  23.613  1.00  0.00     0.084 A 
ATOM     25  C   UNL A   1      31.657  22.900  24.863  1.00  0.00     0.056 A 
ATOM     26  C   UNL A   1      32.772  21.902  22.987  1.00  0.00     0.030 A 
ATOM     27  C   UNL A   1      31.602  21.673  25.545  1.00  0.00     0.021 A 
ATOM     28  C   UNL A   1      32.687  20.659  23.635  1.00  0.00     0.002 A 
ATOM     29  C   UNL A   1      32.115  20.550  24.900  1.00  0.00     0.002 A 
ENDBRANCH  13  21
ENDBRANCH   6   8
ENDBRANCH   5   6
ENDBRANCH   4   5
ENDBRANCH   3   4
ENDBRANCH   2   3
ENDBRANCH   1   2
BRANCH   1  30
ATOM     30  C   UNL A   1      36.248  20.933  24.746  1.00  0.00     0.188 C 
BRANCH  30  31
ATOM     31  O   UNL A   1      37.503  20.309  24.531  1.00  0.00    -0.376 OA
BRANCH  31  32
ATOM     32  C   UNL A   1      38.584  20.724  25.349  1.00  0.00     0.202 C 
BRANCH  32  33
ATOM     33  C   UNL A   1      39.489  19.652  25.982  1.00  0.00     0.261 C 
BRANCH  33  34
ATOM     34  O   UNL A   1      40.771  19.423  25.357  1.00  0.00    -0.460 OA
BRANCH  34  35
ATOM     35  C   UNL A   1      41.840  19.391  26.201  1.00  0.00     0.338 C 
ATOM     36  O   UNL A   1      42.385  18.385  26.625  1.00  0.00    -0.246 OA
BRANCH  35  37
ATOM     37  C   UNL A   1      42.399  20.756  26.422  1.00  0.00     0.060 A 
ATOM     38  C   UNL A   1      42.532  21.225  27.739  1.00  0.00     0.016 A 
ATOM     39  C   UNL A   1      42.710  21.609  25.362  1.00  0.00     0.016 A 
ATOM     40  C   UNL A   1      42.945  22.543  28.000  1.00  0.00     0.010 A 
ATOM     41  C   UNL A   1      43.105  22.935  25.626  1.00  0.00     0.010 A 
ATOM     42  C   UNL A   1      43.205  23.427  26.946  1.00  0.00    -0.014 A 
BRANCH  42  43
ATOM     43  C   UNL A   1      43.386  24.896  27.186  1.00  0.00     0.031 A 
ATOM     44  C   UNL A   1      44.752  25.492  27.000  1.00  0.00     0.074 A 
ATOM     45  C   UNL A   1      42.387  25.726  27.549  1.00  0.00     0.049 A 
ATOM     46  N   UNL A   1      45.160  26.710  27.244  1.00  0.00    -0.248 NA
ATOM     47  C   UNL A   1      45.778  24.608  26.430  1.00  0.00     0.031 C 
ATOM     48  C   UNL A   1      40.987  25.361  27.587  1.00  0.00     0.029 A 
ATOM     49  N   UNL A   1      42.385  27.039  27.968  1.00  0.00    -0.354 N 
ATOM     50  C   UNL A   1      46.480  26.755  26.823  1.00  0.00     0.074 A 
ATOM     51  C   UNL A   1      46.821  25.421  26.370  1.00  0.00     0.031 C 
ATOM     52  C   UNL A   1      40.265  26.367  28.104  1.00  0.00     0.029 A 
ATOM     53  C   UNL A   1      41.159  27.465  28.436  1.00  0.00     0.049 A 
ATOM     54  H   UNL A   1      43.182  27.617  27.936  1.00  0.00     0.167 HD
ATOM     55  C   UNL A   1      47.318  27.819  26.787  1.00  0.00     0.034 A 
ATOM     56  C   UNL A   1      40.787  28.595  29.073  1.00  0.00     0.034 A 
ATOM     57  C   UNL A   1      46.985  29.139  27.267  1.00  0.00     0.049 A 
ATOM     58  C   UNL A   1      41.799  29.696  29.235  1.00  0.00     0.074 A 
ATOM     59  C   UNL A   1      47.778  30.272  27.278  1.00  0.00     0.029 A 
ATOM     60  N   UNL A   1      45.772  29.503  27.838  1.00  0.00    -0.354 N 
ATOM     61  N   UNL A   1      43.049  29.723  28.838  1.00  0.00    -0.248 NA
ATOM     62  C   UNL A   1      41.345  30.935  29.881  1.00  0.00     0.031 C 
ATOM     63  C   UNL A   1      47.081  31.293  27.933  1.00  0.00     0.029 A 
ATOM     64  C   UNL A   1      45.816  30.828  28.247  1.00  0.00     0.049 A 
ATOM     65  H   UNL A   1      44.994  28.908  27.937  1.00  0.00     0.167 HD
ATOM     66  C   UNL A   1      43.507  31.004  29.122  1.00  0.00     0.074 A 
ATOM     67  C   UNL A   1      42.405  31.716  29.733  1.00  0.00     0.031 C 
ATOM     68  C   UNL A   1      44.726  31.543  28.870  1.00  0.00     0.034 A 
BRANCH  55  69
ATOM     69  C   UNL A   1      48.703  27.574  26.250  1.00  0.00     0.023 A 
ATOM     70  C   UNL A   1      49.019  27.805  24.899  1.00  0.00     0.031 A 
ATOM     71  C   UNL A   1      49.713  27.080  27.092  1.00  0.00     0.131 A 
ATOM     72  C   UNL A   1      50.296  27.481  24.417  1.00  0.00     0.055 A 
ATOM     73  C   UNL A   1      51.004  26.837  26.624  1.00  0.00     0.041 A 
ATOM     74  F   UNL A   1      49.456  26.815  28.383  1.00  0.00    -0.206 F 
ATOM     75  C   UNL A   1      51.299  27.025  25.277  1.00  0.00     0.022 A 
BRANCH  72  76
ATOM     76  S   UNL A   1      50.585  27.531  22.628  1.00  0.00     0.124 S 
ATOM     77  O   UNL A   1      49.528  26.651  22.135  1.00  0.00    -0.237 OA
ATOM     78  O   UNL A   1      50.432  28.948  22.323  1.00  0.00    -0.237 OA
ATOM     79  O   UNL A   1      51.941  27.003  22.487  1.00  0.00    -0.744 OA
ENDBRANCH  72  76
ENDBRANCH  55  69
BRANCH  56  80
ATOM     80  C   UNL A   1      39.415  28.748  29.647  1.00  0.00     0.023 A 
ATOM     81  C   UNL A   1      38.365  29.322  28.910  1.00  0.00     0.031 A 
ATOM     82  C   UNL A   1      39.169  28.427  30.995  1.00  0.00     0.131 A 
ATOM     83  C   UNL A   1      37.144  29.615  29.540  1.00  0.00     0.055 A 
ATOM     84  C   UNL A   1      37.935  28.673  31.603  1.00  0.00     0.041 A 
ATOM     85  F   UNL A   1      40.137  27.889  31.754  1.00  0.00    -0.206 F 
ATOM     86  C   UNL A   1      36.917  29.284  30.877  1.00  0.00     0.022 A 
BRANCH  83  87
ATOM     87  S   UNL A   1      35.893  30.557  28.620  1.00  0.00     0.124 S 
ATOM     88  O   UNL A   1      36.582  30.809  27.360  1.00  0.00    -0.237 OA
ATOM     89  O   UNL A   1      34.781  29.614  28.569  1.00  0.00    -0.237 OA
ATOM     90  O   UNL A   1      35.671  31.734  29.457  1.00  0.00    -0.744 OA
ENDBRANCH  83  87
ENDBRANCH  56  80
BRANCH  68  91
ATOM     91  C   UNL A   1      44.911  33.005  29.198  1.00  0.00     0.023 A 
ATOM     92  C   UNL A   1      44.623  34.018  28.268  1.00  0.00     0.031 A 
ATOM     93  C   UNL A   1      45.413  33.387  30.456  1.00  0.00     0.131 A 
ATOM     94  C   UNL A   1      44.901  35.357  28.585  1.00  0.00     0.055 A 
ATOM     95  C   UNL A   1      45.618  34.724  30.792  1.00  0.00     0.041 A 
ATOM     96  F   UNL A   1      45.717  32.462  31.381  1.00  0.00    -0.206 F 
ATOM     97  C   UNL A   1      45.376  35.718  29.848  1.00  0.00     0.022 A 
BRANCH  94  98
ATOM     98  S   UNL A   1      44.738  36.609  27.283  1.00  0.00     0.124 S 
ATOM     99  O   UNL A   1      45.925  36.360  26.473  1.00  0.00    -0.237 OA
ATOM    100  O   UNL A   1      43.462  36.257  26.668  1.00  0.00    -0.237 OA
ATOM    101  O   UNL A   1      44.742  37.872  28.020  1.00  0.00    -0.744 OA
ENDBRANCH  94  98
ENDBRANCH  68  91
ENDBRANCH  42  43
ENDBRANCH  35  37
ENDBRANCH  34  35
ENDBRANCH  33  34
ENDBRANCH  32  33
ENDBRANCH  31  32
ENDBRANCH  30  31
ENDBRANCH   1  30
TORSDOF 24
ENDMDL
MODEL 3
REMARK VINA RESULT:     -10.0      2.524      3.412
REMARK SMILES CC(C)(C)OC(=O)N1CCN(c2nc3ccccc3s2)[C@H](C(=O)OCCOCCOCCOC(=O)c2ccc(-c3c4nc(c(-c5cc(S(=O)(=O)[O-])ccc5F)c5ccc([nH]5)c(-c5cc(S(=O)(=O)[O-])ccc5F)c5nc(c(-c6cc(S(=O)(=O)[O-])ccc6F)c6ccc3[nH]6)C=C5)C=C4)cc2)C1
REMARK SMILES IDX 28 1 27 2 26 3 25 4 24 5 22 6 23 7 21 8 8 9 9 10 99 11 10 12
REMARK SMILES IDX 11 13 6 14 7 15 5 16 2 17 1 18 3 19 4 20 12 21 13 22 20 23
REMARK SMILES IDX 14 24 19 25 15 26 18 27 16 28 17 29 29 30 30 31 31 32 32 33
REMARK SMILES IDX 33 34 34 35 35 36 36 37 37 38 98 39 38 40 97 41 39 42 40 43
REMARK SMILES IDX 41 44 91 45 42 46 96 47 90 48 92 49 43 50 95 51 89 52 88 53
REMARK SMILES IDX 44 55 76 56 56 57 75 58 57 59 60 60 74 61 93 62 58 63 59 64
REMARK SMILES IDX 73 66 94 67 61 68 45 69 46 70 54 71 47 72 53 73 55 74 52 75
REMARK SMILES IDX 48 76 49 77 50 78 51 79 77 80 78 81 86 82 79 83 85 84 87 85
REMARK SMILES IDX 84 86 80 87 81 88 82 89 83 90 62 91 63 92 71 93 64 94 70 95
REMARK SMILES IDX 72 96 69 97 65 98 66 99 67 100 68 101
REMARK H PARENT 92 54 60 65
REMARK Flexibility Score: inf
ROOT
ATOM      1  C   UNL A   1      35.747  21.179  25.712  1.00  0.00     0.188 C 
ENDROOT
BRANCH   1   2
ATOM      2  O   UNL A   1      35.104  22.375  26.111  1.00  0.00    -0.376 OA
BRANCH   2   3
ATOM      3  C   UNL A   1      35.339  23.480  25.254  1.00  0.00     0.202 C 
BRANCH   3   4
ATOM      4  C   UNL A   1      35.038  24.888  25.806  1.00  0.00     0.261 C 
BRANCH   4   5
ATOM      5  O   UNL A   1      34.426  25.856  24.920  1.00  0.00    -0.462 OA
BRANCH   5   6
ATOM      6  C   UNL A   1      33.460  26.681  25.410  1.00  0.00     0.330 C 
ATOM      7  O   UNL A   1      33.354  26.922  26.609  1.00  0.00    -0.250 OA
BRANCH   6   8
ATOM      8  C   UNL A   1      32.499  27.249  24.316  1.00  0.00     0.214 C 
ATOM      9  N   UNL A   1      30.643  28.917  23.782  1.00  0.00    -0.304 N 
ATOM     10  C   UNL A   1      29.876  27.872  23.094  1.00  0.00     0.144 C 
ATOM     11  C   UNL A   1      31.641  28.462  24.774  1.00  0.00     0.160 C 
ATOM     12  C   UNL A   1      30.788  26.753  22.568  1.00  0.00     0.141 C 
ATOM     13  N   UNL A   1      31.606  26.253  23.673  1.00  0.00    -0.331 N 
BRANCH   9  14
ATOM     14  C   UNL A   1      30.186  30.216  23.733  1.00  0.00     0.410 C 
ATOM     15  O   UNL A   1      30.251  31.000  24.681  1.00  0.00    -0.224 OA
BRANCH  14  16
ATOM     16  O   UNL A   1      29.603  30.501  22.547  1.00  0.00    -0.444 OA
BRANCH  16  17
ATOM     17  C   UNL A   1      28.203  30.865  22.458  1.00  0.00     0.106 C 
ATOM     18  C   UNL A   1      28.174  31.961  21.381  1.00  0.00     0.056 C 
ATOM     19  C   UNL A   1      27.715  31.448  23.785  1.00  0.00     0.056 C 
ATOM     20  C   UNL A   1      27.315  29.707  21.984  1.00  0.00     0.056 C 
ENDBRANCH  16  17
ENDBRANCH  14  16
ENDBRANCH   9  14
BRANCH  13  21
ATOM     21  C   UNL A   1      31.791  24.921  23.789  1.00  0.00     0.187 A 
ATOM     22  N   UNL A   1      31.544  24.189  24.846  1.00  0.00    -0.220 NA
ATOM     23  S   UNL A   1      32.548  24.091  22.501  1.00  0.00    -0.097 S 
ATOM     24  C   UNL A   1      31.840  22.853  24.578  1.00  0.00     0.084 A 
ATOM     25  C   UNL A   1      32.316  22.598  23.293  1.00  0.00     0.056 A 
ATOM     26  C   UNL A   1      31.730  21.762  25.464  1.00  0.00     0.030 A 
ATOM     27  C   UNL A   1      32.631  21.311  22.828  1.00  0.00     0.021 A 
ATOM     28  C   UNL A   1      32.081  20.474  25.031  1.00  0.00     0.002 A 
ATOM     29  C   UNL A   1      32.519  20.252  23.728  1.00  0.00     0.002 A 
ENDBRANCH  13  21
ENDBRANCH   6   8
ENDBRANCH   5   6
ENDBRANCH   4   5
ENDBRANCH   3   4
ENDBRANCH   2   3
ENDBRANCH   1   2
BRANCH   1  30
ATOM     30  C   UNL A   1      36.610  21.364  24.459  1.00  0.00     0.188 C 
BRANCH  30  31
ATOM     31  O   UNL A   1      38.000  21.084  24.521  1.00  0.00    -0.376 OA
BRANCH  31  32
ATOM     32  C   UNL A   1      38.551  20.813  25.799  1.00  0.00     0.202 C 
BRANCH  32  33
ATOM     33  C   UNL A   1      39.316  19.494  26.011  1.00  0.00     0.261 C 
BRANCH  33  34
ATOM     34  O   UNL A   1      40.610  19.377  25.379  1.00  0.00    -0.460 OA
BRANCH  34  35
ATOM     35  C   UNL A   1      41.683  19.567  26.196  1.00  0.00     0.338 C 
ATOM     36  O   UNL A   1      42.533  18.734  26.464  1.00  0.00    -0.246 OA
BRANCH  35  37
ATOM     37  C   UNL A   1      41.809  20.997  26.603  1.00  0.00     0.060 A 
ATOM     38  C   UNL A   1      41.903  21.976  25.600  1.00  0.00     0.016 A 
ATOM     39  C   UNL A   1      41.923  21.379  27.940  1.00  0.00     0.016 A 
ATOM     40  C   UNL A   1      42.137  23.324  25.925  1.00  0.00     0.010 A 
ATOM     41  C   UNL A   1      42.178  22.727  28.261  1.00  0.00     0.010 A 
ATOM     42  C   UNL A   1      42.312  23.713  27.259  1.00  0.00    -0.014 A 
BRANCH  42  43
ATOM     43  C   UNL A   1      42.821  25.077  27.614  1.00  0.00     0.031 A 
ATOM     44  C   UNL A   1      41.849  26.092  28.142  1.00  0.00     0.074 A 
ATOM     45  C   UNL A   1      44.112  25.450  27.500  1.00  0.00     0.049 A 
ATOM     46  N   UNL A   1      42.046  27.355  28.420  1.00  0.00    -0.248 NA
ATOM     47  C   UNL A   1      40.491  25.610  28.428  1.00  0.00     0.031 C 
ATOM     48  C   UNL A   1      45.204  24.550  27.192  1.00  0.00     0.029 A 
ATOM     49  N   UNL A   1      44.732  26.675  27.614  1.00  0.00    -0.354 N 
ATOM     50  C   UNL A   1      40.849  27.813  28.951  1.00  0.00     0.074 A 
ATOM     51  C   UNL A   1      39.914  26.708  28.893  1.00  0.00     0.031 C 
ATOM     52  C   UNL A   1      46.340  25.247  27.030  1.00  0.00     0.029 A 
ATOM     53  C   UNL A   1      46.058  26.659  27.228  1.00  0.00     0.049 A 
ATOM     54  H   UNL A   1      44.274  27.484  27.939  1.00  0.00     0.167 HD
ATOM     55  C   UNL A   1      40.569  29.033  29.469  1.00  0.00     0.034 A 
ATOM     56  C   UNL A   1      46.946  27.656  27.036  1.00  0.00     0.034 A 
ATOM     57  C   UNL A   1      41.493  30.141  29.497  1.00  0.00     0.049 A 
ATOM     58  C   UNL A   1      46.544  29.059  27.402  1.00  0.00     0.074 A 
ATOM     59  C   UNL A   1      41.287  31.416  29.994  1.00  0.00     0.029 A 
ATOM     60  N   UNL A   1      42.788  30.120  28.995  1.00  0.00    -0.354 N 
ATOM     61  N   UNL A   1      45.405  29.480  27.897  1.00  0.00    -0.248 NA
ATOM     62  C   UNL A   1      47.555  30.111  27.236  1.00  0.00     0.031 C 
ATOM     63  C   UNL A   1      42.419  32.188  29.713  1.00  0.00     0.029 A 
ATOM     64  C   UNL A   1      43.371  31.373  29.126  1.00  0.00     0.049 A 
ATOM     65  H   UNL A   1      43.228  29.332  28.602  1.00  0.00     0.167 HD
ATOM     66  C   UNL A   1      45.588  30.832  28.167  1.00  0.00     0.074 A 
ATOM     67  C   UNL A   1      46.941  31.156  27.770  1.00  0.00     0.031 C 
ATOM     68  C   UNL A   1      44.716  31.710  28.721  1.00  0.00     0.034 A 
BRANCH  55  69
ATOM     69  C   UNL A   1      39.176  29.240  30.002  1.00  0.00     0.023 A 
ATOM     70  C   UNL A   1      38.161  29.802  29.208  1.00  0.00     0.031 A 
ATOM     71  C   UNL A   1      38.865  28.893  31.327  1.00  0.00     0.131 A 
ATOM     72  C   UNL A   1      36.901  30.060  29.767  1.00  0.00     0.055 A 
ATOM     73  C   UNL A   1      37.587  29.076  31.853  1.00  0.00     0.041 A 
ATOM     74  F   UNL A   1      39.806  28.379  32.136  1.00  0.00    -0.206 F 
ATOM     75  C   UNL A   1      36.599  29.675  31.077  1.00  0.00     0.022 A 
BRANCH  72  76
ATOM     76  S   UNL A   1      35.708  31.030  28.807  1.00  0.00     0.124 S 
ATOM     77  O   UNL A   1      35.003  31.755  29.861  1.00  0.00    -0.237 OA
ATOM     78  O   UNL A   1      36.572  31.831  27.948  1.00  0.00    -0.237 OA
ATOM     79  O   UNL A   1      34.913  30.013  28.122  1.00  0.00    -0.744 OA
ENDBRANCH  72  76
ENDBRANCH  55  69
BRANCH  56  80
ATOM     80  C   UNL A   1      48.290  27.394  26.435  1.00  0.00     0.023 A 
ATOM     81  C   UNL A   1      48.536  27.587  25.065  1.00  0.00     0.031 A 
ATOM     82  C   UNL A   1      49.318  26.827  27.211  1.00  0.00     0.131 A 
ATOM     83  C   UNL A   1      49.751  27.159  24.503  1.00  0.00     0.055 A 
ATOM     84  C   UNL A   1      50.544  26.452  26.657  1.00  0.00     0.041 A 
ATOM     85  F   UNL A   1      49.136  26.606  28.523  1.00  0.00    -0.206 F 
ATOM     86  C   UNL A   1      50.761  26.604  25.291  1.00  0.00     0.022 A 
BRANCH  83  87
ATOM     87  S   UNL A   1      49.946  27.219  22.699  1.00  0.00     0.124 S 
ATOM     88  O   UNL A   1      48.761  26.498  22.250  1.00  0.00    -0.237 OA
ATOM     89  O   UNL A   1      49.960  28.656  22.444  1.00  0.00    -0.237 OA
ATOM     90  O   UNL A   1      51.218  26.536  22.472  1.00  0.00    -0.744 OA
ENDBRANCH  83  87
ENDBRANCH  56  80
BRANCH  68  91
ATOM     91  C   UNL A   1      45.227  33.105  28.992  1.00  0.00     0.023 A 
ATOM     92  C   UNL A   1      45.049  34.154  28.074  1.00  0.00     0.031 A 
ATOM     93  C   UNL A   1      45.929  33.380  30.180  1.00  0.00     0.131 A 
ATOM     94  C   UNL A   1      45.623  35.409  28.328  1.00  0.00     0.055 A 
ATOM     95  C   UNL A   1      46.433  34.649  30.460  1.00  0.00     0.041 A 
ATOM     96  F   UNL A   1      46.138  32.414  31.090  1.00  0.00    -0.206 F 
ATOM     97  C   UNL A   1      46.295  35.669  29.524  1.00  0.00     0.022 A 
BRANCH  94  98
ATOM     98  S   UNL A   1      45.575  36.666  27.021  1.00  0.00     0.124 S 
ATOM     99  O   UNL A   1      46.286  36.000  25.935  1.00  0.00    -0.237 OA
ATOM    100  O   UNL A   1      44.142  36.855  26.821  1.00  0.00    -0.237 OA
ATOM    101  O   UNL A   1      46.274  37.805  27.614  1.00  0.00    -0.744 OA
ENDBRANCH  94  98
ENDBRANCH  68  91
ENDBRANCH  42  43
ENDBRANCH  35  37
ENDBRANCH  34  35
ENDBRANCH  33  34
ENDBRANCH  32  33
ENDBRANCH  31  32
ENDBRANCH  30  31
ENDBRANCH   1  30
TORSDOF 24
ENDMDL
