MODEL 1
REMARK VINA RESULT:     -10.1      0.000      0.000
REMARK SMILES C[N@@H+]1CC[C@H]2CN(C(=O)c3csc(-c4ccncc4)n3)C[C@@]2(C(=O)OCCOCCOCCOC(=O)c2ccc(-c3c4nc(c(-c5cc(S(=O)(=O)[O-])ccc5F)c5ccc([nH]5)c(-c5cc(S(=O)(=O)[O-])ccc5F)c5nc(c(-c6cc(S(=O)(=O)[O-])ccc6F)c6ccc3[nH]6)C=C5)C=C4)cc2)C1
REMARK SMILES IDX 29 1 28 2 27 3 26 4 25 5 23 6 24 7 22 8 1 9 2 10 3 11 100 12
REMARK SMILES IDX 4 14 5 15 21 16 6 17 7 18 8 19 9 20 10 21 11 22 20 23 12 24
REMARK SMILES IDX 13 25 14 26 15 27 19 28 16 29 18 30 17 31 30 32 31 33 32 34
REMARK SMILES IDX 33 35 34 36 35 37 36 38 37 39 38 40 99 41 39 42 98 43 40 44
REMARK SMILES IDX 41 45 42 46 92 47 43 48 97 49 91 50 93 51 44 52 96 53 90 54
REMARK SMILES IDX 89 55 45 57 77 58 57 59 76 60 58 61 61 62 75 63 94 64 59 65
REMARK SMILES IDX 60 66 74 68 95 69 62 70 46 71 47 72 55 73 48 74 54 75 56 76
REMARK SMILES IDX 53 77 49 78 50 79 51 80 52 81 78 82 79 83 87 84 80 85 86 86
REMARK SMILES IDX 88 87 85 88 81 89 82 90 83 91 84 92 63 93 64 94 72 95 65 96
REMARK SMILES IDX 71 97 73 98 70 99 66 100 67 101 68 102 69 103
REMARK H PARENT 2 13 93 56 61 67
REMARK Flexibility Score: inf
ROOT
ATOM      1  C   UNL A   1      39.000  23.643  26.514  1.00  0.00     0.188 C 
ENDROOT
BRANCH   1   2
ATOM      2  O   UNL A   1      37.847  24.067  25.778  1.00  0.00    -0.376 OA
BRANCH   2   3
ATOM      3  C   UNL A   1      36.844  23.053  25.621  1.00  0.00     0.202 C 
BRANCH   3   4
ATOM      4  C   UNL A   1      35.532  23.467  26.315  1.00  0.00     0.261 C 
BRANCH   4   5
ATOM      5  O   UNL A   1      34.487  22.550  25.937  1.00  0.00    -0.463 OA
BRANCH   5   6
ATOM      6  C   UNL A   1      33.310  22.389  26.640  1.00  0.00     0.320 C 
ATOM      7  O   UNL A   1      33.213  22.378  27.851  1.00  0.00    -0.251 OA
BRANCH   6   8
ATOM      8  C   UNL A   1      32.175  22.385  25.593  1.00  0.00     0.139 C 
ATOM      9  C   UNL A   1      33.925  19.481  24.684  1.00  0.00     0.332 C 
ATOM     10  N   UNL A   1      32.720  20.197  24.275  1.00  0.00    -0.336 N 
ATOM     11  C   UNL A   1      32.992  20.994  23.082  1.00  0.00     0.262 C 
ATOM     12  C   UNL A   1      31.952  20.874  25.336  1.00  0.00     0.283 C 
ATOM     13  H   UNL A   1      32.039  19.482  24.021  1.00  0.00     0.347 HD
ATOM     14  C   UNL A   1      32.063  22.176  23.004  1.00  0.00     0.068 C 
ATOM     15  C   UNL A   1      32.266  23.105  24.212  1.00  0.00     0.039 C 
ATOM     16  C   UNL A   1      31.040  23.176  26.323  1.00  0.00     0.145 C 
ATOM     17  C   UNL A   1      31.105  24.097  24.156  1.00  0.00     0.125 C 
ATOM     18  N   UNL A   1      30.818  24.371  25.521  1.00  0.00    -0.336 N 
BRANCH  18  19
ATOM     19  C   UNL A   1      30.205  25.560  25.864  1.00  0.00     0.273 C 
ATOM     20  O   UNL A   1      29.244  25.590  26.632  1.00  0.00    -0.267 OA
BRANCH  19  21
ATOM     21  C   UNL A   1      30.645  26.781  25.184  1.00  0.00     0.139 A 
ATOM     22  C   UNL A   1      31.840  27.411  25.487  1.00  0.00     0.101 A 
ATOM     23  N   UNL A   1      29.812  27.511  24.331  1.00  0.00    -0.231 NA
ATOM     24  S   UNL A   1      31.937  28.923  24.698  1.00  0.00    -0.122 S 
ATOM     25  C   UNL A   1      30.364  28.672  24.050  1.00  0.00     0.124 A 
BRANCH  25  26
ATOM     26  C   UNL A   1      29.724  29.745  23.294  1.00  0.00     0.013 A 
ATOM     27  C   UNL A   1      29.432  29.572  21.938  1.00  0.00     0.031 A 
ATOM     28  C   UNL A   1      29.398  30.953  23.908  1.00  0.00     0.031 A 
ATOM     29  C   UNL A   1      28.809  30.609  21.265  1.00  0.00     0.111 A 
ATOM     30  C   UNL A   1      28.783  31.932  23.147  1.00  0.00     0.111 A 
ATOM     31  N   UNL A   1      28.471  31.783  21.841  1.00  0.00    -0.265 NA
ENDBRANCH  25  26
ENDBRANCH  19  21
ENDBRANCH  18  19
ENDBRANCH   6   8
ENDBRANCH   5   6
ENDBRANCH   4   5
ENDBRANCH   3   4
ENDBRANCH   2   3
ENDBRANCH   1   2
BRANCH   1  32
ATOM     32  C   UNL A   1      39.185  22.125  26.342  1.00  0.00     0.188 C 
BRANCH  32  33
ATOM     33  O   UNL A   1      40.059  21.474  27.263  1.00  0.00    -0.376 OA
BRANCH  33  34
ATOM     34  C   UNL A   1      40.760  20.337  26.776  1.00  0.00     0.202 C 
BRANCH  34  35
ATOM     35  C   UNL A   1      42.182  20.567  26.234  1.00  0.00     0.261 C 
BRANCH  35  36
ATOM     36  O   UNL A   1      42.328  21.644  25.283  1.00  0.00    -0.460 OA
BRANCH  36  37
ATOM     37  C   UNL A   1      43.381  22.472  25.534  1.00  0.00     0.338 C 
ATOM     38  O   UNL A   1      44.543  22.269  25.228  1.00  0.00    -0.246 OA
BRANCH  37  39
ATOM     39  C   UNL A   1      42.955  23.739  26.174  1.00  0.00     0.060 A 
ATOM     40  C   UNL A   1      42.779  24.863  25.357  1.00  0.00     0.016 A 
ATOM     41  C   UNL A   1      42.913  23.878  27.564  1.00  0.00     0.016 A 
ATOM     42  C   UNL A   1      42.612  26.133  25.923  1.00  0.00     0.010 A 
ATOM     43  C   UNL A   1      42.757  25.156  28.129  1.00  0.00     0.010 A 
ATOM     44  C   UNL A   1      42.646  26.299  27.314  1.00  0.00    -0.014 A 
BRANCH  44  45
ATOM     45  C   UNL A   1      42.744  27.666  27.905  1.00  0.00     0.031 A 
ATOM     46  C   UNL A   1      44.099  28.316  28.027  1.00  0.00     0.074 A 
ATOM     47  C   UNL A   1      41.655  28.345  28.313  1.00  0.00     0.049 A 
ATOM     48  N   UNL A   1      44.429  29.463  28.565  1.00  0.00    -0.248 NA
ATOM     49  C   UNL A   1      45.232  27.565  27.470  1.00  0.00     0.031 C 
ATOM     50  C   UNL A   1      40.281  27.866  28.212  1.00  0.00     0.029 A 
ATOM     51  N   UNL A   1      41.536  29.583  28.900  1.00  0.00    -0.354 N 
ATOM     52  C   UNL A   1      45.808  29.572  28.418  1.00  0.00     0.074 A 
ATOM     53  C   UNL A   1      46.252  28.355  27.768  1.00  0.00     0.031 C 
ATOM     54  C   UNL A   1      39.454  28.797  28.720  1.00  0.00     0.029 A 
ATOM     55  C   UNL A   1      40.242  29.919  29.232  1.00  0.00     0.049 A 
ATOM     56  H   UNL A   1      42.304  30.176  29.068  1.00  0.00     0.167 HD
ATOM     57  C   UNL A   1      46.630  30.587  28.787  1.00  0.00     0.034 A 
ATOM     58  C   UNL A   1      39.752  30.987  29.897  1.00  0.00     0.034 A 
ATOM     59  C   UNL A   1      46.190  31.791  29.451  1.00  0.00     0.049 A 
ATOM     60  C   UNL A   1      40.698  32.059  30.392  1.00  0.00     0.074 A 
ATOM     61  C   UNL A   1      46.949  32.875  29.862  1.00  0.00     0.029 A 
ATOM     62  N   UNL A   1      44.881  32.069  29.819  1.00  0.00    -0.354 N 
ATOM     63  N   UNL A   1      42.001  32.144  30.251  1.00  0.00    -0.248 NA
ATOM     64  C   UNL A   1      40.104  33.180  31.136  1.00  0.00     0.031 C 
ATOM     65  C   UNL A   1      46.115  33.768  30.542  1.00  0.00     0.029 A 
ATOM     66  C   UNL A   1      44.818  33.287  30.481  1.00  0.00     0.049 A 
ATOM     67  H   UNL A   1      44.108  31.486  29.636  1.00  0.00     0.167 HD
ATOM     68  C   UNL A   1      42.372  33.344  30.858  1.00  0.00     0.074 A 
ATOM     69  C   UNL A   1      41.158  33.953  31.355  1.00  0.00     0.031 C 
ATOM     70  C   UNL A   1      43.607  33.895  30.985  1.00  0.00     0.034 A 
BRANCH  57  71
ATOM     71  C   UNL A   1      48.106  30.406  28.528  1.00  0.00     0.023 A 
ATOM     72  C   UNL A   1      48.926  29.666  29.398  1.00  0.00     0.031 A 
ATOM     73  C   UNL A   1      48.708  31.006  27.408  1.00  0.00     0.131 A 
ATOM     74  C   UNL A   1      50.310  29.608  29.174  1.00  0.00     0.055 A 
ATOM     75  C   UNL A   1      50.073  30.876  27.146  1.00  0.00     0.041 A 
ATOM     76  F   UNL A   1      47.980  31.742  26.553  1.00  0.00    -0.206 F 
ATOM     77  C   UNL A   1      50.886  30.187  28.041  1.00  0.00     0.022 A 
BRANCH  74  78
ATOM     78  S   UNL A   1      51.367  28.891  30.462  1.00  0.00     0.124 S 
ATOM     79  O   UNL A   1      52.637  29.570  30.212  1.00  0.00    -0.237 OA
ATOM     80  O   UNL A   1      50.671  29.266  31.686  1.00  0.00    -0.237 OA
ATOM     81  O   UNL A   1      51.363  27.462  30.153  1.00  0.00    -0.744 OA
ENDBRANCH  74  78
ENDBRANCH  57  71
BRANCH  58  82
ATOM     82  C   UNL A   1      38.293  31.087  30.203  1.00  0.00     0.023 A 
ATOM     83  C   UNL A   1      37.431  31.857  29.404  1.00  0.00     0.031 A 
ATOM     84  C   UNL A   1      37.756  30.481  31.353  1.00  0.00     0.131 A 
ATOM     85  C   UNL A   1      36.095  32.044  29.794  1.00  0.00     0.055 A 
ATOM     86  C   UNL A   1      36.413  30.621  31.705  1.00  0.00     0.041 A 
ATOM     87  F   UNL A   1      38.536  29.740  32.157  1.00  0.00    -0.206 F 
ATOM     88  C   UNL A   1      35.577  31.419  30.930  1.00  0.00     0.022 A 
BRANCH  85  89
ATOM     89  S   UNL A   1      35.064  33.197  28.846  1.00  0.00     0.124 S 
ATOM     90  O   UNL A   1      34.995  32.534  27.549  1.00  0.00    -0.237 OA
ATOM     91  O   UNL A   1      33.832  33.213  29.626  1.00  0.00    -0.237 OA
ATOM     92  O   UNL A   1      35.832  34.440  28.873  1.00  0.00    -0.744 OA
ENDBRANCH  85  89
ENDBRANCH  58  82
BRANCH  70  93
ATOM     93  C   UNL A   1      43.702  35.257  31.635  1.00  0.00     0.023 A 
ATOM     94  C   UNL A   1      43.618  35.429  33.029  1.00  0.00     0.031 A 
ATOM     95  C   UNL A   1      43.877  36.405  30.841  1.00  0.00     0.131 A 
ATOM     96  C   UNL A   1      43.660  36.721  33.580  1.00  0.00     0.055 A 
ATOM     97  C   UNL A   1      43.977  37.681  31.399  1.00  0.00     0.041 A 
ATOM     98  F   UNL A   1      43.962  36.305  29.505  1.00  0.00    -0.206 F 
ATOM     99  C   UNL A   1      43.855  37.846  32.775  1.00  0.00     0.022 A 
BRANCH  96 100
ATOM    100  S   UNL A   1      43.369  36.925  35.360  1.00  0.00     0.124 S 
ATOM    101  O   UNL A   1      43.923  38.251  35.610  1.00  0.00    -0.237 OA
ATOM    102  O   UNL A   1      41.916  36.813  35.454  1.00  0.00    -0.237 OA
ATOM    103  O   UNL A   1      44.113  35.819  35.959  1.00  0.00    -0.744 OA
ENDBRANCH  96 100
ENDBRANCH  70  93
ENDBRANCH  44  45
ENDBRANCH  37  39
ENDBRANCH  36  37
ENDBRANCH  35  36
ENDBRANCH  34  35
ENDBRANCH  33  34
ENDBRANCH  32  33
ENDBRANCH   1  32
TORSDOF 23
ENDMDL
MODEL 2
REMARK VINA RESULT:      -9.8      2.707      3.432
REMARK SMILES C[N@@H+]1CC[C@H]2CN(C(=O)c3csc(-c4ccncc4)n3)C[C@@]2(C(=O)OCCOCCOCCOC(=O)c2ccc(-c3c4nc(c(-c5cc(S(=O)(=O)[O-])ccc5F)c5ccc([nH]5)c(-c5cc(S(=O)(=O)[O-])ccc5F)c5nc(c(-c6cc(S(=O)(=O)[O-])ccc6F)c6ccc3[nH]6)C=C5)C=C4)cc2)C1
REMARK SMILES IDX 29 1 28 2 27 3 26 4 25 5 23 6 24 7 22 8 1 9 2 10 3 11 100 12
REMARK SMILES IDX 4 14 5 15 21 16 6 17 7 18 8 19 9 20 10 21 11 22 20 23 12 24
REMARK SMILES IDX 13 25 14 26 15 27 19 28 16 29 18 30 17 31 30 32 31 33 32 34
REMARK SMILES IDX 33 35 34 36 35 37 36 38 37 39 38 40 99 41 39 42 98 43 40 44
REMARK SMILES IDX 41 45 42 46 92 47 43 48 97 49 91 50 93 51 44 52 96 53 90 54
REMARK SMILES IDX 89 55 45 57 77 58 57 59 76 60 58 61 61 62 75 63 94 64 59 65
REMARK SMILES IDX 60 66 74 68 95 69 62 70 46 71 47 72 55 73 48 74 54 75 56 76
REMARK SMILES IDX 53 77 49 78 50 79 51 80 52 81 78 82 79 83 87 84 80 85 86 86
REMARK SMILES IDX 88 87 85 88 81 89 82 90 83 91 84 92 63 93 64 94 72 95 65 96
REMARK SMILES IDX 71 97 73 98 70 99 66 100 67 101 68 102 69 103
REMARK H PARENT 2 13 93 56 61 67
REMARK Flexibility Score: inf
ROOT
ATOM      1  C   UNL A   1      38.225  23.553  26.074  1.00  0.00     0.188 C 
ENDROOT
BRANCH   1   2
ATOM      2  O   UNL A   1      37.740  22.208  26.155  1.00  0.00    -0.376 OA
BRANCH   2   3
ATOM      3  C   UNL A   1      37.612  21.550  24.886  1.00  0.00     0.202 C 
BRANCH   3   4
ATOM      4  C   UNL A   1      36.335  20.690  24.839  1.00  0.00     0.261 C 
BRANCH   4   5
ATOM      5  O   UNL A   1      35.183  21.546  24.964  1.00  0.00    -0.463 OA
BRANCH   5   6
ATOM      6  C   UNL A   1      34.229  21.418  25.953  1.00  0.00     0.320 C 
ATOM      7  O   UNL A   1      34.462  21.319  27.142  1.00  0.00    -0.251 OA
BRANCH   6   8
ATOM      8  C   UNL A   1      32.859  21.581  25.261  1.00  0.00     0.139 C 
ATOM      9  C   UNL A   1      33.674  18.289  24.353  1.00  0.00     0.332 C 
ATOM     10  N   UNL A   1      32.563  19.220  24.181  1.00  0.00    -0.336 N 
ATOM     11  C   UNL A   1      32.621  19.829  22.856  1.00  0.00     0.262 C 
ATOM     12  C   UNL A   1      32.285  20.142  25.299  1.00  0.00     0.283 C 
ATOM     13  H   UNL A   1      31.713  18.658  24.227  1.00  0.00     0.347 HD
ATOM     14  C   UNL A   1      31.955  21.180  22.857  1.00  0.00     0.068 C 
ATOM     15  C   UNL A   1      32.678  22.139  23.816  1.00  0.00     0.039 C 
ATOM     16  C   UNL A   1      32.162  22.668  26.144  1.00  0.00     0.145 C 
ATOM     17  C   UNL A   1      31.764  23.359  23.928  1.00  0.00     0.125 C 
ATOM     18  N   UNL A   1      31.949  23.808  25.264  1.00  0.00    -0.336 N 
BRANCH  18  19
ATOM     19  C   UNL A   1      31.703  25.129  25.580  1.00  0.00     0.273 C 
ATOM     20  O   UNL A   1      31.452  25.479  26.733  1.00  0.00    -0.267 OA
BRANCH  19  21
ATOM     21  C   UNL A   1      31.618  26.095  24.480  1.00  0.00     0.139 A 
ATOM     22  C   UNL A   1      32.740  26.597  23.844  1.00  0.00     0.101 A 
ATOM     23  N   UNL A   1      30.425  26.731  24.125  1.00  0.00    -0.231 NA
ATOM     24  S   UNL A   1      32.311  27.868  22.786  1.00  0.00    -0.122 S 
ATOM     25  C   UNL A   1      30.672  27.709  23.281  1.00  0.00     0.124 A 
BRANCH  25  26
ATOM     26  C   UNL A   1      29.684  28.671  22.798  1.00  0.00     0.013 A 
ATOM     27  C   UNL A   1      30.088  29.766  22.030  1.00  0.00     0.031 A 
ATOM     28  C   UNL A   1      28.332  28.514  23.097  1.00  0.00     0.031 A 
ATOM     29  C   UNL A   1      29.117  30.643  21.578  1.00  0.00     0.111 A 
ATOM     30  C   UNL A   1      27.438  29.450  22.604  1.00  0.00     0.111 A 
ATOM     31  N   UNL A   1      27.799  30.505  21.843  1.00  0.00    -0.265 NA
ENDBRANCH  25  26
ENDBRANCH  19  21
ENDBRANCH  18  19
ENDBRANCH   6   8
ENDBRANCH   5   6
ENDBRANCH   4   5
ENDBRANCH   3   4
ENDBRANCH   2   3
ENDBRANCH   1   2
BRANCH   1  32
ATOM     32  C   UNL A   1      39.251  23.792  27.195  1.00  0.00     0.188 C 
BRANCH  32  33
ATOM     33  O   UNL A   1      40.078  22.686  27.558  1.00  0.00    -0.376 OA
BRANCH  33  34
ATOM     34  C   UNL A   1      41.330  22.586  26.893  1.00  0.00     0.202 C 
BRANCH  34  35
ATOM     35  C   UNL A   1      42.259  23.811  26.956  1.00  0.00     0.261 C 
BRANCH  35  36
ATOM     36  O   UNL A   1      42.097  24.782  25.900  1.00  0.00    -0.460 OA
BRANCH  36  37
ATOM     37  C   UNL A   1      43.268  25.248  25.384  1.00  0.00     0.338 C 
ATOM     38  O   UNL A   1      44.006  24.648  24.621  1.00  0.00    -0.246 OA
BRANCH  37  39
ATOM     39  C   UNL A   1      43.541  26.646  25.790  1.00  0.00     0.060 A 
ATOM     40  C   UNL A   1      44.551  26.874  26.732  1.00  0.00     0.016 A 
ATOM     41  C   UNL A   1      42.703  27.696  25.404  1.00  0.00     0.016 A 
ATOM     42  C   UNL A   1      44.696  28.133  27.328  1.00  0.00     0.010 A 
ATOM     43  C   UNL A   1      42.843  28.956  26.012  1.00  0.00     0.010 A 
ATOM     44  C   UNL A   1      43.814  29.174  27.008  1.00  0.00    -0.014 A 
BRANCH  44  45
ATOM     45  C   UNL A   1      43.790  30.418  27.832  1.00  0.00     0.031 A 
ATOM     46  C   UNL A   1      44.849  31.468  27.606  1.00  0.00     0.074 A 
ATOM     47  C   UNL A   1      42.838  30.641  28.758  1.00  0.00     0.049 A 
ATOM     48  N   UNL A   1      45.062  32.590  28.246  1.00  0.00    -0.248 NA
ATOM     49  C   UNL A   1      45.796  31.209  26.512  1.00  0.00     0.031 C 
ATOM     50  C   UNL A   1      41.727  29.743  29.052  1.00  0.00     0.029 A 
ATOM     51  N   UNL A   1      42.657  31.692  29.627  1.00  0.00    -0.354 N 
ATOM     52  C   UNL A   1      46.169  33.172  27.638  1.00  0.00     0.074 A 
ATOM     53  C   UNL A   1      46.600  32.257  26.600  1.00  0.00     0.031 C 
ATOM     54  C   UNL A   1      40.978  30.277  30.033  1.00  0.00     0.029 A 
ATOM     55  C   UNL A   1      41.584  31.534  30.476  1.00  0.00     0.049 A 
ATOM     56  H   UNL A   1      43.240  32.486  29.641  1.00  0.00     0.167 HD
ATOM     57  C   UNL A   1      46.774  34.356  27.915  1.00  0.00     0.034 A 
ATOM     58  C   UNL A   1      41.159  32.292  31.508  1.00  0.00     0.034 A 
ATOM     59  C   UNL A   1      46.356  35.259  28.961  1.00  0.00     0.049 A 
ATOM     60  C   UNL A   1      41.909  33.557  31.867  1.00  0.00     0.074 A 
ATOM     61  C   UNL A   1      46.905  36.480  29.315  1.00  0.00     0.029 A 
ATOM     62  N   UNL A   1      45.300  35.037  29.834  1.00  0.00    -0.354 N 
ATOM     63  N   UNL A   1      42.960  34.091  31.288  1.00  0.00    -0.248 NA
ATOM     64  C   UNL A   1      41.412  34.321  33.022  1.00  0.00     0.031 C 
ATOM     65  C   UNL A   1      46.231  36.958  30.444  1.00  0.00     0.029 A 
ATOM     66  C   UNL A   1      45.205  36.079  30.745  1.00  0.00     0.049 A 
ATOM     67  H   UNL A   1      44.704  34.253  29.811  1.00  0.00     0.167 HD
ATOM     68  C   UNL A   1      43.224  35.268  31.987  1.00  0.00     0.074 A 
ATOM     69  C   UNL A   1      42.218  35.373  33.022  1.00  0.00     0.031 C 
ATOM     70  C   UNL A   1      44.206  36.183  31.784  1.00  0.00     0.034 A 
BRANCH  57  71
ATOM     71  C   UNL A   1      47.995  34.712  27.102  1.00  0.00     0.023 A 
ATOM     72  C   UNL A   1      49.291  34.369  27.523  1.00  0.00     0.031 A 
ATOM     73  C   UNL A   1      47.861  35.430  25.900  1.00  0.00     0.131 A 
ATOM     74  C   UNL A   1      50.403  34.808  26.789  1.00  0.00     0.055 A 
ATOM     75  C   UNL A   1      48.968  35.793  25.131  1.00  0.00     0.041 A 
ATOM     76  F   UNL A   1      46.650  35.803  25.458  1.00  0.00    -0.206 F 
ATOM     77  C   UNL A   1      50.251  35.496  25.583  1.00  0.00     0.022 A 
BRANCH  74  78
ATOM     78  S   UNL A   1      52.055  34.596  27.508  1.00  0.00     0.124 S 
ATOM     79  O   UNL A   1      52.046  33.175  27.852  1.00  0.00    -0.237 OA
ATOM     80  O   UNL A   1      52.930  34.981  26.408  1.00  0.00    -0.237 OA
ATOM     81  O   UNL A   1      52.051  35.506  28.652  1.00  0.00    -0.744 OA
ENDBRANCH  74  78
ENDBRANCH  57  71
BRANCH  58  82
ATOM     82  C   UNL A   1      39.994  31.861  32.338  1.00  0.00     0.023 A 
ATOM     83  C   UNL A   1      38.701  32.351  32.090  1.00  0.00     0.031 A 
ATOM     84  C   UNL A   1      40.175  31.017  33.448  1.00  0.00     0.131 A 
ATOM     85  C   UNL A   1      37.652  32.036  32.970  1.00  0.00     0.055 A 
ATOM     86  C   UNL A   1      39.117  30.659  34.286  1.00  0.00     0.041 A 
ATOM     87  F   UNL A   1      41.391  30.526  33.738  1.00  0.00    -0.206 F 
ATOM     88  C   UNL A   1      37.849  31.181  34.057  1.00  0.00     0.022 A 
BRANCH  85  89
ATOM     89  S   UNL A   1      36.042  32.838  32.729  1.00  0.00     0.124 S 
ATOM     90  O   UNL A   1      36.434  34.112  32.138  1.00  0.00    -0.237 OA
ATOM     91  O   UNL A   1      35.366  31.899  31.841  1.00  0.00    -0.237 OA
ATOM     92  O   UNL A   1      35.497  32.917  34.082  1.00  0.00    -0.744 OA
ENDBRANCH  85  89
ENDBRANCH  58  82
BRANCH  70  93
ATOM     93  C   UNL A   1      44.206  37.415  32.662  1.00  0.00     0.023 A 
ATOM     94  C   UNL A   1      43.670  38.643  32.231  1.00  0.00     0.031 A 
ATOM     95  C   UNL A   1      44.759  37.358  33.955  1.00  0.00     0.131 A 
ATOM     96  C   UNL A   1      43.743  39.771  33.065  1.00  0.00     0.055 A 
ATOM     97  C   UNL A   1      44.776  38.468  34.801  1.00  0.00     0.041 A 
ATOM     98  F   UNL A   1      45.289  36.215  34.421  1.00  0.00    -0.206 F 
ATOM     99  C   UNL A   1      44.278  39.687  34.353  1.00  0.00     0.022 A 
BRANCH  96 100
ATOM    100  S   UNL A   1      43.208  41.379  32.413  1.00  0.00     0.124 S 
ATOM    101  O   UNL A   1      43.921  41.445  31.142  1.00  0.00    -0.237 OA
ATOM    102  O   UNL A   1      41.761  41.213  32.324  1.00  0.00    -0.237 OA
ATOM    103  O   UNL A   1      43.660  42.329  33.428  1.00  0.00    -0.744 OA
ENDBRANCH  96 100
ENDBRANCH  70  93
ENDBRANCH  44  45
ENDBRANCH  37  39
ENDBRANCH  36  37
ENDBRANCH  35  36
ENDBRANCH  34  35
ENDBRANCH  33  34
ENDBRANCH  32  33
ENDBRANCH   1  32
TORSDOF 23
ENDMDL
MODEL 3
REMARK VINA RESULT:      -9.7      3.143      4.190
REMARK SMILES C[N@@H+]1CC[C@H]2CN(C(=O)c3csc(-c4ccncc4)n3)C[C@@]2(C(=O)OCCOCCOCCOC(=O)c2ccc(-c3c4nc(c(-c5cc(S(=O)(=O)[O-])ccc5F)c5ccc([nH]5)c(-c5cc(S(=O)(=O)[O-])ccc5F)c5nc(c(-c6cc(S(=O)(=O)[O-])ccc6F)c6ccc3[nH]6)C=C5)C=C4)cc2)C1
REMARK SMILES IDX 29 1 28 2 27 3 26 4 25 5 23 6 24 7 22 8 1 9 2 10 3 11 100 12
REMARK SMILES IDX 4 14 5 15 21 16 6 17 7 18 8 19 9 20 10 21 11 22 20 23 12 24
REMARK SMILES IDX 13 25 14 26 15 27 19 28 16 29 18 30 17 31 30 32 31 33 32 34
REMARK SMILES IDX 33 35 34 36 35 37 36 38 37 39 38 40 99 41 39 42 98 43 40 44
REMARK SMILES IDX 41 45 42 46 92 47 43 48 97 49 91 50 93 51 44 52 96 53 90 54
REMARK SMILES IDX 89 55 45 57 77 58 57 59 76 60 58 61 61 62 75 63 94 64 59 65
REMARK SMILES IDX 60 66 74 68 95 69 62 70 46 71 47 72 55 73 48 74 54 75 56 76
REMARK SMILES IDX 53 77 49 78 50 79 51 80 52 81 78 82 79 83 87 84 80 85 86 86
REMARK SMILES IDX 88 87 85 88 81 89 82 90 83 91 84 92 63 93 64 94 72 95 65 96
REMARK SMILES IDX 71 97 73 98 70 99 66 100 67 101 68 102 69 103
REMARK H PARENT 2 13 93 56 61 67
REMARK Flexibility Score: inf
ROOT
ATOM      1  C   UNL A   1      38.504  23.620  26.243  1.00  0.00     0.188 C 
ENDROOT
BRANCH   1   2
ATOM      2  O   UNL A   1      37.834  22.355  26.200  1.00  0.00    -0.376 OA
BRANCH   2   3
ATOM      3  C   UNL A   1      37.595  21.859  24.875  1.00  0.00     0.202 C 
BRANCH   3   4
ATOM      4  C   UNL A   1      36.144  21.365  24.727  1.00  0.00     0.261 C 
BRANCH   4   5
ATOM      5  O   UNL A   1      35.250  22.492  24.798  1.00  0.00    -0.463 OA
BRANCH   5   6
ATOM      6  C   UNL A   1      34.272  22.642  25.760  1.00  0.00     0.320 C 
ATOM      7  O   UNL A   1      34.474  22.755  26.954  1.00  0.00    -0.251 OA
BRANCH   6   8
ATOM      8  C   UNL A   1      32.935  22.789  25.003  1.00  0.00     0.139 C 
ATOM      9  C   UNL A   1      33.220  19.295  25.174  1.00  0.00     0.332 C 
ATOM     10  N   UNL A   1      32.264  20.285  24.686  1.00  0.00    -0.336 N 
ATOM     11  C   UNL A   1      32.400  20.441  23.241  1.00  0.00     0.262 C 
ATOM     12  C   UNL A   1      32.145  21.536  25.457  1.00  0.00     0.283 C 
ATOM     13  H   UNL A   1      31.338  19.899  24.871  1.00  0.00     0.347 HD
ATOM     14  C   UNL A   1      31.950  21.810  22.805  1.00  0.00     0.068 C 
ATOM     15  C   UNL A   1      32.824  22.898  23.451  1.00  0.00     0.039 C 
ATOM     16  C   UNL A   1      32.425  24.187  25.486  1.00  0.00     0.145 C 
ATOM     17  C   UNL A   1      32.111  24.216  23.152  1.00  0.00     0.125 C 
ATOM     18  N   UNL A   1      32.379  25.020  24.293  1.00  0.00    -0.336 N 
BRANCH  18  19
ATOM     19  C   UNL A   1      32.345  26.396  24.181  1.00  0.00     0.273 C 
ATOM     20  O   UNL A   1      32.332  26.952  23.083  1.00  0.00    -0.267 OA
BRANCH  19  21
ATOM     21  C   UNL A   1      32.458  27.189  25.408  1.00  0.00     0.139 A 
ATOM     22  C   UNL A   1      31.387  27.398  26.260  1.00  0.00     0.101 A 
ATOM     23  N   UNL A   1      33.587  27.957  25.709  1.00  0.00    -0.231 NA
ATOM     24  S   UNL A   1      31.786  28.553  27.454  1.00  0.00    -0.122 S 
ATOM     25  C   UNL A   1      33.335  28.745  26.732  1.00  0.00     0.124 A 
BRANCH  25  26
ATOM     26  C   UNL A   1      34.236  29.776  27.240  1.00  0.00     0.013 A 
ATOM     27  C   UNL A   1      35.563  29.461  27.544  1.00  0.00     0.031 A 
ATOM     28  C   UNL A   1      33.789  31.082  27.432  1.00  0.00     0.031 A 
ATOM     29  C   UNL A   1      36.387  30.472  28.006  1.00  0.00     0.111 A 
ATOM     30  C   UNL A   1      34.689  32.021  27.906  1.00  0.00     0.111 A 
ATOM     31  N   UNL A   1      35.981  31.748  28.188  1.00  0.00    -0.265 NA
ENDBRANCH  25  26
ENDBRANCH  19  21
ENDBRANCH  18  19
ENDBRANCH   6   8
ENDBRANCH   5   6
ENDBRANCH   4   5
ENDBRANCH   3   4
ENDBRANCH   2   3
ENDBRANCH   1   2
BRANCH   1  32
ATOM     32  C   UNL A   1      39.609  23.575  27.312  1.00  0.00     0.188 C 
BRANCH  32  33
ATOM     33  O   UNL A   1      40.459  22.429  27.312  1.00  0.00    -0.376 OA
BRANCH  33  34
ATOM     34  C   UNL A   1      41.695  22.557  26.622  1.00  0.00     0.202 C 
BRANCH  34  35
ATOM     35  C   UNL A   1      42.550  23.798  26.935  1.00  0.00     0.261 C 
BRANCH  35  36
ATOM     36  O   UNL A   1      42.291  24.964  26.124  1.00  0.00    -0.460 OA
BRANCH  36  37
ATOM     37  C   UNL A   1      43.402  25.505  25.551  1.00  0.00     0.338 C 
ATOM     38  O   UNL A   1      44.140  24.952  24.753  1.00  0.00    -0.246 OA
BRANCH  37  39
ATOM     39  C   UNL A   1      43.601  26.920  25.942  1.00  0.00     0.060 A 
ATOM     40  C   UNL A   1      44.698  27.231  26.755  1.00  0.00     0.016 A 
ATOM     41  C   UNL A   1      42.633  27.894  25.680  1.00  0.00     0.016 A 
ATOM     42  C   UNL A   1      44.806  28.495  27.349  1.00  0.00     0.010 A 
ATOM     43  C   UNL A   1      42.738  29.158  26.287  1.00  0.00     0.010 A 
ATOM     44  C   UNL A   1      43.803  29.456  27.158  1.00  0.00    -0.014 A 
BRANCH  44  45
ATOM     45  C   UNL A   1      43.775  30.689  27.999  1.00  0.00     0.031 A 
ATOM     46  C   UNL A   1      44.803  31.765  27.757  1.00  0.00     0.074 A 
ATOM     47  C   UNL A   1      42.844  30.878  28.953  1.00  0.00     0.049 A 
ATOM     48  N   UNL A   1      45.009  32.884  28.405  1.00  0.00    -0.248 NA
ATOM     49  C   UNL A   1      45.725  31.541  26.634  1.00  0.00     0.031 C 
ATOM     50  C   UNL A   1      41.763  29.952  29.266  1.00  0.00     0.029 A 
ATOM     51  N   UNL A   1      42.664  31.915  29.840  1.00  0.00    -0.354 N 
ATOM     52  C   UNL A   1      46.086  33.498  27.774  1.00  0.00     0.074 A 
ATOM     53  C   UNL A   1      46.508  32.606  26.713  1.00  0.00     0.031 C 
ATOM     54  C   UNL A   1      41.029  30.457  30.274  1.00  0.00     0.029 A 
ATOM     55  C   UNL A   1      41.620  31.721  30.716  1.00  0.00     0.049 A 
ATOM     56  H   UNL A   1      43.230  32.721  29.848  1.00  0.00     0.167 HD
ATOM     57  C   UNL A   1      46.671  34.692  28.049  1.00  0.00     0.034 A 
ATOM     58  C   UNL A   1      41.206  32.457  31.770  1.00  0.00     0.034 A 
ATOM     59  C   UNL A   1      46.263  35.572  29.118  1.00  0.00     0.049 A 
ATOM     60  C   UNL A   1      41.938  33.734  32.124  1.00  0.00     0.074 A 
ATOM     61  C   UNL A   1      46.794  36.801  29.473  1.00  0.00     0.029 A 
ATOM     62  N   UNL A   1      45.237  35.315  30.018  1.00  0.00    -0.354 N 
ATOM     63  N   UNL A   1      42.960  34.298  31.523  1.00  0.00    -0.248 NA
ATOM     64  C   UNL A   1      41.457  34.473  33.302  1.00  0.00     0.031 C 
ATOM     65  C   UNL A   1      46.142  37.250  30.626  1.00  0.00     0.029 A 
ATOM     66  C   UNL A   1      45.144  36.344  30.945  1.00  0.00     0.049 A 
ATOM     67  H   UNL A   1      44.658  34.518  30.000  1.00  0.00     0.167 HD
ATOM     68  C   UNL A   1      43.217  35.473  32.230  1.00  0.00     0.074 A 
ATOM     69  C   UNL A   1      42.238  35.542  33.293  1.00  0.00     0.031 C 
ATOM     70  C   UNL A   1      44.172  36.413  32.012  1.00  0.00     0.034 A 
BRANCH  57  71
ATOM     71  C   UNL A   1      47.861  35.085  27.208  1.00  0.00     0.023 A 
ATOM     72  C   UNL A   1      49.173  34.733  27.569  1.00  0.00     0.031 A 
ATOM     73  C   UNL A   1      47.682  35.848  26.040  1.00  0.00     0.131 A 
ATOM     74  C   UNL A   1      50.256  35.206  26.813  1.00  0.00     0.055 A 
ATOM     75  C   UNL A   1      48.759  36.247  25.247  1.00  0.00     0.041 A 
ATOM     76  F   UNL A   1      46.454  36.232  25.657  1.00  0.00    -0.206 F 
ATOM     77  C   UNL A   1      50.058  35.939  25.641  1.00  0.00     0.022 A 
BRANCH  74  78
ATOM     78  S   UNL A   1      51.934  34.975  27.464  1.00  0.00     0.124 S 
ATOM     79  O   UNL A   1      52.127  33.538  27.277  1.00  0.00    -0.237 OA
ATOM     80  O   UNL A   1      52.728  35.843  26.604  1.00  0.00    -0.237 OA
ATOM     81  O   UNL A   1      51.824  35.405  28.856  1.00  0.00    -0.744 OA
ENDBRANCH  74  78
ENDBRANCH  57  71
BRANCH  58  82
ATOM     82  C   UNL A   1      40.075  31.989  32.626  1.00  0.00     0.023 A 
ATOM     83  C   UNL A   1      38.791  32.547  32.506  1.00  0.00     0.031 A 
ATOM     84  C   UNL A   1      40.285  31.036  33.638  1.00  0.00     0.131 A 
ATOM     85  C   UNL A   1      37.783  32.185  33.415  1.00  0.00     0.055 A 
ATOM     86  C   UNL A   1      39.264  30.636  34.502  1.00  0.00     0.041 A 
ATOM     87  F   UNL A   1      41.494  30.476  33.803  1.00  0.00    -0.206 F 
ATOM     88  C   UNL A   1      38.007  31.223  34.402  1.00  0.00     0.022 A 
BRANCH  85  89
ATOM     89  S   UNL A   1      36.197  33.065  33.352  1.00  0.00     0.124 S 
ATOM     90  O   UNL A   1      35.816  33.089  34.759  1.00  0.00    -0.237 OA
ATOM     91  O   UNL A   1      36.584  34.344  32.769  1.00  0.00    -0.237 OA
ATOM     92  O   UNL A   1      35.372  32.216  32.495  1.00  0.00    -0.744 OA
ENDBRANCH  85  89
ENDBRANCH  58  82
BRANCH  70  93
ATOM     93  C   UNL A   1      44.170  37.633  32.905  1.00  0.00     0.023 A 
ATOM     94  C   UNL A   1      43.522  38.828  32.540  1.00  0.00     0.031 A 
ATOM     95  C   UNL A   1      44.834  37.599  34.146  1.00  0.00     0.131 A 
ATOM     96  C   UNL A   1      43.594  39.950  33.382  1.00  0.00     0.055 A 
ATOM     97  C   UNL A   1      44.853  38.699  35.004  1.00  0.00     0.041 A 
ATOM     98  F   UNL A   1      45.473  36.488  34.547  1.00  0.00    -0.206 F 
ATOM     99  C   UNL A   1      44.241  39.888  34.619  1.00  0.00     0.022 A 
BRANCH  96 100
ATOM    100  S   UNL A   1      42.904  41.526  32.803  1.00  0.00     0.124 S 
ATOM    101  O   UNL A   1      42.555  41.216  31.421  1.00  0.00    -0.237 OA
ATOM    102  O   UNL A   1      41.782  41.729  33.713  1.00  0.00    -0.237 OA
ATOM    103  O   UNL A   1      44.011  42.467  32.967  1.00  0.00    -0.744 OA
ENDBRANCH  96 100
ENDBRANCH  70  93
ENDBRANCH  44  45
ENDBRANCH  37  39
ENDBRANCH  36  37
ENDBRANCH  35  36
ENDBRANCH  34  35
ENDBRANCH  33  34
ENDBRANCH  32  33
ENDBRANCH   1  32
TORSDOF 23
ENDMDL
