MODEL 1
REMARK VINA RESULT:     -10.6      0.000      0.000
REMARK SMILES O=C(C[C@@H](c1cccc([N+](=O)[O-])c1)N1Cc2ccccc2C1=O)OCCOCCOCCOC(=O)c1ccc(-c2c3nc(c(-c4cc(S(=O)(=O)[O-])ccc4F)c4ccc([nH]4)c(-c4cc(S(=O)(=O)[O-])ccc4F)c4nc(c(-c5cc(S(=O)(=O)[O-])ccc5F)c5ccc2[nH]5)C=C4)C=C3)cc1
REMARK SMILES IDX 28 1 27 2 26 3 25 4 24 5 2 6 1 7 3 8 4 9 5 10 6 11 13 12
REMARK SMILES IDX 7 13 9 14 8 15 10 16 11 17 12 18 14 19 15 20 22 21 16 22
REMARK SMILES IDX 21 23 23 24 17 25 20 26 18 27 19 28 29 29 30 30 31 31 32 32
REMARK SMILES IDX 33 33 34 34 35 35 36 36 37 37 98 38 38 39 97 40 39 41 40 42
REMARK SMILES IDX 41 43 91 44 42 45 96 46 90 47 92 48 43 49 95 50 89 51 88 52
REMARK SMILES IDX 44 54 76 55 56 56 75 57 57 58 60 59 74 60 93 61 58 62 59 63
REMARK SMILES IDX 73 65 94 66 61 67 45 68 46 69 54 70 47 71 53 72 55 73 52 74
REMARK SMILES IDX 48 75 49 76 50 77 51 78 77 79 78 80 86 81 79 82 85 83 87 84
REMARK SMILES IDX 84 85 80 86 81 87 82 88 83 89 62 90 63 91 71 92 64 93 70 94
REMARK SMILES IDX 72 95 69 96 65 97 66 98 67 99 68 100
REMARK H PARENT 92 53 60 64
REMARK Flexibility Score: inf
ROOT
ATOM      1  C   UNL A   1      36.186  22.534  25.742  1.00  0.00     0.188 C 
ENDROOT
BRANCH   1   2
ATOM      2  O   UNL A   1      34.951  23.097  25.312  1.00  0.00    -0.376 OA
BRANCH   2   3
ATOM      3  C   UNL A   1      34.984  23.831  24.090  1.00  0.00     0.202 C 
BRANCH   3   4
ATOM      4  C   UNL A   1      34.269  23.193  22.902  1.00  0.00     0.261 C 
BRANCH   4   5
ATOM      5  O   UNL A   1      32.819  23.297  22.802  1.00  0.00    -0.463 OA
BRANCH   5   6
ATOM      6  C   UNL A   1      31.803  23.159  23.673  1.00  0.00     0.308 C 
ATOM      7  O   UNL A   1      31.858  22.267  24.519  1.00  0.00    -0.252 OA
BRANCH   6   8
ATOM      8  C   UNL A   1      30.629  24.088  23.640  1.00  0.00     0.152 C 
BRANCH   8   9
ATOM      9  C   UNL A   1      31.005  25.571  23.546  1.00  0.00     0.127 C 
BRANCH   9  10
ATOM     10  C   UNL A   1      29.783  26.512  23.461  1.00  0.00    -0.018 A 
ATOM     11  C   UNL A   1      28.527  26.189  24.009  1.00  0.00     0.006 A 
ATOM     12  C   UNL A   1      29.911  27.756  22.813  1.00  0.00     0.091 A 
ATOM     13  C   UNL A   1      27.443  27.067  23.949  1.00  0.00     0.007 A 
ATOM     14  C   UNL A   1      28.807  28.618  22.712  1.00  0.00     0.269 A 
ATOM     15  C   UNL A   1      27.576  28.283  23.292  1.00  0.00     0.085 A 
BRANCH  14  16
ATOM     16  N   UNL A   1      28.921  29.869  21.953  1.00  0.00     0.062 N 
ATOM     17  O   UNL A   1      27.926  30.610  21.914  1.00  0.00    -0.258 OA
ATOM     18  O   UNL A   1      29.993  30.107  21.380  1.00  0.00    -0.258 OA
ENDBRANCH  14  16
ENDBRANCH   9  10
BRANCH   9  19
ATOM     19  N   UNL A   1      31.939  26.006  24.609  1.00  0.00    -0.327 N 
ATOM     20  C   UNL A   1      31.602  26.078  26.031  1.00  0.00     0.157 C 
ATOM     21  C   UNL A   1      32.935  26.932  24.289  1.00  0.00     0.255 C 
ATOM     22  C   UNL A   1      32.057  27.457  26.376  1.00  0.00    -0.016 A 
ATOM     23  C   UNL A   1      32.910  27.927  25.376  1.00  0.00     0.045 A 
ATOM     24  O   UNL A   1      33.523  27.078  23.233  1.00  0.00    -0.269 OA
ATOM     25  C   UNL A   1      31.562  28.309  27.348  1.00  0.00     0.006 A 
ATOM     26  C   UNL A   1      33.251  29.263  25.269  1.00  0.00     0.014 A 
ATOM     27  C   UNL A   1      31.888  29.665  27.253  1.00  0.00     0.000 A 
ATOM     28  C   UNL A   1      32.719  30.139  26.218  1.00  0.00     0.001 A 
ENDBRANCH   9  19
ENDBRANCH   8   9
ENDBRANCH   6   8
ENDBRANCH   5   6
ENDBRANCH   4   5
ENDBRANCH   3   4
ENDBRANCH   2   3
ENDBRANCH   1   2
BRANCH   1  29
ATOM     29  C   UNL A   1      36.667  21.292  24.986  1.00  0.00     0.188 C 
BRANCH  29  30
ATOM     30  O   UNL A   1      38.085  21.120  25.005  1.00  0.00    -0.376 OA
BRANCH  30  31
ATOM     31  C   UNL A   1      38.480  19.749  25.123  1.00  0.00     0.202 C 
BRANCH  31  32
ATOM     32  C   UNL A   1      39.723  19.537  26.005  1.00  0.00     0.261 C 
BRANCH  32  33
ATOM     33  O   UNL A   1      40.953  19.260  25.314  1.00  0.00    -0.460 OA
BRANCH  33  34
ATOM     34  C   UNL A   1      42.095  19.454  26.010  1.00  0.00     0.338 C 
ATOM     35  O   UNL A   1      42.960  18.626  26.236  1.00  0.00    -0.246 OA
BRANCH  34  36
ATOM     36  C   UNL A   1      42.177  20.875  26.399  1.00  0.00     0.060 A 
ATOM     37  C   UNL A   1      42.256  21.859  25.406  1.00  0.00     0.016 A 
ATOM     38  C   UNL A   1      42.269  21.221  27.749  1.00  0.00     0.016 A 
ATOM     39  C   UNL A   1      42.441  23.197  25.762  1.00  0.00     0.010 A 
ATOM     40  C   UNL A   1      42.490  22.554  28.104  1.00  0.00     0.010 A 
ATOM     41  C   UNL A   1      42.609  23.543  27.111  1.00  0.00    -0.014 A 
BRANCH  41  42
ATOM     42  C   UNL A   1      43.160  24.870  27.483  1.00  0.00     0.031 A 
ATOM     43  C   UNL A   1      42.233  25.853  28.147  1.00  0.00     0.074 A 
ATOM     44  C   UNL A   1      44.426  25.218  27.196  1.00  0.00     0.049 A 
ATOM     45  N   UNL A   1      42.429  27.108  28.454  1.00  0.00    -0.248 NA
ATOM     46  C   UNL A   1      40.899  25.345  28.498  1.00  0.00     0.031 C 
ATOM     47  C   UNL A   1      45.428  24.341  26.597  1.00  0.00     0.029 A 
ATOM     48  N   UNL A   1      45.074  26.419  27.352  1.00  0.00    -0.354 N 
ATOM     49  C   UNL A   1      41.245  27.541  29.040  1.00  0.00     0.074 A 
ATOM     50  C   UNL A   1      40.328  26.421  29.013  1.00  0.00     0.031 C 
ATOM     51  C   UNL A   1      46.558  25.046  26.401  1.00  0.00     0.029 A 
ATOM     52  C   UNL A   1      46.345  26.429  26.827  1.00  0.00     0.049 A 
ATOM     53  H   UNL A   1      44.667  27.197  27.795  1.00  0.00     0.167 HD
ATOM     54  C   UNL A   1      40.944  28.760  29.551  1.00  0.00     0.034 A 
ATOM     55  C   UNL A   1      47.217  27.447  26.676  1.00  0.00     0.034 A 
ATOM     56  C   UNL A   1      41.846  29.884  29.519  1.00  0.00     0.049 A 
ATOM     57  C   UNL A   1      46.830  28.828  27.152  1.00  0.00     0.074 A 
ATOM     58  C   UNL A   1      41.643  31.169  29.989  1.00  0.00     0.029 A 
ATOM     59  N   UNL A   1      43.116  29.862  28.959  1.00  0.00    -0.354 N 
ATOM     60  N   UNL A   1      45.708  29.226  27.711  1.00  0.00    -0.248 NA
ATOM     61  C   UNL A   1      47.824  29.896  26.979  1.00  0.00     0.031 C 
ATOM     62  C   UNL A   1      42.762  31.940  29.652  1.00  0.00     0.029 A 
ATOM     63  C   UNL A   1      43.696  31.117  29.041  1.00  0.00     0.049 A 
ATOM     64  H   UNL A   1      43.544  29.068  28.562  1.00  0.00     0.167 HD
ATOM     65  C   UNL A   1      45.880  30.582  27.985  1.00  0.00     0.074 A 
ATOM     66  C   UNL A   1      47.208  30.934  27.529  1.00  0.00     0.031 C 
ATOM     67  C   UNL A   1      45.021  31.453  28.575  1.00  0.00     0.034 A 
BRANCH  54  68
ATOM     68  C   UNL A   1      39.554  28.937  30.110  1.00  0.00     0.023 A 
ATOM     69  C   UNL A   1      38.512  29.477  29.334  1.00  0.00     0.031 A 
ATOM     70  C   UNL A   1      39.288  28.646  31.460  1.00  0.00     0.131 A 
ATOM     71  C   UNL A   1      37.285  29.796  29.935  1.00  0.00     0.055 A 
ATOM     72  C   UNL A   1      38.037  28.885  32.030  1.00  0.00     0.041 A 
ATOM     73  F   UNL A   1      40.251  28.155  32.256  1.00  0.00    -0.206 F 
ATOM     74  C   UNL A   1      37.033  29.483  31.273  1.00  0.00     0.022 A 
BRANCH  71  75
ATOM     75  S   UNL A   1      36.094  30.790  28.995  1.00  0.00     0.124 S 
ATOM     76  O   UNL A   1      35.445  31.556  30.057  1.00  0.00    -0.237 OA
ATOM     77  O   UNL A   1      36.957  31.548  28.098  1.00  0.00    -0.237 OA
ATOM     78  O   UNL A   1      35.244  29.791  28.352  1.00  0.00    -0.744 OA
ENDBRANCH  71  75
ENDBRANCH  54  68
BRANCH  55  79
ATOM     79  C   UNL A   1      48.521  27.221  25.991  1.00  0.00     0.023 A 
ATOM     80  C   UNL A   1      48.665  27.420  24.610  1.00  0.00     0.031 A 
ATOM     81  C   UNL A   1      49.639  26.763  26.713  1.00  0.00     0.131 A 
ATOM     82  C   UNL A   1      49.890  27.131  23.987  1.00  0.00     0.055 A 
ATOM     83  C   UNL A   1      50.867  26.518  26.097  1.00  0.00     0.041 A 
ATOM     84  F   UNL A   1      49.553  26.557  28.037  1.00  0.00    -0.206 F 
ATOM     85  C   UNL A   1      50.995  26.694  24.723  1.00  0.00     0.022 A 
BRANCH  82  86
ATOM     86  S   UNL A   1      50.007  27.283  22.182  1.00  0.00     0.124 S 
ATOM     87  O   UNL A   1      51.321  26.707  21.922  1.00  0.00    -0.237 OA
ATOM     88  O   UNL A   1      48.862  26.496  21.738  1.00  0.00    -0.237 OA
ATOM     89  O   UNL A   1      49.898  28.721  21.954  1.00  0.00    -0.744 OA
ENDBRANCH  82  86
ENDBRANCH  55  79
BRANCH  67  90
ATOM     90  C   UNL A   1      45.514  32.858  28.816  1.00  0.00     0.023 A 
ATOM     91  C   UNL A   1      45.455  33.852  27.824  1.00  0.00     0.031 A 
ATOM     92  C   UNL A   1      46.026  33.209  30.079  1.00  0.00     0.131 A 
ATOM     93  C   UNL A   1      45.932  35.143  28.103  1.00  0.00     0.055 A 
ATOM     94  C   UNL A   1      46.455  34.506  30.364  1.00  0.00     0.041 A 
ATOM     95  F   UNL A   1      46.103  32.298  31.062  1.00  0.00    -0.206 F 
ATOM     96  C   UNL A   1      46.417  35.480  29.371  1.00  0.00     0.022 A 
BRANCH  93  97
ATOM     97  S   UNL A   1      45.961  36.372  26.770  1.00  0.00     0.124 S 
ATOM     98  O   UNL A   1      45.976  35.529  25.578  1.00  0.00    -0.237 OA
ATOM     99  O   UNL A   1      44.730  37.120  27.005  1.00  0.00    -0.237 OA
ATOM    100  O   UNL A   1      47.193  37.119  27.016  1.00  0.00    -0.744 OA
ENDBRANCH  93  97
ENDBRANCH  67  90
ENDBRANCH  41  42
ENDBRANCH  34  36
ENDBRANCH  33  34
ENDBRANCH  32  33
ENDBRANCH  31  32
ENDBRANCH  30  31
ENDBRANCH  29  30
ENDBRANCH   1  29
TORSDOF 24
ENDMDL
MODEL 2
REMARK VINA RESULT:     -10.4      2.152      8.099
REMARK SMILES O=C(C[C@@H](c1cccc([N+](=O)[O-])c1)N1Cc2ccccc2C1=O)OCCOCCOCCOC(=O)c1ccc(-c2c3nc(c(-c4cc(S(=O)(=O)[O-])ccc4F)c4ccc([nH]4)c(-c4cc(S(=O)(=O)[O-])ccc4F)c4nc(c(-c5cc(S(=O)(=O)[O-])ccc5F)c5ccc2[nH]5)C=C4)C=C3)cc1
REMARK SMILES IDX 28 1 27 2 26 3 25 4 24 5 2 6 1 7 3 8 4 9 5 10 6 11 13 12
REMARK SMILES IDX 7 13 9 14 8 15 10 16 11 17 12 18 14 19 15 20 22 21 16 22
REMARK SMILES IDX 21 23 23 24 17 25 20 26 18 27 19 28 29 29 30 30 31 31 32 32
REMARK SMILES IDX 33 33 34 34 35 35 36 36 37 37 98 38 38 39 97 40 39 41 40 42
REMARK SMILES IDX 41 43 91 44 42 45 96 46 90 47 92 48 43 49 95 50 89 51 88 52
REMARK SMILES IDX 44 54 76 55 56 56 75 57 57 58 60 59 74 60 93 61 58 62 59 63
REMARK SMILES IDX 73 65 94 66 61 67 45 68 46 69 54 70 47 71 53 72 55 73 52 74
REMARK SMILES IDX 48 75 49 76 50 77 51 78 77 79 78 80 86 81 79 82 85 83 87 84
REMARK SMILES IDX 84 85 80 86 81 87 82 88 83 89 62 90 63 91 71 92 64 93 70 94
REMARK SMILES IDX 72 95 69 96 65 97 66 98 67 99 68 100
REMARK H PARENT 92 53 60 64
REMARK Flexibility Score: inf
ROOT
ATOM      1  C   UNL A   1      35.823  23.047  25.547  1.00  0.00     0.188 C 
ENDROOT
BRANCH   1   2
ATOM      2  O   UNL A   1      35.022  22.185  26.349  1.00  0.00    -0.376 OA
BRANCH   2   3
ATOM      3  C   UNL A   1      34.528  22.735  27.568  1.00  0.00     0.202 C 
BRANCH   3   4
ATOM      4  C   UNL A   1      33.164  22.230  28.030  1.00  0.00     0.261 C 
BRANCH   4   5
ATOM      5  O   UNL A   1      31.984  23.055  27.807  1.00  0.00    -0.463 OA
BRANCH   5   6
ATOM      6  C   UNL A   1      31.515  23.765  26.765  1.00  0.00     0.308 C 
ATOM      7  O   UNL A   1      31.423  24.987  26.866  1.00  0.00    -0.252 OA
BRANCH   6   8
ATOM      8  C   UNL A   1      31.133  23.090  25.484  1.00  0.00     0.152 C 
BRANCH   8   9
ATOM      9  C   UNL A   1      32.294  22.910  24.499  1.00  0.00     0.127 C 
BRANCH   9  10
ATOM     10  C   UNL A   1      32.294  21.537  23.790  1.00  0.00    -0.018 A 
ATOM     11  C   UNL A   1      31.962  21.375  22.431  1.00  0.00     0.006 A 
ATOM     12  C   UNL A   1      32.641  20.383  24.518  1.00  0.00     0.091 A 
ATOM     13  C   UNL A   1      31.999  20.130  21.801  1.00  0.00     0.007 A 
ATOM     14  C   UNL A   1      32.631  19.124  23.895  1.00  0.00     0.269 A 
ATOM     15  C   UNL A   1      32.326  18.996  22.533  1.00  0.00     0.085 A 
BRANCH  14  16
ATOM     16  N   UNL A   1      32.902  17.915  24.682  1.00  0.00     0.062 N 
ATOM     17  O   UNL A   1      33.936  17.280  24.423  1.00  0.00    -0.258 OA
ATOM     18  O   UNL A   1      32.077  17.585  25.545  1.00  0.00    -0.258 OA
ENDBRANCH  14  16
ENDBRANCH   9  10
BRANCH   9  19
ATOM     19  N   UNL A   1      32.405  24.014  23.520  1.00  0.00    -0.327 N 
ATOM     20  C   UNL A   1      33.593  24.849  23.342  1.00  0.00     0.157 C 
ATOM     21  C   UNL A   1      31.250  24.717  23.167  1.00  0.00     0.255 C 
ATOM     22  C   UNL A   1      33.007  26.221  23.401  1.00  0.00    -0.016 A 
ATOM     23  C   UNL A   1      31.626  26.142  23.218  1.00  0.00     0.045 A 
ATOM     24  O   UNL A   1      30.106  24.307  23.095  1.00  0.00    -0.269 OA
ATOM     25  C   UNL A   1      33.603  27.393  23.831  1.00  0.00     0.006 A 
ATOM     26  C   UNL A   1      30.784  27.199  23.513  1.00  0.00     0.014 A 
ATOM     27  C   UNL A   1      32.769  28.471  24.142  1.00  0.00     0.000 A 
ATOM     28  C   UNL A   1      31.371  28.372  23.992  1.00  0.00     0.001 A 
ENDBRANCH   9  19
ENDBRANCH   8   9
ENDBRANCH   6   8
ENDBRANCH   5   6
ENDBRANCH   4   5
ENDBRANCH   3   4
ENDBRANCH   2   3
ENDBRANCH   1   2
BRANCH   1  29
ATOM     29  C   UNL A   1      36.822  22.368  24.606  1.00  0.00     0.188 C 
BRANCH  29  30
ATOM     30  O   UNL A   1      38.188  22.622  24.936  1.00  0.00    -0.376 OA
BRANCH  30  31
ATOM     31  C   UNL A   1      38.633  21.884  26.079  1.00  0.00     0.202 C 
BRANCH  31  32
ATOM     32  C   UNL A   1      39.387  20.590  25.725  1.00  0.00     0.261 C 
BRANCH  32  33
ATOM     33  O   UNL A   1      40.374  20.151  26.673  1.00  0.00    -0.460 OA
BRANCH  33  34
ATOM     34  C   UNL A   1      41.640  20.029  26.215  1.00  0.00     0.338 C 
ATOM     35  O   UNL A   1      42.127  19.056  25.667  1.00  0.00    -0.246 OA
BRANCH  34  36
ATOM     36  C   UNL A   1      42.340  21.313  26.415  1.00  0.00     0.060 A 
ATOM     37  C   UNL A   1      42.586  21.770  27.715  1.00  0.00     0.016 A 
ATOM     38  C   UNL A   1      42.668  22.104  25.311  1.00  0.00     0.016 A 
ATOM     39  C   UNL A   1      43.151  23.032  27.917  1.00  0.00     0.010 A 
ATOM     40  C   UNL A   1      43.200  23.379  25.514  1.00  0.00     0.010 A 
ATOM     41  C   UNL A   1      43.415  23.862  26.818  1.00  0.00    -0.014 A 
BRANCH  41  42
ATOM     42  C   UNL A   1      43.666  25.312  27.014  1.00  0.00     0.031 A 
ATOM     43  C   UNL A   1      45.062  25.820  26.777  1.00  0.00     0.074 A 
ATOM     44  C   UNL A   1      42.703  26.146  27.442  1.00  0.00     0.049 A 
ATOM     45  N   UNL A   1      45.568  27.004  26.997  1.00  0.00    -0.248 NA
ATOM     46  C   UNL A   1      46.018  24.846  26.227  1.00  0.00     0.031 C 
ATOM     47  C   UNL A   1      41.306  25.782  27.663  1.00  0.00     0.029 A 
ATOM     48  N   UNL A   1      42.768  27.473  27.789  1.00  0.00    -0.354 N 
ATOM     49  C   UNL A   1      46.900  26.923  26.608  1.00  0.00     0.074 A 
ATOM     50  C   UNL A   1      47.128  25.562  26.169  1.00  0.00     0.031 C 
ATOM     51  C   UNL A   1      40.652  26.855  28.146  1.00  0.00     0.029 A 
ATOM     52  C   UNL A   1      41.590  27.966  28.300  1.00  0.00     0.049 A 
ATOM     53  H   UNL A   1      43.580  28.019  27.683  1.00  0.00     0.167 HD
ATOM     54  C   UNL A   1      47.850  27.890  26.617  1.00  0.00     0.034 A 
ATOM     55  C   UNL A   1      41.317  29.162  28.860  1.00  0.00     0.034 A 
ATOM     56  C   UNL A   1      47.626  29.225  27.110  1.00  0.00     0.049 A 
ATOM     57  C   UNL A   1      42.413  30.197  28.964  1.00  0.00     0.074 A 
ATOM     58  C   UNL A   1      48.516  30.281  27.186  1.00  0.00     0.029 A 
ATOM     59  N   UNL A   1      46.426  29.680  27.641  1.00  0.00    -0.354 N 
ATOM     60  N   UNL A   1      43.669  30.112  28.587  1.00  0.00    -0.248 NA
ATOM     61  C   UNL A   1      42.054  31.489  29.567  1.00  0.00     0.031 C 
ATOM     62  C   UNL A   1      47.876  31.350  27.823  1.00  0.00     0.029 A 
ATOM     63  C   UNL A   1      46.562  30.988  28.077  1.00  0.00     0.049 A 
ATOM     64  H   UNL A   1      45.597  29.150  27.699  1.00  0.00     0.167 HD
ATOM     65  C   UNL A   1      44.238  31.351  28.877  1.00  0.00     0.074 A 
ATOM     66  C   UNL A   1      43.192  32.162  29.463  1.00  0.00     0.031 C 
ATOM     67  C   UNL A   1      45.508  31.782  28.665  1.00  0.00     0.034 A 
BRANCH  54  68
ATOM     68  C   UNL A   1      49.227  27.492  26.146  1.00  0.00     0.023 A 
ATOM     69  C   UNL A   1      49.697  27.846  24.867  1.00  0.00     0.031 A 
ATOM     70  C   UNL A   1      50.045  26.676  26.946  1.00  0.00     0.131 A 
ATOM     71  C   UNL A   1      50.904  27.309  24.393  1.00  0.00     0.055 A 
ATOM     72  C   UNL A   1      51.284  26.216  26.500  1.00  0.00     0.041 A 
ATOM     73  F   UNL A   1      49.636  26.284  28.163  1.00  0.00    -0.206 F 
ATOM     74  C   UNL A   1      51.711  26.515  25.209  1.00  0.00     0.022 A 
BRANCH  71  75
ATOM     75  S   UNL A   1      51.309  27.513  22.636  1.00  0.00     0.124 S 
ATOM     76  O   UNL A   1      51.288  28.967  22.495  1.00  0.00    -0.237 OA
ATOM     77  O   UNL A   1      52.618  26.880  22.540  1.00  0.00    -0.237 OA
ATOM     78  O   UNL A   1      50.224  26.814  21.950  1.00  0.00    -0.744 OA
ENDBRANCH  71  75
ENDBRANCH  54  68
BRANCH  55  79
ATOM     79  C   UNL A   1      39.964  29.432  29.425  1.00  0.00     0.023 A 
ATOM     80  C   UNL A   1      39.735  29.422  30.809  1.00  0.00     0.031 A 
ATOM     81  C   UNL A   1      38.868  29.669  28.576  1.00  0.00     0.131 A 
ATOM     82  C   UNL A   1      38.435  29.614  31.304  1.00  0.00     0.055 A 
ATOM     83  C   UNL A   1      37.585  29.901  29.073  1.00  0.00     0.041 A 
ATOM     84  F   UNL A   1      39.034  29.689  27.243  1.00  0.00    -0.206 F 
ATOM     85  C   UNL A   1      37.361  29.865  30.446  1.00  0.00     0.022 A 
BRANCH  82  86
ATOM     86  S   UNL A   1      38.152  29.474  33.091  1.00  0.00     0.124 S 
ATOM     87  O   UNL A   1      37.512  30.749  33.390  1.00  0.00    -0.237 OA
ATOM     88  O   UNL A   1      37.299  28.293  33.171  1.00  0.00    -0.237 OA
ATOM     89  O   UNL A   1      39.497  29.306  33.636  1.00  0.00    -0.744 OA
ENDBRANCH  82  86
ENDBRANCH  55  79
BRANCH  67  90
ATOM     90  C   UNL A   1      45.821  33.217  29.010  1.00  0.00     0.023 A 
ATOM     91  C   UNL A   1      45.565  34.273  28.119  1.00  0.00     0.031 A 
ATOM     92  C   UNL A   1      46.360  33.528  30.273  1.00  0.00     0.131 A 
ATOM     93  C   UNL A   1      45.880  35.590  28.492  1.00  0.00     0.055 A 
ATOM     94  C   UNL A   1      46.626  34.843  30.655  1.00  0.00     0.041 A 
ATOM     95  F   UNL A   1      46.621  32.556  31.162  1.00  0.00    -0.206 F 
ATOM     96  C   UNL A   1      46.393  35.883  29.759  1.00  0.00     0.022 A 
BRANCH  93  97
ATOM     97  S   UNL A   1      45.657  36.920  27.278  1.00  0.00     0.124 S 
ATOM     98  O   UNL A   1      44.253  36.766  26.912  1.00  0.00    -0.237 OA
ATOM     99  O   UNL A   1      45.987  38.111  28.054  1.00  0.00    -0.237 OA
ATOM    100  O   UNL A   1      46.613  36.586  26.223  1.00  0.00    -0.744 OA
ENDBRANCH  93  97
ENDBRANCH  67  90
ENDBRANCH  41  42
ENDBRANCH  34  36
ENDBRANCH  33  34
ENDBRANCH  32  33
ENDBRANCH  31  32
ENDBRANCH  30  31
ENDBRANCH  29  30
ENDBRANCH   1  29
TORSDOF 24
ENDMDL
MODEL 3
REMARK VINA RESULT:     -10.3      1.285      7.431
REMARK SMILES O=C(C[C@@H](c1cccc([N+](=O)[O-])c1)N1Cc2ccccc2C1=O)OCCOCCOCCOC(=O)c1ccc(-c2c3nc(c(-c4cc(S(=O)(=O)[O-])ccc4F)c4ccc([nH]4)c(-c4cc(S(=O)(=O)[O-])ccc4F)c4nc(c(-c5cc(S(=O)(=O)[O-])ccc5F)c5ccc2[nH]5)C=C4)C=C3)cc1
REMARK SMILES IDX 28 1 27 2 26 3 25 4 24 5 2 6 1 7 3 8 4 9 5 10 6 11 13 12
REMARK SMILES IDX 7 13 9 14 8 15 10 16 11 17 12 18 14 19 15 20 22 21 16 22
REMARK SMILES IDX 21 23 23 24 17 25 20 26 18 27 19 28 29 29 30 30 31 31 32 32
REMARK SMILES IDX 33 33 34 34 35 35 36 36 37 37 98 38 38 39 97 40 39 41 40 42
REMARK SMILES IDX 41 43 91 44 42 45 96 46 90 47 92 48 43 49 95 50 89 51 88 52
REMARK SMILES IDX 44 54 76 55 56 56 75 57 57 58 60 59 74 60 93 61 58 62 59 63
REMARK SMILES IDX 73 65 94 66 61 67 45 68 46 69 54 70 47 71 53 72 55 73 52 74
REMARK SMILES IDX 48 75 49 76 50 77 51 78 77 79 78 80 86 81 79 82 85 83 87 84
REMARK SMILES IDX 84 85 80 86 81 87 82 88 83 89 62 90 63 91 71 92 64 93 70 94
REMARK SMILES IDX 72 95 69 96 65 97 66 98 67 99 68 100
REMARK H PARENT 92 53 60 64
REMARK Flexibility Score: inf
ROOT
ATOM      1  C   UNL A   1      36.172  23.791  24.719  1.00  0.00     0.188 C 
ENDROOT
BRANCH   1   2
ATOM      2  O   UNL A   1      35.906  22.993  23.571  1.00  0.00    -0.376 OA
BRANCH   2   3
ATOM      3  C   UNL A   1      34.570  22.514  23.430  1.00  0.00     0.202 C 
BRANCH   3   4
ATOM      4  C   UNL A   1      33.661  23.320  22.505  1.00  0.00     0.261 C 
BRANCH   4   5
ATOM      5  O   UNL A   1      33.191  24.631  22.930  1.00  0.00    -0.463 OA
BRANCH   5   6
ATOM      6  C   UNL A   1      32.717  25.715  22.289  1.00  0.00     0.308 C 
ATOM      7  O   UNL A   1      33.260  26.079  21.248  1.00  0.00    -0.252 OA
BRANCH   6   8
ATOM      8  C   UNL A   1      31.528  26.459  22.813  1.00  0.00     0.152 C 
BRANCH   8   9
ATOM      9  C   UNL A   1      31.827  27.348  24.026  1.00  0.00     0.127 C 
BRANCH   9  10
ATOM     10  C   UNL A   1      31.017  28.663  24.041  1.00  0.00    -0.018 A 
ATOM     11  C   UNL A   1      31.360  29.766  24.847  1.00  0.00     0.006 A 
ATOM     12  C   UNL A   1      29.882  28.787  23.217  1.00  0.00     0.091 A 
ATOM     13  C   UNL A   1      30.633  30.958  24.823  1.00  0.00     0.007 A 
ATOM     14  C   UNL A   1      29.124  29.969  23.229  1.00  0.00     0.269 A 
ATOM     15  C   UNL A   1      29.506  31.062  24.019  1.00  0.00     0.085 A 
BRANCH  14  16
ATOM     16  N   UNL A   1      27.890  30.057  22.439  1.00  0.00     0.062 N 
ATOM     17  O   UNL A   1      28.000  30.303  21.228  1.00  0.00    -0.258 OA
ATOM     18  O   UNL A   1      26.811  29.900  23.026  1.00  0.00    -0.258 OA
ENDBRANCH  14  16
ENDBRANCH   9  10
BRANCH   9  19
ATOM     19  N   UNL A   1      31.707  26.634  25.317  1.00  0.00    -0.327 N 
ATOM     20  C   UNL A   1      32.841  26.194  26.130  1.00  0.00     0.157 C 
ATOM     21  C   UNL A   1      30.599  25.809  25.527  1.00  0.00     0.255 C 
ATOM     22  C   UNL A   1      32.490  24.766  26.385  1.00  0.00    -0.016 A 
ATOM     23  C   UNL A   1      31.139  24.563  26.100  1.00  0.00     0.045 A 
ATOM     24  O   UNL A   1      29.467  25.938  25.098  1.00  0.00    -0.269 OA
ATOM     25  C   UNL A   1      33.341  23.696  26.601  1.00  0.00     0.006 A 
ATOM     26  C   UNL A   1      30.600  23.297  25.957  1.00  0.00     0.014 A 
ATOM     27  C   UNL A   1      32.817  22.408  26.454  1.00  0.00     0.000 A 
ATOM     28  C   UNL A   1      31.461  22.210  26.128  1.00  0.00     0.001 A 
ENDBRANCH   9  19
ENDBRANCH   8   9
ENDBRANCH   6   8
ENDBRANCH   5   6
ENDBRANCH   4   5
ENDBRANCH   3   4
ENDBRANCH   2   3
ENDBRANCH   1   2
BRANCH   1  29
ATOM     29  C   UNL A   1      37.405  23.409  25.543  1.00  0.00     0.188 C 
BRANCH  29  30
ATOM     30  O   UNL A   1      37.675  22.007  25.560  1.00  0.00    -0.376 OA
BRANCH  30  31
ATOM     31  C   UNL A   1      39.030  21.703  25.908  1.00  0.00     0.202 C 
BRANCH  31  32
ATOM     32  C   UNL A   1      39.358  20.201  25.864  1.00  0.00     0.261 C 
BRANCH  32  33
ATOM     33  O   UNL A   1      40.455  19.766  26.685  1.00  0.00    -0.460 OA
BRANCH  33  34
ATOM     34  C   UNL A   1      41.684  19.806  26.125  1.00  0.00     0.338 C 
ATOM     35  O   UNL A   1      42.204  18.940  25.443  1.00  0.00    -0.246 OA
BRANCH  34  36
ATOM     36  C   UNL A   1      42.288  21.124  26.404  1.00  0.00     0.060 A 
ATOM     37  C   UNL A   1      42.372  21.578  27.725  1.00  0.00     0.016 A 
ATOM     38  C   UNL A   1      42.684  21.944  25.345  1.00  0.00     0.016 A 
ATOM     39  C   UNL A   1      42.843  22.866  27.993  1.00  0.00     0.010 A 
ATOM     40  C   UNL A   1      43.121  23.244  25.610  1.00  0.00     0.010 A 
ATOM     41  C   UNL A   1      43.172  23.722  26.932  1.00  0.00    -0.014 A 
BRANCH  41  42
ATOM     42  C   UNL A   1      43.321  25.181  27.162  1.00  0.00     0.031 A 
ATOM     43  C   UNL A   1      44.678  25.792  26.934  1.00  0.00     0.074 A 
ATOM     44  C   UNL A   1      42.304  25.936  27.611  1.00  0.00     0.049 A 
ATOM     45  N   UNL A   1      45.099  27.004  27.182  1.00  0.00    -0.248 NA
ATOM     46  C   UNL A   1      45.697  24.902  26.359  1.00  0.00     0.031 C 
ATOM     47  C   UNL A   1      40.937  25.469  27.826  1.00  0.00     0.029 A 
ATOM     48  N   UNL A   1      42.276  27.255  27.989  1.00  0.00    -0.354 N 
ATOM     49  C   UNL A   1      46.433  27.026  26.788  1.00  0.00     0.074 A 
ATOM     50  C   UNL A   1      46.754  25.695  26.317  1.00  0.00     0.031 C 
ATOM     51  C   UNL A   1      40.210  26.481  28.335  1.00  0.00     0.029 A 
ATOM     52  C   UNL A   1      41.068  27.651  28.513  1.00  0.00     0.049 A 
ATOM     53  H   UNL A   1      43.047  27.859  27.895  1.00  0.00     0.167 HD
ATOM     54  C   UNL A   1      47.312  28.057  26.819  1.00  0.00     0.034 A 
ATOM     55  C   UNL A   1      40.713  28.812  29.103  1.00  0.00     0.034 A 
ATOM     56  C   UNL A   1      46.996  29.361  27.344  1.00  0.00     0.049 A 
ATOM     57  C   UNL A   1      41.734  29.919  29.229  1.00  0.00     0.074 A 
ATOM     58  C   UNL A   1      47.810  30.475  27.443  1.00  0.00     0.029 A 
ATOM     59  N   UNL A   1      45.769  29.717  27.887  1.00  0.00    -0.354 N 
ATOM     60  N   UNL A   1      42.991  29.932  28.848  1.00  0.00    -0.248 NA
ATOM     61  C   UNL A   1      41.287  31.168  29.863  1.00  0.00     0.031 C 
ATOM     62  C   UNL A   1      47.099  31.480  28.107  1.00  0.00     0.029 A 
ATOM     63  C   UNL A   1      45.814  31.021  28.353  1.00  0.00     0.049 A 
ATOM     64  H   UNL A   1      44.980  29.129  27.934  1.00  0.00     0.167 HD
ATOM     65  C   UNL A   1      43.473  31.200  29.166  1.00  0.00     0.074 A 
ATOM     66  C   UNL A   1      42.374  31.922  29.773  1.00  0.00     0.031 C 
ATOM     67  C   UNL A   1      44.709  31.725  28.962  1.00  0.00     0.034 A 
BRANCH  54  68
ATOM     68  C   UNL A   1      48.712  27.769  26.335  1.00  0.00     0.023 A 
ATOM     69  C   UNL A   1      49.076  27.948  24.988  1.00  0.00     0.031 A 
ATOM     70  C   UNL A   1      49.669  27.225  27.210  1.00  0.00     0.131 A 
ATOM     71  C   UNL A   1      50.327  27.500  24.537  1.00  0.00     0.055 A 
ATOM     72  C   UNL A   1      50.942  26.861  26.772  1.00  0.00     0.041 A 
ATOM     73  F   UNL A   1      49.368  27.005  28.500  1.00  0.00    -0.206 F 
ATOM     74  C   UNL A   1      51.271  26.979  25.424  1.00  0.00     0.022 A 
BRANCH  71  75
ATOM     75  S   UNL A   1      50.630  27.439  22.749  1.00  0.00     0.124 S 
ATOM     76  O   UNL A   1      49.462  26.700  22.276  1.00  0.00    -0.237 OA
ATOM     77  O   UNL A   1      50.681  28.851  22.391  1.00  0.00    -0.237 OA
ATOM     78  O   UNL A   1      51.897  26.720  22.640  1.00  0.00    -0.744 OA
ENDBRANCH  71  75
ENDBRANCH  54  68
BRANCH  55  79
ATOM     79  C   UNL A   1      39.347  28.972  29.676  1.00  0.00     0.023 A 
ATOM     80  C   UNL A   1      38.342  29.666  28.986  1.00  0.00     0.031 A 
ATOM     81  C   UNL A   1      39.041  28.459  30.950  1.00  0.00     0.131 A 
ATOM     82  C   UNL A   1      37.086  29.857  29.587  1.00  0.00     0.055 A 
ATOM     83  C   UNL A   1      37.778  28.614  31.525  1.00  0.00     0.041 A 
ATOM     84  F   UNL A   1      39.967  27.787  31.652  1.00  0.00    -0.206 F 
ATOM     85  C   UNL A   1      36.795  29.325  30.845  1.00  0.00     0.022 A 
BRANCH  82  86
ATOM     86  S   UNL A   1      35.849  30.863  28.720  1.00  0.00     0.124 S 
ATOM     87  O   UNL A   1      35.075  29.843  28.022  1.00  0.00    -0.237 OA
ATOM     88  O   UNL A   1      35.176  31.534  29.826  1.00  0.00    -0.237 OA
ATOM     89  O   UNL A   1      36.655  31.731  27.865  1.00  0.00    -0.744 OA
ENDBRANCH  82  86
ENDBRANCH  55  79
BRANCH  67  90
ATOM     90  C   UNL A   1      44.921  33.169  29.341  1.00  0.00     0.023 A 
ATOM     91  C   UNL A   1      44.701  34.220  28.434  1.00  0.00     0.031 A 
ATOM     92  C   UNL A   1      45.325  33.495  30.650  1.00  0.00     0.131 A 
ATOM     93  C   UNL A   1      44.917  35.547  28.839  1.00  0.00     0.055 A 
ATOM     94  C   UNL A   1      45.493  34.817  31.060  1.00  0.00     0.041 A 
ATOM     95  F   UNL A   1      45.547  32.529  31.555  1.00  0.00    -0.206 F 
ATOM     96  C   UNL A   1      45.297  35.853  30.150  1.00  0.00     0.022 A 
BRANCH  93  97
ATOM     97  S   UNL A   1      44.747  36.875  27.616  1.00  0.00     0.124 S 
ATOM     98  O   UNL A   1      45.536  36.363  26.499  1.00  0.00    -0.237 OA
ATOM     99  O   UNL A   1      43.304  36.926  27.406  1.00  0.00    -0.237 OA
ATOM    100  O   UNL A   1      45.315  38.041  28.292  1.00  0.00    -0.744 OA
ENDBRANCH  93  97
ENDBRANCH  67  90
ENDBRANCH  41  42
ENDBRANCH  34  36
ENDBRANCH  33  34
ENDBRANCH  32  33
ENDBRANCH  31  32
ENDBRANCH  30  31
ENDBRANCH  29  30
ENDBRANCH   1  29
TORSDOF 24
ENDMDL
