MODEL 1
REMARK VINA RESULT:     -10.5      0.000      0.000
REMARK SMILES CCc1ccnc(C(=O)c2[nH]c3ccc(OC(F)(F)F)cc3c2CC(=O)OCCOCCOCCOC(=O)c2ccc(-c3c4nc(c(-c5cc(S(=O)(=O)[O-])ccc5F)c5ccc([nH]5)c(-c5cc(S(=O)(=O)[O-])ccc5F)c5nc(c(-c6cc(S(=O)(=O)[O-])ccc6F)c6ccc3[nH]6)C=C5)C=C4)cc2)c1
REMARK SMILES IDX 31 1 30 2 29 3 28 4 27 5 25 6 26 7 24 8 23 9 10 10 11 11
REMARK SMILES IDX 12 12 22 14 13 15 21 16 14 17 15 18 8 19 9 20 7 21 3 22 4 23
REMARK SMILES IDX 102 24 5 25 6 26 2 27 1 28 16 29 17 30 18 31 19 32 20 33
REMARK SMILES IDX 32 34 33 35 34 36 35 37 36 38 37 39 38 40 39 41 40 42 101 43
REMARK SMILES IDX 41 44 100 45 42 46 43 47 44 48 94 49 45 50 99 51 93 52 95 53
REMARK SMILES IDX 46 54 98 55 92 56 91 57 47 59 79 60 59 61 78 62 60 63 63 64
REMARK SMILES IDX 77 65 96 66 61 67 62 68 76 70 97 71 64 72 48 73 49 74 57 75
REMARK SMILES IDX 50 76 56 77 58 78 55 79 51 80 52 81 53 82 54 83 80 84 81 85
REMARK SMILES IDX 89 86 82 87 88 88 90 89 87 90 83 91 84 92 85 93 86 94 65 95
REMARK SMILES IDX 66 96 74 97 67 98 73 99 75 100 72 101 68 102 69 103 70 104
REMARK SMILES IDX 71 105
REMARK H PARENT 11 13 95 58 63 69
REMARK Flexibility Score: inf
ROOT
ATOM      1  C   UNL A   1      36.149  23.723  25.861  1.00  0.00     0.188 C 
ENDROOT
BRANCH   1   2
ATOM      2  O   UNL A   1      35.238  23.073  26.741  1.00  0.00    -0.376 OA
BRANCH   2   3
ATOM      3  C   UNL A   1      33.969  23.681  26.941  1.00  0.00     0.202 C 
BRANCH   3   4
ATOM      4  C   UNL A   1      32.815  22.718  27.219  1.00  0.00     0.261 C 
BRANCH   4   5
ATOM      5  O   UNL A   1      31.618  23.403  27.656  1.00  0.00    -0.463 OA
BRANCH   5   6
ATOM      6  C   UNL A   1      30.691  23.616  26.689  1.00  0.00     0.310 C 
ATOM      7  O   UNL A   1      29.722  24.360  26.842  1.00  0.00    -0.252 OA
BRANCH   6   8
ATOM      8  C   UNL A   1      30.903  22.893  25.374  1.00  0.00     0.161 C 
BRANCH   8   9
ATOM      9  C   UNL A   1      31.501  23.606  24.183  1.00  0.00     0.000 A 
ATOM     10  C   UNL A   1      32.034  23.022  23.029  1.00  0.00     0.093 A 
ATOM     11  N   UNL A   1      32.461  24.044  22.211  1.00  0.00    -0.352 N 
ATOM     12  C   UNL A   1      32.552  25.208  22.931  1.00  0.00     0.046 A 
ATOM     13  H   UNL A   1      32.669  23.953  21.253  1.00  0.00     0.167 HD
ATOM     14  C   UNL A   1      31.936  24.974  24.158  1.00  0.00     0.008 A 
ATOM     15  C   UNL A   1      33.159  26.422  22.601  1.00  0.00     0.030 A 
ATOM     16  C   UNL A   1      31.948  26.008  25.115  1.00  0.00     0.057 A 
ATOM     17  C   UNL A   1      33.212  27.408  23.594  1.00  0.00     0.049 A 
ATOM     18  C   UNL A   1      32.638  27.200  24.847  1.00  0.00     0.130 A 
BRANCH  10  19
ATOM     19  C   UNL A   1      32.139  21.612  22.702  1.00  0.00     0.227 C 
ATOM     20  O   UNL A   1      31.646  21.159  21.671  1.00  0.00    -0.285 OA
BRANCH  19  21
ATOM     21  C   UNL A   1      32.800  20.674  23.666  1.00  0.00     0.113 A 
ATOM     22  C   UNL A   1      33.028  18.494  24.650  1.00  0.00    -0.044 A 
ATOM     23  C   UNL A   1      34.283  18.899  25.119  1.00  0.00     0.024 A 
ATOM     24  C   UNL A   1      32.263  19.417  23.922  1.00  0.00     0.036 A 
ATOM     25  C   UNL A   1      34.708  20.188  24.863  1.00  0.00     0.112 A 
ATOM     26  N   UNL A   1      33.987  21.086  24.161  1.00  0.00    -0.253 NA
BRANCH  22  27
ATOM     27  C   UNL A   1      32.569  17.088  24.953  1.00  0.00     0.032 C 
ATOM     28  C   UNL A   1      33.522  15.983  24.518  1.00  0.00     0.009 C 
ENDBRANCH  22  27
ENDBRANCH  19  21
ENDBRANCH  10  19
BRANCH  18  29
ATOM     29  O   UNL A   1      32.688  28.061  25.908  1.00  0.00    -0.406 OA
BRANCH  29  30
ATOM     30  C   UNL A   1      32.131  29.351  25.723  1.00  0.00     0.573 C 
ATOM     31  F   UNL A   1      32.973  30.174  25.062  1.00  0.00    -0.132 F 
ATOM     32  F   UNL A   1      30.959  29.275  25.055  1.00  0.00    -0.132 F 
ATOM     33  F   UNL A   1      31.884  29.895  26.936  1.00  0.00    -0.132 F 
ENDBRANCH  29  30
ENDBRANCH  18  29
ENDBRANCH   8   9
ENDBRANCH   6   8
ENDBRANCH   5   6
ENDBRANCH   4   5
ENDBRANCH   3   4
ENDBRANCH   2   3
ENDBRANCH   1   2
BRANCH   1  34
ATOM     34  C   UNL A   1      37.638  23.774  26.260  1.00  0.00     0.188 C 
BRANCH  34  35
ATOM     35  O   UNL A   1      38.484  22.700  25.864  1.00  0.00    -0.376 OA
BRANCH  35  36
ATOM     36  C   UNL A   1      37.908  21.702  25.029  1.00  0.00     0.202 C 
BRANCH  36  37
ATOM     37  C   UNL A   1      38.489  20.310  25.239  1.00  0.00     0.261 C 
BRANCH  37  38
ATOM     38  O   UNL A   1      39.279  20.268  26.443  1.00  0.00    -0.460 OA
BRANCH  38  39
ATOM     39  C   UNL A   1      40.588  19.991  26.242  1.00  0.00     0.338 C 
ATOM     40  O   UNL A   1      41.054  18.950  25.809  1.00  0.00    -0.246 OA
BRANCH  39  41
ATOM     41  C   UNL A   1      41.433  21.137  26.623  1.00  0.00     0.060 A 
ATOM     42  C   UNL A   1      41.309  21.689  27.890  1.00  0.00     0.016 A 
ATOM     43  C   UNL A   1      42.149  21.817  25.642  1.00  0.00     0.016 A 
ATOM     44  C   UNL A   1      41.740  22.995  28.134  1.00  0.00     0.010 A 
ATOM     45  C   UNL A   1      42.680  23.083  25.924  1.00  0.00     0.010 A 
ATOM     46  C   UNL A   1      42.411  23.726  27.148  1.00  0.00    -0.014 A 
BRANCH  46  47
ATOM     47  C   UNL A   1      42.719  25.181  27.337  1.00  0.00     0.031 A 
ATOM     48  C   UNL A   1      44.100  25.709  27.008  1.00  0.00     0.074 A 
ATOM     49  C   UNL A   1      41.772  26.052  27.743  1.00  0.00     0.049 A 
ATOM     50  N   UNL A   1      44.629  26.881  27.260  1.00  0.00    -0.248 NA
ATOM     51  C   UNL A   1      45.006  24.796  26.292  1.00  0.00     0.031 C 
ATOM     52  C   UNL A   1      40.364  25.730  27.976  1.00  0.00     0.029 A 
ATOM     53  N   UNL A   1      41.851  27.395  28.033  1.00  0.00    -0.354 N 
ATOM     54  C   UNL A   1      45.929  26.835  26.761  1.00  0.00     0.074 A 
ATOM     55  C   UNL A   1      46.113  25.517  26.198  1.00  0.00     0.031 C 
ATOM     56  C   UNL A   1      39.711  26.840  28.349  1.00  0.00     0.029 A 
ATOM     57  C   UNL A   1      40.671  27.926  28.507  1.00  0.00     0.049 A 
ATOM     58  H   UNL A   1      42.672  27.926  27.914  1.00  0.00     0.167 HD
ATOM     59  C   UNL A   1      46.887  27.796  26.786  1.00  0.00     0.034 A 
ATOM     60  C   UNL A   1      40.401  29.116  29.081  1.00  0.00     0.034 A 
ATOM     61  C   UNL A   1      46.704  29.097  27.382  1.00  0.00     0.049 A 
ATOM     62  C   UNL A   1      41.525  30.103  29.267  1.00  0.00     0.074 A 
ATOM     63  C   UNL A   1      47.625  30.121  27.524  1.00  0.00     0.029 A 
ATOM     64  N   UNL A   1      45.522  29.548  27.954  1.00  0.00    -0.354 N 
ATOM     65  N   UNL A   1      42.776  30.014  28.878  1.00  0.00    -0.248 NA
ATOM     66  C   UNL A   1      41.205  31.341  29.990  1.00  0.00     0.031 C 
ATOM     67  C   UNL A   1      47.026  31.153  28.254  1.00  0.00     0.029 A 
ATOM     68  C   UNL A   1      45.703  30.814  28.490  1.00  0.00     0.049 A 
ATOM     69  H   UNL A   1      44.677  29.043  27.975  1.00  0.00     0.167 HD
ATOM     70  C   UNL A   1      43.387  31.193  29.296  1.00  0.00     0.074 A 
ATOM     71  C   UNL A   1      42.363  31.984  29.947  1.00  0.00     0.031 C 
ATOM     72  C   UNL A   1      44.679  31.586  29.154  1.00  0.00     0.034 A 
BRANCH  59  73
ATOM     73  C   UNL A   1      48.248  27.430  26.240  1.00  0.00     0.023 A 
ATOM     74  C   UNL A   1      49.295  26.992  27.068  1.00  0.00     0.031 A 
ATOM     75  C   UNL A   1      48.509  27.561  24.863  1.00  0.00     0.131 A 
ATOM     76  C   UNL A   1      50.569  26.758  26.524  1.00  0.00     0.055 A 
ATOM     77  C   UNL A   1      49.758  27.259  24.316  1.00  0.00     0.041 A 
ATOM     78  F   UNL A   1      47.557  28.001  24.026  1.00  0.00    -0.206 F 
ATOM     79  C   UNL A   1      50.801  26.867  25.150  1.00  0.00     0.022 A 
BRANCH  76  80
ATOM     80  S   UNL A   1      51.956  26.447  27.653  1.00  0.00     0.124 S 
ATOM     81  O   UNL A   1      52.575  27.768  27.735  1.00  0.00    -0.237 OA
ATOM     82  O   UNL A   1      51.281  25.985  28.860  1.00  0.00    -0.237 OA
ATOM     83  O   UNL A   1      52.748  25.438  26.954  1.00  0.00    -0.744 OA
ENDBRANCH  76  80
ENDBRANCH  59  73
BRANCH  60  84
ATOM     84  C   UNL A   1      39.039  29.395  29.633  1.00  0.00     0.023 A 
ATOM     85  C   UNL A   1      38.103  30.166  28.927  1.00  0.00     0.031 A 
ATOM     86  C   UNL A   1      38.672  28.923  30.909  1.00  0.00     0.131 A 
ATOM     87  C   UNL A   1      36.859  30.462  29.510  1.00  0.00     0.055 A 
ATOM     88  C   UNL A   1      37.410  29.163  31.454  1.00  0.00     0.041 A 
ATOM     89  F   UNL A   1      39.534  28.199  31.642  1.00  0.00    -0.206 F 
ATOM     90  C   UNL A   1      36.498  29.947  30.757  1.00  0.00     0.022 A 
BRANCH  87  91
ATOM     91  S   UNL A   1      35.745  31.610  28.654  1.00  0.00     0.124 S 
ATOM     92  O   UNL A   1      35.288  30.800  27.531  1.00  0.00    -0.237 OA
ATOM     93  O   UNL A   1      34.753  31.897  29.683  1.00  0.00    -0.237 OA
ATOM     94  O   UNL A   1      36.616  32.730  28.302  1.00  0.00    -0.744 OA
ENDBRANCH  87  91
ENDBRANCH  60  84
BRANCH  72  95
ATOM     95  C   UNL A   1      45.039  32.954  29.679  1.00  0.00     0.023 A 
ATOM     96  C   UNL A   1      44.990  34.097  28.862  1.00  0.00     0.031 A 
ATOM     97  C   UNL A   1      45.459  33.110  31.012  1.00  0.00     0.131 A 
ATOM     98  C   UNL A   1      45.413  35.335  29.368  1.00  0.00     0.055 A 
ATOM     99  C   UNL A   1      45.818  34.355  31.528  1.00  0.00     0.041 A 
ATOM    100  F   UNL A   1      45.527  32.051  31.836  1.00  0.00    -0.206 F 
ATOM    101  C   UNL A   1      45.810  35.475  30.701  1.00  0.00     0.022 A 
BRANCH  98 102
ATOM    102  S   UNL A   1      45.532  36.745  28.235  1.00  0.00     0.124 S 
ATOM    103  O   UNL A   1      46.811  36.498  27.577  1.00  0.00    -0.237 OA
ATOM    104  O   UNL A   1      44.344  36.579  27.402  1.00  0.00    -0.237 OA
ATOM    105  O   UNL A   1      45.506  37.905  29.125  1.00  0.00    -0.744 OA
ENDBRANCH  98 102
ENDBRANCH  72  95
ENDBRANCH  46  47
ENDBRANCH  39  41
ENDBRANCH  38  39
ENDBRANCH  37  38
ENDBRANCH  36  37
ENDBRANCH  35  36
ENDBRANCH  34  35
ENDBRANCH   1  34
TORSDOF 26
ENDMDL
MODEL 2
REMARK VINA RESULT:     -10.5      2.132      7.223
REMARK SMILES CCc1ccnc(C(=O)c2[nH]c3ccc(OC(F)(F)F)cc3c2CC(=O)OCCOCCOCCOC(=O)c2ccc(-c3c4nc(c(-c5cc(S(=O)(=O)[O-])ccc5F)c5ccc([nH]5)c(-c5cc(S(=O)(=O)[O-])ccc5F)c5nc(c(-c6cc(S(=O)(=O)[O-])ccc6F)c6ccc3[nH]6)C=C5)C=C4)cc2)c1
REMARK SMILES IDX 31 1 30 2 29 3 28 4 27 5 25 6 26 7 24 8 23 9 10 10 11 11
REMARK SMILES IDX 12 12 22 14 13 15 21 16 14 17 15 18 8 19 9 20 7 21 3 22 4 23
REMARK SMILES IDX 102 24 5 25 6 26 2 27 1 28 16 29 17 30 18 31 19 32 20 33
REMARK SMILES IDX 32 34 33 35 34 36 35 37 36 38 37 39 38 40 39 41 40 42 101 43
REMARK SMILES IDX 41 44 100 45 42 46 43 47 44 48 94 49 45 50 99 51 93 52 95 53
REMARK SMILES IDX 46 54 98 55 92 56 91 57 47 59 79 60 59 61 78 62 60 63 63 64
REMARK SMILES IDX 77 65 96 66 61 67 62 68 76 70 97 71 64 72 48 73 49 74 57 75
REMARK SMILES IDX 50 76 56 77 58 78 55 79 51 80 52 81 53 82 54 83 80 84 81 85
REMARK SMILES IDX 89 86 82 87 88 88 90 89 87 90 83 91 84 92 85 93 86 94 65 95
REMARK SMILES IDX 66 96 74 97 67 98 73 99 75 100 72 101 68 102 69 103 70 104
REMARK SMILES IDX 71 105
REMARK H PARENT 11 13 95 58 63 69
REMARK Flexibility Score: inf
ROOT
ATOM      1  C   UNL A   1      36.533  23.657  26.020  1.00  0.00     0.188 C 
ENDROOT
BRANCH   1   2
ATOM      2  O   UNL A   1      35.600  23.025  26.891  1.00  0.00    -0.376 OA
BRANCH   2   3
ATOM      3  C   UNL A   1      34.232  23.397  26.771  1.00  0.00     0.202 C 
BRANCH   3   4
ATOM      4  C   UNL A   1      33.224  22.351  27.245  1.00  0.00     0.261 C 
BRANCH   4   5
ATOM      5  O   UNL A   1      32.035  22.949  27.813  1.00  0.00    -0.463 OA
BRANCH   5   6
ATOM      6  C   UNL A   1      30.985  23.064  26.962  1.00  0.00     0.310 C 
ATOM      7  O   UNL A   1      29.950  23.665  27.252  1.00  0.00    -0.252 OA
BRANCH   6   8
ATOM      8  C   UNL A   1      31.140  22.417  25.601  1.00  0.00     0.161 C 
BRANCH   8   9
ATOM      9  C   UNL A   1      31.575  23.226  24.401  1.00  0.00     0.000 A 
ATOM     10  C   UNL A   1      31.980  22.737  23.153  1.00  0.00     0.093 A 
ATOM     11  N   UNL A   1      32.282  23.824  22.365  1.00  0.00    -0.352 N 
ATOM     12  C   UNL A   1      32.432  24.939  23.149  1.00  0.00     0.046 A 
ATOM     13  H   UNL A   1      32.376  23.804  21.385  1.00  0.00     0.167 HD
ATOM     14  C   UNL A   1      31.974  24.605  24.421  1.00  0.00     0.008 A 
ATOM     15  C   UNL A   1      32.969  26.191  22.836  1.00  0.00     0.030 A 
ATOM     16  C   UNL A   1      32.077  25.572  25.439  1.00  0.00     0.057 A 
ATOM     17  C   UNL A   1      33.119  27.109  23.883  1.00  0.00     0.049 A 
ATOM     18  C   UNL A   1      32.703  26.800  25.177  1.00  0.00     0.130 A 
BRANCH  10  19
ATOM     19  C   UNL A   1      32.075  21.356  22.718  1.00  0.00     0.227 C 
ATOM     20  O   UNL A   1      31.466  20.957  21.729  1.00  0.00    -0.285 OA
BRANCH  19  21
ATOM     21  C   UNL A   1      32.876  20.378  23.524  1.00  0.00     0.113 A 
ATOM     22  C   UNL A   1      33.549  18.128  24.027  1.00  0.00    -0.044 A 
ATOM     23  C   UNL A   1      34.641  18.667  24.714  1.00  0.00     0.024 A 
ATOM     24  C   UNL A   1      32.635  19.012  23.435  1.00  0.00     0.036 A 
ATOM     25  C   UNL A   1      34.767  20.041  24.797  1.00  0.00     0.112 A 
ATOM     26  N   UNL A   1      33.901  20.905  24.229  1.00  0.00    -0.253 NA
BRANCH  22  27
ATOM     27  C   UNL A   1      33.415  16.625  23.961  1.00  0.00     0.032 C 
ATOM     28  C   UNL A   1      33.586  15.896  25.286  1.00  0.00     0.009 C 
ENDBRANCH  22  27
ENDBRANCH  19  21
ENDBRANCH  10  19
BRANCH  18  29
ATOM     29  O   UNL A   1      32.861  27.589  26.282  1.00  0.00    -0.406 OA
BRANCH  29  30
ATOM     30  C   UNL A   1      31.761  28.397  26.664  1.00  0.00     0.573 C 
ATOM     31  F   UNL A   1      32.118  29.350  27.551  1.00  0.00    -0.132 F 
ATOM     32  F   UNL A   1      31.195  28.977  25.583  1.00  0.00    -0.132 F 
ATOM     33  F   UNL A   1      30.829  27.612  27.250  1.00  0.00    -0.132 F 
ENDBRANCH  29  30
ENDBRANCH  18  29
ENDBRANCH   8   9
ENDBRANCH   6   8
ENDBRANCH   5   6
ENDBRANCH   4   5
ENDBRANCH   3   4
ENDBRANCH   2   3
ENDBRANCH   1   2
BRANCH   1  34
ATOM     34  C   UNL A   1      38.032  23.572  26.373  1.00  0.00     0.188 C 
BRANCH  34  35
ATOM     35  O   UNL A   1      38.838  22.620  25.687  1.00  0.00    -0.376 OA
BRANCH  35  36
ATOM     36  C   UNL A   1      38.191  21.434  25.240  1.00  0.00     0.202 C 
BRANCH  36  37
ATOM     37  C   UNL A   1      38.962  20.156  25.549  1.00  0.00     0.261 C 
BRANCH  37  38
ATOM     38  O   UNL A   1      40.005  20.414  26.507  1.00  0.00    -0.460 OA
BRANCH  38  39
ATOM     39  C   UNL A   1      41.229  19.974  26.131  1.00  0.00     0.338 C 
ATOM     40  O   UNL A   1      41.492  18.892  25.636  1.00  0.00    -0.246 OA
BRANCH  39  41
ATOM     41  C   UNL A   1      42.260  20.992  26.401  1.00  0.00     0.060 A 
ATOM     42  C   UNL A   1      42.672  21.223  27.706  1.00  0.00     0.016 A 
ATOM     43  C   UNL A   1      42.619  21.887  25.397  1.00  0.00     0.016 A 
ATOM     44  C   UNL A   1      43.286  22.430  28.048  1.00  0.00     0.010 A 
ATOM     45  C   UNL A   1      43.334  23.047  25.725  1.00  0.00     0.010 A 
ATOM     46  C   UNL A   1      43.606  23.376  27.067  1.00  0.00    -0.014 A 
BRANCH  46  47
ATOM     47  C   UNL A   1      44.099  24.742  27.440  1.00  0.00     0.031 A 
ATOM     48  C   UNL A   1      43.127  25.777  27.969  1.00  0.00     0.074 A 
ATOM     49  C   UNL A   1      45.408  25.059  27.369  1.00  0.00     0.049 A 
ATOM     50  N   UNL A   1      43.303  27.058  28.183  1.00  0.00    -0.248 NA
ATOM     51  C   UNL A   1      41.776  25.303  28.311  1.00  0.00     0.031 C 
ATOM     52  C   UNL A   1      46.488  24.141  27.004  1.00  0.00     0.029 A 
ATOM     53  N   UNL A   1      46.059  26.250  27.601  1.00  0.00    -0.354 N 
ATOM     54  C   UNL A   1      42.086  27.543  28.655  1.00  0.00     0.074 A 
ATOM     55  C   UNL A   1      41.175  26.421  28.689  1.00  0.00     0.031 C 
ATOM     56  C   UNL A   1      47.659  24.790  27.059  1.00  0.00     0.029 A 
ATOM     57  C   UNL A   1      47.409  26.200  27.336  1.00  0.00     0.049 A 
ATOM     58  H   UNL A   1      45.602  27.060  27.926  1.00  0.00     0.167 HD
ATOM     59  C   UNL A   1      41.752  28.810  29.009  1.00  0.00     0.034 A 
ATOM     60  C   UNL A   1      48.332  27.178  27.242  1.00  0.00     0.034 A 
ATOM     61  C   UNL A   1      42.659  29.929  28.936  1.00  0.00     0.049 A 
ATOM     62  C   UNL A   1      47.899  28.606  27.460  1.00  0.00     0.074 A 
ATOM     63  C   UNL A   1      42.409  31.264  29.205  1.00  0.00     0.029 A 
ATOM     64  N   UNL A   1      43.991  29.847  28.551  1.00  0.00    -0.354 N 
ATOM     65  N   UNL A   1      46.722  29.068  27.812  1.00  0.00    -0.248 NA
ATOM     66  C   UNL A   1      48.915  29.645  27.244  1.00  0.00     0.031 C 
ATOM     67  C   UNL A   1      43.562  31.997  28.900  1.00  0.00     0.029 A 
ATOM     68  C   UNL A   1      44.561  31.111  28.528  1.00  0.00     0.049 A 
ATOM     69  H   UNL A   1      44.462  29.012  28.326  1.00  0.00     0.167 HD
ATOM     70  C   UNL A   1      46.862  30.452  27.876  1.00  0.00     0.074 A 
ATOM     71  C   UNL A   1      48.242  30.746  27.547  1.00  0.00     0.031 C 
ATOM     72  C   UNL A   1      45.933  31.394  28.180  1.00  0.00     0.034 A 
BRANCH  59  73
ATOM     73  C   UNL A   1      40.316  29.061  29.406  1.00  0.00     0.023 A 
ATOM     74  C   UNL A   1      39.890  29.025  30.745  1.00  0.00     0.031 A 
ATOM     75  C   UNL A   1      39.347  29.306  28.415  1.00  0.00     0.131 A 
ATOM     76  C   UNL A   1      38.527  29.168  31.051  1.00  0.00     0.055 A 
ATOM     77  C   UNL A   1      38.004  29.520  28.731  1.00  0.00     0.041 A 
ATOM     78  F   UNL A   1      39.689  29.327  27.117  1.00  0.00    -0.206 F 
ATOM     79  C   UNL A   1      37.584  29.438  30.056  1.00  0.00     0.022 A 
BRANCH  76  80
ATOM     80  S   UNL A   1      37.979  28.857  32.754  1.00  0.00     0.124 S 
ATOM     81  O   UNL A   1      39.020  29.528  33.530  1.00  0.00    -0.237 OA
ATOM     82  O   UNL A   1      36.663  29.483  32.780  1.00  0.00    -0.237 OA
ATOM     83  O   UNL A   1      37.980  27.399  32.854  1.00  0.00    -0.744 OA
ENDBRANCH  76  80
ENDBRANCH  59  73
BRANCH  60  84
ATOM     84  C   UNL A   1      49.727  26.860  26.806  1.00  0.00     0.023 A 
ATOM     85  C   UNL A   1      50.188  27.184  25.520  1.00  0.00     0.031 A 
ATOM     86  C   UNL A   1      50.611  26.182  27.668  1.00  0.00     0.131 A 
ATOM     87  C   UNL A   1      51.484  26.807  25.127  1.00  0.00     0.055 A 
ATOM     88  C   UNL A   1      51.919  25.871  27.296  1.00  0.00     0.041 A 
ATOM     89  F   UNL A   1      50.219  25.825  28.902  1.00  0.00    -0.206 F 
ATOM     90  C   UNL A   1      52.359  26.174  26.013  1.00  0.00     0.022 A 
BRANCH  87  91
ATOM     91  S   UNL A   1      51.984  27.074  23.404  1.00  0.00     0.124 S 
ATOM     92  O   UNL A   1      50.736  26.830  22.690  1.00  0.00    -0.237 OA
ATOM     93  O   UNL A   1      52.447  28.457  23.431  1.00  0.00    -0.237 OA
ATOM     94  O   UNL A   1      53.030  26.074  23.193  1.00  0.00    -0.744 OA
ENDBRANCH  87  91
ENDBRANCH  60  84
BRANCH  72  95
ATOM     95  C   UNL A   1      46.399  32.829  28.210  1.00  0.00     0.023 A 
ATOM     96  C   UNL A   1      46.965  33.400  29.364  1.00  0.00     0.031 A 
ATOM     97  C   UNL A   1      46.254  33.642  27.072  1.00  0.00     0.131 A 
ATOM     98  C   UNL A   1      47.307  34.760  29.373  1.00  0.00     0.055 A 
ATOM     99  C   UNL A   1      46.655  34.977  27.067  1.00  0.00     0.041 A 
ATOM    100  F   UNL A   1      45.718  33.149  25.943  1.00  0.00    -0.206 F 
ATOM    101  C   UNL A   1      47.173  35.548  28.227  1.00  0.00     0.022 A 
BRANCH  98 102
ATOM    102  S   UNL A   1      47.840  35.514  30.934  1.00  0.00     0.124 S 
ATOM    103  O   UNL A   1      49.226  35.867  30.642  1.00  0.00    -0.237 OA
ATOM    104  O   UNL A   1      46.913  36.632  31.075  1.00  0.00    -0.237 OA
ATOM    105  O   UNL A   1      47.667  34.440  31.910  1.00  0.00    -0.744 OA
ENDBRANCH  98 102
ENDBRANCH  72  95
ENDBRANCH  46  47
ENDBRANCH  39  41
ENDBRANCH  38  39
ENDBRANCH  37  38
ENDBRANCH  36  37
ENDBRANCH  35  36
ENDBRANCH  34  35
ENDBRANCH   1  34
TORSDOF 26
ENDMDL
MODEL 3
REMARK VINA RESULT:     -10.2      2.585      4.719
REMARK SMILES CCc1ccnc(C(=O)c2[nH]c3ccc(OC(F)(F)F)cc3c2CC(=O)OCCOCCOCCOC(=O)c2ccc(-c3c4nc(c(-c5cc(S(=O)(=O)[O-])ccc5F)c5ccc([nH]5)c(-c5cc(S(=O)(=O)[O-])ccc5F)c5nc(c(-c6cc(S(=O)(=O)[O-])ccc6F)c6ccc3[nH]6)C=C5)C=C4)cc2)c1
REMARK SMILES IDX 31 1 30 2 29 3 28 4 27 5 25 6 26 7 24 8 23 9 10 10 11 11
REMARK SMILES IDX 12 12 22 14 13 15 21 16 14 17 15 18 8 19 9 20 7 21 3 22 4 23
REMARK SMILES IDX 102 24 5 25 6 26 2 27 1 28 16 29 17 30 18 31 19 32 20 33
REMARK SMILES IDX 32 34 33 35 34 36 35 37 36 38 37 39 38 40 39 41 40 42 101 43
REMARK SMILES IDX 41 44 100 45 42 46 43 47 44 48 94 49 45 50 99 51 93 52 95 53
REMARK SMILES IDX 46 54 98 55 92 56 91 57 47 59 79 60 59 61 78 62 60 63 63 64
REMARK SMILES IDX 77 65 96 66 61 67 62 68 76 70 97 71 64 72 48 73 49 74 57 75
REMARK SMILES IDX 50 76 56 77 58 78 55 79 51 80 52 81 53 82 54 83 80 84 81 85
REMARK SMILES IDX 89 86 82 87 88 88 90 89 87 90 83 91 84 92 85 93 86 94 65 95
REMARK SMILES IDX 66 96 74 97 67 98 73 99 75 100 72 101 68 102 69 103 70 104
REMARK SMILES IDX 71 105
REMARK H PARENT 11 13 95 58 63 69
REMARK Flexibility Score: inf
ROOT
ATOM      1  C   UNL A   1      35.497  21.426  24.753  1.00  0.00     0.188 C 
ENDROOT
BRANCH   1   2
ATOM      2  O   UNL A   1      34.884  21.687  26.011  1.00  0.00    -0.376 OA
BRANCH   2   3
ATOM      3  C   UNL A   1      34.353  22.988  26.226  1.00  0.00     0.202 C 
BRANCH   3   4
ATOM      4  C   UNL A   1      32.952  23.033  26.836  1.00  0.00     0.261 C 
BRANCH   4   5
ATOM      5  O   UNL A   1      32.551  24.375  27.198  1.00  0.00    -0.463 OA
BRANCH   5   6
ATOM      6  C   UNL A   1      31.947  25.083  26.210  1.00  0.00     0.310 C 
ATOM      7  O   UNL A   1      30.836  24.797  25.764  1.00  0.00    -0.252 OA
BRANCH   6   8
ATOM      8  C   UNL A   1      32.708  26.275  25.667  1.00  0.00     0.161 C 
BRANCH   8   9
ATOM      9  C   UNL A   1      32.742  26.566  24.184  1.00  0.00     0.000 A 
ATOM     10  C   UNL A   1      32.263  27.710  23.536  1.00  0.00     0.093 A 
ATOM     11  N   UNL A   1      32.503  27.550  22.190  1.00  0.00    -0.352 N 
ATOM     12  C   UNL A   1      32.776  26.233  21.920  1.00  0.00     0.046 A 
ATOM     13  H   UNL A   1      32.481  28.272  21.521  1.00  0.00     0.167 HD
ATOM     14  C   UNL A   1      32.958  25.598  23.146  1.00  0.00     0.008 A 
ATOM     15  C   UNL A   1      32.838  25.561  20.696  1.00  0.00     0.030 A 
ATOM     16  C   UNL A   1      33.195  24.209  23.145  1.00  0.00     0.057 A 
ATOM     17  C   UNL A   1      33.011  24.173  20.730  1.00  0.00     0.049 A 
ATOM     18  C   UNL A   1      33.162  23.495  21.939  1.00  0.00     0.130 A 
BRANCH  10  19
ATOM     19  C   UNL A   1      31.629  28.876  24.123  1.00  0.00     0.227 C 
ATOM     20  O   UNL A   1      32.232  29.597  24.914  1.00  0.00    -0.285 OA
BRANCH  19  21
ATOM     21  C   UNL A   1      30.192  29.173  23.816  1.00  0.00     0.113 A 
ATOM     22  C   UNL A   1      28.431  30.731  23.327  1.00  0.00    -0.044 A 
ATOM     23  C   UNL A   1      27.680  29.649  22.855  1.00  0.00     0.024 A 
ATOM     24  C   UNL A   1      29.711  30.478  23.838  1.00  0.00     0.036 A 
ATOM     25  C   UNL A   1      28.221  28.379  22.926  1.00  0.00     0.112 A 
ATOM     26  N   UNL A   1      29.453  28.118  23.409  1.00  0.00    -0.253 NA
BRANCH  22  27
ATOM     27  C   UNL A   1      27.820  32.110  23.260  1.00  0.00     0.032 C 
ATOM     28  C   UNL A   1      28.765  33.222  22.828  1.00  0.00     0.009 C 
ENDBRANCH  22  27
ENDBRANCH  19  21
ENDBRANCH  10  19
BRANCH  18  29
ATOM     29  O   UNL A   1      33.269  22.140  22.094  1.00  0.00    -0.406 OA
BRANCH  29  30
ATOM     30  C   UNL A   1      32.098  21.436  22.467  1.00  0.00     0.573 C 
ATOM     31  F   UNL A   1      32.332  20.561  23.468  1.00  0.00    -0.132 F 
ATOM     32  F   UNL A   1      31.121  22.293  22.836  1.00  0.00    -0.132 F 
ATOM     33  F   UNL A   1      31.655  20.736  21.398  1.00  0.00    -0.132 F 
ENDBRANCH  29  30
ENDBRANCH  18  29
ENDBRANCH   8   9
ENDBRANCH   6   8
ENDBRANCH   5   6
ENDBRANCH   4   5
ENDBRANCH   3   4
ENDBRANCH   2   3
ENDBRANCH   1   2
BRANCH   1  34
ATOM     34  C   UNL A   1      37.035  21.336  24.696  1.00  0.00     0.188 C 
BRANCH  34  35
ATOM     35  O   UNL A   1      37.783  21.780  25.824  1.00  0.00    -0.376 OA
BRANCH  35  36
ATOM     36  C   UNL A   1      39.179  21.510  25.816  1.00  0.00     0.202 C 
BRANCH  36  37
ATOM     37  C   UNL A   1      39.523  20.027  25.866  1.00  0.00     0.261 C 
BRANCH  37  38
ATOM     38  O   UNL A   1      40.874  19.806  25.419  1.00  0.00    -0.460 OA
BRANCH  38  39
ATOM     39  C   UNL A   1      41.773  19.643  26.418  1.00  0.00     0.338 C 
ATOM     40  O   UNL A   1      41.898  18.662  27.131  1.00  0.00    -0.246 OA
BRANCH  39  41
ATOM     41  C   UNL A   1      42.624  20.838  26.562  1.00  0.00     0.060 A 
ATOM     42  C   UNL A   1      42.851  21.371  27.823  1.00  0.00     0.016 A 
ATOM     43  C   UNL A   1      42.971  21.572  25.431  1.00  0.00     0.016 A 
ATOM     44  C   UNL A   1      43.258  22.699  27.963  1.00  0.00     0.010 A 
ATOM     45  C   UNL A   1      43.486  22.867  25.577  1.00  0.00     0.010 A 
ATOM     46  C   UNL A   1      43.558  23.481  26.842  1.00  0.00    -0.014 A 
BRANCH  46  47
ATOM     47  C   UNL A   1      43.822  24.951  26.971  1.00  0.00     0.031 A 
ATOM     48  C   UNL A   1      45.191  25.505  26.634  1.00  0.00     0.074 A 
ATOM     49  C   UNL A   1      42.845  25.810  27.328  1.00  0.00     0.049 A 
ATOM     50  N   UNL A   1      45.683  26.702  26.840  1.00  0.00    -0.248 NA
ATOM     51  C   UNL A   1      46.131  24.589  25.968  1.00  0.00     0.031 C 
ATOM     52  C   UNL A   1      41.444  25.457  27.561  1.00  0.00     0.029 A 
ATOM     53  N   UNL A   1      42.882  27.167  27.561  1.00  0.00    -0.354 N 
ATOM     54  C   UNL A   1      46.989  26.673  26.357  1.00  0.00     0.074 A 
ATOM     55  C   UNL A   1      47.217  25.337  25.854  1.00  0.00     0.031 C 
ATOM     56  C   UNL A   1      40.755  26.563  27.878  1.00  0.00     0.029 A 
ATOM     57  C   UNL A   1      41.682  27.683  28.000  1.00  0.00     0.049 A 
ATOM     58  H   UNL A   1      43.688  27.716  27.428  1.00  0.00     0.167 HD
ATOM     59  C   UNL A   1      47.919  27.662  26.350  1.00  0.00     0.034 A 
ATOM     60  C   UNL A   1      41.370  28.888  28.518  1.00  0.00     0.034 A 
ATOM     61  C   UNL A   1      47.691  28.980  26.888  1.00  0.00     0.049 A 
ATOM     62  C   UNL A   1      42.463  29.914  28.672  1.00  0.00     0.074 A 
ATOM     63  C   UNL A   1      48.580  30.037  26.995  1.00  0.00     0.029 A 
ATOM     64  N   UNL A   1      46.489  29.422  27.427  1.00  0.00    -0.354 N 
ATOM     65  N   UNL A   1      43.721  29.846  28.301  1.00  0.00    -0.248 NA
ATOM     66  C   UNL A   1      42.099  31.172  29.337  1.00  0.00     0.031 C 
ATOM     67  C   UNL A   1      47.943  31.081  27.673  1.00  0.00     0.029 A 
ATOM     68  C   UNL A   1      46.628  30.714  27.910  1.00  0.00     0.049 A 
ATOM     69  H   UNL A   1      45.659  28.893  27.461  1.00  0.00     0.167 HD
ATOM     70  C   UNL A   1      44.292  31.059  28.674  1.00  0.00     0.074 A 
ATOM     71  C   UNL A   1      43.238  31.847  29.279  1.00  0.00     0.031 C 
ATOM     72  C   UNL A   1      45.574  31.483  28.528  1.00  0.00     0.034 A 
BRANCH  59  73
ATOM     73  C   UNL A   1      49.296  27.313  25.835  1.00  0.00     0.023 A 
ATOM     74  C   UNL A   1      50.339  26.920  26.690  1.00  0.00     0.031 A 
ATOM     75  C   UNL A   1      49.576  27.413  24.459  1.00  0.00     0.131 A 
ATOM     76  C   UNL A   1      51.626  26.701  26.172  1.00  0.00     0.055 A 
ATOM     77  C   UNL A   1      50.839  27.125  23.940  1.00  0.00     0.041 A 
ATOM     78  F   UNL A   1      48.627  27.809  23.597  1.00  0.00    -0.206 F 
ATOM     79  C   UNL A   1      51.878  26.779  24.799  1.00  0.00     0.022 A 
BRANCH  76  80
ATOM     80  S   UNL A   1      53.002  26.452  27.330  1.00  0.00     0.124 S 
ATOM     81  O   UNL A   1      53.620  25.237  26.802  1.00  0.00    -0.237 OA
ATOM     82  O   UNL A   1      53.773  27.678  27.171  1.00  0.00    -0.237 OA
ATOM     83  O   UNL A   1      52.338  26.293  28.622  1.00  0.00    -0.744 OA
ENDBRANCH  76  80
ENDBRANCH  59  73
BRANCH  60  84
ATOM     84  C   UNL A   1      39.995  29.150  29.043  1.00  0.00     0.023 A 
ATOM     85  C   UNL A   1      39.700  29.056  30.412  1.00  0.00     0.031 A 
ATOM     86  C   UNL A   1      38.938  29.458  28.164  1.00  0.00     0.131 A 
ATOM     87  C   UNL A   1      38.380  29.245  30.857  1.00  0.00     0.055 A 
ATOM     88  C   UNL A   1      37.643  29.710  28.620  1.00  0.00     0.041 A 
ATOM     89  F   UNL A   1      39.154  29.538  26.841  1.00  0.00    -0.206 F 
ATOM     90  C   UNL A   1      37.356  29.592  29.974  1.00  0.00     0.022 A 
BRANCH  87  91
ATOM     91  S   UNL A   1      37.997  28.937  32.604  1.00  0.00     0.124 S 
ATOM     92  O   UNL A   1      38.091  27.483  32.678  1.00  0.00    -0.237 OA
ATOM     93  O   UNL A   1      39.050  29.682  33.284  1.00  0.00    -0.237 OA
ATOM     94  O   UNL A   1      36.650  29.483  32.759  1.00  0.00    -0.744 OA
ENDBRANCH  87  91
ENDBRANCH  60  84
BRANCH  72  95
ATOM     95  C   UNL A   1      45.888  32.882  28.997  1.00  0.00     0.023 A 
ATOM     96  C   UNL A   1      45.727  33.999  28.157  1.00  0.00     0.031 A 
ATOM     97  C   UNL A   1      46.378  33.098  30.297  1.00  0.00     0.131 A 
ATOM     98  C   UNL A   1      46.110  35.271  28.607  1.00  0.00     0.055 A 
ATOM     99  C   UNL A   1      46.697  34.374  30.761  1.00  0.00     0.041 A 
ATOM    100  F   UNL A   1      46.554  32.067  31.141  1.00  0.00    -0.206 F 
ATOM    101  C   UNL A   1      46.577  35.469  29.908  1.00  0.00     0.022 A 
BRANCH  98 102
ATOM    102  S   UNL A   1      46.083  36.654  27.434  1.00  0.00     0.124 S 
ATOM    103  O   UNL A   1      46.642  36.043  26.232  1.00  0.00    -0.237 OA
ATOM    104  O   UNL A   1      44.663  36.989  27.377  1.00  0.00    -0.237 OA
ATOM    105  O   UNL A   1      46.931  37.660  28.070  1.00  0.00    -0.744 OA
ENDBRANCH  98 102
ENDBRANCH  72  95
ENDBRANCH  46  47
ENDBRANCH  39  41
ENDBRANCH  38  39
ENDBRANCH  37  38
ENDBRANCH  36  37
ENDBRANCH  35  36
ENDBRANCH  34  35
ENDBRANCH   1  34
TORSDOF 26
ENDMDL
