MODEL 1
REMARK VINA RESULT:     -10.3      0.000      0.000
REMARK SMILES O=C(COc1nc(NCc2cccc(Cl)c2)nc2c1CCC2)OCCOCCOCCOC(=O)c1ccc(-c2c3nc(c(-c4cc(S(=O)(=O)[O-])ccc4F)c4ccc([nH]4)c(-c4cc(S(=O)(=O)[O-])ccc4F)c4nc(c(-c5cc(S(=O)(=O)[O-])ccc5F)c5ccc2[nH]5)C=C4)C=C3)cc1
REMARK SMILES IDX 27 1 26 2 25 3 24 4 23 5 2 6 1 7 3 8 4 9 5 10 6 11 19 12
REMARK SMILES IDX 7 13 18 14 20 15 17 16 22 17 21 18 8 19 9 21 10 22 11 23
REMARK SMILES IDX 16 24 12 25 14 26 13 27 15 28 28 29 29 30 30 31 31 32 32 33
REMARK SMILES IDX 33 34 34 35 35 36 36 37 97 38 37 39 96 40 38 41 39 42 40 43
REMARK SMILES IDX 90 44 41 45 95 46 89 47 91 48 42 49 94 50 88 51 87 52 43 54
REMARK SMILES IDX 75 55 55 56 74 57 56 58 59 59 73 60 92 61 57 62 58 63 72 65
REMARK SMILES IDX 93 66 60 67 44 68 45 69 53 70 46 71 52 72 54 73 51 74 47 75
REMARK SMILES IDX 48 76 49 77 50 78 76 79 77 80 85 81 78 82 84 83 86 84 83 85
REMARK SMILES IDX 79 86 80 87 81 88 82 89 61 90 62 91 70 92 63 93 69 94 71 95
REMARK SMILES IDX 68 96 64 97 65 98 66 99 67 100
REMARK H PARENT 8 20 91 53 59 64
REMARK Flexibility Score: inf
ROOT
ATOM      1  C   UNL A   1      33.701  20.635  26.041  1.00  0.00     0.188 C 
ENDROOT
BRANCH   1   2
ATOM      2  O   UNL A   1      34.092  21.403  27.165  1.00  0.00    -0.376 OA
BRANCH   2   3
ATOM      3  C   UNL A   1      33.287  22.516  27.492  1.00  0.00     0.202 C 
BRANCH   3   4
ATOM      4  C   UNL A   1      32.581  23.044  26.244  1.00  0.00     0.261 C 
BRANCH   4   5
ATOM      5  O   UNL A   1      31.147  22.865  26.207  1.00  0.00    -0.461 OA
BRANCH   5   6
ATOM      6  C   UNL A   1      30.209  23.689  26.731  1.00  0.00     0.344 C 
ATOM      7  O   UNL A   1      29.457  23.268  27.610  1.00  0.00    -0.248 OA
BRANCH   6   8
ATOM      8  C   UNL A   1      30.009  25.073  26.113  1.00  0.00     0.353 C 
BRANCH   8   9
ATOM      9  O   UNL A   1      30.246  25.188  24.715  1.00  0.00    -0.465 OA
BRANCH   9  10
ATOM     10  C   UNL A   1      31.235  26.122  24.564  1.00  0.00     0.222 A 
ATOM     11  N   UNL A   1      31.195  27.182  25.380  1.00  0.00    -0.177 NA
ATOM     12  C   UNL A   1      32.044  26.031  23.486  1.00  0.00     0.036 A 
ATOM     13  C   UNL A   1      31.912  28.253  25.026  1.00  0.00     0.226 A 
ATOM     14  C   UNL A   1      32.785  27.154  23.232  1.00  0.00     0.053 A 
ATOM     15  C   UNL A   1      32.116  25.019  22.405  1.00  0.00     0.043 C 
ATOM     16  N   UNL A   1      32.744  28.277  23.972  1.00  0.00    -0.218 NA
ATOM     17  C   UNL A   1      33.462  27.015  21.894  1.00  0.00     0.057 C 
ATOM     18  C   UNL A   1      33.378  25.492  21.675  1.00  0.00     0.011 C 
BRANCH  13  19
ATOM     19  N   UNL A   1      31.627  29.365  25.760  1.00  0.00    -0.350 N 
ATOM     20  H   UNL A   1      31.224  30.137  25.300  1.00  0.00     0.164 HD
BRANCH  19  21
ATOM     21  C   UNL A   1      31.882  29.473  27.163  1.00  0.00     0.152 C 
BRANCH  21  22
ATOM     22  C   UNL A   1      33.313  29.880  27.434  1.00  0.00    -0.027 A 
ATOM     23  C   UNL A   1      34.341  28.922  27.434  1.00  0.00     0.005 A 
ATOM     24  C   UNL A   1      33.653  31.233  27.607  1.00  0.00     0.026 A 
ATOM     25  C   UNL A   1      35.677  29.307  27.566  1.00  0.00     0.002 A 
ATOM     26  C   UNL A   1      34.990  31.611  27.740  1.00  0.00     0.041 A 
ATOM     27  C   UNL A   1      36.003  30.655  27.710  1.00  0.00     0.020 A 
ATOM     28  Cl  UNL A   1      35.401  33.271  27.921  1.00  0.00    -0.084 Cl
ENDBRANCH  21  22
ENDBRANCH  19  21
ENDBRANCH  13  19
ENDBRANCH   9  10
ENDBRANCH   8   9
ENDBRANCH   6   8
ENDBRANCH   5   6
ENDBRANCH   4   5
ENDBRANCH   3   4
ENDBRANCH   2   3
ENDBRANCH   1   2
BRANCH   1  29
ATOM     29  C   UNL A   1      34.817  20.497  24.997  1.00  0.00     0.188 C 
BRANCH  29  30
ATOM     30  O   UNL A   1      35.305  21.653  24.330  1.00  0.00    -0.376 OA
BRANCH  30  31
ATOM     31  C   UNL A   1      36.592  22.154  24.656  1.00  0.00     0.202 C 
BRANCH  31  32
ATOM     32  C   UNL A   1      37.512  21.268  25.504  1.00  0.00     0.261 C 
BRANCH  32  33
ATOM     33  O   UNL A   1      38.927  21.502  25.353  1.00  0.00    -0.460 OA
BRANCH  33  34
ATOM     34  C   UNL A   1      39.675  21.339  26.476  1.00  0.00     0.338 C 
ATOM     35  O   UNL A   1      40.044  20.284  26.958  1.00  0.00    -0.246 OA
BRANCH  34  36
ATOM     36  C   UNL A   1      40.114  22.653  27.004  1.00  0.00     0.060 A 
ATOM     37  C   UNL A   1      39.602  23.822  26.422  1.00  0.00     0.016 A 
ATOM     38  C   UNL A   1      41.095  22.739  27.993  1.00  0.00     0.016 A 
ATOM     39  C   UNL A   1      40.087  25.075  26.810  1.00  0.00     0.010 A 
ATOM     40  C   UNL A   1      41.593  23.996  28.368  1.00  0.00     0.010 A 
ATOM     41  C   UNL A   1      41.115  25.171  27.760  1.00  0.00    -0.014 A 
BRANCH  41  42
ATOM     42  C   UNL A   1      41.785  26.479  28.000  1.00  0.00     0.031 A 
ATOM     43  C   UNL A   1      43.183  26.693  27.482  1.00  0.00     0.074 A 
ATOM     44  C   UNL A   1      41.158  27.480  28.645  1.00  0.00     0.049 A 
ATOM     45  N   UNL A   1      43.950  27.750  27.571  1.00  0.00    -0.248 NA
ATOM     46  C   UNL A   1      43.796  25.562  26.771  1.00  0.00     0.031 C 
ATOM     47  C   UNL A   1      39.795  27.423  29.166  1.00  0.00     0.029 A 
ATOM     48  N   UNL A   1      41.589  28.746  28.968  1.00  0.00    -0.354 N 
ATOM     49  C   UNL A   1      45.134  27.414  26.925  1.00  0.00     0.074 A 
ATOM     50  C   UNL A   1      44.998  26.041  26.487  1.00  0.00     0.031 C 
ATOM     51  C   UNL A   1      39.498  28.602  29.740  1.00  0.00     0.029 A 
ATOM     52  C   UNL A   1      40.658  29.490  29.654  1.00  0.00     0.049 A 
ATOM     53  H   UNL A   1      42.481  29.087  28.731  1.00  0.00     0.167 HD
ATOM     54  C   UNL A   1      46.229  28.182  26.703  1.00  0.00     0.034 A 
ATOM     55  C   UNL A   1      40.730  30.737  30.166  1.00  0.00     0.034 A 
ATOM     56  C   UNL A   1      46.365  29.546  27.147  1.00  0.00     0.049 A 
ATOM     57  C   UNL A   1      41.990  31.549  29.993  1.00  0.00     0.074 A 
ATOM     58  C   UNL A   1      47.423  30.415  26.941  1.00  0.00     0.029 A 
ATOM     59  N   UNL A   1      45.427  30.235  27.903  1.00  0.00    -0.354 N 
ATOM     60  N   UNL A   1      43.099  31.220  29.372  1.00  0.00    -0.248 NA
ATOM     61  C   UNL A   1      42.013  32.894  30.586  1.00  0.00     0.031 C 
ATOM     62  C   UNL A   1      47.160  31.598  27.636  1.00  0.00     0.029 A 
ATOM     63  C   UNL A   1      45.903  31.501  28.210  1.00  0.00     0.049 A 
ATOM     64  H   UNL A   1      44.553  29.878  28.180  1.00  0.00     0.167 HD
ATOM     65  C   UNL A   1      43.939  32.325  29.479  1.00  0.00     0.074 A 
ATOM     66  C   UNL A   1      43.217  33.328  30.233  1.00  0.00     0.031 C 
ATOM     67  C   UNL A   1      45.190  32.493  28.980  1.00  0.00     0.034 A 
BRANCH  54  68
ATOM     68  C   UNL A   1      47.388  27.545  25.979  1.00  0.00     0.023 A 
ATOM     69  C   UNL A   1      48.360  26.794  26.661  1.00  0.00     0.031 A 
ATOM     70  C   UNL A   1      47.524  27.695  24.587  1.00  0.00     0.131 A 
ATOM     71  C   UNL A   1      49.460  26.275  25.960  1.00  0.00     0.055 A 
ATOM     72  C   UNL A   1      48.582  27.115  23.884  1.00  0.00     0.041 A 
ATOM     73  F   UNL A   1      46.634  28.417  23.888  1.00  0.00    -0.206 F 
ATOM     74  C   UNL A   1      49.564  26.410  24.573  1.00  0.00     0.022 A 
BRANCH  71  75
ATOM     75  S   UNL A   1      50.813  25.525  26.904  1.00  0.00     0.124 S 
ATOM     76  O   UNL A   1      50.117  24.456  27.617  1.00  0.00    -0.237 OA
ATOM     77  O   UNL A   1      51.732  25.100  25.855  1.00  0.00    -0.237 OA
ATOM     78  O   UNL A   1      51.291  26.618  27.748  1.00  0.00    -0.744 OA
ENDBRANCH  71  75
ENDBRANCH  54  68
BRANCH  55  79
ATOM     79  C   UNL A   1      39.562  31.283  30.912  1.00  0.00     0.023 A 
ATOM     80  C   UNL A   1      39.488  31.197  32.310  1.00  0.00     0.031 A 
ATOM     81  C   UNL A   1      38.526  31.947  30.230  1.00  0.00     0.131 A 
ATOM     82  C   UNL A   1      38.397  31.769  32.985  1.00  0.00     0.055 A 
ATOM     83  C   UNL A   1      37.459  32.539  30.908  1.00  0.00     0.041 A 
ATOM     84  F   UNL A   1      38.560  32.064  28.894  1.00  0.00    -0.206 F 
ATOM     85  C   UNL A   1      37.390  32.452  32.294  1.00  0.00     0.022 A 
BRANCH  82  86
ATOM     86  S   UNL A   1      38.311  31.633  34.792  1.00  0.00     0.124 S 
ATOM     87  O   UNL A   1      37.061  32.327  35.081  1.00  0.00    -0.237 OA
ATOM     88  O   UNL A   1      38.308  30.188  34.989  1.00  0.00    -0.237 OA
ATOM     89  O   UNL A   1      39.524  32.315  35.239  1.00  0.00    -0.744 OA
ENDBRANCH  82  86
ENDBRANCH  55  79
BRANCH  67  90
ATOM     90  C   UNL A   1      45.878  33.817  29.195  1.00  0.00     0.023 A 
ATOM     91  C   UNL A   1      45.625  34.924  28.368  1.00  0.00     0.031 A 
ATOM     92  C   UNL A   1      46.705  34.001  30.319  1.00  0.00     0.131 A 
ATOM     93  C   UNL A   1      46.196  36.169  28.678  1.00  0.00     0.055 A 
ATOM     94  C   UNL A   1      47.237  35.249  30.643  1.00  0.00     0.041 A 
ATOM     95  F   UNL A   1      46.969  32.976  31.146  1.00  0.00    -0.206 F 
ATOM     96  C   UNL A   1      46.982  36.343  29.822  1.00  0.00     0.022 A 
BRANCH  93  97
ATOM     97  S   UNL A   1      45.890  37.576  27.573  1.00  0.00     0.124 S 
ATOM     98  O   UNL A   1      44.563  37.264  27.051  1.00  0.00    -0.237 OA
ATOM     99  O   UNL A   1      45.967  38.716  28.480  1.00  0.00    -0.237 OA
ATOM    100  O   UNL A   1      46.976  37.489  26.598  1.00  0.00    -0.744 OA
ENDBRANCH  93  97
ENDBRANCH  67  90
ENDBRANCH  41  42
ENDBRANCH  34  36
ENDBRANCH  33  34
ENDBRANCH  32  33
ENDBRANCH  31  32
ENDBRANCH  30  31
ENDBRANCH  29  30
ENDBRANCH   1  29
TORSDOF 25
ENDMDL
MODEL 2
REMARK VINA RESULT:     -10.3      5.072      8.409
REMARK SMILES O=C(COc1nc(NCc2cccc(Cl)c2)nc2c1CCC2)OCCOCCOCCOC(=O)c1ccc(-c2c3nc(c(-c4cc(S(=O)(=O)[O-])ccc4F)c4ccc([nH]4)c(-c4cc(S(=O)(=O)[O-])ccc4F)c4nc(c(-c5cc(S(=O)(=O)[O-])ccc5F)c5ccc2[nH]5)C=C4)C=C3)cc1
REMARK SMILES IDX 27 1 26 2 25 3 24 4 23 5 2 6 1 7 3 8 4 9 5 10 6 11 19 12
REMARK SMILES IDX 7 13 18 14 20 15 17 16 22 17 21 18 8 19 9 21 10 22 11 23
REMARK SMILES IDX 16 24 12 25 14 26 13 27 15 28 28 29 29 30 30 31 31 32 32 33
REMARK SMILES IDX 33 34 34 35 35 36 36 37 97 38 37 39 96 40 38 41 39 42 40 43
REMARK SMILES IDX 90 44 41 45 95 46 89 47 91 48 42 49 94 50 88 51 87 52 43 54
REMARK SMILES IDX 75 55 55 56 74 57 56 58 59 59 73 60 92 61 57 62 58 63 72 65
REMARK SMILES IDX 93 66 60 67 44 68 45 69 53 70 46 71 52 72 54 73 51 74 47 75
REMARK SMILES IDX 48 76 49 77 50 78 76 79 77 80 85 81 78 82 84 83 86 84 83 85
REMARK SMILES IDX 79 86 80 87 81 88 82 89 61 90 62 91 70 92 63 93 69 94 71 95
REMARK SMILES IDX 68 96 64 97 65 98 66 99 67 100
REMARK H PARENT 8 20 91 53 59 64
REMARK Flexibility Score: inf
ROOT
ATOM      1  C   UNL A   1      41.646  21.479  27.194  1.00  0.00     0.188 C 
ENDROOT
BRANCH   1   2
ATOM      2  O   UNL A   1      40.247  21.446  26.978  1.00  0.00    -0.376 OA
BRANCH   2   3
ATOM      3  C   UNL A   1      39.723  22.350  26.027  1.00  0.00     0.202 C 
BRANCH   3   4
ATOM      4  C   UNL A   1      38.245  22.616  26.307  1.00  0.00     0.261 C 
BRANCH   4   5
ATOM      5  O   UNL A   1      37.541  23.381  25.302  1.00  0.00    -0.461 OA
BRANCH   5   6
ATOM      6  C   UNL A   1      36.650  22.914  24.398  1.00  0.00     0.344 C 
ATOM      7  O   UNL A   1      36.938  21.928  23.718  1.00  0.00    -0.248 OA
BRANCH   6   8
ATOM      8  C   UNL A   1      35.371  23.711  24.136  1.00  0.00     0.353 C 
BRANCH   8   9
ATOM      9  O   UNL A   1      35.206  24.914  24.875  1.00  0.00    -0.465 OA
BRANCH   9  10
ATOM     10  C   UNL A   1      34.114  24.731  25.678  1.00  0.00     0.222 A 
ATOM     11  N   UNL A   1      33.783  23.468  25.971  1.00  0.00    -0.177 NA
ATOM     12  C   UNL A   1      33.326  25.797  25.943  1.00  0.00     0.036 A 
ATOM     13  C   UNL A   1      32.549  23.251  26.437  1.00  0.00     0.226 A 
ATOM     14  C   UNL A   1      32.103  25.485  26.473  1.00  0.00     0.053 A 
ATOM     15  C   UNL A   1      33.458  27.223  25.563  1.00  0.00     0.043 C 
ATOM     16  N   UNL A   1      31.681  24.233  26.730  1.00  0.00    -0.218 NA
ATOM     17  C   UNL A   1      31.242  26.720  26.506  1.00  0.00     0.057 C 
ATOM     18  C   UNL A   1      32.305  27.826  26.373  1.00  0.00     0.011 C 
BRANCH  13  19
ATOM     19  N   UNL A   1      32.205  21.934  26.472  1.00  0.00    -0.350 N 
ATOM     20  H   UNL A   1      31.254  21.703  26.587  1.00  0.00     0.164 HD
BRANCH  19  21
ATOM     21  C   UNL A   1      33.148  20.866  26.350  1.00  0.00     0.152 C 
BRANCH  21  22
ATOM     22  C   UNL A   1      32.875  20.026  25.121  1.00  0.00    -0.027 A 
ATOM     23  C   UNL A   1      32.315  20.606  23.971  1.00  0.00     0.005 A 
ATOM     24  C   UNL A   1      33.254  18.673  25.079  1.00  0.00     0.026 A 
ATOM     25  C   UNL A   1      32.170  19.864  22.795  1.00  0.00     0.002 A 
ATOM     26  C   UNL A   1      33.104  17.938  23.902  1.00  0.00     0.041 A 
ATOM     27  C   UNL A   1      32.574  18.531  22.758  1.00  0.00     0.020 A 
ATOM     28  Cl  UNL A   1      33.597  16.291  23.848  1.00  0.00    -0.084 Cl
ENDBRANCH  21  22
ENDBRANCH  19  21
ENDBRANCH  13  19
ENDBRANCH   9  10
ENDBRANCH   8   9
ENDBRANCH   6   8
ENDBRANCH   5   6
ENDBRANCH   4   5
ENDBRANCH   3   4
ENDBRANCH   2   3
ENDBRANCH   1   2
BRANCH   1  29
ATOM     29  C   UNL A   1      42.373  20.283  26.566  1.00  0.00     0.188 C 
BRANCH  29  30
ATOM     30  O   UNL A   1      42.998  20.424  25.297  1.00  0.00    -0.376 OA
BRANCH  30  31
ATOM     31  C   UNL A   1      44.257  21.071  25.209  1.00  0.00     0.202 C 
BRANCH  31  32
ATOM     32  C   UNL A   1      44.370  22.298  24.296  1.00  0.00     0.261 C 
BRANCH  32  33
ATOM     33  O   UNL A   1      43.520  23.414  24.632  1.00  0.00    -0.460 OA
BRANCH  33  34
ATOM     34  C   UNL A   1      44.162  24.570  24.948  1.00  0.00     0.338 C 
ATOM     35  O   UNL A   1      45.220  24.964  24.492  1.00  0.00    -0.246 OA
BRANCH  34  36
ATOM     36  C   UNL A   1      43.333  25.393  25.860  1.00  0.00     0.060 A 
ATOM     37  C   UNL A   1      43.665  26.744  26.043  1.00  0.00     0.016 A 
ATOM     38  C   UNL A   1      42.300  24.822  26.607  1.00  0.00     0.016 A 
ATOM     39  C   UNL A   1      42.984  27.516  26.990  1.00  0.00     0.010 A 
ATOM     40  C   UNL A   1      41.630  25.595  27.568  1.00  0.00     0.010 A 
ATOM     41  C   UNL A   1      41.985  26.938  27.787  1.00  0.00    -0.014 A 
BRANCH  41  42
ATOM     42  C   UNL A   1      41.426  27.694  28.942  1.00  0.00     0.031 A 
ATOM     43  C   UNL A   1      42.180  27.701  30.247  1.00  0.00     0.074 A 
ATOM     44  C   UNL A   1      40.280  28.391  28.836  1.00  0.00     0.049 A 
ATOM     45  N   UNL A   1      41.882  28.294  31.375  1.00  0.00    -0.248 NA
ATOM     46  C   UNL A   1      43.433  26.934  30.282  1.00  0.00     0.031 C 
ATOM     47  C   UNL A   1      39.470  28.500  27.626  1.00  0.00     0.029 A 
ATOM     48  N   UNL A   1      39.600  29.143  29.765  1.00  0.00    -0.354 N 
ATOM     49  C   UNL A   1      42.912  27.977  32.253  1.00  0.00     0.074 A 
ATOM     50  C   UNL A   1      43.818  27.103  31.538  1.00  0.00     0.031 C 
ATOM     51  C   UNL A   1      38.405  29.278  27.883  1.00  0.00     0.029 A 
ATOM     52  C   UNL A   1      38.439  29.700  29.284  1.00  0.00     0.049 A 
ATOM     53  H   UNL A   1      39.915  29.271  30.689  1.00  0.00     0.167 HD
ATOM     54  C   UNL A   1      43.095  28.386  33.533  1.00  0.00     0.034 A 
ATOM     55  C   UNL A   1      37.502  30.455  29.899  1.00  0.00     0.034 A 
ATOM     56  C   UNL A   1      42.187  29.249  34.245  1.00  0.00     0.049 A 
ATOM     57  C   UNL A   1      37.671  30.826  31.351  1.00  0.00     0.074 A 
ATOM     58  C   UNL A   1      42.305  29.744  35.532  1.00  0.00     0.029 A 
ATOM     59  N   UNL A   1      40.985  29.730  33.743  1.00  0.00    -0.354 N 
ATOM     60  N   UNL A   1      38.655  30.525  32.166  1.00  0.00    -0.248 NA
ATOM     61  C   UNL A   1      36.610  31.635  31.968  1.00  0.00     0.031 C 
ATOM     62  C   UNL A   1      41.141  30.457  35.836  1.00  0.00     0.029 A 
ATOM     63  C   UNL A   1      40.332  30.476  34.711  1.00  0.00     0.049 A 
ATOM     64  H   UNL A   1      40.647  29.565  32.833  1.00  0.00     0.167 HD
ATOM     65  C   UNL A   1      38.343  31.127  33.382  1.00  0.00     0.074 A 
ATOM     66  C   UNL A   1      37.074  31.801  33.201  1.00  0.00     0.031 C 
ATOM     67  C   UNL A   1      39.057  31.131  34.536  1.00  0.00     0.034 A 
BRANCH  54  68
ATOM     68  C   UNL A   1      44.309  27.866  34.260  1.00  0.00     0.023 A 
ATOM     69  C   UNL A   1      44.291  26.637  34.940  1.00  0.00     0.031 A 
ATOM     70  C   UNL A   1      45.500  28.615  34.277  1.00  0.00     0.131 A 
ATOM     71  C   UNL A   1      45.420  26.221  35.662  1.00  0.00     0.055 A 
ATOM     72  C   UNL A   1      46.644  28.161  34.936  1.00  0.00     0.041 A 
ATOM     73  F   UNL A   1      45.568  29.804  33.659  1.00  0.00    -0.206 F 
ATOM     74  C   UNL A   1      46.604  26.963  35.644  1.00  0.00     0.022 A 
BRANCH  71  75
ATOM     75  S   UNL A   1      45.281  24.757  36.721  1.00  0.00     0.124 S 
ATOM     76  O   UNL A   1      46.595  24.142  36.546  1.00  0.00    -0.237 OA
ATOM     77  O   UNL A   1      45.018  25.340  38.032  1.00  0.00    -0.237 OA
ATOM     78  O   UNL A   1      44.169  24.013  36.134  1.00  0.00    -0.744 OA
ENDBRANCH  71  75
ENDBRANCH  54  68
BRANCH  55  79
ATOM     79  C   UNL A   1      36.303  30.891  29.129  1.00  0.00     0.023 A 
ATOM     80  C   UNL A   1      35.909  32.236  29.099  1.00  0.00     0.031 A 
ATOM     81  C   UNL A   1      35.566  29.964  28.370  1.00  0.00     0.131 A 
ATOM     82  C   UNL A   1      34.805  32.620  28.321  1.00  0.00     0.055 A 
ATOM     83  C   UNL A   1      34.487  30.355  27.575  1.00  0.00     0.041 A 
ATOM     84  F   UNL A   1      35.914  28.668  28.359  1.00  0.00    -0.206 F 
ATOM     85  C   UNL A   1      34.101  31.690  27.548  1.00  0.00     0.022 A 
BRANCH  82  86
ATOM     86  S   UNL A   1      34.300  34.362  28.307  1.00  0.00     0.124 S 
ATOM     87  O   UNL A   1      32.847  34.249  28.353  1.00  0.00    -0.237 OA
ATOM     88  O   UNL A   1      34.947  34.876  29.509  1.00  0.00    -0.237 OA
ATOM     89  O   UNL A   1      34.850  34.862  27.049  1.00  0.00    -0.744 OA
ENDBRANCH  82  86
ENDBRANCH  55  79
BRANCH  67  90
ATOM     90  C   UNL A   1      38.518  31.907  35.711  1.00  0.00     0.023 A 
ATOM     91  C   UNL A   1      37.935  31.263  36.816  1.00  0.00     0.031 A 
ATOM     92  C   UNL A   1      38.703  33.300  35.774  1.00  0.00     0.131 A 
ATOM     93  C   UNL A   1      37.557  32.016  37.940  1.00  0.00     0.055 A 
ATOM     94  C   UNL A   1      38.360  34.037  36.908  1.00  0.00     0.041 A 
ATOM     95  F   UNL A   1      39.264  33.960  34.747  1.00  0.00    -0.206 F 
ATOM     96  C   UNL A   1      37.786  33.395  38.000  1.00  0.00     0.022 A 
BRANCH  93  97
ATOM     97  S   UNL A   1      36.769  31.171  39.339  1.00  0.00     0.124 S 
ATOM     98  O   UNL A   1      36.580  29.824  38.808  1.00  0.00    -0.237 OA
ATOM     99  O   UNL A   1      37.765  31.307  40.395  1.00  0.00    -0.237 OA
ATOM    100  O   UNL A   1      35.538  31.932  39.550  1.00  0.00    -0.744 OA
ENDBRANCH  93  97
ENDBRANCH  67  90
ENDBRANCH  41  42
ENDBRANCH  34  36
ENDBRANCH  33  34
ENDBRANCH  32  33
ENDBRANCH  31  32
ENDBRANCH  30  31
ENDBRANCH  29  30
ENDBRANCH   1  29
TORSDOF 25
ENDMDL
MODEL 3
REMARK VINA RESULT:     -10.1      1.900      7.639
REMARK SMILES O=C(COc1nc(NCc2cccc(Cl)c2)nc2c1CCC2)OCCOCCOCCOC(=O)c1ccc(-c2c3nc(c(-c4cc(S(=O)(=O)[O-])ccc4F)c4ccc([nH]4)c(-c4cc(S(=O)(=O)[O-])ccc4F)c4nc(c(-c5cc(S(=O)(=O)[O-])ccc5F)c5ccc2[nH]5)C=C4)C=C3)cc1
REMARK SMILES IDX 27 1 26 2 25 3 24 4 23 5 2 6 1 7 3 8 4 9 5 10 6 11 19 12
REMARK SMILES IDX 7 13 18 14 20 15 17 16 22 17 21 18 8 19 9 21 10 22 11 23
REMARK SMILES IDX 16 24 12 25 14 26 13 27 15 28 28 29 29 30 30 31 31 32 32 33
REMARK SMILES IDX 33 34 34 35 35 36 36 37 97 38 37 39 96 40 38 41 39 42 40 43
REMARK SMILES IDX 90 44 41 45 95 46 89 47 91 48 42 49 94 50 88 51 87 52 43 54
REMARK SMILES IDX 75 55 55 56 74 57 56 58 59 59 73 60 92 61 57 62 58 63 72 65
REMARK SMILES IDX 93 66 60 67 44 68 45 69 53 70 46 71 52 72 54 73 51 74 47 75
REMARK SMILES IDX 48 76 49 77 50 78 76 79 77 80 85 81 78 82 84 83 86 84 83 85
REMARK SMILES IDX 79 86 80 87 81 88 82 89 61 90 62 91 70 92 63 93 69 94 71 95
REMARK SMILES IDX 68 96 64 97 65 98 66 99 67 100
REMARK H PARENT 8 20 91 53 59 64
REMARK Flexibility Score: inf
ROOT
ATOM      1  C   UNL A   1      32.482  20.075  24.138  1.00  0.00     0.188 C 
ENDROOT
BRANCH   1   2
ATOM      2  O   UNL A   1      31.974  21.391  24.265  1.00  0.00    -0.376 OA
BRANCH   2   3
ATOM      3  C   UNL A   1      31.702  22.092  23.070  1.00  0.00     0.202 C 
BRANCH   3   4
ATOM      4  C   UNL A   1      33.006  22.481  22.376  1.00  0.00     0.261 C 
BRANCH   4   5
ATOM      5  O   UNL A   1      34.179  22.535  23.221  1.00  0.00    -0.461 OA
BRANCH   5   6
ATOM      6  C   UNL A   1      35.096  23.528  23.280  1.00  0.00     0.344 C 
ATOM      7  O   UNL A   1      36.189  23.375  22.735  1.00  0.00    -0.248 OA
BRANCH   6   8
ATOM      8  C   UNL A   1      34.808  24.753  24.150  1.00  0.00     0.353 C 
BRANCH   8   9
ATOM      9  O   UNL A   1      33.966  24.551  25.278  1.00  0.00    -0.465 OA
BRANCH   9  10
ATOM     10  C   UNL A   1      32.733  25.036  24.934  1.00  0.00     0.222 A 
ATOM     11  N   UNL A   1      32.703  26.044  24.054  1.00  0.00    -0.177 NA
ATOM     12  C   UNL A   1      31.661  24.627  25.648  1.00  0.00     0.036 A 
ATOM     13  C   UNL A   1      31.575  26.756  23.979  1.00  0.00     0.226 A 
ATOM     14  C   UNL A   1      30.532  25.379  25.464  1.00  0.00     0.053 A 
ATOM     15  C   UNL A   1      31.544  23.647  26.754  1.00  0.00     0.043 C 
ATOM     16  N   UNL A   1      30.452  26.445  24.646  1.00  0.00    -0.218 NA
ATOM     17  C   UNL A   1      29.489  24.973  26.472  1.00  0.00     0.057 C 
ATOM     18  C   UNL A   1      30.020  23.593  26.906  1.00  0.00     0.011 C 
BRANCH  13  19
ATOM     19  N   UNL A   1      31.704  27.904  23.256  1.00  0.00    -0.350 N 
ATOM     20  H   UNL A   1      30.991  28.135  22.617  1.00  0.00     0.164 HD
BRANCH  19  21
ATOM     21  C   UNL A   1      32.818  28.793  23.376  1.00  0.00     0.152 C 
BRANCH  21  22
ATOM     22  C   UNL A   1      32.924  29.359  24.775  1.00  0.00    -0.027 A 
ATOM     23  C   UNL A   1      31.851  30.066  25.342  1.00  0.00     0.005 A 
ATOM     24  C   UNL A   1      34.062  29.116  25.562  1.00  0.00     0.026 A 
ATOM     25  C   UNL A   1      31.896  30.489  26.673  1.00  0.00     0.002 A 
ATOM     26  C   UNL A   1      34.103  29.543  26.890  1.00  0.00     0.041 A 
ATOM     27  C   UNL A   1      33.021  30.219  27.451  1.00  0.00     0.020 A 
ATOM     28  Cl  UNL A   1      35.487  29.216  27.858  1.00  0.00    -0.084 Cl
ENDBRANCH  21  22
ENDBRANCH  19  21
ENDBRANCH  13  19
ENDBRANCH   9  10
ENDBRANCH   8   9
ENDBRANCH   6   8
ENDBRANCH   5   6
ENDBRANCH   4   5
ENDBRANCH   3   4
ENDBRANCH   2   3
ENDBRANCH   1   2
BRANCH   1  29
ATOM     29  C   UNL A   1      33.754  19.847  24.964  1.00  0.00     0.188 C 
BRANCH  29  30
ATOM     30  O   UNL A   1      34.056  20.713  26.049  1.00  0.00    -0.376 OA
BRANCH  30  31
ATOM     31  C   UNL A   1      35.348  21.291  26.140  1.00  0.00     0.202 C 
BRANCH  31  32
ATOM     32  C   UNL A   1      36.468  20.679  25.291  1.00  0.00     0.261 C 
BRANCH  32  33
ATOM     33  O   UNL A   1      37.629  21.511  25.085  1.00  0.00    -0.460 OA
BRANCH  33  34
ATOM     34  C   UNL A   1      38.725  21.186  25.819  1.00  0.00     0.338 C 
ATOM     35  O   UNL A   1      39.253  20.091  25.895  1.00  0.00    -0.246 OA
BRANCH  34  36
ATOM     36  C   UNL A   1      39.306  22.395  26.451  1.00  0.00     0.060 A 
ATOM     37  C   UNL A   1      38.779  23.651  26.119  1.00  0.00     0.016 A 
ATOM     38  C   UNL A   1      40.424  22.305  27.283  1.00  0.00     0.016 A 
ATOM     39  C   UNL A   1      39.383  24.819  26.598  1.00  0.00     0.010 A 
ATOM     40  C   UNL A   1      41.038  23.479  27.747  1.00  0.00     0.010 A 
ATOM     41  C   UNL A   1      40.541  24.743  27.386  1.00  0.00    -0.014 A 
BRANCH  41  42
ATOM     42  C   UNL A   1      41.308  25.981  27.699  1.00  0.00     0.031 A 
ATOM     43  C   UNL A   1      40.636  27.082  28.476  1.00  0.00     0.074 A 
ATOM     44  C   UNL A   1      42.594  26.122  27.327  1.00  0.00     0.049 A 
ATOM     45  N   UNL A   1      41.115  28.238  28.863  1.00  0.00    -0.248 NA
ATOM     46  C   UNL A   1      39.238  26.849  28.865  1.00  0.00     0.031 C 
ATOM     47  C   UNL A   1      43.376  25.123  26.605  1.00  0.00     0.029 A 
ATOM     48  N   UNL A   1      43.470  27.166  27.511  1.00  0.00    -0.354 N 
ATOM     49  C   UNL A   1      40.080  28.868  29.544  1.00  0.00     0.074 A 
ATOM     50  C   UNL A   1      38.936  27.983  29.479  1.00  0.00     0.031 C 
ATOM     51  C   UNL A   1      44.618  25.599  26.410  1.00  0.00     0.029 A 
ATOM     52  C   UNL A   1      44.713  26.949  26.968  1.00  0.00     0.049 A 
ATOM     53  H   UNL A   1      43.228  27.994  27.987  1.00  0.00     0.167 HD
ATOM     54  C   UNL A   1      40.084  30.067  30.179  1.00  0.00     0.034 A 
ATOM     55  C   UNL A   1      45.803  27.744  26.913  1.00  0.00     0.034 A 
ATOM     56  C   UNL A   1      41.223  30.948  30.235  1.00  0.00     0.049 A 
ATOM     57  C   UNL A   1      45.765  29.115  27.542  1.00  0.00     0.074 A 
ATOM     58  C   UNL A   1      41.332  32.168  30.882  1.00  0.00     0.029 A 
ATOM     59  N   UNL A   1      42.439  30.721  29.607  1.00  0.00    -0.354 N 
ATOM     60  N   UNL A   1      44.781  29.694  28.190  1.00  0.00    -0.248 NA
ATOM     61  C   UNL A   1      46.978  29.940  27.435  1.00  0.00     0.031 C 
ATOM     62  C   UNL A   1      42.584  32.712  30.581  1.00  0.00     0.029 A 
ATOM     63  C   UNL A   1      43.287  31.797  29.813  1.00  0.00     0.049 A 
ATOM     64  H   UNL A   1      42.666  29.913  29.092  1.00  0.00     0.167 HD
ATOM     65  C   UNL A   1      45.264  30.937  28.588  1.00  0.00     0.074 A 
ATOM     66  C   UNL A   1      46.623  31.034  28.100  1.00  0.00     0.031 C 
ATOM     67  C   UNL A   1      44.637  31.901  29.308  1.00  0.00     0.034 A 
BRANCH  54  68
ATOM     68  C   UNL A   1      38.799  30.512  30.829  1.00  0.00     0.023 A 
ATOM     69  C   UNL A   1      37.836  31.256  30.126  1.00  0.00     0.031 A 
ATOM     70  C   UNL A   1      38.535  30.190  32.173  1.00  0.00     0.131 A 
ATOM     71  C   UNL A   1      36.685  31.710  30.788  1.00  0.00     0.055 A 
ATOM     72  C   UNL A   1      37.354  30.582  32.804  1.00  0.00     0.041 A 
ATOM     73  F   UNL A   1      39.427  29.496  32.896  1.00  0.00    -0.206 F 
ATOM     74  C   UNL A   1      36.426  31.357  32.115  1.00  0.00     0.022 A 
BRANCH  71  75
ATOM     75  S   UNL A   1      35.589  32.867  29.925  1.00  0.00     0.124 S 
ATOM     76  O   UNL A   1      35.820  32.505  28.529  1.00  0.00    -0.237 OA
ATOM     77  O   UNL A   1      34.279  32.524  30.466  1.00  0.00    -0.237 OA
ATOM     78  O   UNL A   1      36.101  34.179  30.314  1.00  0.00    -0.744 OA
ENDBRANCH  71  75
ENDBRANCH  54  68
BRANCH  55  79
ATOM     79  C   UNL A   1      47.023  27.256  26.210  1.00  0.00     0.023 A 
ATOM     80  C   UNL A   1      48.067  26.636  26.911  1.00  0.00     0.031 A 
ATOM     81  C   UNL A   1      47.131  27.362  24.811  1.00  0.00     0.131 A 
ATOM     82  C   UNL A   1      49.178  26.141  26.209  1.00  0.00     0.055 A 
ATOM     83  C   UNL A   1      48.223  26.843  24.115  1.00  0.00     0.041 A 
ATOM     84  F   UNL A   1      46.151  27.937  24.097  1.00  0.00    -0.206 F 
ATOM     85  C   UNL A   1      49.256  26.227  24.815  1.00  0.00     0.022 A 
BRANCH  82  86
ATOM     86  S   UNL A   1      50.526  25.356  27.135  1.00  0.00     0.124 S 
ATOM     87  O   UNL A   1      50.933  26.431  28.033  1.00  0.00    -0.237 OA
ATOM     88  O   UNL A   1      49.851  24.220  27.752  1.00  0.00    -0.237 OA
ATOM     89  O   UNL A   1      51.492  25.010  26.095  1.00  0.00    -0.744 OA
ENDBRANCH  82  86
ENDBRANCH  55  79
BRANCH  67  90
ATOM     90  C   UNL A   1      45.402  33.154  29.653  1.00  0.00     0.023 A 
ATOM     91  C   UNL A   1      45.380  34.285  28.820  1.00  0.00     0.031 A 
ATOM     92  C   UNL A   1      46.062  33.252  30.892  1.00  0.00     0.131 A 
ATOM     93  C   UNL A   1      46.009  35.469  29.239  1.00  0.00     0.055 A 
ATOM     94  C   UNL A   1      46.651  34.442  31.319  1.00  0.00     0.041 A 
ATOM     95  F   UNL A   1      46.103  32.200  31.727  1.00  0.00    -0.206 F 
ATOM     96  C   UNL A   1      46.625  35.560  30.492  1.00  0.00     0.022 A 
BRANCH  93  97
ATOM     97  S   UNL A   1      46.004  36.906  28.131  1.00  0.00     0.124 S 
ATOM     98  O   UNL A   1      47.271  37.549  28.468  1.00  0.00    -0.237 OA
ATOM     99  O   UNL A   1      45.934  36.290  26.811  1.00  0.00    -0.237 OA
ATOM    100  O   UNL A   1      44.808  37.645  28.531  1.00  0.00    -0.744 OA
ENDBRANCH  93  97
ENDBRANCH  67  90
ENDBRANCH  41  42
ENDBRANCH  34  36
ENDBRANCH  33  34
ENDBRANCH  32  33
ENDBRANCH  31  32
ENDBRANCH  30  31
ENDBRANCH  29  30
ENDBRANCH   1  29
TORSDOF 25
ENDMDL
