MODEL 1
REMARK VINA RESULT:      -9.0      0.000      0.000
REMARK SMILES COc1ccc(OC)c([C@@](C)(O)[C@H](F)C(=O)OCCOCCOCCOC(=O)c2ccc(-c3c4nc(c(-c5cc(S(=O)(=O)[O-])ccc5F)c5ccc([nH]5)c(-c5cc(S(=O)(=O)[O-])ccc5F)c5nc(c(-c6cc(S(=O)(=O)[O-])ccc6F)c6ccc3[nH]6)C=C5)C=C4)cc2)c1
REMARK SMILES IDX 21 1 20 2 19 3 18 4 17 5 15 6 16 7 13 8 14 9 10 10 11 11
REMARK SMILES IDX 9 12 3 13 4 14 92 15 5 16 6 17 2 18 1 19 7 20 8 21 12 22
REMARK SMILES IDX 22 24 23 25 24 26 25 27 26 28 27 29 28 30 29 31 30 32 91 33
REMARK SMILES IDX 31 34 90 35 32 36 33 37 34 38 84 39 35 40 89 41 83 42 85 43
REMARK SMILES IDX 36 44 88 45 82 46 81 47 37 49 69 50 49 51 68 52 50 53 53 54
REMARK SMILES IDX 67 55 86 56 51 57 52 58 66 60 87 61 54 62 38 63 39 64 47 65
REMARK SMILES IDX 40 66 46 67 48 68 45 69 41 70 42 71 43 72 44 73 70 74 71 75
REMARK SMILES IDX 79 76 72 77 78 78 80 79 77 80 73 81 74 82 75 83 76 84 55 85
REMARK SMILES IDX 56 86 64 87 57 88 63 89 65 90 62 91 58 92 59 93 60 94 61 95
REMARK H PARENT 12 23 85 48 53 59
REMARK Flexibility Score: inf
ROOT
ATOM      1  C   UNL A   1      33.577  28.625  26.890  1.00  0.00     0.188 C 
ENDROOT
BRANCH   1   2
ATOM      2  O   UNL A   1      34.171  27.844  25.874  1.00  0.00    -0.376 OA
BRANCH   2   3
ATOM      3  C   UNL A   1      34.099  26.426  25.874  1.00  0.00     0.202 C 
BRANCH   3   4
ATOM      4  C   UNL A   1      34.198  25.544  24.621  1.00  0.00     0.261 C 
BRANCH   4   5
ATOM      5  O   UNL A   1      33.019  25.482  23.819  1.00  0.00    -0.461 OA
BRANCH   5   6
ATOM      6  C   UNL A   1      31.966  24.841  24.395  1.00  0.00     0.344 C 
ATOM      7  O   UNL A   1      31.139  25.404  25.102  1.00  0.00    -0.249 OA
BRANCH   6   8
ATOM      8  C   UNL A   1      31.889  23.378  23.972  1.00  0.00     0.311 C 
ATOM      9  F   UNL A   1      32.795  23.077  22.982  1.00  0.00    -0.231 F 
BRANCH   8  10
ATOM     10  C   UNL A   1      32.154  22.428  25.158  1.00  0.00     0.133 C 
ATOM     11  C   UNL A   1      30.747  22.164  25.752  1.00  0.00     0.051 C 
BRANCH  10  12
ATOM     12  C   UNL A   1      32.976  21.177  24.811  1.00  0.00     0.033 A 
ATOM     13  C   UNL A   1      33.027  18.736  24.447  1.00  0.00     0.119 A 
ATOM     14  C   UNL A   1      34.403  18.748  24.638  1.00  0.00     0.050 A 
ATOM     15  C   UNL A   1      32.333  19.947  24.482  1.00  0.00     0.057 A 
ATOM     16  C   UNL A   1      35.079  19.954  24.807  1.00  0.00     0.050 A 
ATOM     17  C   UNL A   1      34.379  21.163  24.854  1.00  0.00     0.125 A 
BRANCH  13  18
ATOM     18  O   UNL A   1      32.485  17.490  24.310  1.00  0.00    -0.497 OA
ATOM     19  C   UNL A   1      33.351  16.362  24.300  1.00  0.00     0.278 C 
ENDBRANCH  13  18
BRANCH  17  20
ATOM     20  O   UNL A   1      35.159  22.276  25.025  1.00  0.00    -0.496 OA
ATOM     21  C   UNL A   1      36.380  22.221  24.279  1.00  0.00     0.278 C 
ENDBRANCH  17  20
ENDBRANCH  10  12
BRANCH  10  22
ATOM     22  O   UNL A   1      32.923  23.167  26.131  1.00  0.00    -0.382 OA
ATOM     23  H   UNL A   1      33.868  22.990  26.000  1.00  0.00     0.212 HD
ENDBRANCH  10  22
ENDBRANCH   8  10
ENDBRANCH   6   8
ENDBRANCH   5   6
ENDBRANCH   4   5
ENDBRANCH   3   4
ENDBRANCH   2   3
ENDBRANCH   1   2
BRANCH   1  24
ATOM     24  C   UNL A   1      33.408  30.142  26.684  1.00  0.00     0.188 C 
BRANCH  24  25
ATOM     25  O   UNL A   1      32.295  30.589  25.955  1.00  0.00    -0.376 OA
BRANCH  25  26
ATOM     26  C   UNL A   1      31.436  31.559  26.525  1.00  0.00     0.202 C 
BRANCH  26  27
ATOM     27  C   UNL A   1      31.831  33.003  26.917  1.00  0.00     0.261 C 
BRANCH  27  28
ATOM     28  O   UNL A   1      32.488  33.226  28.172  1.00  0.00    -0.460 OA
BRANCH  28  29
ATOM     29  C   UNL A   1      33.549  34.079  28.139  1.00  0.00     0.338 C 
ATOM     30  O   UNL A   1      33.553  35.219  27.721  1.00  0.00    -0.246 OA
BRANCH  29  31
ATOM     31  C   UNL A   1      34.662  33.485  28.920  1.00  0.00     0.060 A 
ATOM     32  C   UNL A   1      35.981  33.683  28.484  1.00  0.00     0.016 A 
ATOM     33  C   UNL A   1      34.404  32.723  30.058  1.00  0.00     0.016 A 
ATOM     34  C   UNL A   1      37.048  33.107  29.178  1.00  0.00     0.010 A 
ATOM     35  C   UNL A   1      35.471  32.119  30.732  1.00  0.00     0.010 A 
ATOM     36  C   UNL A   1      36.795  32.284  30.282  1.00  0.00    -0.014 A 
BRANCH  36  37
ATOM     37  C   UNL A   1      37.877  31.428  30.836  1.00  0.00     0.031 A 
ATOM     38  C   UNL A   1      38.358  31.713  32.234  1.00  0.00     0.074 A 
ATOM     39  C   UNL A   1      38.420  30.420  30.128  1.00  0.00     0.049 A 
ATOM     40  N   UNL A   1      39.361  31.195  32.892  1.00  0.00    -0.248 NA
ATOM     41  C   UNL A   1      37.605  32.731  32.985  1.00  0.00     0.031 C 
ATOM     42  C   UNL A   1      38.002  30.001  28.792  1.00  0.00     0.029 A 
ATOM     43  N   UNL A   1      39.458  29.572  30.435  1.00  0.00    -0.354 N 
ATOM     44  C   UNL A   1      39.366  31.827  34.132  1.00  0.00     0.074 A 
ATOM     45  C   UNL A   1      38.287  32.791  34.118  1.00  0.00     0.031 C 
ATOM     46  C   UNL A   1      38.791  28.991  28.384  1.00  0.00     0.029 A 
ATOM     47  C   UNL A   1      39.802  28.723  29.408  1.00  0.00     0.049 A 
ATOM     48  H   UNL A   1      39.912  29.573  31.308  1.00  0.00     0.167 HD
ATOM     49  C   UNL A   1      40.192  31.619  35.187  1.00  0.00     0.034 A 
ATOM     50  C   UNL A   1      40.836  27.861  29.294  1.00  0.00     0.034 A 
ATOM     51  C   UNL A   1      41.274  30.667  35.183  1.00  0.00     0.049 A 
ATOM     52  C   UNL A   1      41.812  27.725  30.444  1.00  0.00     0.074 A 
ATOM     53  C   UNL A   1      42.170  30.380  36.199  1.00  0.00     0.029 A 
ATOM     54  N   UNL A   1      41.615  29.854  34.111  1.00  0.00    -0.354 N 
ATOM     55  N   UNL A   1      41.810  28.334  31.609  1.00  0.00    -0.248 NA
ATOM     56  C   UNL A   1      42.924  26.781  30.266  1.00  0.00     0.031 C 
ATOM     57  C   UNL A   1      43.099  29.454  35.714  1.00  0.00     0.029 A 
ATOM     58  C   UNL A   1      42.728  29.090  34.430  1.00  0.00     0.049 A 
ATOM     59  H   UNL A   1      41.138  29.824  33.252  1.00  0.00     0.167 HD
ATOM     60  C   UNL A   1      42.897  27.813  32.312  1.00  0.00     0.074 A 
ATOM     61  C   UNL A   1      43.520  26.833  31.448  1.00  0.00     0.031 C 
ATOM     62  C   UNL A   1      43.339  28.112  33.561  1.00  0.00     0.034 A 
BRANCH  49  63
ATOM     63  C   UNL A   1      39.985  32.476  36.412  1.00  0.00     0.023 A 
ATOM     64  C   UNL A   1      39.030  32.149  37.391  1.00  0.00     0.031 A 
ATOM     65  C   UNL A   1      40.750  33.640  36.601  1.00  0.00     0.131 A 
ATOM     66  C   UNL A   1      38.826  33.006  38.482  1.00  0.00     0.055 A 
ATOM     67  C   UNL A   1      40.598  34.446  37.729  1.00  0.00     0.041 A 
ATOM     68  F   UNL A   1      41.658  34.017  35.686  1.00  0.00    -0.206 F 
ATOM     69  C   UNL A   1      39.622  34.139  38.673  1.00  0.00     0.022 A 
BRANCH  66  70
ATOM     70  S   UNL A   1      37.418  32.692  39.580  1.00  0.00     0.124 S 
ATOM     71  O   UNL A   1      36.324  32.552  38.622  1.00  0.00    -0.237 OA
ATOM     72  O   UNL A   1      37.822  31.472  40.270  1.00  0.00    -0.237 OA
ATOM     73  O   UNL A   1      37.359  33.890  40.413  1.00  0.00    -0.744 OA
ENDBRANCH  66  70
ENDBRANCH  49  63
BRANCH  50  74
ATOM     74  C   UNL A   1      41.057  27.092  28.031  1.00  0.00     0.023 A 
ATOM     75  C   UNL A   1      40.726  25.731  27.941  1.00  0.00     0.031 A 
ATOM     76  C   UNL A   1      41.694  27.687  26.925  1.00  0.00     0.131 A 
ATOM     77  C   UNL A   1      41.090  24.995  26.802  1.00  0.00     0.055 A 
ATOM     78  C   UNL A   1      41.991  26.965  25.767  1.00  0.00     0.041 A 
ATOM     79  F   UNL A   1      42.043  28.982  26.957  1.00  0.00    -0.206 F 
ATOM     80  C   UNL A   1      41.704  25.605  25.707  1.00  0.00     0.022 A 
BRANCH  77  81
ATOM     81  S   UNL A   1      40.863  23.194  26.825  1.00  0.00     0.124 S 
ATOM     82  O   UNL A   1      39.428  23.075  26.597  1.00  0.00    -0.237 OA
ATOM     83  O   UNL A   1      41.727  22.767  25.729  1.00  0.00    -0.237 OA
ATOM     84  O   UNL A   1      41.317  22.812  28.160  1.00  0.00    -0.744 OA
ENDBRANCH  77  81
ENDBRANCH  50  74
BRANCH  62  85
ATOM     85  C   UNL A   1      44.514  27.323  34.094  1.00  0.00     0.023 A 
ATOM     86  C   UNL A   1      44.348  26.104  34.775  1.00  0.00     0.031 A 
ATOM     87  C   UNL A   1      45.824  27.804  33.916  1.00  0.00     0.131 A 
ATOM     88  C   UNL A   1      45.467  25.440  35.302  1.00  0.00     0.055 A 
ATOM     89  C   UNL A   1      46.938  27.105  34.382  1.00  0.00     0.041 A 
ATOM     90  F   UNL A   1      46.045  28.965  33.277  1.00  0.00    -0.206 F 
ATOM     91  C   UNL A   1      46.761  25.922  35.092  1.00  0.00     0.022 A 
BRANCH  88  92
ATOM     92  S   UNL A   1      45.201  23.987  36.355  1.00  0.00     0.124 S 
ATOM     93  O   UNL A   1      46.449  23.252  36.180  1.00  0.00    -0.237 OA
ATOM     94  O   UNL A   1      44.994  24.587  37.669  1.00  0.00    -0.237 OA
ATOM     95  O   UNL A   1      44.021  23.351  35.771  1.00  0.00    -0.744 OA
ENDBRANCH  88  92
ENDBRANCH  62  85
ENDBRANCH  36  37
ENDBRANCH  29  31
ENDBRANCH  28  29
ENDBRANCH  27  28
ENDBRANCH  26  27
ENDBRANCH  25  26
ENDBRANCH  24  25
ENDBRANCH   1  24
TORSDOF 25
ENDMDL
MODEL 2
REMARK VINA RESULT:      -9.0      4.563      9.532
REMARK SMILES COc1ccc(OC)c([C@@](C)(O)[C@H](F)C(=O)OCCOCCOCCOC(=O)c2ccc(-c3c4nc(c(-c5cc(S(=O)(=O)[O-])ccc5F)c5ccc([nH]5)c(-c5cc(S(=O)(=O)[O-])ccc5F)c5nc(c(-c6cc(S(=O)(=O)[O-])ccc6F)c6ccc3[nH]6)C=C5)C=C4)cc2)c1
REMARK SMILES IDX 21 1 20 2 19 3 18 4 17 5 15 6 16 7 13 8 14 9 10 10 11 11
REMARK SMILES IDX 9 12 3 13 4 14 92 15 5 16 6 17 2 18 1 19 7 20 8 21 12 22
REMARK SMILES IDX 22 24 23 25 24 26 25 27 26 28 27 29 28 30 29 31 30 32 91 33
REMARK SMILES IDX 31 34 90 35 32 36 33 37 34 38 84 39 35 40 89 41 83 42 85 43
REMARK SMILES IDX 36 44 88 45 82 46 81 47 37 49 69 50 49 51 68 52 50 53 53 54
REMARK SMILES IDX 67 55 86 56 51 57 52 58 66 60 87 61 54 62 38 63 39 64 47 65
REMARK SMILES IDX 40 66 46 67 48 68 45 69 41 70 42 71 43 72 44 73 70 74 71 75
REMARK SMILES IDX 79 76 72 77 78 78 80 79 77 80 73 81 74 82 75 83 76 84 55 85
REMARK SMILES IDX 56 86 64 87 57 88 63 89 65 90 62 91 58 92 59 93 60 94 61 95
REMARK H PARENT 12 23 85 48 53 59
REMARK Flexibility Score: inf
ROOT
ATOM      1  C   UNL A   1      34.515  34.508  31.034  1.00  0.00     0.188 C 
ENDROOT
BRANCH   1   2
ATOM      2  O   UNL A   1      33.998  33.432  31.789  1.00  0.00    -0.376 OA
BRANCH   2   3
ATOM      3  C   UNL A   1      34.070  33.402  33.207  1.00  0.00     0.202 C 
BRANCH   3   4
ATOM      4  C   UNL A   1      34.992  34.289  34.056  1.00  0.00     0.261 C 
BRANCH   4   5
ATOM      5  O   UNL A   1      36.389  34.024  33.926  1.00  0.00    -0.461 OA
BRANCH   5   6
ATOM      6  C   UNL A   1      36.898  33.164  34.847  1.00  0.00     0.344 C 
ATOM      7  O   UNL A   1      37.060  31.968  34.635  1.00  0.00    -0.249 OA
BRANCH   6   8
ATOM      8  C   UNL A   1      37.332  33.881  36.121  1.00  0.00     0.311 C 
ATOM      9  F   UNL A   1      36.601  33.480  37.215  1.00  0.00    -0.231 F 
BRANCH   8  10
ATOM     10  C   UNL A   1      38.822  33.635  36.433  1.00  0.00     0.133 C 
ATOM     11  C   UNL A   1      39.558  34.099  35.150  1.00  0.00     0.051 C 
BRANCH  10  12
ATOM     12  C   UNL A   1      39.317  34.258  37.747  1.00  0.00     0.033 A 
ATOM     13  C   UNL A   1      40.512  36.100  38.875  1.00  0.00     0.119 A 
ATOM     14  C   UNL A   1      40.674  35.294  39.995  1.00  0.00     0.050 A 
ATOM     15  C   UNL A   1      39.794  35.602  37.786  1.00  0.00     0.057 A 
ATOM     16  C   UNL A   1      40.084  34.034  40.045  1.00  0.00     0.050 A 
ATOM     17  C   UNL A   1      39.378  33.533  38.948  1.00  0.00     0.125 A 
BRANCH  13  18
ATOM     18  O   UNL A   1      41.153  37.304  38.945  1.00  0.00    -0.497 OA
ATOM     19  C   UNL A   1      40.748  38.241  39.937  1.00  0.00     0.278 C 
ENDBRANCH  13  18
BRANCH  17  20
ATOM     20  O   UNL A   1      38.847  32.282  39.124  1.00  0.00    -0.496 OA
ATOM     21  C   UNL A   1      37.664  32.288  39.930  1.00  0.00     0.278 C 
ENDBRANCH  17  20
ENDBRANCH  10  12
BRANCH  10  22
ATOM     22  O   UNL A   1      38.998  32.208  36.564  1.00  0.00    -0.382 OA
ATOM     23  H   UNL A   1      38.277  31.748  36.106  1.00  0.00     0.212 HD
ENDBRANCH  10  22
ENDBRANCH   8  10
ENDBRANCH   6   8
ENDBRANCH   5   6
ENDBRANCH   4   5
ENDBRANCH   3   4
ENDBRANCH   2   3
ENDBRANCH   1   2
BRANCH   1  24
ATOM     24  C   UNL A   1      33.554  35.563  30.455  1.00  0.00     0.188 C 
BRANCH  24  25
ATOM     25  O   UNL A   1      33.305  35.543  29.074  1.00  0.00    -0.376 OA
BRANCH  25  26
ATOM     26  C   UNL A   1      32.821  34.356  28.473  1.00  0.00     0.202 C 
BRANCH  26  27
ATOM     27  C   UNL A   1      33.638  33.395  27.577  1.00  0.00     0.261 C 
BRANCH  27  28
ATOM     28  O   UNL A   1      34.807  32.766  28.119  1.00  0.00    -0.460 OA
BRANCH  28  29
ATOM     29  C   UNL A   1      34.788  31.404  28.139  1.00  0.00     0.338 C 
ATOM     30  O   UNL A   1      34.013  30.679  27.548  1.00  0.00    -0.246 OA
BRANCH  29  31
ATOM     31  C   UNL A   1      36.020  30.922  28.809  1.00  0.00     0.060 A 
ATOM     32  C   UNL A   1      37.234  31.579  28.557  1.00  0.00     0.016 A 
ATOM     33  C   UNL A   1      35.981  29.818  29.660  1.00  0.00     0.016 A 
ATOM     34  C   UNL A   1      38.417  31.125  29.145  1.00  0.00     0.010 A 
ATOM     35  C   UNL A   1      37.173  29.345  30.221  1.00  0.00     0.010 A 
ATOM     36  C   UNL A   1      38.401  29.978  29.946  1.00  0.00    -0.014 A 
BRANCH  36  37
ATOM     37  C   UNL A   1      39.675  29.313  30.322  1.00  0.00     0.031 A 
ATOM     38  C   UNL A   1      40.397  29.809  31.548  1.00  0.00     0.074 A 
ATOM     39  C   UNL A   1      40.185  28.293  29.607  1.00  0.00     0.049 A 
ATOM     40  N   UNL A   1      41.573  29.480  32.012  1.00  0.00    -0.248 NA
ATOM     41  C   UNL A   1      39.691  30.821  32.351  1.00  0.00     0.031 C 
ATOM     42  C   UNL A   1      39.554  27.679  28.440  1.00  0.00     0.029 A 
ATOM     43  N   UNL A   1      41.364  27.602  29.751  1.00  0.00    -0.354 N 
ATOM     44  C   UNL A   1      41.756  30.250  33.157  1.00  0.00     0.074 A 
ATOM     45  C   UNL A   1      40.581  31.085  33.295  1.00  0.00     0.031 C 
ATOM     46  C   UNL A   1      40.365  26.718  27.961  1.00  0.00     0.029 A 
ATOM     47  C   UNL A   1      41.593  26.681  28.755  1.00  0.00     0.049 A 
ATOM     48  H   UNL A   1      41.987  27.754  30.499  1.00  0.00     0.167 HD
ATOM     49  C   UNL A   1      42.803  30.256  34.018  1.00  0.00     0.034 A 
ATOM     50  C   UNL A   1      42.683  25.927  28.494  1.00  0.00     0.034 A 
ATOM     51  C   UNL A   1      43.974  29.430  33.861  1.00  0.00     0.049 A 
ATOM     52  C   UNL A   1      43.887  26.030  29.407  1.00  0.00     0.074 A 
ATOM     53  C   UNL A   1      45.092  29.361  34.675  1.00  0.00     0.029 A 
ATOM     54  N   UNL A   1      44.187  28.539  32.819  1.00  0.00    -0.354 N 
ATOM     55  N   UNL A   1      44.050  26.767  30.484  1.00  0.00    -0.248 NA
ATOM     56  C   UNL A   1      45.050  25.197  29.074  1.00  0.00     0.031 C 
ATOM     57  C   UNL A   1      46.012  28.489  34.083  1.00  0.00     0.029 A 
ATOM     58  C   UNL A   1      45.431  27.940  32.951  1.00  0.00     0.049 A 
ATOM     59  H   UNL A   1      43.549  28.358  32.092  1.00  0.00     0.167 HD
ATOM     60  C   UNL A   1      45.318  26.450  30.973  1.00  0.00     0.074 A 
ATOM     61  C   UNL A   1      45.868  25.449  30.086  1.00  0.00     0.031 C 
ATOM     62  C   UNL A   1      45.968  26.939  32.060  1.00  0.00     0.034 A 
BRANCH  49  63
ATOM     63  C   UNL A   1      42.748  31.222  35.176  1.00  0.00     0.023 A 
ATOM     64  C   UNL A   1      43.100  32.575  35.030  1.00  0.00     0.031 A 
ATOM     65  C   UNL A   1      42.342  30.780  36.448  1.00  0.00     0.131 A 
ATOM     66  C   UNL A   1      43.096  33.423  36.146  1.00  0.00     0.055 A 
ATOM     67  C   UNL A   1      42.264  31.648  37.538  1.00  0.00     0.041 A 
ATOM     68  F   UNL A   1      42.021  29.493  36.654  1.00  0.00    -0.206 F 
ATOM     69  C   UNL A   1      42.653  32.976  37.394  1.00  0.00     0.022 A 
BRANCH  66  70
ATOM     70  S   UNL A   1      43.800  35.085  35.975  1.00  0.00     0.124 S 
ATOM     71  O   UNL A   1      43.735  35.575  37.350  1.00  0.00    -0.237 OA
ATOM     72  O   UNL A   1      45.136  34.811  35.458  1.00  0.00    -0.237 OA
ATOM     73  O   UNL A   1      42.892  35.747  35.041  1.00  0.00    -0.744 OA
ENDBRANCH  66  70
ENDBRANCH  49  63
BRANCH  50  74
ATOM     74  C   UNL A   1      42.734  25.044  27.288  1.00  0.00     0.023 A 
ATOM     75  C   UNL A   1      42.197  23.747  27.314  1.00  0.00     0.031 A 
ATOM     76  C   UNL A   1      43.407  25.452  26.122  1.00  0.00     0.131 A 
ATOM     77  C   UNL A   1      42.398  22.883  26.225  1.00  0.00     0.055 A 
ATOM     78  C   UNL A   1      43.544  24.612  25.015  1.00  0.00     0.041 A 
ATOM     79  F   UNL A   1      43.949  26.677  26.042  1.00  0.00    -0.206 F 
ATOM     80  C   UNL A   1      43.052  23.312  25.069  1.00  0.00     0.022 A 
BRANCH  77  81
ATOM     81  S   UNL A   1      41.903  21.145  26.395  1.00  0.00     0.124 S 
ATOM     82  O   UNL A   1      42.819  20.486  25.472  1.00  0.00    -0.237 OA
ATOM     83  O   UNL A   1      42.136  20.903  27.815  1.00  0.00    -0.237 OA
ATOM     84  O   UNL A   1      40.500  21.150  25.986  1.00  0.00    -0.744 OA
ENDBRANCH  77  81
ENDBRANCH  50  74
BRANCH  62  85
ATOM     85  C   UNL A   1      47.320  26.347  32.390  1.00  0.00     0.023 A 
ATOM     86  C   UNL A   1      47.460  25.208  33.202  1.00  0.00     0.031 A 
ATOM     87  C   UNL A   1      48.491  26.939  31.879  1.00  0.00     0.131 A 
ATOM     88  C   UNL A   1      48.741  24.733  33.527  1.00  0.00     0.055 A 
ATOM     89  C   UNL A   1      49.758  26.421  32.149  1.00  0.00     0.041 A 
ATOM     90  F   UNL A   1      48.421  28.031  31.100  1.00  0.00    -0.206 F 
ATOM     91  C   UNL A   1      49.889  25.320  32.988  1.00  0.00     0.022 A 
BRANCH  88  92
ATOM     92  S   UNL A   1      48.892  23.397  34.744  1.00  0.00     0.124 S 
ATOM     93  O   UNL A   1      49.745  22.443  34.044  1.00  0.00    -0.237 OA
ATOM     94  O   UNL A   1      49.499  24.079  35.883  1.00  0.00    -0.237 OA
ATOM     95  O   UNL A   1      47.511  22.961  34.948  1.00  0.00    -0.744 OA
ENDBRANCH  88  92
ENDBRANCH  62  85
ENDBRANCH  36  37
ENDBRANCH  29  31
ENDBRANCH  28  29
ENDBRANCH  27  28
ENDBRANCH  26  27
ENDBRANCH  25  26
ENDBRANCH  24  25
ENDBRANCH   1  24
TORSDOF 25
ENDMDL
MODEL 3
REMARK VINA RESULT:      -8.6      5.415     10.797
REMARK SMILES COc1ccc(OC)c([C@@](C)(O)[C@H](F)C(=O)OCCOCCOCCOC(=O)c2ccc(-c3c4nc(c(-c5cc(S(=O)(=O)[O-])ccc5F)c5ccc([nH]5)c(-c5cc(S(=O)(=O)[O-])ccc5F)c5nc(c(-c6cc(S(=O)(=O)[O-])ccc6F)c6ccc3[nH]6)C=C5)C=C4)cc2)c1
REMARK SMILES IDX 21 1 20 2 19 3 18 4 17 5 15 6 16 7 13 8 14 9 10 10 11 11
REMARK SMILES IDX 9 12 3 13 4 14 92 15 5 16 6 17 2 18 1 19 7 20 8 21 12 22
REMARK SMILES IDX 22 24 23 25 24 26 25 27 26 28 27 29 28 30 29 31 30 32 91 33
REMARK SMILES IDX 31 34 90 35 32 36 33 37 34 38 84 39 35 40 89 41 83 42 85 43
REMARK SMILES IDX 36 44 88 45 82 46 81 47 37 49 69 50 49 51 68 52 50 53 53 54
REMARK SMILES IDX 67 55 86 56 51 57 52 58 66 60 87 61 54 62 38 63 39 64 47 65
REMARK SMILES IDX 40 66 46 67 48 68 45 69 41 70 42 71 43 72 44 73 70 74 71 75
REMARK SMILES IDX 79 76 72 77 78 78 80 79 77 80 73 81 74 82 75 83 76 84 55 85
REMARK SMILES IDX 56 86 64 87 57 88 63 89 65 90 62 91 58 92 59 93 60 94 61 95
REMARK H PARENT 12 23 85 48 53 59
REMARK Flexibility Score: inf
ROOT
ATOM      1  C   UNL A   1      37.437  32.448  38.310  1.00  0.00     0.188 C 
ENDROOT
BRANCH   1   2
ATOM      2  O   UNL A   1      37.536  31.526  37.244  1.00  0.00    -0.376 OA
BRANCH   2   3
ATOM      3  C   UNL A   1      38.162  31.861  36.013  1.00  0.00     0.202 C 
BRANCH   3   4
ATOM      4  C   UNL A   1      37.423  32.075  34.685  1.00  0.00     0.261 C 
BRANCH   4   5
ATOM      5  O   UNL A   1      38.244  32.069  33.517  1.00  0.00    -0.461 OA
BRANCH   5   6
ATOM      6  C   UNL A   1      38.387  30.854  32.923  1.00  0.00     0.344 C 
ATOM      7  O   UNL A   1      37.461  30.067  32.764  1.00  0.00    -0.249 OA
BRANCH   6   8
ATOM      8  C   UNL A   1      39.801  30.641  32.393  1.00  0.00     0.311 C 
ATOM      9  F   UNL A   1      40.344  29.455  32.831  1.00  0.00    -0.231 F 
BRANCH   8  10
ATOM     10  C   UNL A   1      39.836  30.635  30.852  1.00  0.00     0.133 C 
ATOM     11  C   UNL A   1      39.783  29.131  30.479  1.00  0.00     0.051 C 
BRANCH  10  12
ATOM     12  C   UNL A   1      38.780  31.525  30.179  1.00  0.00     0.033 A 
ATOM     13  C   UNL A   1      36.848  31.698  28.653  1.00  0.00     0.119 A 
ATOM     14  C   UNL A   1      37.083  33.062  28.528  1.00  0.00     0.050 A 
ATOM     15  C   UNL A   1      37.658  30.952  29.511  1.00  0.00     0.057 A 
ATOM     16  C   UNL A   1      38.075  33.677  29.288  1.00  0.00     0.050 A 
ATOM     17  C   UNL A   1      38.893  32.924  30.136  1.00  0.00     0.125 A 
BRANCH  13  18
ATOM     18  O   UNL A   1      35.859  31.217  27.842  1.00  0.00    -0.497 OA
ATOM     19  C   UNL A   1      35.820  29.823  27.560  1.00  0.00     0.278 C 
ENDBRANCH  13  18
BRANCH  17  20
ATOM     20  O   UNL A   1      39.830  33.646  30.827  1.00  0.00    -0.496 OA
ATOM     21  C   UNL A   1      39.248  34.574  31.749  1.00  0.00     0.278 C 
ENDBRANCH  17  20
ENDBRANCH  10  12
BRANCH  10  22
ATOM     22  O   UNL A   1      41.124  31.153  30.453  1.00  0.00    -0.382 OA
ATOM     23  H   UNL A   1      41.771  30.430  30.429  1.00  0.00     0.212 HD
ENDBRANCH  10  22
ENDBRANCH   8  10
ENDBRANCH   6   8
ENDBRANCH   5   6
ENDBRANCH   4   5
ENDBRANCH   3   4
ENDBRANCH   2   3
ENDBRANCH   1   2
BRANCH   1  24
ATOM     24  C   UNL A   1      37.491  31.940  39.763  1.00  0.00     0.188 C 
BRANCH  24  25
ATOM     25  O   UNL A   1      38.088  32.764  40.728  1.00  0.00    -0.376 OA
BRANCH  25  26
ATOM     26  C   UNL A   1      38.320  34.129  40.430  1.00  0.00     0.202 C 
BRANCH  26  27
ATOM     27  C   UNL A   1      39.698  34.775  40.154  1.00  0.00     0.261 C 
BRANCH  27  28
ATOM     28  O   UNL A   1      39.839  35.657  39.033  1.00  0.00    -0.460 OA
BRANCH  28  29
ATOM     29  C   UNL A   1      41.108  36.067  38.760  1.00  0.00     0.338 C 
ATOM     30  O   UNL A   1      41.849  36.683  39.500  1.00  0.00    -0.246 OA
BRANCH  29  31
ATOM     31  C   UNL A   1      41.550  35.434  37.493  1.00  0.00     0.060 A 
ATOM     32  C   UNL A   1      40.582  34.982  36.584  1.00  0.00     0.016 A 
ATOM     33  C   UNL A   1      42.907  35.269  37.217  1.00  0.00     0.016 A 
ATOM     34  C   UNL A   1      40.967  34.349  35.399  1.00  0.00     0.010 A 
ATOM     35  C   UNL A   1      43.289  34.605  36.045  1.00  0.00     0.010 A 
ATOM     36  C   UNL A   1      42.323  34.117  35.144  1.00  0.00    -0.014 A 
BRANCH  36  37
ATOM     37  C   UNL A   1      42.729  33.188  34.057  1.00  0.00     0.031 A 
ATOM     38  C   UNL A   1      42.904  33.753  32.672  1.00  0.00     0.074 A 
ATOM     39  C   UNL A   1      42.943  31.879  34.282  1.00  0.00     0.049 A 
ATOM     40  N   UNL A   1      43.132  33.137  31.543  1.00  0.00    -0.248 NA
ATOM     41  C   UNL A   1      42.798  35.217  32.550  1.00  0.00     0.031 C 
ATOM     42  C   UNL A   1      42.869  31.221  35.585  1.00  0.00     0.029 A 
ATOM     43  N   UNL A   1      43.253  30.862  33.411  1.00  0.00    -0.354 N 
ATOM     44  C   UNL A   1      43.189  34.133  30.573  1.00  0.00     0.074 A 
ATOM     45  C   UNL A   1      42.937  35.390  31.245  1.00  0.00     0.031 C 
ATOM     46  C   UNL A   1      43.104  29.906  35.423  1.00  0.00     0.029 A 
ATOM     47  C   UNL A   1      43.296  29.619  34.001  1.00  0.00     0.049 A 
ATOM     48  H   UNL A   1      43.428  31.010  32.453  1.00  0.00     0.167 HD
ATOM     49  C   UNL A   1      43.433  34.012  29.245  1.00  0.00     0.034 A 
ATOM     50  C   UNL A   1      43.433  28.393  33.452  1.00  0.00     0.034 A 
ATOM     51  C   UNL A   1      43.668  32.752  28.584  1.00  0.00     0.049 A 
ATOM     52  C   UNL A   1      43.596  28.273  31.950  1.00  0.00     0.074 A 
ATOM     53  C   UNL A   1      43.923  32.520  27.244  1.00  0.00     0.029 A 
ATOM     54  N   UNL A   1      43.664  31.513  29.209  1.00  0.00    -0.354 N 
ATOM     55  N   UNL A   1      43.642  29.223  31.043  1.00  0.00    -0.248 NA
ATOM     56  C   UNL A   1      43.732  26.916  31.401  1.00  0.00     0.031 C 
ATOM     57  C   UNL A   1      43.995  31.137  27.045  1.00  0.00     0.029 A 
ATOM     58  C   UNL A   1      43.880  30.510  28.276  1.00  0.00     0.049 A 
ATOM     59  H   UNL A   1      43.528  31.367  30.172  1.00  0.00     0.167 HD
ATOM     60  C   UNL A   1      43.853  28.575  29.825  1.00  0.00     0.074 A 
ATOM     61  C   UNL A   1      43.940  27.160  30.116  1.00  0.00     0.031 C 
ATOM     62  C   UNL A   1      43.969  29.101  28.579  1.00  0.00     0.034 A 
BRANCH  49  63
ATOM     63  C   UNL A   1      43.410  35.272  28.415  1.00  0.00     0.023 A 
ATOM     64  C   UNL A   1      44.592  35.941  28.049  1.00  0.00     0.031 A 
ATOM     65  C   UNL A   1      42.185  35.817  27.988  1.00  0.00     0.131 A 
ATOM     66  C   UNL A   1      44.521  37.143  27.331  1.00  0.00     0.055 A 
ATOM     67  C   UNL A   1      42.126  36.971  27.205  1.00  0.00     0.041 A 
ATOM     68  F   UNL A   1      41.024  35.237  28.329  1.00  0.00    -0.206 F 
ATOM     69  C   UNL A   1      43.298  37.648  26.883  1.00  0.00     0.022 A 
BRANCH  66  70
ATOM     70  S   UNL A   1      46.039  38.107  27.103  1.00  0.00     0.124 S 
ATOM     71  O   UNL A   1      46.370  38.465  28.480  1.00  0.00    -0.237 OA
ATOM     72  O   UNL A   1      46.930  37.146  26.463  1.00  0.00    -0.237 OA
ATOM     73  O   UNL A   1      45.614  39.222  26.261  1.00  0.00    -0.744 OA
ENDBRANCH  66  70
ENDBRANCH  49  63
BRANCH  50  74
ATOM     74  C   UNL A   1      43.367  27.162  34.297  1.00  0.00     0.023 A 
ATOM     75  C   UNL A   1      44.534  26.506  34.719  1.00  0.00     0.031 A 
ATOM     76  C   UNL A   1      42.131  26.570  34.615  1.00  0.00     0.131 A 
ATOM     77  C   UNL A   1      44.444  25.267  35.374  1.00  0.00     0.055 A 
ATOM     78  C   UNL A   1      42.046  25.372  35.328  1.00  0.00     0.041 A 
ATOM     79  F   UNL A   1      40.981  27.146  34.229  1.00  0.00    -0.206 F 
ATOM     80  C   UNL A   1      43.208  24.704  35.697  1.00  0.00     0.022 A 
BRANCH  77  81
ATOM     81  S   UNL A   1      45.972  24.338  35.685  1.00  0.00     0.124 S 
ATOM     82  O   UNL A   1      46.260  23.794  34.364  1.00  0.00    -0.237 OA
ATOM     83  O   UNL A   1      46.871  25.387  36.158  1.00  0.00    -0.237 OA
ATOM     84  O   UNL A   1      45.575  23.357  36.693  1.00  0.00    -0.744 OA
ENDBRANCH  77  81
ENDBRANCH  50  74
BRANCH  62  85
ATOM     85  C   UNL A   1      44.271  28.148  27.443  1.00  0.00     0.023 A 
ATOM     86  C   UNL A   1      45.583  27.901  27.004  1.00  0.00     0.031 A 
ATOM     87  C   UNL A   1      43.221  27.476  26.790  1.00  0.00     0.131 A 
ATOM     88  C   UNL A   1      45.806  27.052  25.908  1.00  0.00     0.055 A 
ATOM     89  C   UNL A   1      43.454  26.581  25.746  1.00  0.00     0.041 A 
ATOM     90  F   UNL A   1      41.946  27.675  27.162  1.00  0.00    -0.206 F 
ATOM     91  C   UNL A   1      44.752  26.376  25.290  1.00  0.00     0.022 A 
BRANCH  88  92
ATOM     92  S   UNL A   1      47.485  26.923  25.234  1.00  0.00     0.124 S 
ATOM     93  O   UNL A   1      47.778  28.307  24.881  1.00  0.00    -0.237 OA
ATOM     94  O   UNL A   1      48.234  26.380  26.363  1.00  0.00    -0.237 OA
ATOM     95  O   UNL A   1      47.330  26.013  24.099  1.00  0.00    -0.744 OA
ENDBRANCH  88  92
ENDBRANCH  62  85
ENDBRANCH  36  37
ENDBRANCH  29  31
ENDBRANCH  28  29
ENDBRANCH  27  28
ENDBRANCH  26  27
ENDBRANCH  25  26
ENDBRANCH  24  25
ENDBRANCH   1  24
TORSDOF 25
ENDMDL
