MODEL 1
REMARK VINA RESULT:     -10.0      0.000      0.000
REMARK SMILES Cc1cc2nc(SCC(=O)OCCOCCOCCOC(=O)c3ccc(-c4c5nc(c(-c6cc(S(=O)(=O)[O-])ccc6F)c6ccc([nH]6)c(-c6cc(S(=O)(=O)[O-])ccc6F)c6nc(c(-c7cc(S(=O)(=O)[O-])ccc7F)c7ccc4[nH]7)C=C6)C=C5)cc3)n(CC(C)C)c(=O)c2[nH]1
REMARK SMILES IDX 15 1 14 2 13 3 12 4 11 5 9 6 10 7 8 8 7 9 6 10 1 11 2 12
REMARK SMILES IDX 3 13 94 14 4 15 93 16 5 18 91 19 86 20 92 21 87 22 88 23
REMARK SMILES IDX 89 24 90 25 16 26 17 27 18 28 19 29 20 30 21 31 22 32 23 33
REMARK SMILES IDX 24 34 85 35 25 36 84 37 26 38 27 39 28 40 78 41 29 42 83 43
REMARK SMILES IDX 77 44 79 45 30 46 82 47 76 48 75 49 31 51 63 52 43 53 62 54
REMARK SMILES IDX 44 55 47 56 61 57 80 58 45 59 46 60 60 62 81 63 48 64 32 65
REMARK SMILES IDX 33 66 41 67 34 68 40 69 42 70 39 71 35 72 36 73 37 74 38 75
REMARK SMILES IDX 64 76 65 77 73 78 66 79 72 80 74 81 71 82 67 83 68 84 69 85
REMARK SMILES IDX 70 86 49 87 50 88 58 89 51 90 57 91 59 92 56 93 52 94 53 95
REMARK SMILES IDX 54 96 55 97
REMARK H PARENT 94 17 79 50 47 61
REMARK Flexibility Score: inf
ROOT
ATOM      1  C   UNL A   1      31.871  29.146  24.352  1.00  0.00     0.188 C 
ENDROOT
BRANCH   1   2
ATOM      2  O   UNL A   1      32.293  27.800  24.551  1.00  0.00    -0.376 OA
BRANCH   2   3
ATOM      3  C   UNL A   1      33.514  27.396  23.938  1.00  0.00     0.202 C 
BRANCH   3   4
ATOM      4  C   UNL A   1      33.687  27.830  22.481  1.00  0.00     0.261 C 
BRANCH   4   5
ATOM      5  O   UNL A   1      33.777  26.683  21.619  1.00  0.00    -0.463 OA
BRANCH   5   6
ATOM      6  C   UNL A   1      32.670  25.907  21.528  1.00  0.00     0.316 C 
ATOM      7  O   UNL A   1      31.556  26.334  21.246  1.00  0.00    -0.251 OA
BRANCH   6   8
ATOM      8  C   UNL A   1      33.019  24.434  21.554  1.00  0.00     0.200 C 
BRANCH   8   9
ATOM      9  S   UNL A   1      32.225  23.422  22.766  1.00  0.00    -0.076 SA
BRANCH   9  10
ATOM     10  C   UNL A   1      33.352  22.866  24.018  1.00  0.00     0.172 A 
ATOM     11  C   UNL A   1      38.863  21.720  25.818  1.00  0.00     0.064 C 
ATOM     12  C   UNL A   1      37.514  22.249  25.482  1.00  0.00     0.014 A 
ATOM     13  C   UNL A   1      36.953  22.591  24.260  1.00  0.00     0.052 A 
ATOM     14  N   UNL A   1      36.528  22.391  26.444  1.00  0.00    -0.353 N 
ATOM     15  C   UNL A   1      35.581  22.766  24.492  1.00  0.00     0.097 A 
ATOM     16  C   UNL A   1      35.327  22.619  25.815  1.00  0.00     0.131 A 
ATOM     17  H   UNL A   1      36.664  22.337  27.418  1.00  0.00     0.166 HD
ATOM     18  N   UNL A   1      34.572  22.995  23.570  1.00  0.00    -0.222 NA
ATOM     19  C   UNL A   1      34.001  22.577  26.344  1.00  0.00     0.278 A 
ATOM     20  N   UNL A   1      32.998  22.516  25.340  1.00  0.00    -0.286 N 
ATOM     21  O   UNL A   1      33.769  22.528  27.538  1.00  0.00    -0.267 OA
BRANCH  20  22
ATOM     22  C   UNL A   1      31.661  22.134  25.874  1.00  0.00     0.131 C 
BRANCH  22  23
ATOM     23  C   UNL A   1      30.935  23.275  26.685  1.00  0.00     0.003 C 
ATOM     24  C   UNL A   1      30.731  24.584  25.897  1.00  0.00     0.009 C 
ATOM     25  C   UNL A   1      29.521  22.880  27.148  1.00  0.00     0.009 C 
ENDBRANCH  22  23
ENDBRANCH  20  22
ENDBRANCH   9  10
ENDBRANCH   8   9
ENDBRANCH   6   8
ENDBRANCH   5   6
ENDBRANCH   4   5
ENDBRANCH   3   4
ENDBRANCH   2   3
ENDBRANCH   1   2
BRANCH   1  26
ATOM     26  C   UNL A   1      31.760  30.096  25.557  1.00  0.00     0.188 C 
BRANCH  26  27
ATOM     27  O   UNL A   1      32.947  30.608  26.145  1.00  0.00    -0.376 OA
BRANCH  27  28
ATOM     28  C   UNL A   1      33.398  30.061  27.373  1.00  0.00     0.202 C 
BRANCH  28  29
ATOM     29  C   UNL A   1      34.881  29.752  27.462  1.00  0.00     0.261 C 
BRANCH  29  30
ATOM     30  O   UNL A   1      35.665  30.894  27.801  1.00  0.00    -0.460 OA
BRANCH  30  31
ATOM     31  C   UNL A   1      36.626  30.577  28.685  1.00  0.00     0.338 C 
ATOM     32  O   UNL A   1      36.908  31.165  29.717  1.00  0.00    -0.246 OA
BRANCH  31  33
ATOM     33  C   UNL A   1      37.447  29.481  28.200  1.00  0.00     0.060 A 
ATOM     34  C   UNL A   1      37.699  28.482  29.130  1.00  0.00     0.016 A 
ATOM     35  C   UNL A   1      38.283  29.704  27.110  1.00  0.00     0.016 A 
ATOM     36  C   UNL A   1      38.904  27.831  29.126  1.00  0.00     0.010 A 
ATOM     37  C   UNL A   1      39.501  29.056  27.096  1.00  0.00     0.010 A 
ATOM     38  C   UNL A   1      39.839  28.234  28.181  1.00  0.00    -0.014 A 
BRANCH  38  39
ATOM     39  C   UNL A   1      41.225  27.925  28.497  1.00  0.00     0.031 A 
ATOM     40  C   UNL A   1      41.743  26.631  27.985  1.00  0.00     0.074 A 
ATOM     41  C   UNL A   1      41.940  28.831  29.193  1.00  0.00     0.049 A 
ATOM     42  N   UNL A   1      42.463  25.740  28.593  1.00  0.00    -0.248 NA
ATOM     43  C   UNL A   1      41.304  26.239  26.637  1.00  0.00     0.031 C 
ATOM     44  C   UNL A   1      41.532  30.193  29.565  1.00  0.00     0.029 A 
ATOM     45  N   UNL A   1      43.247  28.792  29.562  1.00  0.00    -0.354 N 
ATOM     46  C   UNL A   1      42.696  24.742  27.649  1.00  0.00     0.074 A 
ATOM     47  C   UNL A   1      41.853  25.036  26.518  1.00  0.00     0.031 C 
ATOM     48  C   UNL A   1      42.636  30.926  29.809  1.00  0.00     0.029 A 
ATOM     49  C   UNL A   1      43.794  30.058  29.709  1.00  0.00     0.049 A 
ATOM     50  H   UNL A   1      43.750  27.958  29.710  1.00  0.00     0.167 HD
ATOM     51  C   UNL A   1      43.689  23.818  27.756  1.00  0.00     0.034 A 
ATOM     52  C   UNL A   1      45.097  30.386  29.534  1.00  0.00     0.034 A 
ATOM     53  C   UNL A   1      44.167  23.670  29.097  1.00  0.00     0.049 A 
ATOM     54  C   UNL A   1      45.899  29.142  29.671  1.00  0.00     0.074 A 
ATOM     55  C   UNL A   1      43.626  23.169  30.262  1.00  0.00     0.029 A 
ATOM     56  N   UNL A   1      45.297  24.358  29.465  1.00  0.00    -0.354 N 
ATOM     57  N   UNL A   1      46.027  28.465  30.781  1.00  0.00    -0.248 NA
ATOM     58  C   UNL A   1      46.227  28.408  28.458  1.00  0.00     0.031 C 
ATOM     59  C   UNL A   1      44.211  23.932  31.308  1.00  0.00     0.029 A 
ATOM     60  C   UNL A   1      45.084  24.856  30.727  1.00  0.00     0.049 A 
ATOM     61  H   UNL A   1      46.112  24.472  28.924  1.00  0.00     0.167 HD
ATOM     62  C   UNL A   1      46.036  27.132  30.387  1.00  0.00     0.074 A 
ATOM     63  C   UNL A   1      46.278  27.167  28.947  1.00  0.00     0.031 C 
ATOM     64  C   UNL A   1      45.573  26.137  31.202  1.00  0.00     0.034 A 
BRANCH  51  65
ATOM     65  C   UNL A   1      44.370  23.224  26.555  1.00  0.00     0.023 A 
ATOM     66  C   UNL A   1      44.157  21.881  26.184  1.00  0.00     0.031 A 
ATOM     67  C   UNL A   1      45.092  24.010  25.642  1.00  0.00     0.131 A 
ATOM     68  C   UNL A   1      44.706  21.340  25.019  1.00  0.00     0.055 A 
ATOM     69  C   UNL A   1      45.582  23.489  24.435  1.00  0.00     0.041 A 
ATOM     70  F   UNL A   1      45.312  25.313  25.877  1.00  0.00    -0.206 F 
ATOM     71  C   UNL A   1      45.402  22.144  24.125  1.00  0.00     0.022 A 
BRANCH  68  72
ATOM     72  S   UNL A   1      44.540  19.567  24.678  1.00  0.00     0.124 S 
ATOM     73  O   UNL A   1      45.754  19.031  25.283  1.00  0.00    -0.237 OA
ATOM     74  O   UNL A   1      43.292  19.245  25.363  1.00  0.00    -0.237 OA
ATOM     75  O   UNL A   1      44.474  19.505  23.220  1.00  0.00    -0.744 OA
ENDBRANCH  68  72
ENDBRANCH  51  65
BRANCH  52  76
ATOM     76  C   UNL A   1      45.541  31.575  28.758  1.00  0.00     0.023 A 
ATOM     77  C   UNL A   1      46.159  32.669  29.403  1.00  0.00     0.031 A 
ATOM     78  C   UNL A   1      45.185  31.757  27.416  1.00  0.00     0.131 A 
ATOM     79  C   UNL A   1      46.415  33.869  28.730  1.00  0.00     0.055 A 
ATOM     80  C   UNL A   1      45.430  32.962  26.741  1.00  0.00     0.041 A 
ATOM     81  F   UNL A   1      44.551  30.783  26.744  1.00  0.00    -0.206 F 
ATOM     82  C   UNL A   1      46.051  34.025  27.397  1.00  0.00     0.022 A 
BRANCH  79  83
ATOM     83  S   UNL A   1      47.243  35.222  29.614  1.00  0.00     0.124 S 
ATOM     84  O   UNL A   1      47.396  36.240  28.577  1.00  0.00    -0.237 OA
ATOM     85  O   UNL A   1      46.278  35.530  30.663  1.00  0.00    -0.237 OA
ATOM     86  O   UNL A   1      48.492  34.610  30.061  1.00  0.00    -0.744 OA
ENDBRANCH  79  83
ENDBRANCH  52  76
BRANCH  64  87
ATOM     87  C   UNL A   1      45.247  26.466  32.644  1.00  0.00     0.023 A 
ATOM     88  C   UNL A   1      43.960  26.948  32.944  1.00  0.00     0.031 A 
ATOM     89  C   UNL A   1      46.225  26.560  33.653  1.00  0.00     0.131 A 
ATOM     90  C   UNL A   1      43.695  27.520  34.197  1.00  0.00     0.055 A 
ATOM     91  C   UNL A   1      45.941  27.072  34.922  1.00  0.00     0.041 A 
ATOM     92  F   UNL A   1      47.504  26.252  33.412  1.00  0.00    -0.206 F 
ATOM     93  C   UNL A   1      44.673  27.568  35.195  1.00  0.00     0.022 A 
BRANCH  90  94
ATOM     94  S   UNL A   1      42.117  28.349  34.520  1.00  0.00     0.124 S 
ATOM     95  O   UNL A   1      42.289  28.820  35.891  1.00  0.00    -0.237 OA
ATOM     96  O   UNL A   1      42.103  29.394  33.498  1.00  0.00    -0.237 OA
ATOM     97  O   UNL A   1      41.121  27.296  34.342  1.00  0.00    -0.744 OA
ENDBRANCH  90  94
ENDBRANCH  64  87
ENDBRANCH  38  39
ENDBRANCH  31  33
ENDBRANCH  30  31
ENDBRANCH  29  30
ENDBRANCH  28  29
ENDBRANCH  27  28
ENDBRANCH  26  27
ENDBRANCH   1  26
TORSDOF 24
ENDMDL
MODEL 2
REMARK VINA RESULT:      -9.6      1.894      2.799
REMARK SMILES Cc1cc2nc(SCC(=O)OCCOCCOCCOC(=O)c3ccc(-c4c5nc(c(-c6cc(S(=O)(=O)[O-])ccc6F)c6ccc([nH]6)c(-c6cc(S(=O)(=O)[O-])ccc6F)c6nc(c(-c7cc(S(=O)(=O)[O-])ccc7F)c7ccc4[nH]7)C=C6)C=C5)cc3)n(CC(C)C)c(=O)c2[nH]1
REMARK SMILES IDX 15 1 14 2 13 3 12 4 11 5 9 6 10 7 8 8 7 9 6 10 1 11 2 12
REMARK SMILES IDX 3 13 94 14 4 15 93 16 5 18 91 19 86 20 92 21 87 22 88 23
REMARK SMILES IDX 89 24 90 25 16 26 17 27 18 28 19 29 20 30 21 31 22 32 23 33
REMARK SMILES IDX 24 34 85 35 25 36 84 37 26 38 27 39 28 40 78 41 29 42 83 43
REMARK SMILES IDX 77 44 79 45 30 46 82 47 76 48 75 49 31 51 63 52 43 53 62 54
REMARK SMILES IDX 44 55 47 56 61 57 80 58 45 59 46 60 60 62 81 63 48 64 32 65
REMARK SMILES IDX 33 66 41 67 34 68 40 69 42 70 39 71 35 72 36 73 37 74 38 75
REMARK SMILES IDX 64 76 65 77 73 78 66 79 72 80 74 81 71 82 67 83 68 84 69 85
REMARK SMILES IDX 70 86 49 87 50 88 58 89 51 90 57 91 59 92 56 93 52 94 53 95
REMARK SMILES IDX 54 96 55 97
REMARK H PARENT 94 17 79 50 47 61
REMARK Flexibility Score: inf
ROOT
ATOM      1  C   UNL A   1      33.730  28.502  25.469  1.00  0.00     0.188 C 
ENDROOT
BRANCH   1   2
ATOM      2  O   UNL A   1      32.374  28.887  25.260  1.00  0.00    -0.376 OA
BRANCH   2   3
ATOM      3  C   UNL A   1      31.370  28.175  25.978  1.00  0.00     0.202 C 
BRANCH   3   4
ATOM      4  C   UNL A   1      30.984  26.818  25.386  1.00  0.00     0.261 C 
BRANCH   4   5
ATOM      5  O   UNL A   1      31.195  25.769  26.346  1.00  0.00    -0.463 OA
BRANCH   5   6
ATOM      6  C   UNL A   1      30.199  24.858  26.473  1.00  0.00     0.316 C 
ATOM      7  O   UNL A   1      29.080  25.120  26.898  1.00  0.00    -0.251 OA
BRANCH   6   8
ATOM      8  C   UNL A   1      30.547  23.556  25.783  1.00  0.00     0.200 C 
BRANCH   8   9
ATOM      9  S   UNL A   1      32.055  22.757  26.248  1.00  0.00    -0.076 SA
BRANCH   9  10
ATOM     10  C   UNL A   1      32.413  21.353  25.225  1.00  0.00     0.172 A 
ATOM     11  C   UNL A   1      33.359  15.551  24.625  1.00  0.00     0.064 C 
ATOM     12  C   UNL A   1      32.864  16.951  24.714  1.00  0.00     0.014 A 
ATOM     13  C   UNL A   1      32.724  17.794  25.807  1.00  0.00     0.052 A 
ATOM     14  N   UNL A   1      32.537  17.681  23.584  1.00  0.00    -0.353 N 
ATOM     15  C   UNL A   1      32.481  19.074  25.287  1.00  0.00     0.097 A 
ATOM     16  C   UNL A   1      32.394  19.001  23.937  1.00  0.00     0.131 A 
ATOM     17  H   UNL A   1      32.427  17.315  22.676  1.00  0.00     0.166 HD
ATOM     18  N   UNL A   1      32.391  20.278  25.967  1.00  0.00    -0.222 NA
ATOM     19  C   UNL A   1      32.314  20.162  23.108  1.00  0.00     0.278 A 
ATOM     20  N   UNL A   1      32.524  21.374  23.817  1.00  0.00    -0.286 N 
ATOM     21  O   UNL A   1      32.152  20.100  21.902  1.00  0.00    -0.267 OA
BRANCH  20  22
ATOM     22  C   UNL A   1      32.777  22.537  22.922  1.00  0.00     0.131 C 
BRANCH  22  23
ATOM     23  C   UNL A   1      33.834  23.567  23.477  1.00  0.00     0.003 C 
ATOM     24  C   UNL A   1      35.301  23.121  23.316  1.00  0.00     0.009 C 
ATOM     25  C   UNL A   1      33.768  24.936  22.777  1.00  0.00     0.009 C 
ENDBRANCH  22  23
ENDBRANCH  20  22
ENDBRANCH   9  10
ENDBRANCH   8   9
ENDBRANCH   6   8
ENDBRANCH   5   6
ENDBRANCH   4   5
ENDBRANCH   3   4
ENDBRANCH   2   3
ENDBRANCH   1   2
BRANCH   1  26
ATOM     26  C   UNL A   1      34.560  29.201  26.560  1.00  0.00     0.188 C 
BRANCH  26  27
ATOM     27  O   UNL A   1      33.890  29.922  27.583  1.00  0.00    -0.376 OA
BRANCH  27  28
ATOM     28  C   UNL A   1      34.016  31.334  27.626  1.00  0.00     0.202 C 
BRANCH  28  29
ATOM     29  C   UNL A   1      34.851  31.896  28.762  1.00  0.00     0.261 C 
BRANCH  29  30
ATOM     30  O   UNL A   1      36.212  31.477  28.707  1.00  0.00    -0.460 OA
BRANCH  30  31
ATOM     31  C   UNL A   1      36.486  30.592  29.681  1.00  0.00     0.338 C 
ATOM     32  O   UNL A   1      36.266  30.711  30.876  1.00  0.00    -0.246 OA
BRANCH  31  33
ATOM     33  C   UNL A   1      37.246  29.464  29.169  1.00  0.00     0.060 A 
ATOM     34  C   UNL A   1      37.716  28.587  30.138  1.00  0.00     0.016 A 
ATOM     35  C   UNL A   1      37.845  29.574  27.919  1.00  0.00     0.016 A 
ATOM     36  C   UNL A   1      38.925  27.966  29.969  1.00  0.00     0.010 A 
ATOM     37  C   UNL A   1      39.064  28.955  27.737  1.00  0.00     0.010 A 
ATOM     38  C   UNL A   1      39.641  28.275  28.820  1.00  0.00    -0.014 A 
BRANCH  38  39
ATOM     39  C   UNL A   1      41.075  28.034  28.890  1.00  0.00     0.031 A 
ATOM     40  C   UNL A   1      41.547  26.725  28.374  1.00  0.00     0.074 A 
ATOM     41  C   UNL A   1      41.863  29.011  29.379  1.00  0.00     0.049 A 
ATOM     42  N   UNL A   1      42.407  25.904  28.891  1.00  0.00    -0.248 NA
ATOM     43  C   UNL A   1      40.885  26.224  27.160  1.00  0.00     0.031 C 
ATOM     44  C   UNL A   1      41.469  30.382  29.733  1.00  0.00     0.029 A 
ATOM     45  N   UNL A   1      43.217  29.042  29.498  1.00  0.00    -0.354 N 
ATOM     46  C   UNL A   1      42.507  24.849  27.987  1.00  0.00     0.074 A 
ATOM     47  C   UNL A   1      41.457  25.033  27.017  1.00  0.00     0.031 C 
ATOM     48  C   UNL A   1      42.565  31.167  29.718  1.00  0.00     0.029 A 
ATOM     49  C   UNL A   1      43.723  30.332  29.458  1.00  0.00     0.049 A 
ATOM     50  H   UNL A   1      43.775  28.238  29.602  1.00  0.00     0.167 HD
ATOM     51  C   UNL A   1      43.544  23.968  27.965  1.00  0.00     0.034 A 
ATOM     52  C   UNL A   1      44.955  30.689  29.022  1.00  0.00     0.034 A 
ATOM     53  C   UNL A   1      44.268  23.933  29.199  1.00  0.00     0.049 A 
ATOM     54  C   UNL A   1      45.824  29.486  29.085  1.00  0.00     0.074 A 
ATOM     55  C   UNL A   1      43.975  23.499  30.474  1.00  0.00     0.029 A 
ATOM     56  N   UNL A   1      45.413  24.682  29.303  1.00  0.00    -0.354 N 
ATOM     57  N   UNL A   1      46.186  28.894  30.193  1.00  0.00    -0.248 NA
ATOM     58  C   UNL A   1      45.955  28.678  27.882  1.00  0.00     0.031 C 
ATOM     59  C   UNL A   1      44.708  24.354  31.341  1.00  0.00     0.029 A 
ATOM     60  C   UNL A   1      45.415  25.262  30.548  1.00  0.00     0.049 A 
ATOM     61  H   UNL A   1      46.108  24.784  28.613  1.00  0.00     0.167 HD
ATOM     62  C   UNL A   1      46.183  27.538  29.890  1.00  0.00     0.074 A 
ATOM     63  C   UNL A   1      46.153  27.478  28.431  1.00  0.00     0.031 C 
ATOM     64  C   UNL A   1      45.925  26.589  30.839  1.00  0.00     0.034 A 
BRANCH  51  65
ATOM     65  C   UNL A   1      44.018  23.312  26.697  1.00  0.00     0.023 A 
ATOM     66  C   UNL A   1      43.730  21.960  26.424  1.00  0.00     0.031 A 
ATOM     67  C   UNL A   1      44.595  24.047  25.649  1.00  0.00     0.131 A 
ATOM     68  C   UNL A   1      44.081  21.361  25.211  1.00  0.00     0.055 A 
ATOM     69  C   UNL A   1      44.880  23.468  24.404  1.00  0.00     0.041 A 
ATOM     70  F   UNL A   1      44.866  25.354  25.789  1.00  0.00    -0.206 F 
ATOM     71  C   UNL A   1      44.636  22.114  24.184  1.00  0.00     0.022 A 
BRANCH  68  72
ATOM     72  S   UNL A   1      43.839  19.580  24.978  1.00  0.00     0.124 S 
ATOM     73  O   UNL A   1      44.269  19.398  23.595  1.00  0.00    -0.237 OA
ATOM     74  O   UNL A   1      44.722  19.020  25.997  1.00  0.00    -0.237 OA
ATOM     75  O   UNL A   1      42.413  19.393  25.230  1.00  0.00    -0.744 OA
ENDBRANCH  68  72
ENDBRANCH  51  65
BRANCH  52  76
ATOM     76  C   UNL A   1      45.193  31.834  28.102  1.00  0.00     0.023 A 
ATOM     77  C   UNL A   1      45.976  32.937  28.507  1.00  0.00     0.031 A 
ATOM     78  C   UNL A   1      44.495  31.970  26.895  1.00  0.00     0.131 A 
ATOM     79  C   UNL A   1      46.060  34.101  27.736  1.00  0.00     0.055 A 
ATOM     80  C   UNL A   1      44.568  33.140  26.124  1.00  0.00     0.041 A 
ATOM     81  F   UNL A   1      43.691  30.987  26.461  1.00  0.00    -0.206 F 
ATOM     82  C   UNL A   1      45.356  34.212  26.541  1.00  0.00     0.022 A 
BRANCH  79  83
ATOM     83  S   UNL A   1      47.113  35.467  28.305  1.00  0.00     0.124 S 
ATOM     84  O   UNL A   1      46.155  36.374  28.933  1.00  0.00    -0.237 OA
ATOM     85  O   UNL A   1      48.025  34.784  29.215  1.00  0.00    -0.237 OA
ATOM     86  O   UNL A   1      47.707  35.966  27.067  1.00  0.00    -0.744 OA
ENDBRANCH  79  83
ENDBRANCH  52  76
BRANCH  64  87
ATOM     87  C   UNL A   1      45.856  27.009  32.293  1.00  0.00     0.023 A 
ATOM     88  C   UNL A   1      44.679  27.627  32.755  1.00  0.00     0.031 A 
ATOM     89  C   UNL A   1      46.982  27.051  33.138  1.00  0.00     0.131 A 
ATOM     90  C   UNL A   1      44.663  28.275  33.998  1.00  0.00     0.055 A 
ATOM     91  C   UNL A   1      46.945  27.642  34.404  1.00  0.00     0.041 A 
ATOM     92  F   UNL A   1      48.176  26.610  32.726  1.00  0.00    -0.206 F 
ATOM     93  C   UNL A   1      45.784  28.270  34.834  1.00  0.00     0.022 A 
BRANCH  90  94
ATOM     94  S   UNL A   1      43.236  29.267  34.507  1.00  0.00     0.124 S 
ATOM     95  O   UNL A   1      43.119  30.228  33.414  1.00  0.00    -0.237 OA
ATOM     96  O   UNL A   1      42.173  28.265  34.574  1.00  0.00    -0.237 OA
ATOM     97  O   UNL A   1      43.636  29.829  35.793  1.00  0.00    -0.744 OA
ENDBRANCH  90  94
ENDBRANCH  64  87
ENDBRANCH  38  39
ENDBRANCH  31  33
ENDBRANCH  30  31
ENDBRANCH  29  30
ENDBRANCH  28  29
ENDBRANCH  27  28
ENDBRANCH  26  27
ENDBRANCH   1  26
TORSDOF 24
ENDMDL
MODEL 3
REMARK VINA RESULT:      -9.2      2.961      8.259
REMARK SMILES Cc1cc2nc(SCC(=O)OCCOCCOCCOC(=O)c3ccc(-c4c5nc(c(-c6cc(S(=O)(=O)[O-])ccc6F)c6ccc([nH]6)c(-c6cc(S(=O)(=O)[O-])ccc6F)c6nc(c(-c7cc(S(=O)(=O)[O-])ccc7F)c7ccc4[nH]7)C=C6)C=C5)cc3)n(CC(C)C)c(=O)c2[nH]1
REMARK SMILES IDX 15 1 14 2 13 3 12 4 11 5 9 6 10 7 8 8 7 9 6 10 1 11 2 12
REMARK SMILES IDX 3 13 94 14 4 15 93 16 5 18 91 19 86 20 92 21 87 22 88 23
REMARK SMILES IDX 89 24 90 25 16 26 17 27 18 28 19 29 20 30 21 31 22 32 23 33
REMARK SMILES IDX 24 34 85 35 25 36 84 37 26 38 27 39 28 40 78 41 29 42 83 43
REMARK SMILES IDX 77 44 79 45 30 46 82 47 76 48 75 49 31 51 63 52 43 53 62 54
REMARK SMILES IDX 44 55 47 56 61 57 80 58 45 59 46 60 60 62 81 63 48 64 32 65
REMARK SMILES IDX 33 66 41 67 34 68 40 69 42 70 39 71 35 72 36 73 37 74 38 75
REMARK SMILES IDX 64 76 65 77 73 78 66 79 72 80 74 81 71 82 67 83 68 84 69 85
REMARK SMILES IDX 70 86 49 87 50 88 58 89 51 90 57 91 59 92 56 93 52 94 53 95
REMARK SMILES IDX 54 96 55 97
REMARK H PARENT 94 17 79 50 47 61
REMARK Flexibility Score: inf
ROOT
ATOM      1  C   UNL A   1      32.668  28.503  25.153  1.00  0.00     0.188 C 
ENDROOT
BRANCH   1   2
ATOM      2  O   UNL A   1      31.279  28.619  24.855  1.00  0.00    -0.376 OA
BRANCH   2   3
ATOM      3  C   UNL A   1      30.826  28.086  23.614  1.00  0.00     0.202 C 
BRANCH   3   4
ATOM      4  C   UNL A   1      31.791  27.115  22.931  1.00  0.00     0.261 C 
BRANCH   4   5
ATOM      5  O   UNL A   1      31.141  25.860  22.664  1.00  0.00    -0.463 OA
BRANCH   5   6
ATOM      6  C   UNL A   1      30.405  25.336  23.674  1.00  0.00     0.316 C 
ATOM      7  O   UNL A   1      29.262  25.689  23.944  1.00  0.00    -0.251 OA
BRANCH   6   8
ATOM      8  C   UNL A   1      31.054  24.095  24.248  1.00  0.00     0.200 C 
BRANCH   8   9
ATOM      9  S   UNL A   1      31.917  23.028  23.134  1.00  0.00    -0.076 SA
BRANCH   9  10
ATOM     10  C   UNL A   1      32.667  21.653  23.966  1.00  0.00     0.172 A 
ATOM     11  C   UNL A   1      33.125  15.830  24.865  1.00  0.00     0.064 C 
ATOM     12  C   UNL A   1      33.213  17.260  24.463  1.00  0.00     0.014 A 
ATOM     13  C   UNL A   1      32.330  18.055  23.747  1.00  0.00     0.052 A 
ATOM     14  N   UNL A   1      34.255  18.070  24.881  1.00  0.00    -0.353 N 
ATOM     15  C   UNL A   1      32.779  19.376  23.899  1.00  0.00     0.097 A 
ATOM     16  C   UNL A   1      33.933  19.378  24.608  1.00  0.00     0.131 A 
ATOM     17  H   UNL A   1      35.089  17.761  25.303  1.00  0.00     0.166 HD
ATOM     18  N   UNL A   1      32.172  20.547  23.476  1.00  0.00    -0.222 NA
ATOM     19  C   UNL A   1      34.550  20.582  25.069  1.00  0.00     0.278 A 
ATOM     20  N   UNL A   1      33.746  21.736  24.873  1.00  0.00    -0.286 N 
ATOM     21  O   UNL A   1      35.629  20.595  25.634  1.00  0.00    -0.267 OA
BRANCH  20  22
ATOM     22  C   UNL A   1      34.224  22.917  25.643  1.00  0.00     0.131 C 
BRANCH  22  23
ATOM     23  C   UNL A   1      35.185  23.873  24.837  1.00  0.00     0.003 C 
ATOM     24  C   UNL A   1      34.595  25.269  24.548  1.00  0.00     0.009 C 
ATOM     25  C   UNL A   1      36.507  24.158  25.571  1.00  0.00     0.009 C 
ENDBRANCH  22  23
ENDBRANCH  20  22
ENDBRANCH   9  10
ENDBRANCH   8   9
ENDBRANCH   6   8
ENDBRANCH   5   6
ENDBRANCH   4   5
ENDBRANCH   3   4
ENDBRANCH   2   3
ENDBRANCH   1   2
BRANCH   1  26
ATOM     26  C   UNL A   1      33.113  27.808  26.451  1.00  0.00     0.188 C 
BRANCH  26  27
ATOM     27  O   UNL A   1      33.464  28.601  27.575  1.00  0.00    -0.376 OA
BRANCH  27  28
ATOM     28  C   UNL A   1      33.788  29.968  27.379  1.00  0.00     0.202 C 
BRANCH  28  29
ATOM     29  C   UNL A   1      35.022  30.473  28.104  1.00  0.00     0.261 C 
BRANCH  29  30
ATOM     30  O   UNL A   1      35.722  29.438  28.791  1.00  0.00    -0.460 OA
BRANCH  30  31
ATOM     31  C   UNL A   1      36.856  29.904  29.341  1.00  0.00     0.338 C 
ATOM     32  O   UNL A   1      36.965  30.613  30.329  1.00  0.00    -0.246 OA
BRANCH  31  33
ATOM     33  C   UNL A   1      38.010  29.584  28.520  1.00  0.00     0.060 A 
ATOM     34  C   UNL A   1      38.098  28.255  28.126  1.00  0.00     0.016 A 
ATOM     35  C   UNL A   1      39.127  30.410  28.585  1.00  0.00     0.016 A 
ATOM     36  C   UNL A   1      39.325  27.656  28.007  1.00  0.00     0.010 A 
ATOM     37  C   UNL A   1      40.369  29.818  28.469  1.00  0.00     0.010 A 
ATOM     38  C   UNL A   1      40.438  28.426  28.317  1.00  0.00    -0.014 A 
BRANCH  38  39
ATOM     39  C   UNL A   1      41.635  27.681  28.678  1.00  0.00     0.031 A 
ATOM     40  C   UNL A   1      42.203  27.960  30.021  1.00  0.00     0.074 A 
ATOM     41  C   UNL A   1      42.118  26.782  27.798  1.00  0.00     0.049 A 
ATOM     42  N   UNL A   1      43.440  28.145  30.363  1.00  0.00    -0.248 NA
ATOM     43  C   UNL A   1      41.236  28.160  31.111  1.00  0.00     0.031 C 
ATOM     44  C   UNL A   1      41.496  26.342  26.541  1.00  0.00     0.029 A 
ATOM     45  N   UNL A   1      43.179  25.942  27.924  1.00  0.00    -0.354 N 
ATOM     46  C   UNL A   1      43.421  28.334  31.743  1.00  0.00     0.074 A 
ATOM     47  C   UNL A   1      42.037  28.467  32.125  1.00  0.00     0.031 C 
ATOM     48  C   UNL A   1      42.004  25.141  26.201  1.00  0.00     0.029 A 
ATOM     49  C   UNL A   1      43.042  24.796  27.155  1.00  0.00     0.049 A 
ATOM     50  H   UNL A   1      43.959  26.128  28.496  1.00  0.00     0.167 HD
ATOM     51  C   UNL A   1      44.517  28.202  32.540  1.00  0.00     0.034 A 
ATOM     52  C   UNL A   1      43.583  23.585  27.431  1.00  0.00     0.034 A 
ATOM     53  C   UNL A   1      45.745  28.305  31.813  1.00  0.00     0.049 A 
ATOM     54  C   UNL A   1      44.724  23.800  28.359  1.00  0.00     0.074 A 
ATOM     55  C   UNL A   1      46.392  29.330  31.157  1.00  0.00     0.029 A 
ATOM     56  N   UNL A   1      46.370  27.147  31.423  1.00  0.00    -0.354 N 
ATOM     57  N   UNL A   1      45.826  24.426  28.041  1.00  0.00    -0.248 NA
ATOM     58  C   UNL A   1      44.470  23.683  29.787  1.00  0.00     0.031 C 
ATOM     59  C   UNL A   1      47.087  28.711  30.083  1.00  0.00     0.029 A 
ATOM     60  C   UNL A   1      46.832  27.338  30.144  1.00  0.00     0.049 A 
ATOM     61  H   UNL A   1      46.469  26.328  31.961  1.00  0.00     0.167 HD
ATOM     62  C   UNL A   1      46.176  25.136  29.184  1.00  0.00     0.074 A 
ATOM     63  C   UNL A   1      45.376  24.545  30.253  1.00  0.00     0.031 C 
ATOM     64  C   UNL A   1      46.865  26.314  29.117  1.00  0.00     0.034 A 
BRANCH  51  65
ATOM     65  C   UNL A   1      44.424  27.741  33.968  1.00  0.00     0.023 A 
ATOM     66  C   UNL A   1      44.575  28.646  35.038  1.00  0.00     0.031 A 
ATOM     67  C   UNL A   1      44.001  26.446  34.307  1.00  0.00     0.131 A 
ATOM     68  C   UNL A   1      44.398  28.252  36.367  1.00  0.00     0.055 A 
ATOM     69  C   UNL A   1      43.751  26.068  35.634  1.00  0.00     0.041 A 
ATOM     70  F   UNL A   1      43.783  25.521  33.359  1.00  0.00    -0.206 F 
ATOM     71  C   UNL A   1      43.963  26.969  36.674  1.00  0.00     0.022 A 
BRANCH  68  72
ATOM     72  S   UNL A   1      44.768  29.412  37.711  1.00  0.00     0.124 S 
ATOM     73  O   UNL A   1      45.948  30.099  37.196  1.00  0.00    -0.237 OA
ATOM     74  O   UNL A   1      43.544  30.206  37.768  1.00  0.00    -0.237 OA
ATOM     75  O   UNL A   1      44.990  28.541  38.862  1.00  0.00    -0.744 OA
ENDBRANCH  68  72
ENDBRANCH  51  65
BRANCH  52  76
ATOM     76  C   UNL A   1      42.819  22.312  27.340  1.00  0.00     0.023 A 
ATOM     77  C   UNL A   1      43.343  21.202  26.640  1.00  0.00     0.031 A 
ATOM     78  C   UNL A   1      41.484  22.220  27.752  1.00  0.00     0.131 A 
ATOM     79  C   UNL A   1      42.571  20.065  26.384  1.00  0.00     0.055 A 
ATOM     80  C   UNL A   1      40.702  21.085  27.486  1.00  0.00     0.041 A 
ATOM     81  F   UNL A   1      40.895  23.249  28.382  1.00  0.00    -0.206 F 
ATOM     82  C   UNL A   1      41.246  19.998  26.802  1.00  0.00     0.022 A 
BRANCH  79  83
ATOM     83  S   UNL A   1      43.322  18.663  25.506  1.00  0.00     0.124 S 
ATOM     84  O   UNL A   1      44.611  18.513  26.179  1.00  0.00    -0.237 OA
ATOM     85  O   UNL A   1      42.354  17.601  25.753  1.00  0.00    -0.237 OA
ATOM     86  O   UNL A   1      43.403  19.140  24.128  1.00  0.00    -0.744 OA
ENDBRANCH  79  83
ENDBRANCH  52  76
BRANCH  64  87
ATOM     87  C   UNL A   1      47.451  26.743  27.787  1.00  0.00     0.023 A 
ATOM     88  C   UNL A   1      48.813  26.489  27.544  1.00  0.00     0.031 A 
ATOM     89  C   UNL A   1      46.784  27.600  26.891  1.00  0.00     0.131 A 
ATOM     90  C   UNL A   1      49.463  27.099  26.462  1.00  0.00     0.055 A 
ATOM     91  C   UNL A   1      47.418  28.156  25.777  1.00  0.00     0.041 A 
ATOM     92  F   UNL A   1      45.528  28.003  27.119  1.00  0.00    -0.206 F 
ATOM     93  C   UNL A   1      48.769  27.917  25.566  1.00  0.00     0.022 A 
BRANCH  90  94
ATOM     94  S   UNL A   1      51.259  26.967  26.268  1.00  0.00     0.124 S 
ATOM     95  O   UNL A   1      51.751  27.549  27.513  1.00  0.00    -0.237 OA
ATOM     96  O   UNL A   1      51.450  25.524  26.134  1.00  0.00    -0.237 OA
ATOM     97  O   UNL A   1      51.542  27.742  25.062  1.00  0.00    -0.744 OA
ENDBRANCH  90  94
ENDBRANCH  64  87
ENDBRANCH  38  39
ENDBRANCH  31  33
ENDBRANCH  30  31
ENDBRANCH  29  30
ENDBRANCH  28  29
ENDBRANCH  27  28
ENDBRANCH  26  27
ENDBRANCH   1  26
TORSDOF 24
ENDMDL
