MODEL 1
REMARK VINA RESULT:     -11.1      0.000      0.000
REMARK SMILES CCn1nc(-c2cccnc2)c2cc(C(=O)OCCOCCOCCOC(=O)c3ccc(-c4c5nc(c(-c6cc(S(=O)(=O)[O-])ccc6F)c6ccc([nH]6)c(-c6cc(S(=O)(=O)[O-])ccc6F)c6nc(c(-c7cc(S(=O)(=O)[O-])ccc7F)c7ccc4[nH]7)C=C6)C=C5)cc3)sc21
REMARK SMILES IDX 22 1 21 2 20 3 19 4 18 5 17 6 15 7 16 8 14 9 3 10 4 11 93 12
REMARK SMILES IDX 5 13 12 14 92 15 13 16 2 17 1 18 6 19 7 20 11 21 8 22 10 23
REMARK SMILES IDX 9 24 23 25 24 26 25 27 26 28 27 29 28 30 29 31 30 32 91 33
REMARK SMILES IDX 31 34 90 35 32 36 33 37 34 38 84 39 35 40 89 41 83 42 85 43
REMARK SMILES IDX 36 44 88 45 82 46 81 47 37 49 69 50 49 51 68 52 50 53 53 54
REMARK SMILES IDX 67 55 86 56 51 57 52 58 66 60 87 61 54 62 38 63 39 64 47 65
REMARK SMILES IDX 40 66 46 67 48 68 45 69 41 70 42 71 43 72 44 73 70 74 71 75
REMARK SMILES IDX 79 76 72 77 78 78 80 79 77 80 73 81 74 82 75 83 76 84 55 85
REMARK SMILES IDX 56 86 64 87 57 88 63 89 65 90 62 91 58 92 59 93 60 94 61 95
REMARK H PARENT 85 48 53 59
REMARK Flexibility Score: inf
ROOT
ATOM      1  C   UNL A   1      32.260  28.633  27.280  1.00  0.00     0.188 C 
ENDROOT
BRANCH   1   2
ATOM      2  C   UNL A   1      31.767  27.569  26.267  1.00  0.00     0.188 C 
BRANCH   2   3
ATOM      3  O   UNL A   1      30.995  26.442  26.667  1.00  0.00    -0.376 OA
BRANCH   3   4
ATOM      4  C   UNL A   1      30.227  25.728  25.713  1.00  0.00     0.202 C 
BRANCH   4   5
ATOM      5  C   UNL A   1      30.165  26.261  24.270  1.00  0.00     0.261 C 
BRANCH   5   6
ATOM      6  O   UNL A   1      30.820  25.457  23.276  1.00  0.00    -0.459 OA
BRANCH   6   7
ATOM      7  C   UNL A   1      32.186  25.569  23.195  1.00  0.00     0.348 C 
ATOM      8  O   UNL A   1      32.782  26.584  22.928  1.00  0.00    -0.245 OA
BRANCH   7   9
ATOM      9  C   UNL A   1      32.816  24.318  23.616  1.00  0.00     0.115 A 
ATOM     10  N   UNL A   1      33.658  20.765  24.498  1.00  0.00    -0.254 N 
ATOM     11  N   UNL A   1      34.909  20.744  25.044  1.00  0.00    -0.171 NA
ATOM     12  C   UNL A   1      33.287  22.017  24.152  1.00  0.00     0.122 A 
ATOM     13  C   UNL A   1      35.299  22.042  25.068  1.00  0.00     0.103 A 
ATOM     14  C   UNL A   1      34.288  22.826  24.506  1.00  0.00     0.040 A 
ATOM     15  S   UNL A   1      32.009  22.776  23.417  1.00  0.00    -0.109 S 
ATOM     16  C   UNL A   1      34.080  24.171  24.205  1.00  0.00     0.040 A 
BRANCH  10  17
ATOM     17  C   UNL A   1      32.932  19.527  24.312  1.00  0.00     0.142 C 
ATOM     18  C   UNL A   1      33.862  18.327  24.258  1.00  0.00     0.029 C 
ENDBRANCH  10  17
BRANCH  13  19
ATOM     19  C   UNL A   1      36.612  22.401  25.562  1.00  0.00     0.021 A 
ATOM     20  C   UNL A   1      36.849  23.680  26.071  1.00  0.00     0.013 A 
ATOM     21  C   UNL A   1      37.687  21.525  25.492  1.00  0.00     0.121 A 
ATOM     22  C   UNL A   1      38.130  24.030  26.491  1.00  0.00     0.021 A 
ATOM     23  N   UNL A   1      38.943  21.837  25.902  1.00  0.00    -0.264 NA
ATOM     24  C   UNL A   1      39.135  23.083  26.384  1.00  0.00     0.111 A 
ENDBRANCH  13  19
ENDBRANCH   7   9
ENDBRANCH   6   7
ENDBRANCH   5   6
ENDBRANCH   4   5
ENDBRANCH   3   4
ENDBRANCH   2   3
ENDBRANCH   1   2
BRANCH   1  25
ATOM     25  O   UNL A   1      32.923  29.755  26.715  1.00  0.00    -0.376 OA
BRANCH  25  26
ATOM     26  C   UNL A   1      33.761  30.515  27.579  1.00  0.00     0.202 C 
BRANCH  26  27
ATOM     27  C   UNL A   1      35.258  30.217  27.504  1.00  0.00     0.261 C 
BRANCH  27  28
ATOM     28  O   UNL A   1      35.841  29.893  28.753  1.00  0.00    -0.460 OA
BRANCH  28  29
ATOM     29  C   UNL A   1      37.128  30.266  28.899  1.00  0.00     0.338 C 
ATOM     30  O   UNL A   1      37.534  31.300  29.400  1.00  0.00    -0.246 OA
BRANCH  29  31
ATOM     31  C   UNL A   1      37.973  29.223  28.308  1.00  0.00     0.060 A 
ATOM     32  C   UNL A   1      38.253  28.119  29.113  1.00  0.00     0.016 A 
ATOM     33  C   UNL A   1      38.716  29.527  27.157  1.00  0.00     0.016 A 
ATOM     34  C   UNL A   1      39.472  27.511  28.949  1.00  0.00     0.010 A 
ATOM     35  C   UNL A   1      39.943  28.939  27.010  1.00  0.00     0.010 A 
ATOM     36  C   UNL A   1      40.343  28.035  27.988  1.00  0.00    -0.014 A 
BRANCH  36  37
ATOM     37  C   UNL A   1      41.739  27.694  28.103  1.00  0.00     0.031 A 
ATOM     38  C   UNL A   1      42.103  26.433  27.442  1.00  0.00     0.074 A 
ATOM     39  C   UNL A   1      42.605  28.526  28.709  1.00  0.00     0.049 A 
ATOM     40  N   UNL A   1      42.470  25.330  27.997  1.00  0.00    -0.248 NA
ATOM     41  C   UNL A   1      41.857  26.336  25.997  1.00  0.00     0.031 C 
ATOM     42  C   UNL A   1      42.395  29.915  29.130  1.00  0.00     0.029 A 
ATOM     43  N   UNL A   1      43.920  28.323  28.970  1.00  0.00    -0.354 N 
ATOM     44  C   UNL A   1      42.701  24.449  26.949  1.00  0.00     0.074 A 
ATOM     45  C   UNL A   1      42.108  25.047  25.784  1.00  0.00     0.031 C 
ATOM     46  C   UNL A   1      43.597  30.491  29.361  1.00  0.00     0.029 A 
ATOM     47  C   UNL A   1      44.637  29.483  29.228  1.00  0.00     0.049 A 
ATOM     48  H   UNL A   1      44.331  27.430  28.976  1.00  0.00     0.167 HD
ATOM     49  C   UNL A   1      43.563  23.406  27.080  1.00  0.00     0.034 A 
ATOM     50  C   UNL A   1      45.991  29.604  29.215  1.00  0.00     0.034 A 
ATOM     51  C   UNL A   1      43.841  23.132  28.471  1.00  0.00     0.049 A 
ATOM     52  C   UNL A   1      46.547  28.233  29.381  1.00  0.00     0.074 A 
ATOM     53  C   UNL A   1      43.062  22.758  29.549  1.00  0.00     0.029 A 
ATOM     54  N   UNL A   1      45.014  23.616  29.008  1.00  0.00    -0.354 N 
ATOM     55  N   UNL A   1      46.396  27.524  30.469  1.00  0.00    -0.248 NA
ATOM     56  C   UNL A   1      46.830  27.457  28.181  1.00  0.00     0.031 C 
ATOM     57  C   UNL A   1      43.592  23.482  30.656  1.00  0.00     0.029 A 
ATOM     58  C   UNL A   1      44.703  24.203  30.212  1.00  0.00     0.049 A 
ATOM     59  H   UNL A   1      45.910  23.553  28.606  1.00  0.00     0.167 HD
ATOM     60  C   UNL A   1      46.142  26.231  30.030  1.00  0.00     0.074 A 
ATOM     61  C   UNL A   1      46.516  26.232  28.618  1.00  0.00     0.031 C 
ATOM     62  C   UNL A   1      45.386  25.361  30.766  1.00  0.00     0.034 A 
BRANCH  49  63
ATOM     63  C   UNL A   1      44.393  22.844  25.955  1.00  0.00     0.023 A 
ATOM     64  C   UNL A   1      44.117  21.528  25.544  1.00  0.00     0.031 A 
ATOM     65  C   UNL A   1      45.588  23.408  25.447  1.00  0.00     0.131 A 
ATOM     66  C   UNL A   1      45.027  20.816  24.746  1.00  0.00     0.055 A 
ATOM     67  C   UNL A   1      46.452  22.723  24.591  1.00  0.00     0.041 A 
ATOM     68  F   UNL A   1      46.044  24.609  25.822  1.00  0.00    -0.206 F 
ATOM     69  C   UNL A   1      46.190  21.407  24.259  1.00  0.00     0.022 A 
BRANCH  66  70
ATOM     70  S   UNL A   1      44.755  19.042  24.509  1.00  0.00     0.124 S 
ATOM     71  O   UNL A   1      44.937  18.902  23.068  1.00  0.00    -0.237 OA
ATOM     72  O   UNL A   1      45.799  18.466  25.350  1.00  0.00    -0.237 OA
ATOM     73  O   UNL A   1      43.389  18.844  24.987  1.00  0.00    -0.744 OA
ENDBRANCH  66  70
ENDBRANCH  49  63
BRANCH  50  74
ATOM     74  C   UNL A   1      46.756  30.760  28.666  1.00  0.00     0.023 A 
ATOM     75  C   UNL A   1      46.202  31.686  27.760  1.00  0.00     0.031 A 
ATOM     76  C   UNL A   1      48.019  31.089  29.214  1.00  0.00     0.131 A 
ATOM     77  C   UNL A   1      46.910  32.866  27.428  1.00  0.00     0.055 A 
ATOM     78  C   UNL A   1      48.718  32.249  28.875  1.00  0.00     0.041 A 
ATOM     79  F   UNL A   1      48.585  30.331  30.166  1.00  0.00    -0.206 F 
ATOM     80  C   UNL A   1      48.161  33.149  27.982  1.00  0.00     0.022 A 
BRANCH  77  81
ATOM     81  S   UNL A   1      46.164  34.109  26.323  1.00  0.00     0.124 S 
ATOM     82  O   UNL A   1      47.200  34.285  25.312  1.00  0.00    -0.237 OA
ATOM     83  O   UNL A   1      44.939  33.445  25.889  1.00  0.00    -0.237 OA
ATOM     84  O   UNL A   1      45.956  35.264  27.198  1.00  0.00    -0.744 OA
ENDBRANCH  77  81
ENDBRANCH  50  74
BRANCH  62  85
ATOM     85  C   UNL A   1      45.039  25.729  32.196  1.00  0.00     0.023 A 
ATOM     86  C   UNL A   1      43.875  26.428  32.587  1.00  0.00     0.031 A 
ATOM     87  C   UNL A   1      45.856  25.202  33.214  1.00  0.00     0.131 A 
ATOM     88  C   UNL A   1      43.567  26.577  33.955  1.00  0.00     0.055 A 
ATOM     89  C   UNL A   1      45.536  25.334  34.565  1.00  0.00     0.041 A 
ATOM     90  F   UNL A   1      46.961  24.503  32.905  1.00  0.00    -0.206 F 
ATOM     91  C   UNL A   1      44.391  26.025  34.941  1.00  0.00     0.022 A 
BRANCH  88  92
ATOM     92  S   UNL A   1      42.082  27.492  34.481  1.00  0.00     0.124 S 
ATOM     93  O   UNL A   1      41.243  26.463  35.084  1.00  0.00    -0.237 OA
ATOM     94  O   UNL A   1      42.632  28.488  35.397  1.00  0.00    -0.237 OA
ATOM     95  O   UNL A   1      41.560  28.045  33.229  1.00  0.00    -0.744 OA
ENDBRANCH  88  92
ENDBRANCH  62  85
ENDBRANCH  36  37
ENDBRANCH  29  31
ENDBRANCH  28  29
ENDBRANCH  27  28
ENDBRANCH  26  27
ENDBRANCH  25  26
ENDBRANCH   1  25
TORSDOF 22
ENDMDL
MODEL 2
REMARK VINA RESULT:     -10.2      4.207      8.885
REMARK SMILES CCn1nc(-c2cccnc2)c2cc(C(=O)OCCOCCOCCOC(=O)c3ccc(-c4c5nc(c(-c6cc(S(=O)(=O)[O-])ccc6F)c6ccc([nH]6)c(-c6cc(S(=O)(=O)[O-])ccc6F)c6nc(c(-c7cc(S(=O)(=O)[O-])ccc7F)c7ccc4[nH]7)C=C6)C=C5)cc3)sc21
REMARK SMILES IDX 22 1 21 2 20 3 19 4 18 5 17 6 15 7 16 8 14 9 3 10 4 11 93 12
REMARK SMILES IDX 5 13 12 14 92 15 13 16 2 17 1 18 6 19 7 20 11 21 8 22 10 23
REMARK SMILES IDX 9 24 23 25 24 26 25 27 26 28 27 29 28 30 29 31 30 32 91 33
REMARK SMILES IDX 31 34 90 35 32 36 33 37 34 38 84 39 35 40 89 41 83 42 85 43
REMARK SMILES IDX 36 44 88 45 82 46 81 47 37 49 69 50 49 51 68 52 50 53 53 54
REMARK SMILES IDX 67 55 86 56 51 57 52 58 66 60 87 61 54 62 38 63 39 64 47 65
REMARK SMILES IDX 40 66 46 67 48 68 45 69 41 70 42 71 43 72 44 73 70 74 71 75
REMARK SMILES IDX 79 76 72 77 78 78 80 79 77 80 73 81 74 82 75 83 76 84 55 85
REMARK SMILES IDX 56 86 64 87 57 88 63 89 65 90 62 91 58 92 59 93 60 94 61 95
REMARK H PARENT 85 48 53 59
REMARK Flexibility Score: inf
ROOT
ATOM      1  C   UNL A   1      38.327  21.869  25.694  1.00  0.00     0.188 C 
ENDROOT
BRANCH   1   2
ATOM      2  C   UNL A   1      37.633  23.253  25.753  1.00  0.00     0.188 C 
BRANCH   2   3
ATOM      3  O   UNL A   1      36.278  23.405  26.159  1.00  0.00    -0.376 OA
BRANCH   3   4
ATOM      4  C   UNL A   1      35.291  22.491  25.711  1.00  0.00     0.202 C 
BRANCH   4   5
ATOM      5  C   UNL A   1      34.672  22.700  24.317  1.00  0.00     0.261 C 
BRANCH   5   6
ATOM      6  O   UNL A   1      34.781  24.026  23.776  1.00  0.00    -0.459 OA
BRANCH   6   7
ATOM      7  C   UNL A   1      33.867  24.376  22.814  1.00  0.00     0.348 C 
ATOM      8  O   UNL A   1      33.618  23.726  21.827  1.00  0.00    -0.245 OA
BRANCH   7   9
ATOM      9  C   UNL A   1      33.141  25.577  23.225  1.00  0.00     0.115 A 
ATOM     10  N   UNL A   1      30.738  28.436  23.634  1.00  0.00    -0.254 N 
ATOM     11  N   UNL A   1      31.236  29.281  24.581  1.00  0.00    -0.171 NA
ATOM     12  C   UNL A   1      31.552  27.377  23.434  1.00  0.00     0.122 A 
ATOM     13  C   UNL A   1      32.422  28.735  24.946  1.00  0.00     0.103 A 
ATOM     14  C   UNL A   1      32.609  27.549  24.232  1.00  0.00     0.040 A 
ATOM     15  S   UNL A   1      31.580  25.980  22.540  1.00  0.00    -0.109 S 
ATOM     16  C   UNL A   1      33.557  26.529  24.168  1.00  0.00     0.040 A 
BRANCH  10  17
ATOM     17  C   UNL A   1      29.456  28.712  23.022  1.00  0.00     0.142 C 
ATOM     18  C   UNL A   1      29.561  29.778  21.944  1.00  0.00     0.029 C 
ENDBRANCH  10  17
BRANCH  13  19
ATOM     19  C   UNL A   1      33.228  29.359  25.975  1.00  0.00     0.021 A 
ATOM     20  C   UNL A   1      34.418  28.762  26.398  1.00  0.00     0.013 A 
ATOM     21  C   UNL A   1      32.825  30.522  26.617  1.00  0.00     0.121 A 
ATOM     22  C   UNL A   1      35.155  29.343  27.426  1.00  0.00     0.021 A 
ATOM     23  N   UNL A   1      33.528  31.114  27.617  1.00  0.00    -0.264 NA
ATOM     24  C   UNL A   1      34.670  30.506  28.002  1.00  0.00     0.111 A 
ENDBRANCH  13  19
ENDBRANCH   7   9
ENDBRANCH   6   7
ENDBRANCH   5   6
ENDBRANCH   4   5
ENDBRANCH   3   4
ENDBRANCH   2   3
ENDBRANCH   1   2
BRANCH   1  25
ATOM     25  O   UNL A   1      39.364  21.663  26.643  1.00  0.00    -0.376 OA
BRANCH  25  26
ATOM     26  C   UNL A   1      40.619  21.214  26.145  1.00  0.00     0.202 C 
BRANCH  26  27
ATOM     27  C   UNL A   1      41.772  22.214  26.213  1.00  0.00     0.261 C 
BRANCH  27  28
ATOM     28  O   UNL A   1      41.361  23.548  26.452  1.00  0.00    -0.460 OA
BRANCH  28  29
ATOM     29  C   UNL A   1      42.334  24.383  26.866  1.00  0.00     0.338 C 
ATOM     30  O   UNL A   1      43.471  24.448  26.433  1.00  0.00    -0.246 OA
BRANCH  29  31
ATOM     31  C   UNL A   1      41.802  25.186  27.972  1.00  0.00     0.060 A 
ATOM     32  C   UNL A   1      40.604  25.858  27.733  1.00  0.00     0.016 A 
ATOM     33  C   UNL A   1      42.654  25.516  29.039  1.00  0.00     0.016 A 
ATOM     34  C   UNL A   1      40.420  27.065  28.361  1.00  0.00     0.010 A 
ATOM     35  C   UNL A   1      42.484  26.731  29.645  1.00  0.00     0.010 A 
ATOM     36  C   UNL A   1      41.439  27.532  29.197  1.00  0.00    -0.014 A 
BRANCH  36  37
ATOM     37  C   UNL A   1      41.450  28.940  29.505  1.00  0.00     0.031 A 
ATOM     38  C   UNL A   1      42.517  29.691  28.832  1.00  0.00     0.074 A 
ATOM     39  C   UNL A   1      40.499  29.483  30.287  1.00  0.00     0.049 A 
ATOM     40  N   UNL A   1      43.551  30.243  29.368  1.00  0.00    -0.248 NA
ATOM     41  C   UNL A   1      42.529  29.675  27.363  1.00  0.00     0.031 C 
ATOM     42  C   UNL A   1      39.247  28.879  30.756  1.00  0.00     0.029 A 
ATOM     43  N   UNL A   1      40.409  30.759  30.735  1.00  0.00    -0.354 N 
ATOM     44  C   UNL A   1      44.246  30.825  28.316  1.00  0.00     0.074 A 
ATOM     45  C   UNL A   1      43.695  30.265  27.112  1.00  0.00     0.031 C 
ATOM     46  C   UNL A   1      38.428  29.858  31.204  1.00  0.00     0.029 A 
ATOM     47  C   UNL A   1      39.144  31.124  31.172  1.00  0.00     0.049 A 
ATOM     48  H   UNL A   1      41.176  31.375  30.750  1.00  0.00     0.167 HD
ATOM     49  C   UNL A   1      45.063  31.894  28.514  1.00  0.00     0.034 A 
ATOM     50  C   UNL A   1      38.704  32.394  31.375  1.00  0.00     0.034 A 
ATOM     51  C   UNL A   1      45.397  32.041  29.912  1.00  0.00     0.049 A 
ATOM     52  C   UNL A   1      39.914  33.246  31.541  1.00  0.00     0.074 A 
ATOM     53  C   UNL A   1      46.049  31.241  30.832  1.00  0.00     0.029 A 
ATOM     54  N   UNL A   1      44.704  32.973  30.653  1.00  0.00    -0.354 N 
ATOM     55  N   UNL A   1      40.742  33.131  32.547  1.00  0.00    -0.248 NA
ATOM     56  C   UNL A   1      40.481  33.872  30.353  1.00  0.00     0.031 C 
ATOM     57  C   UNL A   1      45.331  31.421  32.050  1.00  0.00     0.029 A 
ATOM     58  C   UNL A   1      44.327  32.367  31.828  1.00  0.00     0.049 A 
ATOM     59  H   UNL A   1      44.514  33.903  30.390  1.00  0.00     0.167 HD
ATOM     60  C   UNL A   1      42.009  33.268  31.996  1.00  0.00     0.074 A 
ATOM     61  C   UNL A   1      41.782  33.817  30.661  1.00  0.00     0.031 C 
ATOM     62  C   UNL A   1      43.101  32.660  32.551  1.00  0.00     0.034 A 
BRANCH  49  63
ATOM     63  C   UNL A   1      45.300  32.981  27.498  1.00  0.00     0.023 A 
ATOM     64  C   UNL A   1      46.603  33.112  26.986  1.00  0.00     0.031 A 
ATOM     65  C   UNL A   1      44.413  34.044  27.202  1.00  0.00     0.131 A 
ATOM     66  C   UNL A   1      46.993  34.272  26.298  1.00  0.00     0.055 A 
ATOM     67  C   UNL A   1      44.784  35.160  26.451  1.00  0.00     0.041 A 
ATOM     68  F   UNL A   1      43.173  34.119  27.701  1.00  0.00    -0.206 F 
ATOM     69  C   UNL A   1      46.090  35.295  26.019  1.00  0.00     0.022 A 
BRANCH  66  70
ATOM     70  S   UNL A   1      48.750  34.504  25.934  1.00  0.00     0.124 S 
ATOM     71  O   UNL A   1      48.703  35.144  24.624  1.00  0.00    -0.237 OA
ATOM     72  O   UNL A   1      49.176  35.346  27.048  1.00  0.00    -0.237 OA
ATOM     73  O   UNL A   1      49.279  33.143  25.944  1.00  0.00    -0.744 OA
ENDBRANCH  66  70
ENDBRANCH  49  63
BRANCH  50  74
ATOM     74  C   UNL A   1      37.352  32.915  31.024  1.00  0.00     0.023 A 
ATOM     75  C   UNL A   1      36.494  33.515  31.966  1.00  0.00     0.031 A 
ATOM     76  C   UNL A   1      36.970  33.016  29.664  1.00  0.00     0.131 A 
ATOM     77  C   UNL A   1      35.310  34.164  31.537  1.00  0.00     0.055 A 
ATOM     78  C   UNL A   1      35.797  33.646  29.248  1.00  0.00     0.041 A 
ATOM     79  F   UNL A   1      37.770  32.573  28.681  1.00  0.00    -0.206 F 
ATOM     80  C   UNL A   1      34.963  34.231  30.185  1.00  0.00     0.022 A 
BRANCH  77  81
ATOM     81  S   UNL A   1      34.237  35.016  32.739  1.00  0.00     0.124 S 
ATOM     82  O   UNL A   1      32.904  34.697  32.244  1.00  0.00    -0.237 OA
ATOM     83  O   UNL A   1      34.629  34.395  34.000  1.00  0.00    -0.237 OA
ATOM     84  O   UNL A   1      34.623  36.421  32.605  1.00  0.00    -0.744 OA
ENDBRANCH  77  81
ENDBRANCH  50  74
BRANCH  62  85
ATOM     85  C   UNL A   1      42.966  32.043  33.930  1.00  0.00     0.023 A 
ATOM     86  C   UNL A   1      42.602  30.700  34.178  1.00  0.00     0.031 A 
ATOM     87  C   UNL A   1      43.383  32.819  35.027  1.00  0.00     0.131 A 
ATOM     88  C   UNL A   1      42.664  30.183  35.489  1.00  0.00     0.055 A 
ATOM     89  C   UNL A   1      43.463  32.297  36.318  1.00  0.00     0.041 A 
ATOM     90  F   UNL A   1      43.770  34.093  34.850  1.00  0.00    -0.206 F 
ATOM     91  C   UNL A   1      43.101  30.977  36.555  1.00  0.00     0.022 A 
BRANCH  88  92
ATOM     92  S   UNL A   1      42.179  28.461  35.835  1.00  0.00     0.124 S 
ATOM     93  O   UNL A   1      42.376  27.788  34.556  1.00  0.00    -0.237 OA
ATOM     94  O   UNL A   1      43.096  28.083  36.907  1.00  0.00    -0.237 OA
ATOM     95  O   UNL A   1      40.780  28.578  36.251  1.00  0.00    -0.744 OA
ENDBRANCH  88  92
ENDBRANCH  62  85
ENDBRANCH  36  37
ENDBRANCH  29  31
ENDBRANCH  28  29
ENDBRANCH  27  28
ENDBRANCH  26  27
ENDBRANCH  25  26
ENDBRANCH   1  25
TORSDOF 22
ENDMDL
MODEL 3
REMARK VINA RESULT:     -10.1      4.338      7.487
REMARK SMILES CCn1nc(-c2cccnc2)c2cc(C(=O)OCCOCCOCCOC(=O)c3ccc(-c4c5nc(c(-c6cc(S(=O)(=O)[O-])ccc6F)c6ccc([nH]6)c(-c6cc(S(=O)(=O)[O-])ccc6F)c6nc(c(-c7cc(S(=O)(=O)[O-])ccc7F)c7ccc4[nH]7)C=C6)C=C5)cc3)sc21
REMARK SMILES IDX 22 1 21 2 20 3 19 4 18 5 17 6 15 7 16 8 14 9 3 10 4 11 93 12
REMARK SMILES IDX 5 13 12 14 92 15 13 16 2 17 1 18 6 19 7 20 11 21 8 22 10 23
REMARK SMILES IDX 9 24 23 25 24 26 25 27 26 28 27 29 28 30 29 31 30 32 91 33
REMARK SMILES IDX 31 34 90 35 32 36 33 37 34 38 84 39 35 40 89 41 83 42 85 43
REMARK SMILES IDX 36 44 88 45 82 46 81 47 37 49 69 50 49 51 68 52 50 53 53 54
REMARK SMILES IDX 67 55 86 56 51 57 52 58 66 60 87 61 54 62 38 63 39 64 47 65
REMARK SMILES IDX 40 66 46 67 48 68 45 69 41 70 42 71 43 72 44 73 70 74 71 75
REMARK SMILES IDX 79 76 72 77 78 78 80 79 77 80 73 81 74 82 75 83 76 84 55 85
REMARK SMILES IDX 56 86 64 87 57 88 63 89 65 90 62 91 58 92 59 93 60 94 61 95
REMARK H PARENT 85 48 53 59
REMARK Flexibility Score: inf
ROOT
ATOM      1  C   UNL A   1      34.846  33.148  31.736  1.00  0.00     0.188 C 
ENDROOT
BRANCH   1   2
ATOM      2  C   UNL A   1      34.568  33.953  33.031  1.00  0.00     0.188 C 
BRANCH   2   3
ATOM      3  O   UNL A   1      34.983  33.494  34.312  1.00  0.00    -0.376 OA
BRANCH   3   4
ATOM      4  C   UNL A   1      36.304  33.738  34.765  1.00  0.00     0.202 C 
BRANCH   4   5
ATOM      5  C   UNL A   1      37.247  32.537  34.967  1.00  0.00     0.261 C 
BRANCH   5   6
ATOM      6  O   UNL A   1      37.407  31.668  33.834  1.00  0.00    -0.459 OA
BRANCH   6   7
ATOM      7  C   UNL A   1      38.623  31.047  33.701  1.00  0.00     0.348 C 
ATOM      8  O   UNL A   1      38.859  29.910  34.032  1.00  0.00    -0.245 OA
BRANCH   7   9
ATOM      9  C   UNL A   1      39.552  31.913  32.976  1.00  0.00     0.115 A 
ATOM     10  N   UNL A   1      41.273  34.210  30.552  1.00  0.00    -0.254 N 
ATOM     11  N   UNL A   1      42.570  34.355  30.947  1.00  0.00    -0.171 NA
ATOM     12  C   UNL A   1      40.587  33.395  31.383  1.00  0.00     0.122 A 
ATOM     13  C   UNL A   1      42.691  33.564  32.041  1.00  0.00     0.103 A 
ATOM     14  C   UNL A   1      41.453  32.974  32.309  1.00  0.00     0.040 A 
ATOM     15  S   UNL A   1      39.040  32.830  31.574  1.00  0.00    -0.109 S 
ATOM     16  C   UNL A   1      40.907  32.126  33.270  1.00  0.00     0.040 A 
BRANCH  10  17
ATOM     17  C   UNL A   1      40.785  34.934  29.398  1.00  0.00     0.142 C 
ATOM     18  C   UNL A   1      41.918  35.394  28.497  1.00  0.00     0.029 C 
ENDBRANCH  10  17
BRANCH  13  19
ATOM     19  C   UNL A   1      43.948  33.494  32.757  1.00  0.00     0.021 A 
ATOM     20  C   UNL A   1      44.692  34.653  32.991  1.00  0.00     0.013 A 
ATOM     21  C   UNL A   1      44.488  32.285  33.176  1.00  0.00     0.121 A 
ATOM     22  C   UNL A   1      45.925  34.565  33.631  1.00  0.00     0.021 A 
ATOM     23  N   UNL A   1      45.684  32.172  33.808  1.00  0.00    -0.264 NA
ATOM     24  C   UNL A   1      46.376  33.313  34.014  1.00  0.00     0.111 A 
ENDBRANCH  13  19
ENDBRANCH   7   9
ENDBRANCH   6   7
ENDBRANCH   5   6
ENDBRANCH   4   5
ENDBRANCH   3   4
ENDBRANCH   2   3
ENDBRANCH   1   2
BRANCH   1  25
ATOM     25  O   UNL A   1      35.065  33.925  30.567  1.00  0.00    -0.376 OA
BRANCH  25  26
ATOM     26  C   UNL A   1      35.384  33.221  29.372  1.00  0.00     0.202 C 
BRANCH  26  27
ATOM     27  C   UNL A   1      35.336  31.696  29.451  1.00  0.00     0.261 C 
BRANCH  27  28
ATOM     28  O   UNL A   1      36.612  31.082  29.450  1.00  0.00    -0.460 OA
BRANCH  28  29
ATOM     29  C   UNL A   1      36.712  29.967  30.200  1.00  0.00     0.338 C 
ATOM     30  O   UNL A   1      36.208  29.776  31.293  1.00  0.00    -0.246 OA
BRANCH  29  31
ATOM     31  C   UNL A   1      37.577  29.019  29.490  1.00  0.00     0.060 A 
ATOM     32  C   UNL A   1      38.061  27.942  30.231  1.00  0.00     0.016 A 
ATOM     33  C   UNL A   1      38.140  29.406  28.263  1.00  0.00     0.016 A 
ATOM     34  C   UNL A   1      39.305  27.461  29.908  1.00  0.00     0.010 A 
ATOM     35  C   UNL A   1      39.392  28.946  27.957  1.00  0.00     0.010 A 
ATOM     36  C   UNL A   1      39.996  28.078  28.860  1.00  0.00    -0.014 A 
BRANCH  36  37
ATOM     37  C   UNL A   1      41.422  27.878  28.799  1.00  0.00     0.031 A 
ATOM     38  C   UNL A   1      41.828  26.704  28.015  1.00  0.00     0.074 A 
ATOM     39  C   UNL A   1      42.268  28.758  29.364  1.00  0.00     0.049 A 
ATOM     40  N   UNL A   1      42.362  25.613  28.448  1.00  0.00    -0.248 NA
ATOM     41  C   UNL A   1      41.428  26.667  26.602  1.00  0.00     0.031 C 
ATOM     42  C   UNL A   1      41.974  30.091  29.903  1.00  0.00     0.029 A 
ATOM     43  N   UNL A   1      43.617  28.679  29.466  1.00  0.00    -0.354 N 
ATOM     44  C   UNL A   1      42.555  24.826  27.321  1.00  0.00     0.074 A 
ATOM     45  C   UNL A   1      41.777  25.426  26.272  1.00  0.00     0.031 C 
ATOM     46  C   UNL A   1      43.134  30.774  30.042  1.00  0.00     0.029 A 
ATOM     47  C   UNL A   1      44.244  29.889  29.726  1.00  0.00     0.049 A 
ATOM     48  H   UNL A   1      44.111  27.834  29.364  1.00  0.00     0.167 HD
ATOM     49  C   UNL A   1      43.524  23.872  27.283  1.00  0.00     0.034 A 
ATOM     50  C   UNL A   1      45.569  30.152  29.575  1.00  0.00     0.034 A 
ATOM     51  C   UNL A   1      43.985  23.546  28.613  1.00  0.00     0.049 A 
ATOM     52  C   UNL A   1      46.271  28.838  29.583  1.00  0.00     0.074 A 
ATOM     53  C   UNL A   1      43.375  23.029  29.741  1.00  0.00     0.029 A 
ATOM     54  N   UNL A   1      45.160  24.117  29.053  1.00  0.00    -0.354 N 
ATOM     55  N   UNL A   1      46.315  28.054  30.628  1.00  0.00    -0.248 NA
ATOM     56  C   UNL A   1      46.487  28.168  28.306  1.00  0.00     0.031 C 
ATOM     57  C   UNL A   1      43.956  23.738  30.832  1.00  0.00     0.029 A 
ATOM     58  C   UNL A   1      44.934  24.596  30.322  1.00  0.00     0.049 A 
ATOM     59  H   UNL A   1      46.005  24.171  28.552  1.00  0.00     0.167 HD
ATOM     60  C   UNL A   1      46.139  26.769  30.129  1.00  0.00     0.074 A 
ATOM     61  C   UNL A   1      46.346  26.894  28.687  1.00  0.00     0.031 C 
ATOM     62  C   UNL A   1      45.561  25.783  30.879  1.00  0.00     0.034 A 
BRANCH  49  63
ATOM     63  C   UNL A   1      44.269  23.467  26.038  1.00  0.00     0.023 A 
ATOM     64  C   UNL A   1      44.148  22.130  25.620  1.00  0.00     0.031 A 
ATOM     65  C   UNL A   1      45.279  24.223  25.397  1.00  0.00     0.131 A 
ATOM     66  C   UNL A   1      45.040  21.586  24.682  1.00  0.00     0.055 A 
ATOM     67  C   UNL A   1      46.114  23.698  24.409  1.00  0.00     0.041 A 
ATOM     68  F   UNL A   1      45.589  25.476  25.752  1.00  0.00    -0.206 F 
ATOM     69  C   UNL A   1      46.018  22.362  24.067  1.00  0.00     0.022 A 
BRANCH  66  70
ATOM     70  S   UNL A   1      45.020  19.795  24.418  1.00  0.00     0.124 S 
ATOM     71  O   UNL A   1      46.432  19.457  24.552  1.00  0.00    -0.237 OA
ATOM     72  O   UNL A   1      44.144  19.345  25.495  1.00  0.00    -0.237 OA
ATOM     73  O   UNL A   1      44.471  19.659  23.070  1.00  0.00    -0.744 OA
ENDBRANCH  66  70
ENDBRANCH  49  63
BRANCH  50  74
ATOM     74  C   UNL A   1      46.150  31.411  29.030  1.00  0.00     0.023 A 
ATOM     75  C   UNL A   1      45.769  31.957  27.788  1.00  0.00     0.031 A 
ATOM     76  C   UNL A   1      46.963  32.225  29.856  1.00  0.00     0.131 A 
ATOM     77  C   UNL A   1      46.209  33.250  27.414  1.00  0.00     0.055 A 
ATOM     78  C   UNL A   1      47.403  33.494  29.478  1.00  0.00     0.041 A 
ATOM     79  F   UNL A   1      47.293  31.844  31.100  1.00  0.00    -0.206 F 
ATOM     80  C   UNL A   1      47.021  34.017  28.254  1.00  0.00     0.022 A 
BRANCH  77  81
ATOM     81  S   UNL A   1      45.652  33.997  25.848  1.00  0.00     0.124 S 
ATOM     82  O   UNL A   1      44.940  32.894  25.214  1.00  0.00    -0.237 OA
ATOM     83  O   UNL A   1      44.838  35.117  26.309  1.00  0.00    -0.237 OA
ATOM     84  O   UNL A   1      46.902  34.381  25.190  1.00  0.00    -0.744 OA
ENDBRANCH  77  81
ENDBRANCH  50  74
BRANCH  62  85
ATOM     85  C   UNL A   1      45.347  26.028  32.361  1.00  0.00     0.023 A 
ATOM     86  C   UNL A   1      44.141  26.492  32.933  1.00  0.00     0.031 A 
ATOM     87  C   UNL A   1      46.368  25.616  33.236  1.00  0.00     0.131 A 
ATOM     88  C   UNL A   1      43.995  26.531  34.336  1.00  0.00     0.055 A 
ATOM     89  C   UNL A   1      46.211  25.636  34.621  1.00  0.00     0.041 A 
ATOM     90  F   UNL A   1      47.526  25.137  32.752  1.00  0.00    -0.206 F 
ATOM     91  C   UNL A   1      45.024  26.096  35.177  1.00  0.00     0.022 A 
BRANCH  88  92
ATOM     92  S   UNL A   1      42.457  27.146  35.095  1.00  0.00     0.124 S 
ATOM     93  O   UNL A   1      41.823  25.936  35.608  1.00  0.00    -0.237 OA
ATOM     94  O   UNL A   1      42.952  28.085  36.098  1.00  0.00    -0.237 OA
ATOM     95  O   UNL A   1      41.751  27.773  33.976  1.00  0.00    -0.744 OA
ENDBRANCH  88  92
ENDBRANCH  62  85
ENDBRANCH  36  37
ENDBRANCH  29  31
ENDBRANCH  28  29
ENDBRANCH  27  28
ENDBRANCH  26  27
ENDBRANCH  25  26
ENDBRANCH   1  25
TORSDOF 22
ENDMDL
