MODEL 1
REMARK VINA RESULT:     -10.1      0.000      0.000
REMARK SMILES CC(C)CCNC(=O)[C@@H](C)Oc1ccc(N)cc1C(=O)OCCOCCOCCOC(=O)c1ccc(-c2c3nc(c(-c4cc(S(=O)(=O)[O-])ccc4F)c4ccc([nH]4)c(-c4cc(S(=O)(=O)[O-])ccc4F)c4nc(c(-c5cc(S(=O)(=O)[O-])ccc5F)c5ccc2[nH]5)C=C4)C=C3)cc1
REMARK SMILES IDX 24 1 23 2 22 3 21 4 19 5 20 6 18 7 12 8 13 9 14 10 17 11
REMARK SMILES IDX 15 12 11 13 9 14 10 15 7 16 6 17 8 19 5 20 4 21 2 22 1 23
REMARK SMILES IDX 3 24 16 25 25 28 26 29 27 30 28 31 29 32 30 33 31 34 32 35
REMARK SMILES IDX 33 36 34 37 95 38 35 39 94 40 36 41 37 42 38 43 88 44 39 45
REMARK SMILES IDX 93 46 87 47 89 48 40 49 92 50 86 51 85 52 41 54 73 55 53 56
REMARK SMILES IDX 72 57 54 58 57 59 71 60 90 61 55 62 56 63 70 65 91 66 58 67
REMARK SMILES IDX 42 68 43 69 51 70 44 71 50 72 52 73 49 74 45 75 46 76 47 77
REMARK SMILES IDX 48 78 74 79 75 80 83 81 76 82 82 83 84 84 81 85 77 86 78 87
REMARK SMILES IDX 79 88 80 89 59 90 60 91 68 92 61 93 67 94 69 95 66 96 62 97
REMARK SMILES IDX 63 98 64 99 65 100
REMARK H PARENT 6 18 16 26 16 27 89 53 57 64
REMARK Flexibility Score: inf
ROOT
ATOM      1  O   UNL A   1      31.421  25.077  26.931  1.00  0.00    -0.376 OA
ENDROOT
BRANCH   1   2
ATOM      2  C   UNL A   1      30.650  24.298  26.025  1.00  0.00     0.202 C 
BRANCH   2   3
ATOM      3  C   UNL A   1      30.501  22.775  26.200  1.00  0.00     0.261 C 
BRANCH   3   4
ATOM      4  O   UNL A   1      31.256  21.957  25.291  1.00  0.00    -0.460 OA
BRANCH   4   5
ATOM      5  C   UNL A   1      32.487  21.615  25.730  1.00  0.00     0.342 C 
ATOM      6  O   UNL A   1      33.007  22.003  26.769  1.00  0.00    -0.246 OA
BRANCH   5   7
ATOM      7  C   UNL A   1      33.136  20.561  24.919  1.00  0.00     0.104 A 
ATOM      8  C   UNL A   1      34.450  20.123  25.083  1.00  0.00     0.135 A 
ATOM      9  C   UNL A   1      34.707  18.801  24.746  1.00  0.00     0.049 A 
ATOM     10  C   UNL A   1      33.822  18.092  23.920  1.00  0.00     0.029 A 
ATOM     11  C   UNL A   1      32.277  19.876  24.035  1.00  0.00     0.045 A 
ATOM     12  C   UNL A   1      32.682  18.702  23.417  1.00  0.00     0.032 A 
BRANCH   8  13
ATOM     13  O   UNL A   1      35.412  20.912  25.632  1.00  0.00    -0.480 OA
BRANCH  13  14
ATOM     14  C   UNL A   1      36.196  21.745  24.758  1.00  0.00     0.258 C 
ATOM     15  C   UNL A   1      37.600  21.187  24.483  1.00  0.00     0.064 C 
BRANCH  14  16
ATOM     16  C   UNL A   1      36.215  23.316  24.729  1.00  0.00     0.260 C 
ATOM     17  N   UNL A   1      35.197  24.070  24.208  1.00  0.00    -0.353 N 
ATOM     18  H   UNL A   1      35.135  24.993  24.545  1.00  0.00     0.163 HD
ATOM     19  O   UNL A   1      37.166  23.933  25.225  1.00  0.00    -0.271 OA
BRANCH  17  20
ATOM     20  C   UNL A   1      34.200  23.692  23.229  1.00  0.00     0.116 C 
BRANCH  20  21
ATOM     21  C   UNL A   1      32.879  24.440  23.304  1.00  0.00     0.024 C 
BRANCH  21  22
ATOM     22  C   UNL A   1      32.678  25.517  22.214  1.00  0.00    -0.016 C 
ATOM     23  C   UNL A   1      33.581  26.746  22.388  1.00  0.00     0.007 C 
ATOM     24  C   UNL A   1      32.948  24.891  20.845  1.00  0.00     0.007 C 
ENDBRANCH  21  22
ENDBRANCH  20  21
ENDBRANCH  17  20
ENDBRANCH  14  16
ENDBRANCH  13  14
ENDBRANCH   8  13
BRANCH  12  25
ATOM     25  N   UNL A   1      31.898  18.083  22.464  1.00  0.00    -0.399 N 
ATOM     26  H   UNL A   1      32.309  17.738  21.638  1.00  0.00     0.156 HD
ATOM     27  H   UNL A   1      30.930  17.985  22.610  1.00  0.00     0.156 HD
ENDBRANCH  12  25
ENDBRANCH   5   7
ENDBRANCH   4   5
ENDBRANCH   3   4
ENDBRANCH   2   3
ENDBRANCH   1   2
BRANCH   1  28
ATOM     28  C   UNL A   1      32.096  26.241  26.477  1.00  0.00     0.188 C 
BRANCH  28  29
ATOM     29  C   UNL A   1      31.285  27.409  25.881  1.00  0.00     0.188 C 
BRANCH  29  30
ATOM     30  O   UNL A   1      32.052  28.282  25.082  1.00  0.00    -0.376 OA
BRANCH  30  31
ATOM     31  C   UNL A   1      31.768  29.667  25.122  1.00  0.00     0.202 C 
BRANCH  31  32
ATOM     32  C   UNL A   1      31.887  30.497  26.414  1.00  0.00     0.261 C 
BRANCH  32  33
ATOM     33  O   UNL A   1      33.078  30.365  27.197  1.00  0.00    -0.460 OA
BRANCH  33  34
ATOM     34  C   UNL A   1      33.694  31.506  27.592  1.00  0.00     0.338 C 
ATOM     35  O   UNL A   1      33.189  32.601  27.714  1.00  0.00    -0.246 OA
BRANCH  34  36
ATOM     36  C   UNL A   1      35.054  31.131  28.041  1.00  0.00     0.060 A 
ATOM     37  C   UNL A   1      35.362  29.783  28.277  1.00  0.00     0.016 A 
ATOM     38  C   UNL A   1      36.027  32.118  28.205  1.00  0.00     0.016 A 
ATOM     39  C   UNL A   1      36.643  29.422  28.701  1.00  0.00     0.010 A 
ATOM     40  C   UNL A   1      37.300  31.757  28.648  1.00  0.00     0.010 A 
ATOM     41  C   UNL A   1      37.608  30.412  28.925  1.00  0.00    -0.014 A 
BRANCH  41  42
ATOM     42  C   UNL A   1      38.871  30.106  29.641  1.00  0.00     0.031 A 
ATOM     43  C   UNL A   1      39.759  29.036  29.070  1.00  0.00     0.074 A 
ATOM     44  C   UNL A   1      39.199  30.713  30.794  1.00  0.00     0.049 A 
ATOM     45  N   UNL A   1      40.800  28.445  29.594  1.00  0.00    -0.248 NA
ATOM     46  C   UNL A   1      39.402  28.560  27.725  1.00  0.00     0.031 C 
ATOM     47  C   UNL A   1      38.450  31.799  31.421  1.00  0.00     0.029 A 
ATOM     48  N   UNL A   1      40.238  30.473  31.661  1.00  0.00    -0.354 N 
ATOM     49  C   UNL A   1      41.211  27.506  28.653  1.00  0.00     0.074 A 
ATOM     50  C   UNL A   1      40.282  27.588  27.544  1.00  0.00     0.031 C 
ATOM     51  C   UNL A   1      39.036  32.112  32.590  1.00  0.00     0.029 A 
ATOM     52  C   UNL A   1      40.165  31.210  32.820  1.00  0.00     0.049 A 
ATOM     53  H   UNL A   1      40.963  29.835  31.471  1.00  0.00     0.167 HD
ATOM     54  C   UNL A   1      42.266  26.657  28.708  1.00  0.00     0.034 A 
ATOM     55  C   UNL A   1      40.893  31.129  33.954  1.00  0.00     0.034 A 
ATOM     56  C   UNL A   1      43.162  26.573  29.837  1.00  0.00     0.049 A 
ATOM     57  C   UNL A   1      42.002  30.105  34.048  1.00  0.00     0.074 A 
ATOM     58  C   UNL A   1      44.264  25.754  30.004  1.00  0.00     0.029 A 
ATOM     59  N   UNL A   1      43.043  27.322  31.003  1.00  0.00    -0.354 N 
ATOM     60  N   UNL A   1      42.382  29.214  33.161  1.00  0.00    -0.248 NA
ATOM     61  C   UNL A   1      42.779  30.078  35.294  1.00  0.00     0.031 C 
ATOM     62  C   UNL A   1      44.758  25.945  31.299  1.00  0.00     0.029 A 
ATOM     63  C   UNL A   1      44.031  26.958  31.905  1.00  0.00     0.049 A 
ATOM     64  H   UNL A   1      42.358  28.009  31.164  1.00  0.00     0.167 HD
ATOM     65  C   UNL A   1      43.470  28.551  33.727  1.00  0.00     0.074 A 
ATOM     66  C   UNL A   1      43.681  29.142  35.032  1.00  0.00     0.031 C 
ATOM     67  C   UNL A   1      44.234  27.554  33.207  1.00  0.00     0.034 A 
BRANCH  54  68
ATOM     68  C   UNL A   1      42.453  25.715  27.542  1.00  0.00     0.023 A 
ATOM     69  C   UNL A   1      41.811  24.465  27.492  1.00  0.00     0.031 A 
ATOM     70  C   UNL A   1      43.339  26.038  26.500  1.00  0.00     0.131 A 
ATOM     71  C   UNL A   1      42.143  23.547  26.485  1.00  0.00     0.055 A 
ATOM     72  C   UNL A   1      43.587  25.159  25.443  1.00  0.00     0.041 A 
ATOM     73  F   UNL A   1      44.003  27.205  26.502  1.00  0.00    -0.206 F 
ATOM     74  C   UNL A   1      43.005  23.895  25.443  1.00  0.00     0.022 A 
BRANCH  71  75
ATOM     75  S   UNL A   1      41.585  21.830  26.668  1.00  0.00     0.124 S 
ATOM     76  O   UNL A   1      42.028  21.240  25.407  1.00  0.00    -0.237 OA
ATOM     77  O   UNL A   1      42.299  21.392  27.862  1.00  0.00    -0.237 OA
ATOM     78  O   UNL A   1      40.137  21.953  26.815  1.00  0.00    -0.744 OA
ENDBRANCH  71  75
ENDBRANCH  54  68
BRANCH  55  79
ATOM     79  C   UNL A   1      40.565  32.006  35.116  1.00  0.00     0.023 A 
ATOM     80  C   UNL A   1      39.459  31.740  35.939  1.00  0.00     0.031 A 
ATOM     81  C   UNL A   1      41.343  33.142  35.404  1.00  0.00     0.131 A 
ATOM     82  C   UNL A   1      39.145  32.616  36.991  1.00  0.00     0.055 A 
ATOM     83  C   UNL A   1      41.058  33.979  36.484  1.00  0.00     0.041 A 
ATOM     84  F   UNL A   1      42.407  33.446  34.644  1.00  0.00    -0.206 F 
ATOM     85  C   UNL A   1      39.947  33.723  37.280  1.00  0.00     0.022 A 
BRANCH  82  86
ATOM     86  S   UNL A   1      37.624  32.326  37.938  1.00  0.00     0.124 S 
ATOM     87  O   UNL A   1      38.016  32.776  39.269  1.00  0.00    -0.237 OA
ATOM     88  O   UNL A   1      36.664  33.168  37.234  1.00  0.00    -0.237 OA
ATOM     89  O   UNL A   1      37.407  30.888  37.802  1.00  0.00    -0.744 OA
ENDBRANCH  82  86
ENDBRANCH  55  79
BRANCH  67  90
ATOM     90  C   UNL A   1      45.425  27.089  34.014  1.00  0.00     0.023 A 
ATOM     91  C   UNL A   1      45.354  26.010  34.912  1.00  0.00     0.031 A 
ATOM     92  C   UNL A   1      46.668  27.731  33.852  1.00  0.00     0.131 A 
ATOM     93  C   UNL A   1      46.492  25.634  35.643  1.00  0.00     0.055 A 
ATOM     94  C   UNL A   1      47.810  27.312  34.533  1.00  0.00     0.041 A 
ATOM     95  F   UNL A   1      46.795  28.772  33.012  1.00  0.00    -0.206 F 
ATOM     96  C   UNL A   1      47.724  26.262  35.443  1.00  0.00     0.022 A 
BRANCH  93  97
ATOM     97  S   UNL A   1      46.329  24.360  36.926  1.00  0.00     0.124 S 
ATOM     98  O   UNL A   1      47.007  23.224  36.312  1.00  0.00    -0.237 OA
ATOM     99  O   UNL A   1      47.010  24.972  38.063  1.00  0.00    -0.237 OA
ATOM    100  O   UNL A   1      44.883  24.210  37.078  1.00  0.00    -0.744 OA
ENDBRANCH  93  97
ENDBRANCH  67  90
ENDBRANCH  41  42
ENDBRANCH  34  36
ENDBRANCH  33  34
ENDBRANCH  32  33
ENDBRANCH  31  32
ENDBRANCH  30  31
ENDBRANCH  29  30
ENDBRANCH  28  29
ENDBRANCH   1  28
TORSDOF 27
ENDMDL
MODEL 2
REMARK VINA RESULT:     -10.0      1.134      2.498
REMARK SMILES CC(C)CCNC(=O)[C@@H](C)Oc1ccc(N)cc1C(=O)OCCOCCOCCOC(=O)c1ccc(-c2c3nc(c(-c4cc(S(=O)(=O)[O-])ccc4F)c4ccc([nH]4)c(-c4cc(S(=O)(=O)[O-])ccc4F)c4nc(c(-c5cc(S(=O)(=O)[O-])ccc5F)c5ccc2[nH]5)C=C4)C=C3)cc1
REMARK SMILES IDX 24 1 23 2 22 3 21 4 19 5 20 6 18 7 12 8 13 9 14 10 17 11
REMARK SMILES IDX 15 12 11 13 9 14 10 15 7 16 6 17 8 19 5 20 4 21 2 22 1 23
REMARK SMILES IDX 3 24 16 25 25 28 26 29 27 30 28 31 29 32 30 33 31 34 32 35
REMARK SMILES IDX 33 36 34 37 95 38 35 39 94 40 36 41 37 42 38 43 88 44 39 45
REMARK SMILES IDX 93 46 87 47 89 48 40 49 92 50 86 51 85 52 41 54 73 55 53 56
REMARK SMILES IDX 72 57 54 58 57 59 71 60 90 61 55 62 56 63 70 65 91 66 58 67
REMARK SMILES IDX 42 68 43 69 51 70 44 71 50 72 52 73 49 74 45 75 46 76 47 77
REMARK SMILES IDX 48 78 74 79 75 80 83 81 76 82 82 83 84 84 81 85 77 86 78 87
REMARK SMILES IDX 79 88 80 89 59 90 60 91 68 92 61 93 67 94 69 95 66 96 62 97
REMARK SMILES IDX 63 98 64 99 65 100
REMARK H PARENT 6 18 16 26 16 27 89 53 57 64
REMARK Flexibility Score: inf
ROOT
ATOM      1  O   UNL A   1      32.083  25.431  26.924  1.00  0.00    -0.376 OA
ENDROOT
BRANCH   1   2
ATOM      2  C   UNL A   1      31.310  24.353  26.413  1.00  0.00     0.202 C 
BRANCH   2   3
ATOM      3  C   UNL A   1      31.377  22.948  27.040  1.00  0.00     0.261 C 
BRANCH   3   4
ATOM      4  O   UNL A   1      32.442  22.100  26.577  1.00  0.00    -0.460 OA
BRANCH   4   5
ATOM      5  C   UNL A   1      33.685  22.562  26.838  1.00  0.00     0.342 C 
ATOM      6  O   UNL A   1      34.093  22.932  27.932  1.00  0.00    -0.246 OA
BRANCH   5   7
ATOM      7  C   UNL A   1      34.618  22.434  25.697  1.00  0.00     0.104 A 
ATOM      8  C   UNL A   1      34.614  23.254  24.568  1.00  0.00     0.135 A 
ATOM      9  C   UNL A   1      35.838  23.446  23.940  1.00  0.00     0.049 A 
ATOM     10  C   UNL A   1      36.903  22.562  24.171  1.00  0.00     0.029 A 
ATOM     11  C   UNL A   1      35.662  21.505  25.881  1.00  0.00     0.045 A 
ATOM     12  C   UNL A   1      36.749  21.476  25.020  1.00  0.00     0.032 A 
BRANCH   8  13
ATOM     13  O   UNL A   1      33.496  23.908  24.153  1.00  0.00    -0.480 OA
BRANCH  13  14
ATOM     14  C   UNL A   1      33.379  24.248  22.759  1.00  0.00     0.258 C 
ATOM     15  C   UNL A   1      32.710  25.609  22.518  1.00  0.00     0.064 C 
BRANCH  14  16
ATOM     16  C   UNL A   1      33.056  23.262  21.579  1.00  0.00     0.260 C 
ATOM     17  N   UNL A   1      32.308  22.124  21.733  1.00  0.00    -0.353 N 
ATOM     18  H   UNL A   1      31.878  21.784  20.916  1.00  0.00     0.163 HD
ATOM     19  O   UNL A   1      33.453  23.515  20.434  1.00  0.00    -0.271 OA
BRANCH  17  20
ATOM     20  C   UNL A   1      32.066  21.356  22.936  1.00  0.00     0.116 C 
BRANCH  20  21
ATOM     21  C   UNL A   1      32.467  19.890  22.879  1.00  0.00     0.024 C 
BRANCH  21  22
ATOM     22  C   UNL A   1      33.185  19.362  24.140  1.00  0.00    -0.016 C 
ATOM     23  C   UNL A   1      32.252  19.164  25.343  1.00  0.00     0.007 C 
ATOM     24  C   UNL A   1      33.856  18.029  23.807  1.00  0.00     0.007 C 
ENDBRANCH  21  22
ENDBRANCH  20  21
ENDBRANCH  17  20
ENDBRANCH  14  16
ENDBRANCH  13  14
ENDBRANCH   8  13
BRANCH  12  25
ATOM     25  N   UNL A   1      37.720  20.500  25.120  1.00  0.00    -0.399 N 
ATOM     26  H   UNL A   1      37.554  19.694  25.661  1.00  0.00     0.156 HD
ATOM     27  H   UNL A   1      38.578  20.610  24.649  1.00  0.00     0.156 HD
ENDBRANCH  12  25
ENDBRANCH   5   7
ENDBRANCH   4   5
ENDBRANCH   3   4
ENDBRANCH   2   3
ENDBRANCH   1   2
BRANCH   1  28
ATOM     28  C   UNL A   1      32.433  26.521  26.083  1.00  0.00     0.188 C 
BRANCH  28  29
ATOM     29  C   UNL A   1      31.380  27.594  25.749  1.00  0.00     0.188 C 
BRANCH  29  30
ATOM     30  O   UNL A   1      31.784  28.492  24.740  1.00  0.00    -0.376 OA
BRANCH  30  31
ATOM     31  C   UNL A   1      31.562  29.876  24.928  1.00  0.00     0.202 C 
BRANCH  31  32
ATOM     32  C   UNL A   1      31.669  30.547  26.310  1.00  0.00     0.261 C 
BRANCH  32  33
ATOM     33  O   UNL A   1      32.904  30.436  27.024  1.00  0.00    -0.460 OA
BRANCH  33  34
ATOM     34  C   UNL A   1      33.509  31.588  27.406  1.00  0.00     0.338 C 
ATOM     35  O   UNL A   1      32.997  32.682  27.502  1.00  0.00    -0.246 OA
BRANCH  34  36
ATOM     36  C   UNL A   1      34.866  31.229  27.879  1.00  0.00     0.060 A 
ATOM     37  C   UNL A   1      35.192  29.882  28.097  1.00  0.00     0.016 A 
ATOM     38  C   UNL A   1      35.817  32.229  28.083  1.00  0.00     0.016 A 
ATOM     39  C   UNL A   1      36.470  29.535  28.544  1.00  0.00     0.010 A 
ATOM     40  C   UNL A   1      37.086  31.882  28.549  1.00  0.00     0.010 A 
ATOM     41  C   UNL A   1      37.412  30.538  28.808  1.00  0.00    -0.014 A 
BRANCH  41  42
ATOM     42  C   UNL A   1      38.664  30.241  29.547  1.00  0.00     0.031 A 
ATOM     43  C   UNL A   1      39.587  29.203  28.973  1.00  0.00     0.074 A 
ATOM     44  C   UNL A   1      38.952  30.827  30.721  1.00  0.00     0.049 A 
ATOM     45  N   UNL A   1      40.627  28.620  29.508  1.00  0.00    -0.248 NA
ATOM     46  C   UNL A   1      39.271  28.751  27.609  1.00  0.00     0.031 C 
ATOM     47  C   UNL A   1      38.166  31.884  31.354  1.00  0.00     0.029 A 
ATOM     48  N   UNL A   1      39.975  30.588  31.607  1.00  0.00    -0.354 N 
ATOM     49  C   UNL A   1      41.079  27.713  28.556  1.00  0.00     0.074 A 
ATOM     50  C   UNL A   1      40.176  27.802  27.428  1.00  0.00     0.031 C 
ATOM     51  C   UNL A   1      38.717  32.180  32.544  1.00  0.00     0.029 A 
ATOM     52  C   UNL A   1      39.859  31.296  32.780  1.00  0.00     0.049 A 
ATOM     53  H   UNL A   1      40.717  29.970  31.420  1.00  0.00     0.167 HD
ATOM     54  C   UNL A   1      42.151  26.884  28.617  1.00  0.00     0.034 A 
ATOM     55  C   UNL A   1      40.561  31.204  33.929  1.00  0.00     0.034 A 
ATOM     56  C   UNL A   1      43.020  26.792  29.765  1.00  0.00     0.049 A 
ATOM     57  C   UNL A   1      41.689  30.200  34.026  1.00  0.00     0.074 A 
ATOM     58  C   UNL A   1      44.136  25.992  29.940  1.00  0.00     0.029 A 
ATOM     59  N   UNL A   1      42.859  27.511  30.944  1.00  0.00    -0.354 N 
ATOM     60  N   UNL A   1      42.109  29.338  33.129  1.00  0.00    -0.248 NA
ATOM     61  C   UNL A   1      42.437  30.160  35.290  1.00  0.00     0.031 C 
ATOM     62  C   UNL A   1      44.595  26.162  31.250  1.00  0.00     0.029 A 
ATOM     63  C   UNL A   1      43.833  27.146  31.862  1.00  0.00     0.049 A 
ATOM     64  H   UNL A   1      42.156  28.180  31.105  1.00  0.00     0.167 HD
ATOM     65  C   UNL A   1      43.196  28.684  33.705  1.00  0.00     0.074 A 
ATOM     66  C   UNL A   1      43.364  29.249  35.028  1.00  0.00     0.031 C 
ATOM     67  C   UNL A   1      43.993  27.716  33.182  1.00  0.00     0.034 A 
BRANCH  54  68
ATOM     68  C   UNL A   1      42.384  25.973  27.435  1.00  0.00     0.023 A 
ATOM     69  C   UNL A   1      41.822  24.686  27.371  1.00  0.00     0.031 A 
ATOM     70  C   UNL A   1      43.236  26.367  26.389  1.00  0.00     0.131 A 
ATOM     71  C   UNL A   1      42.201  23.806  26.347  1.00  0.00     0.055 A 
ATOM     72  C   UNL A   1      43.529  25.522  25.317  1.00  0.00     0.041 A 
ATOM     73  F   UNL A   1      43.825  27.574  26.403  1.00  0.00    -0.206 F 
ATOM     74  C   UNL A   1      43.028  24.224  25.302  1.00  0.00     0.022 A 
BRANCH  71  75
ATOM     75  S   UNL A   1      41.756  22.054  26.509  1.00  0.00     0.124 S 
ATOM     76  O   UNL A   1      42.038  21.807  27.921  1.00  0.00    -0.237 OA
ATOM     77  O   UNL A   1      40.347  22.050  26.130  1.00  0.00    -0.237 OA
ATOM     78  O   UNL A   1      42.657  21.384  25.575  1.00  0.00    -0.744 OA
ENDBRANCH  71  75
ENDBRANCH  54  68
BRANCH  55  79
ATOM     79  C   UNL A   1      40.188  32.046  35.103  1.00  0.00     0.023 A 
ATOM     80  C   UNL A   1      39.305  31.574  36.087  1.00  0.00     0.031 A 
ATOM     81  C   UNL A   1      40.693  33.352  35.243  1.00  0.00     0.131 A 
ATOM     82  C   UNL A   1      38.929  32.412  37.149  1.00  0.00     0.055 A 
ATOM     83  C   UNL A   1      40.359  34.162  36.330  1.00  0.00     0.041 A 
ATOM     84  F   UNL A   1      41.536  33.855  34.327  1.00  0.00    -0.206 F 
ATOM     85  C   UNL A   1      39.465  33.695  37.287  1.00  0.00     0.022 A 
BRANCH  82  86
ATOM     86  S   UNL A   1      37.671  31.824  38.317  1.00  0.00     0.124 S 
ATOM     87  O   UNL A   1      36.612  32.810  38.130  1.00  0.00    -0.237 OA
ATOM     88  O   UNL A   1      37.394  30.483  37.815  1.00  0.00    -0.237 OA
ATOM     89  O   UNL A   1      38.354  31.876  39.608  1.00  0.00    -0.744 OA
ENDBRANCH  82  86
ENDBRANCH  55  79
BRANCH  67  90
ATOM     90  C   UNL A   1      45.174  27.255  34.006  1.00  0.00     0.023 A 
ATOM     91  C   UNL A   1      45.105  26.152  34.874  1.00  0.00     0.031 A 
ATOM     92  C   UNL A   1      46.405  27.929  33.892  1.00  0.00     0.131 A 
ATOM     93  C   UNL A   1      46.233  25.782  35.624  1.00  0.00     0.055 A 
ATOM     94  C   UNL A   1      47.539  27.517  34.591  1.00  0.00     0.041 A 
ATOM     95  F   UNL A   1      46.529  28.994  33.082  1.00  0.00    -0.206 F 
ATOM     96  C   UNL A   1      47.455  26.443  35.471  1.00  0.00     0.022 A 
BRANCH  93  97
ATOM     97  S   UNL A   1      46.068  24.472  36.869  1.00  0.00     0.124 S 
ATOM     98  O   UNL A   1      44.626  24.445  37.090  1.00  0.00    -0.237 OA
ATOM     99  O   UNL A   1      46.630  23.314  36.181  1.00  0.00    -0.237 OA
ATOM    100  O   UNL A   1      46.858  24.967  37.995  1.00  0.00    -0.744 OA
ENDBRANCH  93  97
ENDBRANCH  67  90
ENDBRANCH  41  42
ENDBRANCH  34  36
ENDBRANCH  33  34
ENDBRANCH  32  33
ENDBRANCH  31  32
ENDBRANCH  30  31
ENDBRANCH  29  30
ENDBRANCH  28  29
ENDBRANCH   1  28
TORSDOF 27
ENDMDL
MODEL 3
REMARK VINA RESULT:      -9.9      2.078      3.138
REMARK SMILES CC(C)CCNC(=O)[C@@H](C)Oc1ccc(N)cc1C(=O)OCCOCCOCCOC(=O)c1ccc(-c2c3nc(c(-c4cc(S(=O)(=O)[O-])ccc4F)c4ccc([nH]4)c(-c4cc(S(=O)(=O)[O-])ccc4F)c4nc(c(-c5cc(S(=O)(=O)[O-])ccc5F)c5ccc2[nH]5)C=C4)C=C3)cc1
REMARK SMILES IDX 24 1 23 2 22 3 21 4 19 5 20 6 18 7 12 8 13 9 14 10 17 11
REMARK SMILES IDX 15 12 11 13 9 14 10 15 7 16 6 17 8 19 5 20 4 21 2 22 1 23
REMARK SMILES IDX 3 24 16 25 25 28 26 29 27 30 28 31 29 32 30 33 31 34 32 35
REMARK SMILES IDX 33 36 34 37 95 38 35 39 94 40 36 41 37 42 38 43 88 44 39 45
REMARK SMILES IDX 93 46 87 47 89 48 40 49 92 50 86 51 85 52 41 54 73 55 53 56
REMARK SMILES IDX 72 57 54 58 57 59 71 60 90 61 55 62 56 63 70 65 91 66 58 67
REMARK SMILES IDX 42 68 43 69 51 70 44 71 50 72 52 73 49 74 45 75 46 76 47 77
REMARK SMILES IDX 48 78 74 79 75 80 83 81 76 82 82 83 84 84 81 85 77 86 78 87
REMARK SMILES IDX 79 88 80 89 59 90 60 91 68 92 61 93 67 94 69 95 66 96 62 97
REMARK SMILES IDX 63 98 64 99 65 100
REMARK H PARENT 6 18 16 26 16 27 89 53 57 64
REMARK Flexibility Score: inf
ROOT
ATOM      1  O   UNL A   1      32.135  25.480  26.871  1.00  0.00    -0.376 OA
ENDROOT
BRANCH   1   2
ATOM      2  C   UNL A   1      31.531  24.323  26.307  1.00  0.00     0.202 C 
BRANCH   2   3
ATOM      3  C   UNL A   1      31.586  22.959  27.019  1.00  0.00     0.261 C 
BRANCH   3   4
ATOM      4  O   UNL A   1      32.637  22.070  26.604  1.00  0.00    -0.460 OA
BRANCH   4   5
ATOM      5  C   UNL A   1      33.887  22.536  26.817  1.00  0.00     0.342 C 
ATOM      6  O   UNL A   1      34.328  22.927  27.891  1.00  0.00    -0.246 OA
BRANCH   5   7
ATOM      7  C   UNL A   1      34.785  22.386  25.651  1.00  0.00     0.104 A 
ATOM      8  C   UNL A   1      34.812  23.242  24.549  1.00  0.00     0.135 A 
ATOM      9  C   UNL A   1      36.031  23.373  23.899  1.00  0.00     0.049 A 
ATOM     10  C   UNL A   1      37.040  22.414  24.077  1.00  0.00     0.029 A 
ATOM     11  C   UNL A   1      35.768  21.384  25.781  1.00  0.00     0.045 A 
ATOM     12  C   UNL A   1      36.832  21.313  24.894  1.00  0.00     0.032 A 
BRANCH   8  13
ATOM     13  O   UNL A   1      33.731  23.982  24.182  1.00  0.00    -0.480 OA
BRANCH  13  14
ATOM     14  C   UNL A   1      33.522  24.241  22.782  1.00  0.00     0.258 C 
ATOM     15  C   UNL A   1      32.833  25.586  22.507  1.00  0.00     0.064 C 
BRANCH  14  16
ATOM     16  C   UNL A   1      33.128  23.189  21.684  1.00  0.00     0.260 C 
ATOM     17  N   UNL A   1      32.287  22.133  21.921  1.00  0.00    -0.353 N 
ATOM     18  H   UNL A   1      31.836  21.762  21.129  1.00  0.00     0.163 HD
ATOM     19  O   UNL A   1      33.553  23.311  20.527  1.00  0.00    -0.271 OA
BRANCH  17  20
ATOM     20  C   UNL A   1      31.974  21.491  23.181  1.00  0.00     0.116 C 
BRANCH  20  21
ATOM     21  C   UNL A   1      32.795  20.256  23.518  1.00  0.00     0.024 C 
BRANCH  21  22
ATOM     22  C   UNL A   1      32.163  18.916  23.080  1.00  0.00    -0.016 C 
ATOM     23  C   UNL A   1      32.153  18.707  21.559  1.00  0.00     0.007 C 
ATOM     24  C   UNL A   1      32.934  17.768  23.734  1.00  0.00     0.007 C 
ENDBRANCH  21  22
ENDBRANCH  20  21
ENDBRANCH  17  20
ENDBRANCH  14  16
ENDBRANCH  13  14
ENDBRANCH   8  13
BRANCH  12  25
ATOM     25  N   UNL A   1      37.738  20.272  24.939  1.00  0.00    -0.399 N 
ATOM     26  H   UNL A   1      37.757  19.604  24.216  1.00  0.00     0.156 HD
ATOM     27  H   UNL A   1      38.366  20.199  25.693  1.00  0.00     0.156 HD
ENDBRANCH  12  25
ENDBRANCH   5   7
ENDBRANCH   4   5
ENDBRANCH   3   4
ENDBRANCH   2   3
ENDBRANCH   1   2
BRANCH   1  28
ATOM     28  C   UNL A   1      32.458  26.591  26.048  1.00  0.00     0.188 C 
BRANCH  28  29
ATOM     29  C   UNL A   1      31.346  27.563  25.609  1.00  0.00     0.188 C 
BRANCH  29  30
ATOM     30  O   UNL A   1      31.743  28.460  24.596  1.00  0.00    -0.376 OA
BRANCH  30  31
ATOM     31  C   UNL A   1      31.430  29.831  24.738  1.00  0.00     0.202 C 
BRANCH  31  32
ATOM     32  C   UNL A   1      31.435  30.540  26.106  1.00  0.00     0.261 C 
BRANCH  32  33
ATOM     33  O   UNL A   1      32.621  30.467  26.903  1.00  0.00    -0.460 OA
BRANCH  33  34
ATOM     34  C   UNL A   1      33.213  31.637  27.250  1.00  0.00     0.338 C 
ATOM     35  O   UNL A   1      32.703  32.736  27.255  1.00  0.00    -0.246 OA
BRANCH  34  36
ATOM     36  C   UNL A   1      34.541  31.301  27.813  1.00  0.00     0.060 A 
ATOM     37  C   UNL A   1      34.844  29.969  28.132  1.00  0.00     0.016 A 
ATOM     38  C   UNL A   1      35.488  32.308  28.003  1.00  0.00     0.016 A 
ATOM     39  C   UNL A   1      36.094  29.645  28.665  1.00  0.00     0.010 A 
ATOM     40  C   UNL A   1      36.729  31.984  28.554  1.00  0.00     0.010 A 
ATOM     41  C   UNL A   1      37.030  30.658  28.913  1.00  0.00    -0.014 A 
BRANCH  41  42
ATOM     42  C   UNL A   1      38.240  30.401  29.733  1.00  0.00     0.031 A 
ATOM     43  C   UNL A   1      39.242  29.409  29.212  1.00  0.00     0.074 A 
ATOM     44  C   UNL A   1      38.423  30.982  30.930  1.00  0.00     0.049 A 
ATOM     45  N   UNL A   1      40.266  28.862  29.810  1.00  0.00    -0.248 NA
ATOM     46  C   UNL A   1      39.038  28.963  27.825  1.00  0.00     0.031 C 
ATOM     47  C   UNL A   1      37.553  31.997  31.520  1.00  0.00     0.029 A 
ATOM     48  N   UNL A   1      39.393  30.773  31.881  1.00  0.00    -0.354 N 
ATOM     49  C   UNL A   1      40.819  27.987  28.882  1.00  0.00     0.074 A 
ATOM     50  C   UNL A   1      39.991  28.054  27.695  1.00  0.00     0.031 C 
ATOM     51  C   UNL A   1      38.010  32.300  32.747  1.00  0.00     0.029 A 
ATOM     52  C   UNL A   1      39.169  31.459  33.052  1.00  0.00     0.049 A 
ATOM     53  H   UNL A   1      40.171  30.188  31.739  1.00  0.00     0.167 HD
ATOM     54  C   UNL A   1      41.917  27.201  29.007  1.00  0.00     0.034 A 
ATOM     55  C   UNL A   1      39.795  31.380  34.245  1.00  0.00     0.034 A 
ATOM     56  C   UNL A   1      42.710  27.128  30.210  1.00  0.00     0.049 A 
ATOM     57  C   UNL A   1      40.953  30.421  34.408  1.00  0.00     0.074 A 
ATOM     58  C   UNL A   1      43.843  26.372  30.452  1.00  0.00     0.029 A 
ATOM     59  N   UNL A   1      42.440  27.824  31.384  1.00  0.00    -0.354 N 
ATOM     60  N   UNL A   1      41.468  29.589  33.532  1.00  0.00    -0.248 NA
ATOM     61  C   UNL A   1      41.615  30.394  35.719  1.00  0.00     0.031 C 
ATOM     62  C   UNL A   1      44.205  26.543  31.793  1.00  0.00     0.029 A 
ATOM     63  C   UNL A   1      43.363  27.486  32.362  1.00  0.00     0.049 A 
ATOM     64  H   UNL A   1      41.701  28.462  31.504  1.00  0.00     0.167 HD
ATOM     65  C   UNL A   1      42.540  28.972  34.174  1.00  0.00     0.074 A 
ATOM     66  C   UNL A   1      42.595  29.525  35.511  1.00  0.00     0.031 C 
ATOM     67  C   UNL A   1      43.410  28.044  33.695  1.00  0.00     0.034 A 
BRANCH  54  68
ATOM     68  C   UNL A   1      42.268  26.316  27.833  1.00  0.00     0.023 A 
ATOM     69  C   UNL A   1      41.846  24.977  27.765  1.00  0.00     0.031 A 
ATOM     70  C   UNL A   1      43.094  26.795  26.802  1.00  0.00     0.131 A 
ATOM     71  C   UNL A   1      42.334  24.140  26.752  1.00  0.00     0.055 A 
ATOM     72  C   UNL A   1      43.494  25.982  25.740  1.00  0.00     0.041 A 
ATOM     73  F   UNL A   1      43.553  28.057  26.822  1.00  0.00    -0.206 F 
ATOM     74  C   UNL A   1      43.132  24.639  25.721  1.00  0.00     0.022 A 
BRANCH  71  75
ATOM     75  S   UNL A   1      42.071  22.351  26.913  1.00  0.00     0.124 S 
ATOM     76  O   UNL A   1      41.903  22.207  28.358  1.00  0.00    -0.237 OA
ATOM     77  O   UNL A   1      40.876  22.133  26.107  1.00  0.00    -0.237 OA
ATOM     78  O   UNL A   1      43.302  21.774  26.378  1.00  0.00    -0.744 OA
ENDBRANCH  71  75
ENDBRANCH  54  68
BRANCH  55  79
ATOM     79  C   UNL A   1      39.309  32.190  35.399  1.00  0.00     0.023 A 
ATOM     80  C   UNL A   1      39.749  33.508  35.601  1.00  0.00     0.031 A 
ATOM     81  C   UNL A   1      38.412  31.644  36.337  1.00  0.00     0.131 A 
ATOM     82  C   UNL A   1      39.316  34.225  36.728  1.00  0.00     0.055 A 
ATOM     83  C   UNL A   1      37.943  32.381  37.426  1.00  0.00     0.041 A 
ATOM     84  F   UNL A   1      37.966  30.386  36.196  1.00  0.00    -0.206 F 
ATOM     85  C   UNL A   1      38.402  33.677  37.631  1.00  0.00     0.022 A 
BRANCH  82  86
ATOM     86  S   UNL A   1      40.022  35.868  37.036  1.00  0.00     0.124 S 
ATOM     87  O   UNL A   1      39.325  36.263  38.256  1.00  0.00    -0.237 OA
ATOM     88  O   UNL A   1      41.441  35.567  37.179  1.00  0.00    -0.237 OA
ATOM     89  O   UNL A   1      39.663  36.624  35.838  1.00  0.00    -0.744 OA
ENDBRANCH  82  86
ENDBRANCH  55  79
BRANCH  67  90
ATOM     90  C   UNL A   1      44.550  27.620  34.593  1.00  0.00     0.023 A 
ATOM     91  C   UNL A   1      45.807  28.250  34.565  1.00  0.00     0.031 A 
ATOM     92  C   UNL A   1      44.357  26.575  35.516  1.00  0.00     0.131 A 
ATOM     93  C   UNL A   1      46.831  27.801  35.415  1.00  0.00     0.055 A 
ATOM     94  C   UNL A   1      45.358  26.177  36.401  1.00  0.00     0.041 A 
ATOM     95  F   UNL A   1      43.179  25.932  35.584  1.00  0.00    -0.206 F 
ATOM     96  C   UNL A   1      46.608  26.784  36.347  1.00  0.00     0.022 A 
BRANCH  93  97
ATOM     97  S   UNL A   1      48.493  28.507  35.233  1.00  0.00     0.124 S 
ATOM     98  O   UNL A   1      49.313  27.312  35.065  1.00  0.00    -0.237 OA
ATOM     99  O   UNL A   1      48.347  29.352  34.051  1.00  0.00    -0.237 OA
ATOM    100  O   UNL A   1      48.699  29.229  36.488  1.00  0.00    -0.744 OA
ENDBRANCH  93  97
ENDBRANCH  67  90
ENDBRANCH  41  42
ENDBRANCH  34  36
ENDBRANCH  33  34
ENDBRANCH  32  33
ENDBRANCH  31  32
ENDBRANCH  30  31
ENDBRANCH  29  30
ENDBRANCH  28  29
ENDBRANCH   1  28
TORSDOF 27
ENDMDL
