MODEL 1
REMARK VINA RESULT:     -10.9      0.000      0.000
REMARK SMILES C[C@H]1OCC[C@@H]1C(=O)Nc1sc2c(c1C(=O)OCCOCCOCCOC(=O)c1ccc(-c3c4nc(c(-c5cc(S(=O)(=O)[O-])ccc5F)c5ccc([nH]5)c(-c5cc(S(=O)(=O)[O-])ccc5F)c5nc(c(-c6cc(S(=O)(=O)[O-])ccc6F)c6ccc3[nH]6)C=C5)C=C4)cc1)CCC2
REMARK SMILES IDX 22 1 21 2 20 3 19 4 18 5 17 6 15 7 16 8 14 9 10 10 11 11
REMARK SMILES IDX 12 12 13 13 94 14 92 15 93 16 9 17 7 18 8 19 6 21 1 22 2 23
REMARK SMILES IDX 3 24 4 25 5 26 23 27 24 28 25 29 26 30 27 31 28 32 29 33
REMARK SMILES IDX 30 34 91 35 31 36 90 37 32 38 33 39 34 40 84 41 35 42 89 43
REMARK SMILES IDX 83 44 85 45 36 46 88 47 82 48 81 49 37 51 69 52 49 53 68 54
REMARK SMILES IDX 50 55 53 56 67 57 86 58 51 59 52 60 66 62 87 63 54 64 38 65
REMARK SMILES IDX 39 66 47 67 40 68 46 69 48 70 45 71 41 72 42 73 43 74 44 75
REMARK SMILES IDX 70 76 71 77 79 78 72 79 78 80 80 81 77 82 73 83 74 84 75 85
REMARK SMILES IDX 76 86 55 87 56 88 64 89 57 90 63 91 65 92 62 93 58 94 59 95
REMARK SMILES IDX 60 96 61 97
REMARK H PARENT 9 20 85 50 53 61
REMARK Flexibility Score: inf
ROOT
ATOM      1  C   UNL A   1      41.084  21.467  27.312  1.00  0.00     0.188 C 
ENDROOT
BRANCH   1   2
ATOM      2  C   UNL A   1      39.952  21.292  26.307  1.00  0.00     0.188 C 
BRANCH   2   3
ATOM      3  O   UNL A   1      39.094  22.424  26.258  1.00  0.00    -0.376 OA
BRANCH   3   4
ATOM      4  C   UNL A   1      37.948  22.233  25.420  1.00  0.00     0.202 C 
BRANCH   4   5
ATOM      5  C   UNL A   1      36.743  23.092  25.844  1.00  0.00     0.261 C 
BRANCH   5   6
ATOM      6  O   UNL A   1      36.232  23.935  24.778  1.00  0.00    -0.460 OA
BRANCH   6   7
ATOM      7  C   UNL A   1      35.869  23.285  23.623  1.00  0.00     0.341 C 
ATOM      8  O   UNL A   1      36.576  23.231  22.623  1.00  0.00    -0.246 OA
BRANCH   7   9
ATOM      9  C   UNL A   1      34.536  22.675  23.660  1.00  0.00     0.098 A 
ATOM     10  C   UNL A   1      33.418  23.206  23.020  1.00  0.00     0.110 A 
ATOM     11  S   UNL A   1      31.927  22.509  23.508  1.00  0.00    -0.122 S 
ATOM     12  C   UNL A   1      32.770  21.254  24.205  1.00  0.00     0.011 A 
ATOM     13  C   UNL A   1      34.128  21.444  24.260  1.00  0.00    -0.017 A 
ATOM     14  C   UNL A   1      32.300  19.947  24.708  1.00  0.00     0.047 C 
ATOM     15  C   UNL A   1      34.778  20.265  24.888  1.00  0.00     0.038 C 
ATOM     16  C   UNL A   1      33.652  19.181  24.791  1.00  0.00     0.010 C 
BRANCH  10  17
ATOM     17  N   UNL A   1      33.274  24.213  22.095  1.00  0.00    -0.317 N 
ATOM     18  C   UNL A   1      33.332  25.541  22.449  1.00  0.00     0.230 C 
ATOM     19  O   UNL A   1      33.866  26.308  21.637  1.00  0.00    -0.274 OA
ATOM     20  H   UNL A   1      33.123  23.976  21.151  1.00  0.00     0.170 HD
BRANCH  18  21
ATOM     21  C   UNL A   1      32.759  26.116  23.754  1.00  0.00     0.110 C 
ATOM     22  C   UNL A   1      30.723  27.360  24.573  1.00  0.00     0.039 C 
ATOM     23  C   UNL A   1      31.907  27.366  23.607  1.00  0.00     0.127 C 
ATOM     24  O   UNL A   1      32.758  28.463  23.986  1.00  0.00    -0.378 OA
ATOM     25  C   UNL A   1      33.637  27.985  25.010  1.00  0.00     0.161 C 
ATOM     26  C   UNL A   1      33.773  26.487  24.804  1.00  0.00     0.044 C 
ENDBRANCH  18  21
ENDBRANCH  10  17
ENDBRANCH   7   9
ENDBRANCH   6   7
ENDBRANCH   5   6
ENDBRANCH   4   5
ENDBRANCH   3   4
ENDBRANCH   2   3
ENDBRANCH   1   2
BRANCH   1  27
ATOM     27  O   UNL A   1      42.355  21.527  26.659  1.00  0.00    -0.376 OA
BRANCH  27  28
ATOM     28  C   UNL A   1      42.564  22.673  25.824  1.00  0.00     0.202 C 
BRANCH  28  29
ATOM     29  C   UNL A   1      43.078  23.956  26.482  1.00  0.00     0.261 C 
BRANCH  29  30
ATOM     30  O   UNL A   1      42.049  24.875  26.768  1.00  0.00    -0.460 OA
BRANCH  30  31
ATOM     31  C   UNL A   1      41.791  25.816  25.825  1.00  0.00     0.338 C 
ATOM     32  O   UNL A   1      42.288  25.925  24.726  1.00  0.00    -0.246 OA
BRANCH  31  33
ATOM     33  C   UNL A   1      40.840  26.743  26.461  1.00  0.00     0.060 A 
ATOM     34  C   UNL A   1      40.924  28.083  26.087  1.00  0.00     0.016 A 
ATOM     35  C   UNL A   1      40.186  26.328  27.633  1.00  0.00     0.016 A 
ATOM     36  C   UNL A   1      40.646  29.028  27.041  1.00  0.00     0.010 A 
ATOM     37  C   UNL A   1      40.011  27.255  28.614  1.00  0.00     0.010 A 
ATOM     38  C   UNL A   1      40.351  28.573  28.324  1.00  0.00    -0.014 A 
BRANCH  38  39
ATOM     39  C   UNL A   1      40.455  29.501  29.422  1.00  0.00     0.031 A 
ATOM     40  C   UNL A   1      39.247  30.331  29.550  1.00  0.00     0.074 A 
ATOM     41  C   UNL A   1      41.499  29.410  30.266  1.00  0.00     0.049 A 
ATOM     42  N   UNL A   1      39.116  31.590  29.292  1.00  0.00    -0.248 NA
ATOM     43  C   UNL A   1      37.964  29.617  29.708  1.00  0.00     0.031 C 
ATOM     44  C   UNL A   1      42.539  28.372  30.290  1.00  0.00     0.029 A 
ATOM     45  N   UNL A   1      41.772  30.129  31.382  1.00  0.00    -0.354 N 
ATOM     46  C   UNL A   1      37.775  31.849  29.546  1.00  0.00     0.074 A 
ATOM     47  C   UNL A   1      37.107  30.592  29.417  1.00  0.00     0.031 C 
ATOM     48  C   UNL A   1      43.144  28.383  31.499  1.00  0.00     0.029 A 
ATOM     49  C   UNL A   1      42.595  29.473  32.290  1.00  0.00     0.049 A 
ATOM     50  H   UNL A   1      41.419  31.035  31.536  1.00  0.00     0.167 HD
ATOM     51  C   UNL A   1      37.403  32.953  30.247  1.00  0.00     0.034 A 
ATOM     52  C   UNL A   1      42.690  29.730  33.622  1.00  0.00     0.034 A 
ATOM     53  C   UNL A   1      38.463  33.946  30.223  1.00  0.00     0.049 A 
ATOM     54  C   UNL A   1      42.097  31.080  33.842  1.00  0.00     0.074 A 
ATOM     55  C   UNL A   1      39.168  34.567  29.207  1.00  0.00     0.029 A 
ATOM     56  N   UNL A   1      39.218  34.130  31.364  1.00  0.00    -0.354 N 
ATOM     57  N   UNL A   1      42.610  32.181  33.360  1.00  0.00    -0.248 NA
ATOM     58  C   UNL A   1      40.672  31.158  34.148  1.00  0.00     0.031 C 
ATOM     59  C   UNL A   1      40.504  34.672  29.687  1.00  0.00     0.029 A 
ATOM     60  C   UNL A   1      40.541  34.195  30.999  1.00  0.00     0.049 A 
ATOM     61  H   UNL A   1      38.868  34.201  32.282  1.00  0.00     0.167 HD
ATOM     62  C   UNL A   1      41.526  32.925  32.908  1.00  0.00     0.074 A 
ATOM     63  C   UNL A   1      40.356  32.291  33.512  1.00  0.00     0.031 C 
ATOM     64  C   UNL A   1      41.647  33.781  31.847  1.00  0.00     0.034 A 
BRANCH  51  65
ATOM     65  C   UNL A   1      36.307  32.943  31.303  1.00  0.00     0.023 A 
ATOM     66  C   UNL A   1      35.247  33.837  31.090  1.00  0.00     0.031 A 
ATOM     67  C   UNL A   1      36.352  32.363  32.597  1.00  0.00     0.131 A 
ATOM     68  C   UNL A   1      34.422  34.248  32.149  1.00  0.00     0.055 A 
ATOM     69  C   UNL A   1      35.493  32.734  33.634  1.00  0.00     0.041 A 
ATOM     70  F   UNL A   1      37.247  31.447  32.977  1.00  0.00    -0.206 F 
ATOM     71  C   UNL A   1      34.548  33.717  33.427  1.00  0.00     0.022 A 
BRANCH  68  72
ATOM     72  S   UNL A   1      33.306  35.635  31.852  1.00  0.00     0.124 S 
ATOM     73  O   UNL A   1      33.965  36.697  32.605  1.00  0.00    -0.237 OA
ATOM     74  O   UNL A   1      33.357  35.746  30.397  1.00  0.00    -0.237 OA
ATOM     75  O   UNL A   1      32.036  35.169  32.400  1.00  0.00    -0.744 OA
ENDBRANCH  68  72
ENDBRANCH  51  65
BRANCH  52  76
ATOM     76  C   UNL A   1      42.905  28.722  34.704  1.00  0.00     0.023 A 
ATOM     77  C   UNL A   1      43.962  28.811  35.635  1.00  0.00     0.031 A 
ATOM     78  C   UNL A   1      41.927  27.732  34.962  1.00  0.00     0.131 A 
ATOM     79  C   UNL A   1      44.017  27.924  36.741  1.00  0.00     0.055 A 
ATOM     80  C   UNL A   1      41.996  26.847  36.041  1.00  0.00     0.041 A 
ATOM     81  F   UNL A   1      40.815  27.636  34.217  1.00  0.00    -0.206 F 
ATOM     82  C   UNL A   1      43.042  26.945  36.941  1.00  0.00     0.022 A 
BRANCH  79  83
ATOM     83  S   UNL A   1      45.325  28.093  38.000  1.00  0.00     0.124 S 
ATOM     84  O   UNL A   1      46.279  27.067  37.596  1.00  0.00    -0.237 OA
ATOM     85  O   UNL A   1      45.746  29.478  37.828  1.00  0.00    -0.237 OA
ATOM     86  O   UNL A   1      44.625  27.820  39.257  1.00  0.00    -0.744 OA
ENDBRANCH  79  83
ENDBRANCH  52  76
BRANCH  64  87
ATOM     87  C   UNL A   1      43.039  34.156  31.375  1.00  0.00     0.023 A 
ATOM     88  C   UNL A   1      43.849  35.159  31.957  1.00  0.00     0.031 A 
ATOM     89  C   UNL A   1      43.616  33.354  30.374  1.00  0.00     0.131 A 
ATOM     90  C   UNL A   1      45.180  35.329  31.523  1.00  0.00     0.055 A 
ATOM     91  C   UNL A   1      44.938  33.513  29.962  1.00  0.00     0.041 A 
ATOM     92  F   UNL A   1      42.908  32.363  29.804  1.00  0.00    -0.206 F 
ATOM     93  C   UNL A   1      45.725  34.506  30.532  1.00  0.00     0.022 A 
BRANCH  90  94
ATOM     94  S   UNL A   1      46.231  36.637  32.235  1.00  0.00     0.124 S 
ATOM     95  O   UNL A   1      47.566  36.305  31.754  1.00  0.00    -0.237 OA
ATOM     96  O   UNL A   1      45.636  37.853  31.684  1.00  0.00    -0.237 OA
ATOM     97  O   UNL A   1      46.045  36.473  33.678  1.00  0.00    -0.744 OA
ENDBRANCH  90  94
ENDBRANCH  64  87
ENDBRANCH  38  39
ENDBRANCH  31  33
ENDBRANCH  30  31
ENDBRANCH  29  30
ENDBRANCH  28  29
ENDBRANCH  27  28
ENDBRANCH   1  27
TORSDOF 22
ENDMDL
MODEL 2
REMARK VINA RESULT:     -10.6      1.755      2.130
REMARK SMILES C[C@H]1OCC[C@@H]1C(=O)Nc1sc2c(c1C(=O)OCCOCCOCCOC(=O)c1ccc(-c3c4nc(c(-c5cc(S(=O)(=O)[O-])ccc5F)c5ccc([nH]5)c(-c5cc(S(=O)(=O)[O-])ccc5F)c5nc(c(-c6cc(S(=O)(=O)[O-])ccc6F)c6ccc3[nH]6)C=C5)C=C4)cc1)CCC2
REMARK SMILES IDX 22 1 21 2 20 3 19 4 18 5 17 6 15 7 16 8 14 9 10 10 11 11
REMARK SMILES IDX 12 12 13 13 94 14 92 15 93 16 9 17 7 18 8 19 6 21 1 22 2 23
REMARK SMILES IDX 3 24 4 25 5 26 23 27 24 28 25 29 26 30 27 31 28 32 29 33
REMARK SMILES IDX 30 34 91 35 31 36 90 37 32 38 33 39 34 40 84 41 35 42 89 43
REMARK SMILES IDX 83 44 85 45 36 46 88 47 82 48 81 49 37 51 69 52 49 53 68 54
REMARK SMILES IDX 50 55 53 56 67 57 86 58 51 59 52 60 66 62 87 63 54 64 38 65
REMARK SMILES IDX 39 66 47 67 40 68 46 69 48 70 45 71 41 72 42 73 43 74 44 75
REMARK SMILES IDX 70 76 71 77 79 78 72 79 78 80 80 81 77 82 73 83 74 84 75 85
REMARK SMILES IDX 76 86 55 87 56 88 64 89 57 90 63 91 65 92 62 93 58 94 59 95
REMARK SMILES IDX 60 96 61 97
REMARK H PARENT 9 20 85 50 53 61
REMARK Flexibility Score: inf
ROOT
ATOM      1  C   UNL A   1      40.127  21.841  26.974  1.00  0.00     0.188 C 
ENDROOT
BRANCH   1   2
ATOM      2  C   UNL A   1      39.065  22.888  26.667  1.00  0.00     0.188 C 
BRANCH   2   3
ATOM      3  O   UNL A   1      38.285  22.548  25.528  1.00  0.00    -0.376 OA
BRANCH   3   4
ATOM      4  C   UNL A   1      37.994  21.149  25.433  1.00  0.00     0.202 C 
BRANCH   4   5
ATOM      5  C   UNL A   1      36.526  20.863  25.070  1.00  0.00     0.261 C 
BRANCH   5   6
ATOM      6  O   UNL A   1      35.584  21.733  25.752  1.00  0.00    -0.460 OA
BRANCH   6   7
ATOM      7  C   UNL A   1      34.326  21.215  25.950  1.00  0.00     0.341 C 
ATOM      8  O   UNL A   1      33.830  21.044  27.057  1.00  0.00    -0.246 OA
BRANCH   7   9
ATOM      9  C   UNL A   1      33.619  20.845  24.720  1.00  0.00     0.098 A 
ATOM     10  C   UNL A   1      33.217  21.759  23.748  1.00  0.00     0.110 A 
ATOM     11  S   UNL A   1      32.109  21.127  22.600  1.00  0.00    -0.122 S 
ATOM     12  C   UNL A   1      32.496  19.589  23.108  1.00  0.00     0.011 A 
ATOM     13  C   UNL A   1      33.270  19.545  24.241  1.00  0.00    -0.017 A 
ATOM     14  C   UNL A   1      32.198  18.276  22.503  1.00  0.00     0.047 C 
ATOM     15  C   UNL A   1      33.562  18.133  24.598  1.00  0.00     0.038 C 
ATOM     16  C   UNL A   1      33.215  17.381  23.269  1.00  0.00     0.010 C 
BRANCH  10  17
ATOM     17  N   UNL A   1      33.509  23.088  23.551  1.00  0.00    -0.317 N 
ATOM     18  C   UNL A   1      32.960  24.077  24.335  1.00  0.00     0.230 C 
ATOM     19  O   UNL A   1      33.688  25.045  24.595  1.00  0.00    -0.274 OA
ATOM     20  H   UNL A   1      34.128  23.339  22.828  1.00  0.00     0.170 HD
BRANCH  18  21
ATOM     21  C   UNL A   1      31.519  24.062  24.867  1.00  0.00     0.110 C 
ATOM     22  C   UNL A   1      29.758  25.670  25.689  1.00  0.00     0.039 C 
ATOM     23  C   UNL A   1      31.178  25.140  25.883  1.00  0.00     0.127 C 
ATOM     24  O   UNL A   1      31.216  24.491  27.166  1.00  0.00    -0.378 OA
ATOM     25  C   UNL A   1      30.774  23.143  26.974  1.00  0.00     0.161 C 
ATOM     26  C   UNL A   1      31.083  22.783  25.532  1.00  0.00     0.044 C 
ENDBRANCH  18  21
ENDBRANCH  10  17
ENDBRANCH   7   9
ENDBRANCH   6   7
ENDBRANCH   5   6
ENDBRANCH   4   5
ENDBRANCH   3   4
ENDBRANCH   2   3
ENDBRANCH   1   2
BRANCH   1  27
ATOM     27  O   UNL A   1      41.151  21.829  25.975  1.00  0.00    -0.376 OA
BRANCH  27  28
ATOM     28  C   UNL A   1      42.363  22.506  26.329  1.00  0.00     0.202 C 
BRANCH  28  29
ATOM     29  C   UNL A   1      42.636  23.871  25.693  1.00  0.00     0.261 C 
BRANCH  29  30
ATOM     30  O   UNL A   1      41.649  24.827  26.003  1.00  0.00    -0.460 OA
BRANCH  30  31
ATOM     31  C   UNL A   1      42.035  26.128  25.995  1.00  0.00     0.338 C 
ATOM     32  O   UNL A   1      43.046  26.602  25.528  1.00  0.00    -0.246 OA
BRANCH  31  33
ATOM     33  C   UNL A   1      40.999  26.837  26.766  1.00  0.00     0.060 A 
ATOM     34  C   UNL A   1      40.683  28.130  26.350  1.00  0.00     0.016 A 
ATOM     35  C   UNL A   1      40.672  26.355  28.044  1.00  0.00     0.016 A 
ATOM     36  C   UNL A   1      40.338  29.041  27.316  1.00  0.00     0.010 A 
ATOM     37  C   UNL A   1      40.434  27.276  29.018  1.00  0.00     0.010 A 
ATOM     38  C   UNL A   1      40.381  28.615  28.641  1.00  0.00    -0.014 A 
BRANCH  38  39
ATOM     39  C   UNL A   1      40.429  29.612  29.681  1.00  0.00     0.031 A 
ATOM     40  C   UNL A   1      39.185  30.395  29.742  1.00  0.00     0.074 A 
ATOM     41  C   UNL A   1      41.463  29.617  30.543  1.00  0.00     0.049 A 
ATOM     42  N   UNL A   1      39.006  31.629  29.405  1.00  0.00    -0.248 NA
ATOM     43  C   UNL A   1      37.931  29.637  29.927  1.00  0.00     0.031 C 
ATOM     44  C   UNL A   1      42.545  28.628  30.644  1.00  0.00     0.029 A 
ATOM     45  N   UNL A   1      41.688  30.414  31.616  1.00  0.00    -0.354 N 
ATOM     46  C   UNL A   1      37.651  31.846  29.626  1.00  0.00     0.074 A 
ATOM     47  C   UNL A   1      37.038  30.555  29.566  1.00  0.00     0.031 C 
ATOM     48  C   UNL A   1      43.130  28.739  31.857  1.00  0.00     0.029 A 
ATOM     49  C   UNL A   1      42.523  29.851  32.573  1.00  0.00     0.049 A 
ATOM     50  H   UNL A   1      41.295  31.312  31.709  1.00  0.00     0.167 HD
ATOM     51  C   UNL A   1      37.221  32.973  30.253  1.00  0.00     0.034 A 
ATOM     52  C   UNL A   1      42.587  30.192  33.888  1.00  0.00     0.034 A 
ATOM     53  C   UNL A   1      38.239  34.007  30.181  1.00  0.00     0.049 A 
ATOM     54  C   UNL A   1      41.934  31.526  34.016  1.00  0.00     0.074 A 
ATOM     55  C   UNL A   1      38.933  34.594  29.138  1.00  0.00     0.029 A 
ATOM     56  N   UNL A   1      38.968  34.293  31.318  1.00  0.00    -0.354 N 
ATOM     57  N   UNL A   1      42.408  32.617  33.474  1.00  0.00    -0.248 NA
ATOM     58  C   UNL A   1      40.502  31.561  34.299  1.00  0.00     0.031 C 
ATOM     59  C   UNL A   1      40.256  34.786  29.629  1.00  0.00     0.029 A 
ATOM     60  C   UNL A   1      40.292  34.392  30.968  1.00  0.00     0.049 A 
ATOM     61  H   UNL A   1      38.601  34.404  32.225  1.00  0.00     0.167 HD
ATOM     62  C   UNL A   1      41.300  33.284  32.963  1.00  0.00     0.074 A 
ATOM     63  C   UNL A   1      40.149  32.638  33.590  1.00  0.00     0.031 C 
ATOM     64  C   UNL A   1      41.401  34.078  31.853  1.00  0.00     0.034 A 
BRANCH  51  65
ATOM     65  C   UNL A   1      36.110  32.980  31.293  1.00  0.00     0.023 A 
ATOM     66  C   UNL A   1      35.068  33.891  31.066  1.00  0.00     0.031 A 
ATOM     67  C   UNL A   1      36.128  32.398  32.587  1.00  0.00     0.131 A 
ATOM     68  C   UNL A   1      34.235  34.315  32.113  1.00  0.00     0.055 A 
ATOM     69  C   UNL A   1      35.260  32.783  33.612  1.00  0.00     0.041 A 
ATOM     70  F   UNL A   1      37.002  31.467  32.979  1.00  0.00    -0.206 F 
ATOM     71  C   UNL A   1      34.335  33.781  33.392  1.00  0.00     0.022 A 
BRANCH  68  72
ATOM     72  S   UNL A   1      33.147  35.720  31.801  1.00  0.00     0.124 S 
ATOM     73  O   UNL A   1      33.821  36.774  32.551  1.00  0.00    -0.237 OA
ATOM     74  O   UNL A   1      33.207  35.821  30.347  1.00  0.00    -0.237 OA
ATOM     75  O   UNL A   1      31.865  35.280  32.346  1.00  0.00    -0.744 OA
ENDBRANCH  68  72
ENDBRANCH  51  65
BRANCH  52  76
ATOM     76  C   UNL A   1      42.828  29.262  35.033  1.00  0.00     0.023 A 
ATOM     77  C   UNL A   1      41.997  28.155  35.307  1.00  0.00     0.031 A 
ATOM     78  C   UNL A   1      44.028  29.343  35.778  1.00  0.00     0.131 A 
ATOM     79  C   UNL A   1      42.368  27.211  36.299  1.00  0.00     0.055 A 
ATOM     80  C   UNL A   1      44.380  28.422  36.768  1.00  0.00     0.041 A 
ATOM     81  F   UNL A   1      44.953  30.280  35.517  1.00  0.00    -0.206 F 
ATOM     82  C   UNL A   1      43.551  27.346  37.028  1.00  0.00     0.022 A 
BRANCH  79  83
ATOM     83  S   UNL A   1      41.349  25.728  36.594  1.00  0.00     0.124 S 
ATOM     84  O   UNL A   1      40.516  26.143  37.716  1.00  0.00    -0.237 OA
ATOM     85  O   UNL A   1      40.677  25.552  35.313  1.00  0.00    -0.237 OA
ATOM     86  O   UNL A   1      42.336  24.695  36.912  1.00  0.00    -0.744 OA
ENDBRANCH  79  83
ENDBRANCH  52  76
BRANCH  64  87
ATOM     87  C   UNL A   1      42.784  34.484  31.377  1.00  0.00     0.023 A 
ATOM     88  C   UNL A   1      43.540  35.556  31.905  1.00  0.00     0.031 A 
ATOM     89  C   UNL A   1      43.410  33.647  30.437  1.00  0.00     0.131 A 
ATOM     90  C   UNL A   1      44.870  35.757  31.479  1.00  0.00     0.055 A 
ATOM     91  C   UNL A   1      44.731  33.837  30.034  1.00  0.00     0.041 A 
ATOM     92  F   UNL A   1      42.755  32.592  29.922  1.00  0.00    -0.206 F 
ATOM     93  C   UNL A   1      45.465  34.898  30.550  1.00  0.00     0.022 A 
BRANCH  90  94
ATOM     94  S   UNL A   1      45.851  37.152  32.120  1.00  0.00     0.124 S 
ATOM     95  O   UNL A   1      46.733  36.529  33.100  1.00  0.00    -0.237 OA
ATOM     96  O   UNL A   1      46.496  37.664  30.913  1.00  0.00    -0.237 OA
ATOM     97  O   UNL A   1      44.840  38.044  32.691  1.00  0.00    -0.744 OA
ENDBRANCH  90  94
ENDBRANCH  64  87
ENDBRANCH  38  39
ENDBRANCH  31  33
ENDBRANCH  30  31
ENDBRANCH  29  30
ENDBRANCH  28  29
ENDBRANCH  27  28
ENDBRANCH   1  27
TORSDOF 22
ENDMDL
MODEL 3
REMARK VINA RESULT:     -10.6      2.551      7.700
REMARK SMILES C[C@H]1OCC[C@@H]1C(=O)Nc1sc2c(c1C(=O)OCCOCCOCCOC(=O)c1ccc(-c3c4nc(c(-c5cc(S(=O)(=O)[O-])ccc5F)c5ccc([nH]5)c(-c5cc(S(=O)(=O)[O-])ccc5F)c5nc(c(-c6cc(S(=O)(=O)[O-])ccc6F)c6ccc3[nH]6)C=C5)C=C4)cc1)CCC2
REMARK SMILES IDX 22 1 21 2 20 3 19 4 18 5 17 6 15 7 16 8 14 9 10 10 11 11
REMARK SMILES IDX 12 12 13 13 94 14 92 15 93 16 9 17 7 18 8 19 6 21 1 22 2 23
REMARK SMILES IDX 3 24 4 25 5 26 23 27 24 28 25 29 26 30 27 31 28 32 29 33
REMARK SMILES IDX 30 34 91 35 31 36 90 37 32 38 33 39 34 40 84 41 35 42 89 43
REMARK SMILES IDX 83 44 85 45 36 46 88 47 82 48 81 49 37 51 69 52 49 53 68 54
REMARK SMILES IDX 50 55 53 56 67 57 86 58 51 59 52 60 66 62 87 63 54 64 38 65
REMARK SMILES IDX 39 66 47 67 40 68 46 69 48 70 45 71 41 72 42 73 43 74 44 75
REMARK SMILES IDX 70 76 71 77 79 78 72 79 78 80 80 81 77 82 73 83 74 84 75 85
REMARK SMILES IDX 76 86 55 87 56 88 64 89 57 90 63 91 65 92 62 93 58 94 59 95
REMARK SMILES IDX 60 96 61 97
REMARK H PARENT 9 20 85 50 53 61
REMARK Flexibility Score: inf
ROOT
ATOM      1  C   UNL A   1      41.064  21.873  27.961  1.00  0.00     0.188 C 
ENDROOT
BRANCH   1   2
ATOM      2  C   UNL A   1      40.015  21.677  26.875  1.00  0.00     0.188 C 
BRANCH   2   3
ATOM      3  O   UNL A   1      39.346  22.887  26.545  1.00  0.00    -0.376 OA
BRANCH   3   4
ATOM      4  C   UNL A   1      37.990  22.692  26.126  1.00  0.00     0.202 C 
BRANCH   4   5
ATOM      5  C   UNL A   1      37.546  23.691  25.042  1.00  0.00     0.261 C 
BRANCH   5   6
ATOM      6  O   UNL A   1      36.118  23.952  25.051  1.00  0.00    -0.460 OA
BRANCH   6   7
ATOM      7  C   UNL A   1      35.477  23.813  23.843  1.00  0.00     0.341 C 
ATOM      8  O   UNL A   1      36.007  23.339  22.845  1.00  0.00    -0.246 OA
BRANCH   7   9
ATOM      9  C   UNL A   1      34.098  24.311  23.824  1.00  0.00     0.098 A 
ATOM     10  C   UNL A   1      33.082  23.758  23.047  1.00  0.00     0.110 A 
ATOM     11  S   UNL A   1      31.671  24.730  22.933  1.00  0.00    -0.122 S 
ATOM     12  C   UNL A   1      32.219  25.633  24.220  1.00  0.00     0.011 A 
ATOM     13  C   UNL A   1      33.509  25.358  24.597  1.00  0.00    -0.017 A 
ATOM     14  C   UNL A   1      31.521  26.629  25.058  1.00  0.00     0.047 C 
ATOM     15  C   UNL A   1      33.890  26.209  25.754  1.00  0.00     0.038 C 
ATOM     16  C   UNL A   1      32.495  26.703  26.268  1.00  0.00     0.010 C 
BRANCH  10  17
ATOM     17  N   UNL A   1      33.002  22.593  22.321  1.00  0.00    -0.317 N 
ATOM     18  C   UNL A   1      32.536  21.422  22.873  1.00  0.00     0.230 C 
ATOM     19  O   UNL A   1      31.869  20.687  22.131  1.00  0.00    -0.274 OA
ATOM     20  H   UNL A   1      33.288  22.596  21.379  1.00  0.00     0.170 HD
BRANCH  18  21
ATOM     21  C   UNL A   1      32.815  20.972  24.315  1.00  0.00     0.110 C 
ATOM     22  C   UNL A   1      34.582  21.223  26.098  1.00  0.00     0.039 C 
ATOM     23  C   UNL A   1      34.278  20.765  24.672  1.00  0.00     0.127 C 
ATOM     24  O   UNL A   1      34.493  19.344  24.628  1.00  0.00    -0.378 OA
ATOM     25  C   UNL A   1      33.278  18.717  25.054  1.00  0.00     0.161 C 
ATOM     26  C   UNL A   1      32.153  19.686  24.737  1.00  0.00     0.044 C 
ENDBRANCH  18  21
ENDBRANCH  10  17
ENDBRANCH   7   9
ENDBRANCH   6   7
ENDBRANCH   5   6
ENDBRANCH   4   5
ENDBRANCH   3   4
ENDBRANCH   2   3
ENDBRANCH   1   2
BRANCH   1  27
ATOM     27  O   UNL A   1      42.338  21.367  27.553  1.00  0.00    -0.376 OA
BRANCH  27  28
ATOM     28  C   UNL A   1      42.528  21.251  26.137  1.00  0.00     0.202 C 
BRANCH  28  29
ATOM     29  C   UNL A   1      43.189  22.422  25.403  1.00  0.00     0.261 C 
BRANCH  29  30
ATOM     30  O   UNL A   1      42.332  23.529  25.255  1.00  0.00    -0.460 OA
BRANCH  30  31
ATOM     31  C   UNL A   1      42.871  24.754  25.480  1.00  0.00     0.338 C 
ATOM     32  O   UNL A   1      43.880  25.222  25.002  1.00  0.00    -0.246 OA
BRANCH  31  33
ATOM     33  C   UNL A   1      42.015  25.365  26.511  1.00  0.00     0.060 A 
ATOM     34  C   UNL A   1      41.090  26.313  26.078  1.00  0.00     0.016 A 
ATOM     35  C   UNL A   1      42.409  25.255  27.856  1.00  0.00     0.016 A 
ATOM     36  C   UNL A   1      40.810  27.358  26.921  1.00  0.00     0.010 A 
ATOM     37  C   UNL A   1      42.219  26.341  28.654  1.00  0.00     0.010 A 
ATOM     38  C   UNL A   1      41.511  27.416  28.123  1.00  0.00    -0.014 A 
BRANCH  38  39
ATOM     39  C   UNL A   1      41.556  28.670  28.832  1.00  0.00     0.031 A 
ATOM     40  C   UNL A   1      42.698  29.495  28.410  1.00  0.00     0.074 A 
ATOM     41  C   UNL A   1      40.528  29.012  29.632  1.00  0.00     0.049 A 
ATOM     42  N   UNL A   1      43.768  29.774  29.079  1.00  0.00    -0.248 NA
ATOM     43  C   UNL A   1      42.794  29.809  26.970  1.00  0.00     0.031 C 
ATOM     44  C   UNL A   1      39.254  28.301  29.800  1.00  0.00     0.029 A 
ATOM     45  N   UNL A   1      40.330  30.148  30.344  1.00  0.00    -0.354 N 
ATOM     46  C   UNL A   1      44.521  30.546  28.203  1.00  0.00     0.074 A 
ATOM     47  C   UNL A   1      44.062  30.204  26.893  1.00  0.00     0.031 C 
ATOM     48  C   UNL A   1      38.345  29.146  30.336  1.00  0.00     0.029 A 
ATOM     49  C   UNL A   1      38.995  30.416  30.621  1.00  0.00     0.049 A 
ATOM     50  H   UNL A   1      41.067  30.731  30.639  1.00  0.00     0.167 HD
ATOM     51  C   UNL A   1      45.133  31.682  28.631  1.00  0.00     0.034 A 
ATOM     52  C   UNL A   1      38.462  31.632  30.918  1.00  0.00     0.034 A 
ATOM     53  C   UNL A   1      45.281  31.661  30.076  1.00  0.00     0.049 A 
ATOM     54  C   UNL A   1      39.599  32.516  31.304  1.00  0.00     0.074 A 
ATOM     55  C   UNL A   1      45.847  30.766  30.966  1.00  0.00     0.029 A 
ATOM     56  N   UNL A   1      44.447  32.459  30.834  1.00  0.00    -0.354 N 
ATOM     57  N   UNL A   1      40.334  32.324  32.367  1.00  0.00    -0.248 NA
ATOM     58  C   UNL A   1      40.245  33.296  30.252  1.00  0.00     0.031 C 
ATOM     59  C   UNL A   1      44.984  30.765  32.098  1.00  0.00     0.029 A 
ATOM     60  C   UNL A   1      43.983  31.716  31.892  1.00  0.00     0.049 A 
ATOM     61  H   UNL A   1      44.223  33.400  30.647  1.00  0.00     0.167 HD
ATOM     62  C   UNL A   1      41.640  32.572  31.961  1.00  0.00     0.074 A 
ATOM     63  C   UNL A   1      41.511  33.263  30.680  1.00  0.00     0.031 C 
ATOM     64  C   UNL A   1      42.698  31.922  32.538  1.00  0.00     0.034 A 
BRANCH  51  65
ATOM     65  C   UNL A   1      45.174  32.967  27.817  1.00  0.00     0.023 A 
ATOM     66  C   UNL A   1      46.410  33.279  27.232  1.00  0.00     0.031 A 
ATOM     67  C   UNL A   1      44.221  34.019  27.804  1.00  0.00     0.131 A 
ATOM     68  C   UNL A   1      46.716  34.593  26.841  1.00  0.00     0.055 A 
ATOM     69  C   UNL A   1      44.513  35.312  27.363  1.00  0.00     0.041 A 
ATOM     70  F   UNL A   1      42.971  33.903  28.259  1.00  0.00    -0.206 F 
ATOM     71  C   UNL A   1      45.783  35.618  26.920  1.00  0.00     0.022 A 
BRANCH  68  72
ATOM     72  S   UNL A   1      48.429  34.960  26.408  1.00  0.00     0.124 S 
ATOM     73  O   UNL A   1      48.455  34.578  25.000  1.00  0.00    -0.237 OA
ATOM     74  O   UNL A   1      48.504  36.389  26.693  1.00  0.00    -0.237 OA
ATOM     75  O   UNL A   1      49.195  34.101  27.307  1.00  0.00    -0.744 OA
ENDBRANCH  68  72
ENDBRANCH  51  65
BRANCH  52  76
ATOM     76  C   UNL A   1      37.113  32.130  30.509  1.00  0.00     0.023 A 
ATOM     77  C   UNL A   1      36.261  32.837  31.383  1.00  0.00     0.031 A 
ATOM     78  C   UNL A   1      36.715  32.081  29.152  1.00  0.00     0.131 A 
ATOM     79  C   UNL A   1      35.070  33.432  30.894  1.00  0.00     0.055 A 
ATOM     80  C   UNL A   1      35.531  32.651  28.678  1.00  0.00     0.041 A 
ATOM     81  F   UNL A   1      37.506  31.544  28.209  1.00  0.00    -0.206 F 
ATOM     82  C   UNL A   1      34.705  33.336  29.549  1.00  0.00     0.022 A 
BRANCH  79  83
ATOM     83  S   UNL A   1      34.013  34.429  31.995  1.00  0.00     0.124 S 
ATOM     84  O   UNL A   1      33.539  33.437  32.953  1.00  0.00    -0.237 OA
ATOM     85  O   UNL A   1      34.944  35.430  32.500  1.00  0.00    -0.237 OA
ATOM     86  O   UNL A   1      32.983  34.954  31.095  1.00  0.00    -0.744 OA
ENDBRANCH  79  83
ENDBRANCH  52  76
BRANCH  64  87
ATOM     87  C   UNL A   1      42.465  31.176  33.838  1.00  0.00     0.023 A 
ATOM     88  C   UNL A   1      42.198  29.791  33.941  1.00  0.00     0.031 A 
ATOM     89  C   UNL A   1      42.664  31.889  35.033  1.00  0.00     0.131 A 
ATOM     90  C   UNL A   1      42.133  29.177  35.209  1.00  0.00     0.055 A 
ATOM     91  C   UNL A   1      42.619  31.276  36.284  1.00  0.00     0.041 A 
ATOM     92  F   UNL A   1      42.952  33.202  35.001  1.00  0.00    -0.206 F 
ATOM     93  C   UNL A   1      42.348  29.916  36.377  1.00  0.00     0.022 A 
BRANCH  90  94
ATOM     94  S   UNL A   1      41.758  27.401  35.366  1.00  0.00     0.124 S 
ATOM     95  O   UNL A   1      40.777  27.163  34.314  1.00  0.00    -0.237 OA
ATOM     96  O   UNL A   1      43.068  26.784  35.170  1.00  0.00    -0.237 OA
ATOM     97  O   UNL A   1      41.232  27.285  36.728  1.00  0.00    -0.744 OA
ENDBRANCH  90  94
ENDBRANCH  64  87
ENDBRANCH  38  39
ENDBRANCH  31  33
ENDBRANCH  30  31
ENDBRANCH  29  30
ENDBRANCH  28  29
ENDBRANCH  27  28
ENDBRANCH   1  27
TORSDOF 22
ENDMDL
