MODEL 1
REMARK VINA RESULT:      -8.0      0.000      0.000
REMARK SMILES CC(C)Oc1ccc(-c2ccc(/C(=C\c3ccc(S(C)(=O)=O)cc3)C(=O)OCCOCCOCCOC(=O)c3ccc(-c4c5nc(c(-c6cc(S(=O)(=O)[O-])ccc6F)c6ccc([nH]6)c(-c6cc(S(=O)(=O)[O-])ccc6F)c6nc(c(-c7cc(S(=O)(=O)[O-])ccc7F)c7ccc4[nH]7)C=C6)C=C5)cc3)cc2)cc1
REMARK SMILES IDX 31 1 30 2 29 3 28 4 27 5 25 6 26 7 13 8 14 9 12 10 9 11
REMARK SMILES IDX 10 12 103 13 11 14 102 15 8 16 5 17 6 18 105 19 7 20 104 21
REMARK SMILES IDX 4 22 2 23 1 24 3 25 15 26 16 27 24 28 17 29 23 30 18 31
REMARK SMILES IDX 19 32 20 33 21 34 22 35 32 36 33 37 34 38 35 39 36 40 37 41
REMARK SMILES IDX 38 42 39 43 40 44 101 45 41 46 100 47 42 48 43 49 44 50
REMARK SMILES IDX 94 51 45 52 99 53 93 54 95 55 46 56 98 57 92 58 91 59 47 61
REMARK SMILES IDX 79 62 59 63 78 64 60 65 63 66 77 67 96 68 61 69 62 70 76 72
REMARK SMILES IDX 97 73 64 74 48 75 49 76 57 77 50 78 56 79 58 80 55 81 51 82
REMARK SMILES IDX 52 83 53 84 54 85 80 86 81 87 89 88 82 89 88 90 90 91 87 92
REMARK SMILES IDX 83 93 84 94 85 95 86 96 65 97 66 98 74 99 67 100 73 101
REMARK SMILES IDX 75 102 72 103 68 104 69 105 70 106 71 107
REMARK H PARENT 95 60 63 71
REMARK Flexibility Score: inf
ROOT
ATOM      1  C   UNL A   1      45.639  19.119  24.600  1.00  0.00     0.188 C 
ENDROOT
BRANCH   1   2
ATOM      2  O   UNL A   1      46.200  20.216  25.282  1.00  0.00    -0.376 OA
BRANCH   2   3
ATOM      3  C   UNL A   1      45.501  21.440  25.378  1.00  0.00     0.202 C 
BRANCH   3   4
ATOM      4  C   UNL A   1      45.582  22.583  24.349  1.00  0.00     0.261 C 
BRANCH   4   5
ATOM      5  O   UNL A   1      46.740  23.419  24.382  1.00  0.00    -0.460 OA
BRANCH   5   6
ATOM      6  C   UNL A   1      46.932  24.175  25.497  1.00  0.00     0.338 C 
ATOM      7  O   UNL A   1      46.805  23.782  26.646  1.00  0.00    -0.246 OA
BRANCH   6   8
ATOM      8  C   UNL A   1      47.421  25.551  25.124  1.00  0.00     0.067 C 
ATOM      9  C   UNL A   1      48.306  25.581  24.093  1.00  0.00     0.024 C 
BRANCH   8  10
ATOM     10  C   UNL A   1      46.927  26.735  25.894  1.00  0.00    -0.011 A 
ATOM     11  C   UNL A   1      45.791  28.839  27.494  1.00  0.00    -0.018 A 
ATOM     12  C   UNL A   1      46.971  28.185  27.865  1.00  0.00     0.009 A 
ATOM     13  C   UNL A   1      45.218  28.455  26.276  1.00  0.00     0.009 A 
ATOM     14  C   UNL A   1      47.550  27.195  27.060  1.00  0.00     0.009 A 
ATOM     15  C   UNL A   1      45.770  27.423  25.495  1.00  0.00     0.009 A 
BRANCH  11  16
ATOM     16  C   UNL A   1      45.226  29.922  28.326  1.00  0.00    -0.018 A 
ATOM     17  C   UNL A   1      44.225  32.015  29.962  1.00  0.00     0.119 A 
ATOM     18  C   UNL A   1      44.926  30.951  30.522  1.00  0.00     0.047 A 
ATOM     19  C   UNL A   1      44.033  32.049  28.586  1.00  0.00     0.047 A 
ATOM     20  C   UNL A   1      45.414  29.919  29.719  1.00  0.00     0.012 A 
ATOM     21  C   UNL A   1      44.519  31.006  27.780  1.00  0.00     0.012 A 
BRANCH  17  22
ATOM     22  O   UNL A   1      43.911  33.024  30.820  1.00  0.00    -0.491 OA
BRANCH  22  23
ATOM     23  C   UNL A   1      44.577  34.290  30.725  1.00  0.00     0.167 C 
ATOM     24  C   UNL A   1      43.924  35.260  29.747  1.00  0.00     0.052 C 
ATOM     25  C   UNL A   1      44.900  34.919  32.078  1.00  0.00     0.052 C 
ENDBRANCH  22  23
ENDBRANCH  17  22
ENDBRANCH  11  16
ENDBRANCH   8  10
BRANCH   9  26
ATOM     26  C   UNL A   1      48.875  26.766  23.434  1.00  0.00    -0.025 A 
ATOM     27  C   UNL A   1      50.078  27.264  23.956  1.00  0.00     0.009 A 
ATOM     28  C   UNL A   1      48.365  27.299  22.242  1.00  0.00     0.009 A 
ATOM     29  C   UNL A   1      50.831  28.186  23.233  1.00  0.00     0.021 A 
ATOM     30  C   UNL A   1      49.124  28.217  21.505  1.00  0.00     0.021 A 
ATOM     31  C   UNL A   1      50.366  28.630  21.992  1.00  0.00     0.067 A 
BRANCH  31  32
ATOM     32  S   UNL A   1      51.468  29.578  20.968  1.00  0.00     0.175 S 
ATOM     33  C   UNL A   1      53.063  29.288  21.674  1.00  0.00     0.163 C 
ATOM     34  O   UNL A   1      51.452  28.969  19.650  1.00  0.00    -0.224 OA
ATOM     35  O   UNL A   1      51.152  30.981  21.143  1.00  0.00    -0.224 OA
ENDBRANCH  31  32
ENDBRANCH   9  26
ENDBRANCH   6   8
ENDBRANCH   5   6
ENDBRANCH   4   5
ENDBRANCH   3   4
ENDBRANCH   2   3
ENDBRANCH   1   2
BRANCH   1  36
ATOM     36  C   UNL A   1      44.303  18.625  25.196  1.00  0.00     0.188 C 
BRANCH  36  37
ATOM     37  O   UNL A   1      43.084  19.264  24.834  1.00  0.00    -0.376 OA
BRANCH  37  38
ATOM     38  C   UNL A   1      42.091  19.465  25.831  1.00  0.00     0.202 C 
BRANCH  38  39
ATOM     39  C   UNL A   1      42.220  20.646  26.804  1.00  0.00     0.261 C 
BRANCH  39  40
ATOM     40  O   UNL A   1      41.428  21.800  26.483  1.00  0.00    -0.460 OA
BRANCH  40  41
ATOM     41  C   UNL A   1      42.099  22.824  25.895  1.00  0.00     0.338 C 
ATOM     42  O   UNL A   1      42.475  22.887  24.736  1.00  0.00    -0.246 OA
BRANCH  41  43
ATOM     43  C   UNL A   1      42.167  23.967  26.828  1.00  0.00     0.060 A 
ATOM     44  C   UNL A   1      43.323  24.759  26.838  1.00  0.00     0.016 A 
ATOM     45  C   UNL A   1      41.121  24.232  27.713  1.00  0.00     0.016 A 
ATOM     46  C   UNL A   1      43.434  25.826  27.730  1.00  0.00     0.010 A 
ATOM     47  C   UNL A   1      41.247  25.283  28.627  1.00  0.00     0.010 A 
ATOM     48  C   UNL A   1      42.407  26.079  28.649  1.00  0.00    -0.014 A 
BRANCH  48  49
ATOM     49  C   UNL A   1      42.593  27.092  29.717  1.00  0.00     0.031 A 
ATOM     50  C   UNL A   1      43.572  26.814  30.822  1.00  0.00     0.074 A 
ATOM     51  C   UNL A   1      41.899  28.244  29.703  1.00  0.00     0.049 A 
ATOM     52  N   UNL A   1      43.825  27.510  31.898  1.00  0.00    -0.248 NA
ATOM     53  C   UNL A   1      44.363  25.582  30.694  1.00  0.00     0.031 C 
ATOM     54  C   UNL A   1      40.962  28.644  28.656  1.00  0.00     0.029 A 
ATOM     55  N   UNL A   1      41.876  29.288  30.594  1.00  0.00    -0.354 N 
ATOM     56  C   UNL A   1      44.793  26.792  32.593  1.00  0.00     0.074 A 
ATOM     57  C   UNL A   1      45.069  25.602  31.814  1.00  0.00     0.031 C 
ATOM     58  C   UNL A   1      40.459  29.853  28.961  1.00  0.00     0.029 A 
ATOM     59  C   UNL A   1      40.984  30.280  30.258  1.00  0.00     0.049 A 
ATOM     60  H   UNL A   1      42.443  29.323  31.397  1.00  0.00     0.167 HD
ATOM     61  C   UNL A   1      45.387  27.095  33.773  1.00  0.00     0.034 A 
ATOM     62  C   UNL A   1      40.601  31.381  30.939  1.00  0.00     0.034 A 
ATOM     63  C   UNL A   1      45.080  28.272  34.549  1.00  0.00     0.049 A 
ATOM     64  C   UNL A   1      41.199  31.640  32.303  1.00  0.00     0.074 A 
ATOM     65  C   UNL A   1      45.633  28.679  35.750  1.00  0.00     0.029 A 
ATOM     66  N   UNL A   1      44.119  29.217  34.214  1.00  0.00    -0.354 N 
ATOM     67  N   UNL A   1      42.114  30.954  32.950  1.00  0.00    -0.248 NA
ATOM     68  C   UNL A   1      40.699  32.811  33.037  1.00  0.00     0.031 C 
ATOM     69  C   UNL A   1      44.952  29.822  36.181  1.00  0.00     0.029 A 
ATOM     70  C   UNL A   1      44.031  30.179  35.208  1.00  0.00     0.049 A 
ATOM     71  H   UNL A   1      43.578  29.206  33.391  1.00  0.00     0.167 HD
ATOM     72  C   UNL A   1      42.306  31.621  34.159  1.00  0.00     0.074 A 
ATOM     73  C   UNL A   1      41.429  32.771  34.143  1.00  0.00     0.031 C 
ATOM     74  C   UNL A   1      43.134  31.312  35.190  1.00  0.00     0.034 A 
BRANCH  61  75
ATOM     75  C   UNL A   1      46.374  26.097  34.324  1.00  0.00     0.023 A 
ATOM     76  C   UNL A   1      45.957  24.936  34.998  1.00  0.00     0.031 A 
ATOM     77  C   UNL A   1      47.756  26.330  34.206  1.00  0.00     0.131 A 
ATOM     78  C   UNL A   1      46.908  24.089  35.586  1.00  0.00     0.055 A 
ATOM     79  C   UNL A   1      48.700  25.442  34.725  1.00  0.00     0.041 A 
ATOM     80  F   UNL A   1      48.213  27.434  33.595  1.00  0.00    -0.206 F 
ATOM     81  C   UNL A   1      48.277  24.320  35.433  1.00  0.00     0.022 A 
BRANCH  78  82
ATOM     82  S   UNL A   1      46.328  22.759  36.674  1.00  0.00     0.124 S 
ATOM     83  O   UNL A   1      45.659  21.872  35.724  1.00  0.00    -0.237 OA
ATOM     84  O   UNL A   1      47.571  22.259  37.250  1.00  0.00    -0.237 OA
ATOM     85  O   UNL A   1      45.437  23.444  37.608  1.00  0.00    -0.744 OA
ENDBRANCH  78  82
ENDBRANCH  61  75
BRANCH  62  86
ATOM     86  C   UNL A   1      39.538  32.280  30.399  1.00  0.00     0.023 A 
ATOM     87  C   UNL A   1      38.195  31.873  30.343  1.00  0.00     0.031 A 
ATOM     88  C   UNL A   1      39.865  33.540  29.862  1.00  0.00     0.131 A 
ATOM     89  C   UNL A   1      37.239  32.695  29.725  1.00  0.00     0.055 A 
ATOM     90  C   UNL A   1      38.900  34.381  29.305  1.00  0.00     0.041 A 
ATOM     91  F   UNL A   1      41.135  33.974  29.874  1.00  0.00    -0.206 F 
ATOM     92  C   UNL A   1      37.580  33.954  29.223  1.00  0.00     0.022 A 
BRANCH  89  93
ATOM     93  S   UNL A   1      35.556  32.057  29.489  1.00  0.00     0.124 S 
ATOM     94  O   UNL A   1      35.736  30.637  29.771  1.00  0.00    -0.237 OA
ATOM     95  O   UNL A   1      34.798  32.819  30.476  1.00  0.00    -0.237 OA
ATOM     96  O   UNL A   1      35.262  32.383  28.095  1.00  0.00    -0.744 OA
ENDBRANCH  89  93
ENDBRANCH  62  86
BRANCH  74  97
ATOM     97  C   UNL A   1      43.149  32.250  36.373  1.00  0.00     0.023 A 
ATOM     98  C   UNL A   1      42.289  32.072  37.471  1.00  0.00     0.031 A 
ATOM     99  C   UNL A   1      44.048  33.332  36.405  1.00  0.00     0.131 A 
ATOM    100  C   UNL A   1      42.320  32.985  38.538  1.00  0.00     0.055 A 
ATOM    101  C   UNL A   1      44.112  34.203  37.493  1.00  0.00     0.041 A 
ATOM    102  F   UNL A   1      44.891  33.549  35.382  1.00  0.00    -0.206 F 
ATOM    103  C   UNL A   1      43.238  34.038  38.563  1.00  0.00     0.022 A 
BRANCH 100 104
ATOM    104  S   UNL A   1      41.097  32.818  39.868  1.00  0.00     0.124 S 
ATOM    105  O   UNL A   1      39.878  32.520  39.125  1.00  0.00    -0.237 OA
ATOM    106  O   UNL A   1      41.644  31.723  40.662  1.00  0.00    -0.237 OA
ATOM    107  O   UNL A   1      41.121  34.126  40.522  1.00  0.00    -0.744 OA
ENDBRANCH 100 104
ENDBRANCH  74  97
ENDBRANCH  48  49
ENDBRANCH  41  43
ENDBRANCH  40  41
ENDBRANCH  39  40
ENDBRANCH  38  39
ENDBRANCH  37  38
ENDBRANCH  36  37
ENDBRANCH   1  36
TORSDOF 26
ENDMDL
MODEL 2
REMARK VINA RESULT:      -7.0      2.413      2.864
REMARK SMILES CC(C)Oc1ccc(-c2ccc(/C(=C\c3ccc(S(C)(=O)=O)cc3)C(=O)OCCOCCOCCOC(=O)c3ccc(-c4c5nc(c(-c6cc(S(=O)(=O)[O-])ccc6F)c6ccc([nH]6)c(-c6cc(S(=O)(=O)[O-])ccc6F)c6nc(c(-c7cc(S(=O)(=O)[O-])ccc7F)c7ccc4[nH]7)C=C6)C=C5)cc3)cc2)cc1
REMARK SMILES IDX 31 1 30 2 29 3 28 4 27 5 25 6 26 7 13 8 14 9 12 10 9 11
REMARK SMILES IDX 10 12 103 13 11 14 102 15 8 16 5 17 6 18 105 19 7 20 104 21
REMARK SMILES IDX 4 22 2 23 1 24 3 25 15 26 16 27 24 28 17 29 23 30 18 31
REMARK SMILES IDX 19 32 20 33 21 34 22 35 32 36 33 37 34 38 35 39 36 40 37 41
REMARK SMILES IDX 38 42 39 43 40 44 101 45 41 46 100 47 42 48 43 49 44 50
REMARK SMILES IDX 94 51 45 52 99 53 93 54 95 55 46 56 98 57 92 58 91 59 47 61
REMARK SMILES IDX 79 62 59 63 78 64 60 65 63 66 77 67 96 68 61 69 62 70 76 72
REMARK SMILES IDX 97 73 64 74 48 75 49 76 57 77 50 78 56 79 58 80 55 81 51 82
REMARK SMILES IDX 52 83 53 84 54 85 80 86 81 87 89 88 82 89 88 90 90 91 87 92
REMARK SMILES IDX 83 93 84 94 85 95 86 96 65 97 66 98 74 99 67 100 73 101
REMARK SMILES IDX 75 102 72 103 68 104 69 105 70 106 71 107
REMARK H PARENT 95 60 63 71
REMARK Flexibility Score: inf
ROOT
ATOM      1  C   UNL A   1      45.407  19.504  23.654  1.00  0.00     0.188 C 
ENDROOT
BRANCH   1   2
ATOM      2  O   UNL A   1      46.378  20.215  24.384  1.00  0.00    -0.376 OA
BRANCH   2   3
ATOM      3  C   UNL A   1      46.010  21.305  25.204  1.00  0.00     0.202 C 
BRANCH   3   4
ATOM      4  C   UNL A   1      45.686  22.722  24.692  1.00  0.00     0.261 C 
BRANCH   4   5
ATOM      5  O   UNL A   1      46.782  23.616  24.494  1.00  0.00    -0.460 OA
BRANCH   5   6
ATOM      6  C   UNL A   1      47.243  24.290  25.584  1.00  0.00     0.338 C 
ATOM      7  O   UNL A   1      47.281  23.848  26.721  1.00  0.00    -0.246 OA
BRANCH   6   8
ATOM      8  C   UNL A   1      47.795  25.632  25.179  1.00  0.00     0.067 C 
ATOM      9  C   UNL A   1      48.460  25.642  23.994  1.00  0.00     0.024 C 
BRANCH   8  10
ATOM     10  C   UNL A   1      47.591  26.808  26.083  1.00  0.00    -0.011 A 
ATOM     11  C   UNL A   1      47.347  29.217  27.636  1.00  0.00    -0.018 A 
ATOM     12  C   UNL A   1      46.320  28.776  26.793  1.00  0.00     0.009 A 
ATOM     13  C   UNL A   1      48.478  28.399  27.728  1.00  0.00     0.009 A 
ATOM     14  C   UNL A   1      46.422  27.576  26.075  1.00  0.00     0.009 A 
ATOM     15  C   UNL A   1      48.600  27.223  26.965  1.00  0.00     0.009 A 
BRANCH  11  16
ATOM     16  C   UNL A   1      47.199  30.454  28.431  1.00  0.00    -0.018 A 
ATOM     17  C   UNL A   1      46.877  32.871  29.886  1.00  0.00     0.119 A 
ATOM     18  C   UNL A   1      47.495  32.871  28.639  1.00  0.00     0.047 A 
ATOM     19  C   UNL A   1      46.403  31.672  30.406  1.00  0.00     0.047 A 
ATOM     20  C   UNL A   1      47.659  31.682  27.925  1.00  0.00     0.012 A 
ATOM     21  C   UNL A   1      46.575  30.476  29.689  1.00  0.00     0.012 A 
BRANCH  17  22
ATOM     22  O   UNL A   1      46.656  34.100  30.429  1.00  0.00    -0.491 OA
BRANCH  22  23
ATOM     23  C   UNL A   1      47.035  34.371  31.785  1.00  0.00     0.167 C 
ATOM     24  C   UNL A   1      48.539  34.320  32.029  1.00  0.00     0.052 C 
ATOM     25  C   UNL A   1      46.367  35.611  32.373  1.00  0.00     0.052 C 
ENDBRANCH  22  23
ENDBRANCH  17  22
ENDBRANCH  11  16
ENDBRANCH   8  10
BRANCH   9  26
ATOM     26  C   UNL A   1      49.014  26.806  23.286  1.00  0.00    -0.025 A 
ATOM     27  C   UNL A   1      50.289  27.237  23.679  1.00  0.00     0.009 A 
ATOM     28  C   UNL A   1      48.406  27.377  22.159  1.00  0.00     0.009 A 
ATOM     29  C   UNL A   1      51.006  28.130  22.885  1.00  0.00     0.021 A 
ATOM     30  C   UNL A   1      49.127  28.266  21.351  1.00  0.00     0.021 A 
ATOM     31  C   UNL A   1      50.434  28.611  21.704  1.00  0.00     0.067 A 
BRANCH  31  32
ATOM     32  S   UNL A   1      51.465  29.517  20.574  1.00  0.00     0.175 S 
ATOM     33  C   UNL A   1      53.102  29.267  21.196  1.00  0.00     0.163 C 
ATOM     34  O   UNL A   1      51.375  28.847  19.289  1.00  0.00    -0.224 OA
ATOM     35  O   UNL A   1      51.150  30.925  20.704  1.00  0.00    -0.224 OA
ENDBRANCH  31  32
ENDBRANCH   9  26
ENDBRANCH   6   8
ENDBRANCH   5   6
ENDBRANCH   4   5
ENDBRANCH   3   4
ENDBRANCH   2   3
ENDBRANCH   1   2
BRANCH   1  36
ATOM     36  C   UNL A   1      44.326  18.836  24.530  1.00  0.00     0.188 C 
BRANCH  36  37
ATOM     37  O   UNL A   1      43.045  19.440  24.662  1.00  0.00    -0.376 OA
BRANCH  37  38
ATOM     38  C   UNL A   1      42.443  19.501  25.948  1.00  0.00     0.202 C 
BRANCH  38  39
ATOM     39  C   UNL A   1      42.562  20.785  26.783  1.00  0.00     0.261 C 
BRANCH  39  40
ATOM     40  O   UNL A   1      41.681  21.853  26.403  1.00  0.00    -0.460 OA
BRANCH  40  41
ATOM     41  C   UNL A   1      42.273  22.904  25.778  1.00  0.00     0.338 C 
ATOM     42  O   UNL A   1      42.456  23.039  24.579  1.00  0.00    -0.246 OA
BRANCH  41  43
ATOM     43  C   UNL A   1      42.521  23.981  26.757  1.00  0.00     0.060 A 
ATOM     44  C   UNL A   1      43.806  24.535  26.835  1.00  0.00     0.016 A 
ATOM     45  C   UNL A   1      41.512  24.412  27.619  1.00  0.00     0.016 A 
ATOM     46  C   UNL A   1      44.084  25.531  27.773  1.00  0.00     0.010 A 
ATOM     47  C   UNL A   1      41.801  25.389  28.579  1.00  0.00     0.010 A 
ATOM     48  C   UNL A   1      43.090  25.946  28.668  1.00  0.00    -0.014 A 
BRANCH  48  49
ATOM     49  C   UNL A   1      43.424  26.869  29.781  1.00  0.00     0.031 A 
ATOM     50  C   UNL A   1      44.032  26.307  31.035  1.00  0.00     0.074 A 
ATOM     51  C   UNL A   1      43.189  28.188  29.677  1.00  0.00     0.049 A 
ATOM     52  N   UNL A   1      44.316  26.909  32.159  1.00  0.00    -0.248 NA
ATOM     53  C   UNL A   1      44.353  24.873  31.015  1.00  0.00     0.031 C 
ATOM     54  C   UNL A   1      42.652  28.852  28.491  1.00  0.00     0.029 A 
ATOM     55  N   UNL A   1      43.373  29.206  30.579  1.00  0.00    -0.354 N 
ATOM     56  C   UNL A   1      44.833  25.925  32.994  1.00  0.00     0.074 A 
ATOM     57  C   UNL A   1      44.811  24.686  32.243  1.00  0.00     0.031 C 
ATOM     58  C   UNL A   1      42.557  30.171  28.737  1.00  0.00     0.029 A 
ATOM     59  C   UNL A   1      42.958  30.434  30.118  1.00  0.00     0.049 A 
ATOM     60  H   UNL A   1      43.764  29.071  31.472  1.00  0.00     0.167 HD
ATOM     61  C   UNL A   1      45.275  26.044  34.270  1.00  0.00     0.034 A 
ATOM     62  C   UNL A   1      42.868  31.623  30.752  1.00  0.00     0.034 A 
ATOM     63  C   UNL A   1      45.265  27.281  35.012  1.00  0.00     0.049 A 
ATOM     64  C   UNL A   1      43.266  31.707  32.207  1.00  0.00     0.074 A 
ATOM     65  C   UNL A   1      45.702  27.513  36.304  1.00  0.00     0.029 A 
ATOM     66  N   UNL A   1      44.769  28.489  34.539  1.00  0.00    -0.354 N 
ATOM     67  N   UNL A   1      43.754  30.768  32.988  1.00  0.00    -0.248 NA
ATOM     68  C   UNL A   1      43.083  33.003  32.874  1.00  0.00     0.031 C 
ATOM     69  C   UNL A   1      45.397  28.836  36.639  1.00  0.00     0.029 A 
ATOM     70  C   UNL A   1      44.847  29.456  35.528  1.00  0.00     0.049 A 
ATOM     71  H   UNL A   1      44.414  28.637  33.632  1.00  0.00     0.167 HD
ATOM     72  C   UNL A   1      43.948  31.370  34.230  1.00  0.00     0.074 A 
ATOM     73  C   UNL A   1      43.544  32.752  34.090  1.00  0.00     0.031 C 
ATOM     74  C   UNL A   1      44.419  30.829  35.383  1.00  0.00     0.034 A 
BRANCH  61  75
ATOM     75  C   UNL A   1      45.737  24.785  34.960  1.00  0.00     0.023 A 
ATOM     76  C   UNL A   1      47.084  24.383  34.945  1.00  0.00     0.031 A 
ATOM     77  C   UNL A   1      44.808  23.955  35.614  1.00  0.00     0.131 A 
ATOM     78  C   UNL A   1      47.452  23.153  35.510  1.00  0.00     0.055 A 
ATOM     79  C   UNL A   1      45.194  22.770  36.242  1.00  0.00     0.041 A 
ATOM     80  F   UNL A   1      43.505  24.275  35.639  1.00  0.00    -0.206 F 
ATOM     81  C   UNL A   1      46.522  22.356  36.181  1.00  0.00     0.022 A 
BRANCH  78  82
ATOM     82  S   UNL A   1      49.137  22.543  35.233  1.00  0.00     0.124 S 
ATOM     83  O   UNL A   1      48.918  21.529  34.204  1.00  0.00    -0.237 OA
ATOM     84  O   UNL A   1      49.842  23.746  34.805  1.00  0.00    -0.237 OA
ATOM     85  O   UNL A   1      49.531  22.018  36.539  1.00  0.00    -0.744 OA
ENDBRANCH  78  82
ENDBRANCH  61  75
BRANCH  62  86
ATOM     86  C   UNL A   1      42.299  32.816  30.056  1.00  0.00     0.023 A 
ATOM     87  C   UNL A   1      43.099  33.647  29.256  1.00  0.00     0.031 A 
ATOM     88  C   UNL A   1      40.952  33.182  30.240  1.00  0.00     0.131 A 
ATOM     89  C   UNL A   1      42.561  34.823  28.708  1.00  0.00     0.055 A 
ATOM     90  C   UNL A   1      40.404  34.318  29.643  1.00  0.00     0.041 A 
ATOM     91  F   UNL A   1      40.143  32.433  31.008  1.00  0.00    -0.206 F 
ATOM     92  C   UNL A   1      41.214  35.153  28.882  1.00  0.00     0.022 A 
BRANCH  89  93
ATOM     93  S   UNL A   1      43.668  35.976  27.850  1.00  0.00     0.124 S 
ATOM     94  O   UNL A   1      44.951  35.291  27.959  1.00  0.00    -0.237 OA
ATOM     95  O   UNL A   1      43.078  36.032  26.516  1.00  0.00    -0.237 OA
ATOM     96  O   UNL A   1      43.549  37.206  28.631  1.00  0.00    -0.744 OA
ENDBRANCH  89  93
ENDBRANCH  62  86
BRANCH  74  97
ATOM     97  C   UNL A   1      44.550  31.745  36.576  1.00  0.00     0.023 A 
ATOM     98  C   UNL A   1      43.516  31.885  37.520  1.00  0.00     0.031 A 
ATOM     99  C   UNL A   1      45.733  32.478  36.777  1.00  0.00     0.131 A 
ATOM    100  C   UNL A   1      43.671  32.769  38.600  1.00  0.00     0.055 A 
ATOM    101  C   UNL A   1      45.903  33.313  37.883  1.00  0.00     0.041 A 
ATOM    102  F   UNL A   1      46.752  32.383  35.907  1.00  0.00    -0.206 F 
ATOM    103  C   UNL A   1      44.864  33.469  38.797  1.00  0.00     0.022 A 
BRANCH 100 104
ATOM    104  S   UNL A   1      42.267  33.044  39.714  1.00  0.00     0.124 S 
ATOM    105  O   UNL A   1      42.887  33.780  40.810  1.00  0.00    -0.237 OA
ATOM    106  O   UNL A   1      41.345  33.804  38.876  1.00  0.00    -0.237 OA
ATOM    107  O   UNL A   1      41.823  31.691  40.049  1.00  0.00    -0.744 OA
ENDBRANCH 100 104
ENDBRANCH  74  97
ENDBRANCH  48  49
ENDBRANCH  41  43
ENDBRANCH  40  41
ENDBRANCH  39  40
ENDBRANCH  38  39
ENDBRANCH  37  38
ENDBRANCH  36  37
ENDBRANCH   1  36
TORSDOF 26
ENDMDL
MODEL 3
REMARK VINA RESULT:      -6.9      3.715     11.734
REMARK SMILES CC(C)Oc1ccc(-c2ccc(/C(=C\c3ccc(S(C)(=O)=O)cc3)C(=O)OCCOCCOCCOC(=O)c3ccc(-c4c5nc(c(-c6cc(S(=O)(=O)[O-])ccc6F)c6ccc([nH]6)c(-c6cc(S(=O)(=O)[O-])ccc6F)c6nc(c(-c7cc(S(=O)(=O)[O-])ccc7F)c7ccc4[nH]7)C=C6)C=C5)cc3)cc2)cc1
REMARK SMILES IDX 31 1 30 2 29 3 28 4 27 5 25 6 26 7 13 8 14 9 12 10 9 11
REMARK SMILES IDX 10 12 103 13 11 14 102 15 8 16 5 17 6 18 105 19 7 20 104 21
REMARK SMILES IDX 4 22 2 23 1 24 3 25 15 26 16 27 24 28 17 29 23 30 18 31
REMARK SMILES IDX 19 32 20 33 21 34 22 35 32 36 33 37 34 38 35 39 36 40 37 41
REMARK SMILES IDX 38 42 39 43 40 44 101 45 41 46 100 47 42 48 43 49 44 50
REMARK SMILES IDX 94 51 45 52 99 53 93 54 95 55 46 56 98 57 92 58 91 59 47 61
REMARK SMILES IDX 79 62 59 63 78 64 60 65 63 66 77 67 96 68 61 69 62 70 76 72
REMARK SMILES IDX 97 73 64 74 48 75 49 76 57 77 50 78 56 79 58 80 55 81 51 82
REMARK SMILES IDX 52 83 53 84 54 85 80 86 81 87 89 88 82 89 88 90 90 91 87 92
REMARK SMILES IDX 83 93 84 94 85 95 86 96 65 97 66 98 74 99 67 100 73 101
REMARK SMILES IDX 75 102 72 103 68 104 69 105 70 106 71 107
REMARK H PARENT 95 60 63 71
REMARK Flexibility Score: inf
ROOT
ATOM      1  C   UNL A   1      38.269  33.126  33.187  1.00  0.00     0.188 C 
ENDROOT
BRANCH   1   2
ATOM      2  O   UNL A   1      37.069  32.428  33.421  1.00  0.00    -0.376 OA
BRANCH   2   3
ATOM      3  C   UNL A   1      35.943  32.633  32.592  1.00  0.00     0.202 C 
BRANCH   3   4
ATOM      4  C   UNL A   1      35.549  31.735  31.404  1.00  0.00     0.261 C 
BRANCH   4   5
ATOM      5  O   UNL A   1      34.853  32.347  30.318  1.00  0.00    -0.460 OA
BRANCH   5   6
ATOM      6  C   UNL A   1      35.458  32.330  29.098  1.00  0.00     0.338 C 
ATOM      7  O   UNL A   1      36.064  33.265  28.600  1.00  0.00    -0.246 OA
BRANCH   6   8
ATOM      8  C   UNL A   1      35.361  30.959  28.481  1.00  0.00     0.067 C 
ATOM      9  C   UNL A   1      34.141  30.651  27.965  1.00  0.00     0.024 C 
BRANCH   8  10
ATOM     10  C   UNL A   1      36.562  30.066  28.492  1.00  0.00    -0.011 A 
ATOM     11  C   UNL A   1      39.021  28.576  28.590  1.00  0.00    -0.018 A 
ATOM     12  C   UNL A   1      38.104  28.557  29.647  1.00  0.00     0.009 A 
ATOM     13  C   UNL A   1      38.657  29.314  27.458  1.00  0.00     0.009 A 
ATOM     14  C   UNL A   1      36.885  29.244  29.577  1.00  0.00     0.009 A 
ATOM     15  C   UNL A   1      37.457  30.047  27.411  1.00  0.00     0.009 A 
BRANCH  11  16
ATOM     16  C   UNL A   1      40.276  27.798  28.656  1.00  0.00    -0.018 A 
ATOM     17  C   UNL A   1      42.683  26.308  28.874  1.00  0.00     0.119 A 
ATOM     18  C   UNL A   1      42.543  27.529  29.527  1.00  0.00     0.047 A 
ATOM     19  C   UNL A   1      41.621  25.817  28.123  1.00  0.00     0.047 A 
ATOM     20  C   UNL A   1      41.361  28.265  29.416  1.00  0.00     0.012 A 
ATOM     21  C   UNL A   1      40.436  26.562  28.006  1.00  0.00     0.012 A 
BRANCH  17  22
ATOM     22  O   UNL A   1      43.823  25.620  29.158  1.00  0.00    -0.491 OA
BRANCH  22  23
ATOM     23  C   UNL A   1      44.287  24.590  28.275  1.00  0.00     0.167 C 
ATOM     24  C   UNL A   1      45.251  25.084  27.203  1.00  0.00     0.052 C 
ATOM     25  C   UNL A   1      44.773  23.335  28.996  1.00  0.00     0.052 C 
ENDBRANCH  22  23
ENDBRANCH  17  22
ENDBRANCH  11  16
ENDBRANCH   8  10
BRANCH   9  26
ATOM     26  C   UNL A   1      33.765  29.446  27.211  1.00  0.00    -0.025 A 
ATOM     27  C   UNL A   1      32.703  28.686  27.722  1.00  0.00     0.009 A 
ATOM     28  C   UNL A   1      34.302  29.130  25.955  1.00  0.00     0.009 A 
ATOM     29  C   UNL A   1      32.094  27.710  26.935  1.00  0.00     0.021 A 
ATOM     30  C   UNL A   1      33.687  28.158  25.156  1.00  0.00     0.021 A 
ATOM     31  C   UNL A   1      32.568  27.477  25.642  1.00  0.00     0.067 A 
BRANCH  31  32
ATOM     32  S   UNL A   1      31.607  26.437  24.565  1.00  0.00     0.175 S 
ATOM     33  C   UNL A   1      32.035  24.795  25.065  1.00  0.00     0.163 C 
ATOM     34  O   UNL A   1      30.211  26.651  24.904  1.00  0.00    -0.224 OA
ATOM     35  O   UNL A   1      32.082  26.628  23.210  1.00  0.00    -0.224 OA
ENDBRANCH  31  32
ENDBRANCH   9  26
ENDBRANCH   6   8
ENDBRANCH   5   6
ENDBRANCH   4   5
ENDBRANCH   3   4
ENDBRANCH   2   3
ENDBRANCH   1   2
BRANCH   1  36
ATOM     36  C   UNL A   1      38.305  34.541  33.804  1.00  0.00     0.188 C 
BRANCH  36  37
ATOM     37  O   UNL A   1      39.550  35.128  34.163  1.00  0.00    -0.376 OA
BRANCH  37  38
ATOM     38  C   UNL A   1      39.783  35.467  35.524  1.00  0.00     0.202 C 
BRANCH  38  39
ATOM     39  C   UNL A   1      40.903  34.761  36.302  1.00  0.00     0.261 C 
BRANCH  39  40
ATOM     40  O   UNL A   1      40.552  34.315  37.622  1.00  0.00    -0.460 OA
BRANCH  40  41
ATOM     41  C   UNL A   1      40.539  32.969  37.800  1.00  0.00     0.338 C 
ATOM     42  O   UNL A   1      39.907  32.344  38.636  1.00  0.00    -0.246 OA
BRANCH  41  43
ATOM     43  C   UNL A   1      41.285  32.321  36.702  1.00  0.00     0.060 A 
ATOM     44  C   UNL A   1      42.685  32.344  36.736  1.00  0.00     0.016 A 
ATOM     45  C   UNL A   1      40.613  31.734  35.629  1.00  0.00     0.016 A 
ATOM     46  C   UNL A   1      43.421  31.770  35.697  1.00  0.00     0.010 A 
ATOM     47  C   UNL A   1      41.352  31.187  34.575  1.00  0.00     0.010 A 
ATOM     48  C   UNL A   1      42.758  31.211  34.597  1.00  0.00    -0.014 A 
BRANCH  48  49
ATOM     49  C   UNL A   1      43.528  30.764  33.409  1.00  0.00     0.031 A 
ATOM     50  C   UNL A   1      44.033  29.351  33.360  1.00  0.00     0.074 A 
ATOM     51  C   UNL A   1      43.773  31.606  32.390  1.00  0.00     0.049 A 
ATOM     52  N   UNL A   1      44.799  28.776  32.471  1.00  0.00    -0.248 NA
ATOM     53  C   UNL A   1      43.623  28.474  34.466  1.00  0.00     0.031 C 
ATOM     54  C   UNL A   1      43.289  32.982  32.305  1.00  0.00     0.029 A 
ATOM     55  N   UNL A   1      44.488  31.427  31.232  1.00  0.00    -0.354 N 
ATOM     56  C   UNL A   1      44.984  27.472  32.918  1.00  0.00     0.074 A 
ATOM     57  C   UNL A   1      44.254  27.350  34.164  1.00  0.00     0.031 C 
ATOM     58  C   UNL A   1      43.715  33.522  31.150  1.00  0.00     0.029 A 
ATOM     59  C   UNL A   1      44.559  32.556  30.448  1.00  0.00     0.049 A 
ATOM     60  H   UNL A   1      44.909  30.573  30.986  1.00  0.00     0.167 HD
ATOM     61  C   UNL A   1      45.701  26.475  32.346  1.00  0.00     0.034 A 
ATOM     62  C   UNL A   1      45.262  32.796  29.321  1.00  0.00     0.034 A 
ATOM     63  C   UNL A   1      46.445  26.621  31.119  1.00  0.00     0.049 A 
ATOM     64  C   UNL A   1      46.141  31.701  28.761  1.00  0.00     0.074 A 
ATOM     65  C   UNL A   1      47.194  25.672  30.447  1.00  0.00     0.029 A 
ATOM     66  N   UNL A   1      46.555  27.800  30.391  1.00  0.00    -0.354 N 
ATOM     67  N   UNL A   1      46.308  30.471  29.193  1.00  0.00    -0.248 NA
ATOM     68  C   UNL A   1      46.943  32.033  27.575  1.00  0.00     0.031 C 
ATOM     69  C   UNL A   1      47.821  26.294  29.362  1.00  0.00     0.029 A 
ATOM     70  C   UNL A   1      47.396  27.612  29.305  1.00  0.00     0.049 A 
ATOM     71  H   UNL A   1      46.101  28.645  30.613  1.00  0.00     0.167 HD
ATOM     72  C   UNL A   1      47.221  29.882  28.320  1.00  0.00     0.074 A 
ATOM     73  C   UNL A   1      47.554  30.883  27.329  1.00  0.00     0.031 C 
ATOM     74  C   UNL A   1      47.738  28.627  28.335  1.00  0.00     0.034 A 
BRANCH  61  75
ATOM     75  C   UNL A   1      45.772  25.163  33.087  1.00  0.00     0.023 A 
ATOM     76  C   UNL A   1      46.793  24.887  34.012  1.00  0.00     0.031 A 
ATOM     77  C   UNL A   1      44.821  24.157  32.835  1.00  0.00     0.131 A 
ATOM     78  C   UNL A   1      46.879  23.616  34.599  1.00  0.00     0.055 A 
ATOM     79  C   UNL A   1      44.867  22.921  33.482  1.00  0.00     0.041 A 
ATOM     80  F   UNL A   1      43.837  24.354  31.943  1.00  0.00    -0.206 F 
ATOM     81  C   UNL A   1      45.909  22.640  34.361  1.00  0.00     0.022 A 
BRANCH  78  82
ATOM     82  S   UNL A   1      48.356  23.210  35.570  1.00  0.00     0.124 S 
ATOM     83  O   UNL A   1      47.950  21.965  36.219  1.00  0.00    -0.237 OA
ATOM     84  O   UNL A   1      49.385  23.091  34.544  1.00  0.00    -0.237 OA
ATOM     85  O   UNL A   1      48.500  24.353  36.470  1.00  0.00    -0.744 OA
ENDBRANCH  78  82
ENDBRANCH  61  75
BRANCH  62  86
ATOM     86  C   UNL A   1      45.246  34.148  28.687  1.00  0.00     0.023 A 
ATOM     87  C   UNL A   1      46.080  35.181  29.145  1.00  0.00     0.031 A 
ATOM     88  C   UNL A   1      44.339  34.447  27.653  1.00  0.00     0.131 A 
ATOM     89  C   UNL A   1      45.960  36.471  28.604  1.00  0.00     0.055 A 
ATOM     90  C   UNL A   1      44.266  35.715  27.075  1.00  0.00     0.041 A 
ATOM     91  F   UNL A   1      43.505  33.503  27.186  1.00  0.00    -0.206 F 
ATOM     92  C   UNL A   1      45.071  36.740  27.559  1.00  0.00     0.022 A 
BRANCH  89  93
ATOM     93  S   UNL A   1      46.907  37.827  29.352  1.00  0.00     0.124 S 
ATOM     94  O   UNL A   1      46.505  38.959  28.526  1.00  0.00    -0.237 OA
ATOM     95  O   UNL A   1      46.413  37.823  30.725  1.00  0.00    -0.237 OA
ATOM     96  O   UNL A   1      48.295  37.400  29.192  1.00  0.00    -0.744 OA
ENDBRANCH  89  93
ENDBRANCH  62  86
BRANCH  74  97
ATOM     97  C   UNL A   1      48.696  28.258  27.227  1.00  0.00     0.023 A 
ATOM     98  C   UNL A   1      48.243  27.885  25.949  1.00  0.00     0.031 A 
ATOM     99  C   UNL A   1      50.084  28.293  27.454  1.00  0.00     0.131 A 
ATOM    100  C   UNL A   1      49.170  27.524  24.958  1.00  0.00     0.055 A 
ATOM    101  C   UNL A   1      51.001  27.987  26.448  1.00  0.00     0.041 A 
ATOM    102  F   UNL A   1      50.571  28.642  28.656  1.00  0.00    -0.206 F 
ATOM    103  C   UNL A   1      50.545  27.591  25.194  1.00  0.00     0.022 A 
BRANCH 100 104
ATOM    104  S   UNL A   1      48.554  26.902  23.369  1.00  0.00     0.124 S 
ATOM    105  O   UNL A   1      47.552  27.902  23.018  1.00  0.00    -0.237 OA
ATOM    106  O   UNL A   1      49.760  26.892  22.547  1.00  0.00    -0.237 OA
ATOM    107  O   UNL A   1      48.021  25.581  23.700  1.00  0.00    -0.744 OA
ENDBRANCH 100 104
ENDBRANCH  74  97
ENDBRANCH  48  49
ENDBRANCH  41  43
ENDBRANCH  40  41
ENDBRANCH  39  40
ENDBRANCH  38  39
ENDBRANCH  37  38
ENDBRANCH  36  37
ENDBRANCH   1  36
TORSDOF 26
ENDMDL
