MODEL 1
REMARK VINA RESULT:     -11.6      0.000      0.000
REMARK SMILES Cc1ccc(C(=O)N2CCCC[C@@H]2C(=O)OCCOCCOCCOC(=O)c2ccc(-c3c4nc(c(-c5cc(S(=O)(=O)[O-])ccc5F)c5ccc([nH]5)c(-c5cc(S(=O)(=O)[O-])ccc5F)c5nc(c(-c6cc(S(=O)(=O)[O-])ccc6F)c6ccc3[nH]6)C=C5)C=C4)cc2)cc1S(=O)(=O)N1CCCCC1
REMARK SMILES IDX 20 1 19 2 18 3 17 4 16 5 14 6 15 7 13 8 8 9 9 10 10 11 12 12
REMARK SMILES IDX 11 13 6 14 7 15 5 16 1 17 2 18 3 19 92 20 4 21 91 22 93 23
REMARK SMILES IDX 94 24 95 25 96 26 97 27 101 28 98 29 100 30 99 31 21 32
REMARK SMILES IDX 22 33 23 34 24 35 25 36 26 37 27 38 28 39 29 40 90 41 30 42
REMARK SMILES IDX 89 43 31 44 32 45 33 46 83 47 34 48 88 49 82 50 84 51 35 52
REMARK SMILES IDX 87 53 81 54 80 55 36 57 68 58 48 59 67 60 49 61 52 62 66 63
REMARK SMILES IDX 85 64 50 65 51 66 65 68 86 69 53 70 37 71 38 72 46 73 39 74
REMARK SMILES IDX 45 75 47 76 44 77 40 78 41 79 42 80 43 81 69 82 70 83 78 84
REMARK SMILES IDX 71 85 77 86 79 87 76 88 72 89 73 90 74 91 75 92 54 93 55 94
REMARK SMILES IDX 63 95 56 96 62 97 64 98 61 99 57 100 58 101 59 102 60 103
REMARK H PARENT 84 56 52 67
REMARK Flexibility Score: inf
ROOT
ATOM      1  C   UNL A   1      33.567  28.490  23.823  1.00  0.00     0.188 C 
ENDROOT
BRANCH   1   2
ATOM      2  O   UNL A   1      33.695  27.473  22.787  1.00  0.00    -0.376 OA
BRANCH   2   3
ATOM      3  C   UNL A   1      32.847  26.314  22.420  1.00  0.00     0.202 C 
BRANCH   3   4
ATOM      4  C   UNL A   1      32.923  24.652  21.616  1.00  0.00     0.261 C 
BRANCH   4   5
ATOM      5  O   UNL A   1      32.722  22.915  22.248  1.00  0.00    -0.462 OA
BRANCH   5   6
ATOM      6  C   UNL A   1      32.700  22.136  23.656  1.00  0.00     0.328 C 
ATOM      7  O   UNL A   1      32.541  20.920  23.831  1.00  0.00    -0.250 OA
BRANCH   6   8
ATOM      8  C   UNL A   1      32.751  22.764  25.029  1.00  0.00     0.195 C 
ATOM      9  N   UNL A   1      34.112  22.859  25.694  1.00  0.00    -0.325 N 
ATOM     10  C   UNL A   1      34.125  22.946  27.144  1.00  0.00     0.121 C 
ATOM     11  C   UNL A   1      32.950  22.300  27.843  1.00  0.00     0.022 C 
ATOM     12  C   UNL A   1      31.535  22.360  25.825  1.00  0.00     0.037 C 
ATOM     13  C   UNL A   1      31.644  22.804  27.262  1.00  0.00     0.005 C 
BRANCH   9  14
ATOM     14  C   UNL A   1      35.329  23.463  25.180  1.00  0.00     0.254 C 
ATOM     15  O   UNL A   1      35.268  24.580  24.641  1.00  0.00    -0.269 OA
BRANCH  14  16
ATOM     16  C   UNL A   1      36.723  22.987  25.406  1.00  0.00     0.041 A 
ATOM     17  C   UNL A   1      40.879  19.862  26.465  1.00  0.00     0.046 C 
ATOM     18  C   UNL A   1      39.321  21.389  25.968  1.00  0.00    -0.031 A 
ATOM     19  C   UNL A   1      38.015  21.018  25.189  1.00  0.00     0.005 A 
ATOM     20  C   UNL A   1      39.166  22.926  26.266  1.00  0.00     0.086 A 
ATOM     21  C   UNL A   1      36.803  21.665  25.110  1.00  0.00     0.014 A 
ATOM     22  C   UNL A   1      37.869  23.623  25.973  1.00  0.00     0.035 A 
BRANCH  20  23
ATOM     23  S   UNL A   1      40.514  24.348  26.857  1.00  0.00     0.243 S 
ATOM     24  O   UNL A   1      40.132  25.566  26.170  1.00  0.00    -0.207 OA
ATOM     25  O   UNL A   1      40.410  24.320  28.304  1.00  0.00    -0.207 OA
BRANCH  23  26
ATOM     26  N   UNL A   1      42.268  24.149  26.499  1.00  0.00    -0.198 NA
ATOM     27  C   UNL A   1      43.082  23.536  27.589  1.00  0.00     0.102 C 
ATOM     28  C   UNL A   1      42.779  24.191  25.084  1.00  0.00     0.102 C 
ATOM     29  C   UNL A   1      44.371  22.798  27.181  1.00  0.00     0.017 C 
ATOM     30  C   UNL A   1      44.052  23.352  24.756  1.00  0.00     0.017 C 
ATOM     31  C   UNL A   1      44.502  22.288  25.756  1.00  0.00     0.003 C 
ENDBRANCH  23  26
ENDBRANCH  20  23
ENDBRANCH  14  16
ENDBRANCH   9  14
ENDBRANCH   6   8
ENDBRANCH   5   6
ENDBRANCH   4   5
ENDBRANCH   3   4
ENDBRANCH   2   3
ENDBRANCH   1   2
BRANCH   1  32
ATOM     32  C   UNL A   1      32.227  29.061  24.066  1.00  0.00     0.188 C 
BRANCH  32  33
ATOM     33  O   UNL A   1      32.239  29.247  25.452  1.00  0.00    -0.376 OA
BRANCH  33  34
ATOM     34  C   UNL A   1      31.987  30.502  25.965  1.00  0.00     0.202 C 
BRANCH  34  35
ATOM     35  C   UNL A   1      32.756  30.649  27.259  1.00  0.00     0.261 C 
BRANCH  35  36
ATOM     36  O   UNL A   1      34.181  30.266  27.152  1.00  0.00    -0.460 OA
BRANCH  36  37
ATOM     37  C   UNL A   1      35.225  30.840  27.870  1.00  0.00     0.338 C 
ATOM     38  O   UNL A   1      35.139  31.945  28.385  1.00  0.00    -0.246 OA
BRANCH  37  39
ATOM     39  C   UNL A   1      36.345  29.901  28.223  1.00  0.00     0.060 A 
ATOM     40  C   UNL A   1      36.722  29.428  29.493  1.00  0.00     0.016 A 
ATOM     41  C   UNL A   1      37.243  29.680  27.256  1.00  0.00     0.016 A 
ATOM     42  C   UNL A   1      38.135  29.280  29.877  1.00  0.00     0.010 A 
ATOM     43  C   UNL A   1      38.565  29.707  27.704  1.00  0.00     0.010 A 
ATOM     44  C   UNL A   1      39.201  29.682  29.065  1.00  0.00    -0.014 A 
BRANCH  44  45
ATOM     45  C   UNL A   1      41.030  29.753  29.501  1.00  0.00     0.031 A 
ATOM     46  C   UNL A   1      42.395  28.690  28.831  1.00  0.00     0.074 A 
ATOM     47  C   UNL A   1      41.563  30.689  30.336  1.00  0.00     0.049 A 
ATOM     48  N   UNL A   1      43.651  29.054  28.650  1.00  0.00    -0.248 NA
ATOM     49  C   UNL A   1      42.311  27.323  28.071  1.00  0.00     0.031 C 
ATOM     50  C   UNL A   1      42.945  31.192  30.472  1.00  0.00     0.029 A 
ATOM     51  N   UNL A   1      40.905  31.543  31.210  1.00  0.00    -0.354 N 
ATOM     52  C   UNL A   1      44.299  28.105  27.821  1.00  0.00     0.074 A 
ATOM     53  C   UNL A   1      43.334  27.264  27.246  1.00  0.00     0.031 C 
ATOM     54  C   UNL A   1      43.027  31.967  31.577  1.00  0.00     0.029 A 
ATOM     55  C   UNL A   1      41.765  31.828  32.258  1.00  0.00     0.049 A 
ATOM     56  H   UNL A   1      39.988  31.886  31.104  1.00  0.00     0.167 HD
ATOM     57  C   UNL A   1      45.563  27.640  27.936  1.00  0.00     0.034 A 
ATOM     58  C   UNL A   1      41.502  31.171  33.405  1.00  0.00     0.034 A 
ATOM     59  C   UNL A   1      46.123  28.062  29.177  1.00  0.00     0.049 A 
ATOM     60  C   UNL A   1      42.658  30.158  33.626  1.00  0.00     0.074 A 
ATOM     61  C   UNL A   1      46.580  29.295  29.571  1.00  0.00     0.029 A 
ATOM     62  N   UNL A   1      46.031  27.252  30.286  1.00  0.00    -0.354 N 
ATOM     63  N   UNL A   1      43.975  29.786  32.638  1.00  0.00    -0.248 NA
ATOM     64  C   UNL A   1      42.903  29.042  35.289  1.00  0.00     0.031 C 
ATOM     65  C   UNL A   1      46.619  29.281  30.975  1.00  0.00     0.029 A 
ATOM     66  C   UNL A   1      46.235  28.023  31.416  1.00  0.00     0.049 A 
ATOM     67  H   UNL A   1      45.850  26.285  30.278  1.00  0.00     0.167 HD
ATOM     68  C   UNL A   1      44.983  28.362  33.370  1.00  0.00     0.074 A 
ATOM     69  C   UNL A   1      44.160  27.991  35.079  1.00  0.00     0.031 C 
ATOM     70  C   UNL A   1      45.847  27.521  32.709  1.00  0.00     0.034 A 
BRANCH  57  71
ATOM     71  C   UNL A   1      46.379  27.010  26.825  1.00  0.00     0.023 A 
ATOM     72  C   UNL A   1      47.492  26.329  27.327  1.00  0.00     0.031 A 
ATOM     73  C   UNL A   1      46.361  27.168  25.419  1.00  0.00     0.131 A 
ATOM     74  C   UNL A   1      48.599  26.027  26.538  1.00  0.00     0.055 A 
ATOM     75  C   UNL A   1      47.444  26.788  24.604  1.00  0.00     0.041 A 
ATOM     76  F   UNL A   1      45.340  27.712  24.745  1.00  0.00    -0.206 F 
ATOM     77  C   UNL A   1      48.595  26.259  25.171  1.00  0.00     0.022 A 
BRANCH  74  78
ATOM     78  S   UNL A   1      50.070  25.494  27.431  1.00  0.00     0.124 S 
ATOM     79  O   UNL A   1      49.661  24.178  27.917  1.00  0.00    -0.237 OA
ATOM     80  O   UNL A   1      51.083  25.507  26.381  1.00  0.00    -0.237 OA
ATOM     81  O   UNL A   1      50.223  26.515  28.463  1.00  0.00    -0.744 OA
ENDBRANCH  74  78
ENDBRANCH  57  71
BRANCH  58  82
ATOM     82  C   UNL A   1      39.957  31.008  33.557  1.00  0.00     0.023 A 
ATOM     83  C   UNL A   1      39.100  32.151  33.560  1.00  0.00     0.031 A 
ATOM     84  C   UNL A   1      39.297  29.816  33.236  1.00  0.00     0.131 A 
ATOM     85  C   UNL A   1      37.735  32.066  33.149  1.00  0.00     0.055 A 
ATOM     86  C   UNL A   1      37.904  29.704  33.041  1.00  0.00     0.041 A 
ATOM     87  F   UNL A   1      40.004  28.744  32.888  1.00  0.00    -0.206 F 
ATOM     88  C   UNL A   1      37.132  30.840  32.899  1.00  0.00     0.022 A 
BRANCH  85  89
ATOM     89  S   UNL A   1      36.811  33.561  32.640  1.00  0.00     0.124 S 
ATOM     90  O   UNL A   1      35.579  33.440  33.411  1.00  0.00    -0.237 OA
ATOM     91  O   UNL A   1      37.702  34.650  33.026  1.00  0.00    -0.237 OA
ATOM     92  O   UNL A   1      36.667  33.396  31.193  1.00  0.00    -0.744 OA
ENDBRANCH  85  89
ENDBRANCH  58  82
BRANCH  70  93
ATOM     93  C   UNL A   1      46.253  26.162  33.271  1.00  0.00     0.023 A 
ATOM     94  C   UNL A   1      45.421  25.032  33.244  1.00  0.00     0.031 A 
ATOM     95  C   UNL A   1      47.490  25.936  33.897  1.00  0.00     0.131 A 
ATOM     96  C   UNL A   1      45.611  23.936  34.095  1.00  0.00     0.055 A 
ATOM     97  C   UNL A   1      47.775  24.759  34.611  1.00  0.00     0.041 A 
ATOM     98  F   UNL A   1      48.480  26.836  33.826  1.00  0.00    -0.206 F 
ATOM     99  C   UNL A   1      46.796  23.788  34.789  1.00  0.00     0.022 A 
BRANCH  96 100
ATOM    100  S   UNL A   1      44.179  22.860  34.415  1.00  0.00     0.124 S 
ATOM    101  O   UNL A   1      44.823  21.613  34.831  1.00  0.00    -0.237 OA
ATOM    102  O   UNL A   1      43.466  23.574  35.465  1.00  0.00    -0.237 OA
ATOM    103  O   UNL A   1      43.500  22.799  33.122  1.00  0.00    -0.744 OA
ENDBRANCH  96 100
ENDBRANCH  70  93
ENDBRANCH  44  45
ENDBRANCH  37  39
ENDBRANCH  36  37
ENDBRANCH  35  36
ENDBRANCH  34  35
ENDBRANCH  33  34
ENDBRANCH  32  33
ENDBRANCH   1  32
TORSDOF 24
ENDMDL
MODEL 2
REMARK VINA RESULT:     -11.2      2.368      3.080
REMARK SMILES Cc1ccc(C(=O)N2CCCC[C@@H]2C(=O)OCCOCCOCCOC(=O)c2ccc(-c3c4nc(c(-c5cc(S(=O)(=O)[O-])ccc5F)c5ccc([nH]5)c(-c5cc(S(=O)(=O)[O-])ccc5F)c5nc(c(-c6cc(S(=O)(=O)[O-])ccc6F)c6ccc3[nH]6)C=C5)C=C4)cc2)cc1S(=O)(=O)N1CCCCC1
REMARK SMILES IDX 20 1 19 2 18 3 17 4 16 5 14 6 15 7 13 8 8 9 9 10 10 11 12 12
REMARK SMILES IDX 11 13 6 14 7 15 5 16 1 17 2 18 3 19 92 20 4 21 91 22 93 23
REMARK SMILES IDX 94 24 95 25 96 26 97 27 101 28 98 29 100 30 99 31 21 32
REMARK SMILES IDX 22 33 23 34 24 35 25 36 26 37 27 38 28 39 29 40 90 41 30 42
REMARK SMILES IDX 89 43 31 44 32 45 33 46 83 47 34 48 88 49 82 50 84 51 35 52
REMARK SMILES IDX 87 53 81 54 80 55 36 57 68 58 48 59 67 60 49 61 52 62 66 63
REMARK SMILES IDX 85 64 50 65 51 66 65 68 86 69 53 70 37 71 38 72 46 73 39 74
REMARK SMILES IDX 45 75 47 76 44 77 40 78 41 79 42 80 43 81 69 82 70 83 78 84
REMARK SMILES IDX 71 85 77 86 79 87 76 88 72 89 73 90 74 91 75 92 54 93 55 94
REMARK SMILES IDX 63 95 56 96 62 97 64 98 61 99 57 100 58 101 59 102 60 103
REMARK H PARENT 84 56 52 67
REMARK Flexibility Score: inf
ROOT
ATOM      1  C   UNL A   1      33.857  27.528  23.513  1.00  0.00     0.188 C 
ENDROOT
BRANCH   1   2
ATOM      2  O   UNL A   1      33.736  26.799  22.257  1.00  0.00    -0.376 OA
BRANCH   2   3
ATOM      3  C   UNL A   1      32.859  25.680  21.836  1.00  0.00     0.202 C 
BRANCH   3   4
ATOM      4  C   UNL A   1      32.911  23.917  21.288  1.00  0.00     0.261 C 
BRANCH   4   5
ATOM      5  O   UNL A   1      32.761  22.294  22.183  1.00  0.00    -0.462 OA
BRANCH   5   6
ATOM      6  C   UNL A   1      32.871  21.728  23.685  1.00  0.00     0.328 C 
ATOM      7  O   UNL A   1      32.824  20.541  24.038  1.00  0.00    -0.250 OA
BRANCH   6   8
ATOM      8  C   UNL A   1      32.930  22.550  24.951  1.00  0.00     0.195 C 
ATOM      9  N   UNL A   1      34.293  22.731  25.592  1.00  0.00    -0.325 N 
ATOM     10  C   UNL A   1      34.311  23.029  27.014  1.00  0.00     0.121 C 
ATOM     11  C   UNL A   1      33.133  22.502  27.802  1.00  0.00     0.022 C 
ATOM     12  C   UNL A   1      31.713  22.276  25.800  1.00  0.00     0.037 C 
ATOM     13  C   UNL A   1      31.829  22.925  27.156  1.00  0.00     0.005 C 
BRANCH   9  14
ATOM     14  C   UNL A   1      35.513  23.243  24.994  1.00  0.00     0.254 C 
ATOM     15  O   UNL A   1      35.436  24.145  24.144  1.00  0.00    -0.269 OA
BRANCH  14  16
ATOM     16  C   UNL A   1      36.908  22.957  25.432  1.00  0.00     0.041 A 
ATOM     17  C   UNL A   1      41.252  20.399  27.091  1.00  0.00     0.046 C 
ATOM     18  C   UNL A   1      39.589  21.713  26.376  1.00  0.00    -0.031 A 
ATOM     19  C   UNL A   1      38.486  21.195  25.393  1.00  0.00     0.005 A 
ATOM     20  C   UNL A   1      39.171  23.202  26.669  1.00  0.00     0.086 A 
ATOM     21  C   UNL A   1      37.221  21.670  25.132  1.00  0.00     0.014 A 
ATOM     22  C   UNL A   1      37.850  23.724  26.184  1.00  0.00     0.035 A 
BRANCH  20  23
ATOM     23  S   UNL A   1      40.194  24.773  27.489  1.00  0.00     0.243 S 
ATOM     24  O   UNL A   1      39.266  25.419  28.398  1.00  0.00    -0.207 OA
ATOM     25  O   UNL A   1      41.372  24.142  28.053  1.00  0.00    -0.207 OA
BRANCH  23  26
ATOM     26  N   UNL A   1      40.816  26.103  26.445  1.00  0.00    -0.198 NA
ATOM     27  C   UNL A   1      40.442  27.483  26.869  1.00  0.00     0.102 C 
ATOM     28  C   UNL A   1      41.959  25.871  25.494  1.00  0.00     0.102 C 
ATOM     29  C   UNL A   1      41.374  28.632  26.443  1.00  0.00     0.017 C 
ATOM     30  C   UNL A   1      42.889  27.083  25.181  1.00  0.00     0.017 C 
ATOM     31  C   UNL A   1      42.816  28.311  26.086  1.00  0.00     0.003 C 
ENDBRANCH  23  26
ENDBRANCH  20  23
ENDBRANCH  14  16
ENDBRANCH   9  14
ENDBRANCH   6   8
ENDBRANCH   5   6
ENDBRANCH   4   5
ENDBRANCH   3   4
ENDBRANCH   2   3
ENDBRANCH   1   2
BRANCH   1  32
ATOM     32  C   UNL A   1      33.388  28.927  23.545  1.00  0.00     0.188 C 
BRANCH  32  33
ATOM     33  O   UNL A   1      32.343  28.861  24.471  1.00  0.00    -0.376 OA
BRANCH  33  34
ATOM     34  C   UNL A   1      32.194  29.876  25.393  1.00  0.00     0.202 C 
BRANCH  34  35
ATOM     35  C   UNL A   1      32.634  29.358  26.744  1.00  0.00     0.261 C 
BRANCH  35  36
ATOM     36  O   UNL A   1      34.103  29.304  26.913  1.00  0.00    -0.460 OA
BRANCH  36  37
ATOM     37  C   UNL A   1      34.861  30.193  27.667  1.00  0.00     0.338 C 
ATOM     38  O   UNL A   1      34.456  31.304  27.975  1.00  0.00    -0.246 OA
BRANCH  37  39
ATOM     39  C   UNL A   1      36.073  29.596  28.326  1.00  0.00     0.060 A 
ATOM     40  C   UNL A   1      36.291  29.346  29.693  1.00  0.00     0.016 A 
ATOM     41  C   UNL A   1      37.169  29.517  27.563  1.00  0.00     0.016 A 
ATOM     42  C   UNL A   1      37.598  29.586  30.326  1.00  0.00     0.010 A 
ATOM     43  C   UNL A   1      38.337  29.910  28.220  1.00  0.00     0.010 A 
ATOM     44  C   UNL A   1      38.683  30.164  29.659  1.00  0.00    -0.014 A 
BRANCH  44  45
ATOM     45  C   UNL A   1      40.327  30.723  30.384  1.00  0.00     0.031 A 
ATOM     46  C   UNL A   1      41.928  29.787  30.410  1.00  0.00     0.074 A 
ATOM     47  C   UNL A   1      40.525  31.961  30.917  1.00  0.00     0.049 A 
ATOM     48  N   UNL A   1      43.140  30.310  30.356  1.00  0.00    -0.248 NA
ATOM     49  C   UNL A   1      42.194  28.260  30.183  1.00  0.00     0.031 C 
ATOM     50  C   UNL A   1      41.764  32.739  31.129  1.00  0.00     0.029 A 
ATOM     51  N   UNL A   1      39.578  32.905  31.288  1.00  0.00    -0.354 N 
ATOM     52  C   UNL A   1      44.078  29.291  30.059  1.00  0.00     0.074 A 
ATOM     53  C   UNL A   1      43.388  28.140  29.645  1.00  0.00     0.031 C 
ATOM     54  C   UNL A   1      41.480  33.826  31.881  1.00  0.00     0.029 A 
ATOM     55  C   UNL A   1      40.114  33.670  32.311  1.00  0.00     0.049 A 
ATOM     56  H   UNL A   1      38.682  33.012  30.894  1.00  0.00     0.167 HD
ATOM     57  C   UNL A   1      45.319  29.140  30.571  1.00  0.00     0.034 A 
ATOM     58  C   UNL A   1      39.654  33.376  33.543  1.00  0.00     0.034 A 
ATOM     59  C   UNL A   1      45.503  30.036  31.664  1.00  0.00     0.049 A 
ATOM     60  C   UNL A   1      40.829  32.731  34.327  1.00  0.00     0.074 A 
ATOM     61  C   UNL A   1      45.703  31.395  31.675  1.00  0.00     0.029 A 
ATOM     62  N   UNL A   1      45.235  29.621  32.950  1.00  0.00    -0.354 N 
ATOM     63  N   UNL A   1      42.383  32.325  33.807  1.00  0.00    -0.248 NA
ATOM     64  C   UNL A   1      40.783  32.274  36.292  1.00  0.00     0.031 C 
ATOM     65  C   UNL A   1      45.396  31.837  32.972  1.00  0.00     0.029 A 
ATOM     66  C   UNL A   1      45.063  30.737  33.748  1.00  0.00     0.049 A 
ATOM     67  H   UNL A   1      45.175  28.686  33.250  1.00  0.00     0.167 HD
ATOM     68  C   UNL A   1      43.338  31.433  35.176  1.00  0.00     0.074 A 
ATOM     69  C   UNL A   1      42.166  31.475  36.714  1.00  0.00     0.031 C 
ATOM     70  C   UNL A   1      44.429  30.608  35.035  1.00  0.00     0.034 A 
BRANCH  57  71
ATOM     71  C   UNL A   1      46.452  28.360  29.935  1.00  0.00     0.023 A 
ATOM     72  C   UNL A   1      47.130  29.123  28.980  1.00  0.00     0.031 A 
ATOM     73  C   UNL A   1      46.795  26.988  29.955  1.00  0.00     0.131 A 
ATOM     74  C   UNL A   1      47.910  28.545  27.983  1.00  0.00     0.055 A 
ATOM     75  C   UNL A   1      47.652  26.411  28.998  1.00  0.00     0.041 A 
ATOM     76  F   UNL A   1      46.321  26.115  30.853  1.00  0.00    -0.206 F 
ATOM     77  C   UNL A   1      48.176  27.185  27.971  1.00  0.00     0.022 A 
BRANCH  74  78
ATOM     78  S   UNL A   1      48.391  29.642  26.636  1.00  0.00     0.124 S 
ATOM     79  O   UNL A   1      49.239  28.767  25.830  1.00  0.00    -0.237 OA
ATOM     80  O   UNL A   1      47.099  29.998  26.059  1.00  0.00    -0.237 OA
ATOM     81  O   UNL A   1      49.092  30.725  27.321  1.00  0.00    -0.744 OA
ENDBRANCH  74  78
ENDBRANCH  57  71
BRANCH  58  82
ATOM     82  C   UNL A   1      38.149  32.975  33.444  1.00  0.00     0.023 A 
ATOM     83  C   UNL A   1      37.216  33.808  32.753  1.00  0.00     0.031 A 
ATOM     84  C   UNL A   1      37.719  31.649  33.580  1.00  0.00     0.131 A 
ATOM     85  C   UNL A   1      36.028  33.276  32.166  1.00  0.00     0.055 A 
ATOM     86  C   UNL A   1      36.449  31.179  33.187  1.00  0.00     0.041 A 
ATOM     87  F   UNL A   1      38.595  30.703  33.910  1.00  0.00    -0.206 F 
ATOM     88  C   UNL A   1      35.637  31.962  32.391  1.00  0.00     0.022 A 
BRANCH  85  89
ATOM     89  S   UNL A   1      35.135  34.192  30.857  1.00  0.00     0.124 S 
ATOM     90  O   UNL A   1      34.020  33.299  30.562  1.00  0.00    -0.237 OA
ATOM     91  O   UNL A   1      34.790  35.452  31.508  1.00  0.00    -0.237 OA
ATOM     92  O   UNL A   1      36.132  34.327  29.794  1.00  0.00    -0.744 OA
ENDBRANCH  85  89
ENDBRANCH  58  82
BRANCH  70  93
ATOM     93  C   UNL A   1      44.838  29.606  36.110  1.00  0.00     0.023 A 
ATOM     94  C   UNL A   1      44.505  28.243  36.066  1.00  0.00     0.031 A 
ATOM     95  C   UNL A   1      45.560  29.972  37.257  1.00  0.00     0.131 A 
ATOM     96  C   UNL A   1      44.514  27.428  37.206  1.00  0.00     0.055 A 
ATOM     97  C   UNL A   1      45.741  29.105  38.349  1.00  0.00     0.041 A 
ATOM     98  F   UNL A   1      46.137  31.178  37.361  1.00  0.00    -0.206 F 
ATOM     99  C   UNL A   1      45.137  27.854  38.363  1.00  0.00     0.022 A 
BRANCH  96 100
ATOM    100  S   UNL A   1      43.501  25.918  37.169  1.00  0.00     0.124 S 
ATOM    101  O   UNL A   1      42.250  26.376  37.776  1.00  0.00    -0.237 OA
ATOM    102  O   UNL A   1      43.427  25.613  35.746  1.00  0.00    -0.237 OA
ATOM    103  O   UNL A   1      44.267  24.971  37.976  1.00  0.00    -0.744 OA
ENDBRANCH  96 100
ENDBRANCH  70  93
ENDBRANCH  44  45
ENDBRANCH  37  39
ENDBRANCH  36  37
ENDBRANCH  35  36
ENDBRANCH  34  35
ENDBRANCH  33  34
ENDBRANCH  32  33
ENDBRANCH   1  32
TORSDOF 24
ENDMDL
MODEL 3
REMARK VINA RESULT:     -10.9      1.644      2.110
REMARK SMILES Cc1ccc(C(=O)N2CCCC[C@@H]2C(=O)OCCOCCOCCOC(=O)c2ccc(-c3c4nc(c(-c5cc(S(=O)(=O)[O-])ccc5F)c5ccc([nH]5)c(-c5cc(S(=O)(=O)[O-])ccc5F)c5nc(c(-c6cc(S(=O)(=O)[O-])ccc6F)c6ccc3[nH]6)C=C5)C=C4)cc2)cc1S(=O)(=O)N1CCCCC1
REMARK SMILES IDX 20 1 19 2 18 3 17 4 16 5 14 6 15 7 13 8 8 9 9 10 10 11 12 12
REMARK SMILES IDX 11 13 6 14 7 15 5 16 1 17 2 18 3 19 92 20 4 21 91 22 93 23
REMARK SMILES IDX 94 24 95 25 96 26 97 27 101 28 98 29 100 30 99 31 21 32
REMARK SMILES IDX 22 33 23 34 24 35 25 36 26 37 27 38 28 39 29 40 90 41 30 42
REMARK SMILES IDX 89 43 31 44 32 45 33 46 83 47 34 48 88 49 82 50 84 51 35 52
REMARK SMILES IDX 87 53 81 54 80 55 36 57 68 58 48 59 67 60 49 61 52 62 66 63
REMARK SMILES IDX 85 64 50 65 51 66 65 68 86 69 53 70 37 71 38 72 46 73 39 74
REMARK SMILES IDX 45 75 47 76 44 77 40 78 41 79 42 80 43 81 69 82 70 83 78 84
REMARK SMILES IDX 71 85 77 86 79 87 76 88 72 89 73 90 74 91 75 92 54 93 55 94
REMARK SMILES IDX 63 95 56 96 62 97 64 98 61 99 57 100 58 101 59 102 60 103
REMARK H PARENT 84 56 52 67
REMARK Flexibility Score: inf
ROOT
ATOM      1  C   UNL A   1      33.332  28.055  23.846  1.00  0.00     0.188 C 
ENDROOT
BRANCH   1   2
ATOM      2  O   UNL A   1      33.541  27.330  22.599  1.00  0.00    -0.376 OA
BRANCH   2   3
ATOM      3  C   UNL A   1      32.756  26.271  21.920  1.00  0.00     0.202 C 
BRANCH   3   4
ATOM      4  C   UNL A   1      32.907  24.564  21.231  1.00  0.00     0.261 C 
BRANCH   4   5
ATOM      5  O   UNL A   1      32.968  22.873  22.002  1.00  0.00    -0.462 OA
BRANCH   5   6
ATOM      6  C   UNL A   1      32.964  22.214  23.471  1.00  0.00     0.328 C 
ATOM      7  O   UNL A   1      33.091  21.012  23.746  1.00  0.00    -0.250 OA
BRANCH   6   8
ATOM      8  C   UNL A   1      32.686  22.926  24.773  1.00  0.00     0.195 C 
ATOM      9  N   UNL A   1      33.866  23.149  25.702  1.00  0.00    -0.325 N 
ATOM     10  C   UNL A   1      33.561  23.325  27.112  1.00  0.00     0.121 C 
ATOM     11  C   UNL A   1      32.296  22.649  27.591  1.00  0.00     0.022 C 
ATOM     12  C   UNL A   1      31.349  22.495  25.320  1.00  0.00     0.037 C 
ATOM     13  C   UNL A   1      31.123  23.032  26.711  1.00  0.00     0.005 C 
BRANCH   9  14
ATOM     14  C   UNL A   1      35.134  23.797  25.415  1.00  0.00     0.254 C 
ATOM     15  O   UNL A   1      35.154  25.022  25.219  1.00  0.00    -0.269 OA
BRANCH  14  16
ATOM     16  C   UNL A   1      36.490  23.189  25.531  1.00  0.00     0.041 A 
ATOM     17  C   UNL A   1      40.404  19.640  26.019  1.00  0.00     0.046 C 
ATOM     18  C   UNL A   1      38.963  21.335  25.785  1.00  0.00    -0.031 A 
ATOM     19  C   UNL A   1      37.616  21.177  25.003  1.00  0.00     0.005 A 
ATOM     20  C   UNL A   1      38.937  22.823  26.297  1.00  0.00     0.086 A 
ATOM     21  C   UNL A   1      36.458  21.919  25.053  1.00  0.00     0.014 A 
ATOM     22  C   UNL A   1      37.694  23.651  26.144  1.00  0.00     0.035 A 
BRANCH  20  23
ATOM     23  S   UNL A   1      40.405  24.042  27.037  1.00  0.00     0.243 S 
ATOM     24  O   UNL A   1      40.719  24.976  25.973  1.00  0.00    -0.207 OA
ATOM     25  O   UNL A   1      39.815  24.568  28.254  1.00  0.00    -0.207 OA
BRANCH  23  26
ATOM     26  N   UNL A   1      41.996  23.358  27.533  1.00  0.00    -0.198 NA
ATOM     27  C   UNL A   1      43.125  23.605  26.590  1.00  0.00     0.102 C 
ATOM     28  C   UNL A   1      42.256  22.958  28.961  1.00  0.00     0.102 C 
ATOM     29  C   UNL A   1      44.549  23.609  27.176  1.00  0.00     0.017 C 
ATOM     30  C   UNL A   1      43.721  23.066  29.480  1.00  0.00     0.017 C 
ATOM     31  C   UNL A   1      44.728  23.873  28.662  1.00  0.00     0.003 C 
ENDBRANCH  23  26
ENDBRANCH  20  23
ENDBRANCH  14  16
ENDBRANCH   9  14
ENDBRANCH   6   8
ENDBRANCH   5   6
ENDBRANCH   4   5
ENDBRANCH   3   4
ENDBRANCH   2   3
ENDBRANCH   1   2
BRANCH   1  32
ATOM     32  C   UNL A   1      32.470  29.253  23.810  1.00  0.00     0.188 C 
BRANCH  32  33
ATOM     33  O   UNL A   1      31.839  29.192  25.056  1.00  0.00    -0.376 OA
BRANCH  33  34
ATOM     34  C   UNL A   1      32.006  30.232  25.947  1.00  0.00     0.202 C 
BRANCH  34  35
ATOM     35  C   UNL A   1      32.656  29.686  27.198  1.00  0.00     0.261 C 
BRANCH  35  36
ATOM     36  O   UNL A   1      34.129  29.831  27.217  1.00  0.00    -0.460 OA
BRANCH  36  37
ATOM     37  C   UNL A   1      34.837  30.755  27.978  1.00  0.00     0.338 C 
ATOM     38  O   UNL A   1      34.437  31.894  28.168  1.00  0.00    -0.246 OA
BRANCH  37  39
ATOM     39  C   UNL A   1      35.964  30.179  28.790  1.00  0.00     0.060 A 
ATOM     40  C   UNL A   1      36.459  30.616  30.032  1.00  0.00     0.016 A 
ATOM     41  C   UNL A   1      36.751  29.304  28.152  1.00  0.00     0.016 A 
ATOM     42  C   UNL A   1      37.899  30.631  30.330  1.00  0.00     0.010 A 
ATOM     43  C   UNL A   1      38.112  29.502  28.390  1.00  0.00     0.010 A 
ATOM     44  C   UNL A   1      38.885  30.313  29.390  1.00  0.00    -0.014 A 
BRANCH  44  45
ATOM     45  C   UNL A   1      40.751  30.491  29.558  1.00  0.00     0.031 A 
ATOM     46  C   UNL A   1      42.053  29.264  29.069  1.00  0.00     0.074 A 
ATOM     47  C   UNL A   1      41.355  31.627  30.007  1.00  0.00     0.049 A 
ATOM     48  N   UNL A   1      43.268  29.545  28.636  1.00  0.00    -0.248 NA
ATOM     49  C   UNL A   1      41.915  27.734  28.762  1.00  0.00     0.031 C 
ATOM     50  C   UNL A   1      42.730  32.134  29.818  1.00  0.00     0.029 A 
ATOM     51  N   UNL A   1      40.785  32.708  30.665  1.00  0.00    -0.354 N 
ATOM     52  C   UNL A   1      43.837  28.387  28.050  1.00  0.00     0.074 A 
ATOM     53  C   UNL A   1      42.832  27.423  27.872  1.00  0.00     0.031 C 
ATOM     54  C   UNL A   1      42.923  33.199  30.627  1.00  0.00     0.029 A 
ATOM     55  C   UNL A   1      41.756  33.281  31.468  1.00  0.00     0.049 A 
ATOM     56  H   UNL A   1      39.852  33.013  30.576  1.00  0.00     0.167 HD
ATOM     57  C   UNL A   1      45.117  27.963  28.141  1.00  0.00     0.034 A 
ATOM     58  C   UNL A   1      41.651  32.996  32.782  1.00  0.00     0.034 A 
ATOM     59  C   UNL A   1      45.811  28.728  29.124  1.00  0.00     0.049 A 
ATOM     60  C   UNL A   1      42.851  32.082  33.148  1.00  0.00     0.074 A 
ATOM     61  C   UNL A   1      46.279  30.018  29.077  1.00  0.00     0.029 A 
ATOM     62  N   UNL A   1      45.875  28.283  30.426  1.00  0.00    -0.354 N 
ATOM     63  N   UNL A   1      44.049  31.421  32.159  1.00  0.00    -0.248 NA
ATOM     64  C   UNL A   1      43.324  31.505  35.023  1.00  0.00     0.031 C 
ATOM     65  C   UNL A   1      46.487  30.420  30.408  1.00  0.00     0.029 A 
ATOM     66  C   UNL A   1      46.192  29.352  31.243  1.00  0.00     0.049 A 
ATOM     67  H   UNL A   1      45.720  27.359  30.725  1.00  0.00     0.167 HD
ATOM     68  C   UNL A   1      45.176  30.267  33.149  1.00  0.00     0.074 A 
ATOM     69  C   UNL A   1      44.574  30.427  34.979  1.00  0.00     0.031 C 
ATOM     70  C   UNL A   1      45.976  29.259  32.664  1.00  0.00     0.034 A 
BRANCH  57  71
ATOM     71  C   UNL A   1      45.811  27.025  27.174  1.00  0.00     0.023 A 
ATOM     72  C   UNL A   1      47.012  26.540  27.700  1.00  0.00     0.031 A 
ATOM     73  C   UNL A   1      45.600  26.739  25.805  1.00  0.00     0.131 A 
ATOM     74  C   UNL A   1      48.018  26.015  26.894  1.00  0.00     0.055 A 
ATOM     75  C   UNL A   1      46.584  26.131  25.002  1.00  0.00     0.041 A 
ATOM     76  F   UNL A   1      44.474  27.041  25.146  1.00  0.00    -0.206 F 
ATOM     77  C   UNL A   1      47.824  25.810  25.537  1.00  0.00     0.022 A 
BRANCH  74  78
ATOM     78  S   UNL A   1      49.619  25.793  27.693  1.00  0.00     0.124 S 
ATOM     79  O   UNL A   1      50.479  26.643  26.872  1.00  0.00    -0.237 OA
ATOM     80  O   UNL A   1      49.350  26.266  29.047  1.00  0.00    -0.237 OA
ATOM     81  O   UNL A   1      49.860  24.359  27.566  1.00  0.00    -0.744 OA
ENDBRANCH  74  78
ENDBRANCH  57  71
BRANCH  58  82
ATOM     82  C   UNL A   1      40.141  32.901  33.163  1.00  0.00     0.023 A 
ATOM     83  C   UNL A   1      39.710  32.052  34.230  1.00  0.00     0.031 A 
ATOM     84  C   UNL A   1      39.227  33.915  32.854  1.00  0.00     0.131 A 
ATOM     85  C   UNL A   1      38.515  32.319  34.964  1.00  0.00     0.055 A 
ATOM     86  C   UNL A   1      37.950  34.044  33.439  1.00  0.00     0.041 A 
ATOM     87  F   UNL A   1      39.618  34.953  32.119  1.00  0.00    -0.206 F 
ATOM     88  C   UNL A   1      37.628  33.310  34.564  1.00  0.00     0.022 A 
BRANCH  85  89
ATOM     89  S   UNL A   1      38.247  31.589  36.621  1.00  0.00     0.124 S 
ATOM     90  O   UNL A   1      37.024  32.251  37.056  1.00  0.00    -0.237 OA
ATOM     91  O   UNL A   1      38.138  30.161  36.342  1.00  0.00    -0.237 OA
ATOM     92  O   UNL A   1      39.458  31.958  37.356  1.00  0.00    -0.744 OA
ENDBRANCH  85  89
ENDBRANCH  58  82
BRANCH  70  93
ATOM     93  C   UNL A   1      46.483  28.123  33.548  1.00  0.00     0.023 A 
ATOM     94  C   UNL A   1      45.721  26.989  33.866  1.00  0.00     0.031 A 
ATOM     95  C   UNL A   1      47.753  28.134  34.148  1.00  0.00     0.131 A 
ATOM     96  C   UNL A   1      46.006  26.173  34.968  1.00  0.00     0.055 A 
ATOM     97  C   UNL A   1      48.133  27.209  35.135  1.00  0.00     0.041 A 
ATOM     98  F   UNL A   1      48.684  29.029  33.790  1.00  0.00    -0.206 F 
ATOM     99  C   UNL A   1      47.222  26.275  35.616  1.00  0.00     0.022 A 
BRANCH  96 100
ATOM    100  S   UNL A   1      44.654  25.156  35.635  1.00  0.00     0.124 S 
ATOM    101  O   UNL A   1      43.592  26.147  35.824  1.00  0.00    -0.237 OA
ATOM    102  O   UNL A   1      44.421  24.189  34.572  1.00  0.00    -0.237 OA
ATOM    103  O   UNL A   1      45.212  24.611  36.871  1.00  0.00    -0.744 OA
ENDBRANCH  96 100
ENDBRANCH  70  93
ENDBRANCH  44  45
ENDBRANCH  37  39
ENDBRANCH  36  37
ENDBRANCH  35  36
ENDBRANCH  34  35
ENDBRANCH  33  34
ENDBRANCH  32  33
ENDBRANCH   1  32
TORSDOF 24
ENDMDL
