MODEL 1
REMARK VINA RESULT:     -10.4      0.000      0.000
REMARK SMILES O=C(OCCOCCOCCOC(=O)c1cccc2c1cc(Br)c1ccccc12)c1ccc(-c2c3nc(c(-c4cc(S(=O)(=O)[O-])ccc4F)c4ccc([nH]4)c(-c4cc(S(=O)(=O)[O-])ccc4F)c4nc(c(-c5cc(S(=O)(=O)[O-])ccc5F)c5ccc2[nH]5)C=C4)C=C3)cc1
REMARK SMILES IDX 6 1 5 2 4 3 3 4 2 5 1 6 30 7 31 8 92 9 32 10 91 11 33 12
REMARK SMILES IDX 34 13 35 14 85 15 36 16 90 17 84 18 86 19 37 20 89 21 83 22
REMARK SMILES IDX 82 23 38 25 70 26 50 27 69 28 51 29 54 30 68 31 87 32 52 33
REMARK SMILES IDX 53 34 67 36 88 37 55 38 39 39 40 40 48 41 41 42 47 43 49 44
REMARK SMILES IDX 46 45 42 46 43 47 44 48 45 49 71 50 72 51 80 52 73 53 79 54
REMARK SMILES IDX 81 55 78 56 74 57 75 58 76 59 77 60 56 61 57 62 65 63 58 64
REMARK SMILES IDX 64 65 66 66 63 67 59 68 60 69 61 70 62 71 7 72 8 73 9 74
REMARK SMILES IDX 10 75 11 76 12 77 13 78 14 79 15 80 16 81 20 82 17 83 19 84
REMARK SMILES IDX 21 85 18 86 29 87 22 88 24 89 28 90 23 91 25 92 27 93 26 94
REMARK H PARENT 86 24 54 35
REMARK Flexibility Score: inf
ROOT
ATOM      1  O   UNL A   1      41.819  20.359  25.836  1.00  0.00    -0.376 OA
ENDROOT
BRANCH   1   2
ATOM      2  C   UNL A   1      41.897  18.948  26.052  1.00  0.00     0.202 C 
BRANCH   2   3
ATOM      3  C   UNL A   1      43.298  18.364  25.823  1.00  0.00     0.261 C 
BRANCH   3   4
ATOM      4  O   UNL A   1      43.937  18.871  24.641  1.00  0.00    -0.460 OA
BRANCH   4   5
ATOM      5  C   UNL A   1      44.927  19.792  24.524  1.00  0.00     0.338 C 
ATOM      6  O   UNL A   1      45.987  19.409  24.027  1.00  0.00    -0.246 OA
BRANCH   5   7
ATOM      7  C   UNL A   1      44.839  21.233  24.956  1.00  0.00     0.060 A 
ATOM      8  C   UNL A   1      44.979  21.484  26.337  1.00  0.00     0.016 A 
ATOM      9  C   UNL A   1      44.642  22.339  24.128  1.00  0.00     0.016 A 
ATOM     10  C   UNL A   1      44.975  22.788  26.852  1.00  0.00     0.010 A 
ATOM     11  C   UNL A   1      44.670  23.641  24.626  1.00  0.00     0.010 A 
ATOM     12  C   UNL A   1      44.856  23.878  25.987  1.00  0.00    -0.014 A 
BRANCH  12  13
ATOM     13  C   UNL A   1      45.111  25.267  26.426  1.00  0.00     0.031 A 
ATOM     14  C   UNL A   1      43.999  26.190  26.808  1.00  0.00     0.074 A 
ATOM     15  C   UNL A   1      46.366  25.736  26.295  1.00  0.00     0.049 A 
ATOM     16  N   UNL A   1      44.069  27.424  27.235  1.00  0.00    -0.248 NA
ATOM     17  C   UNL A   1      42.629  25.680  26.662  1.00  0.00     0.031 C 
ATOM     18  C   UNL A   1      47.493  24.957  25.783  1.00  0.00     0.029 A 
ATOM     19  N   UNL A   1      46.890  26.980  26.524  1.00  0.00    -0.354 N 
ATOM     20  C   UNL A   1      42.759  27.815  27.474  1.00  0.00     0.074 A 
ATOM     21  C   UNL A   1      41.911  26.731  27.038  1.00  0.00     0.031 C 
ATOM     22  C   UNL A   1      48.572  25.749  25.712  1.00  0.00     0.029 A 
ATOM     23  C   UNL A   1      48.215  27.086  26.176  1.00  0.00     0.049 A 
ATOM     24  H   UNL A   1      46.369  27.726  26.900  1.00  0.00     0.167 HD
ATOM     25  C   UNL A   1      42.315  28.959  28.047  1.00  0.00     0.034 A 
ATOM     26  C   UNL A   1      49.053  28.139  26.234  1.00  0.00     0.034 A 
ATOM     27  C   UNL A   1      43.176  30.062  28.380  1.00  0.00     0.049 A 
ATOM     28  C   UNL A   1      48.556  29.414  26.855  1.00  0.00     0.074 A 
ATOM     29  C   UNL A   1      42.848  31.256  28.994  1.00  0.00     0.029 A 
ATOM     30  N   UNL A   1      44.534  30.118  28.096  1.00  0.00    -0.354 N 
ATOM     31  N   UNL A   1      47.344  29.706  27.272  1.00  0.00    -0.248 NA
ATOM     32  C   UNL A   1      49.535  30.487  27.062  1.00  0.00     0.031 C 
ATOM     33  C   UNL A   1      43.994  32.054  29.031  1.00  0.00     0.029 A 
ATOM     34  C   UNL A   1      45.054  31.336  28.497  1.00  0.00     0.049 A 
ATOM     35  H   UNL A   1      45.052  29.395  27.672  1.00  0.00     0.167 HD
ATOM     36  C   UNL A   1      47.420  30.985  27.810  1.00  0.00     0.074 A 
ATOM     37  C   UNL A   1      48.803  31.403  27.685  1.00  0.00     0.031 C 
ATOM     38  C   UNL A   1      46.435  31.743  28.359  1.00  0.00     0.034 A 
BRANCH  25  39
ATOM     39  C   UNL A   1      40.855  29.050  28.413  1.00  0.00     0.023 A 
ATOM     40  C   UNL A   1      40.419  28.886  29.739  1.00  0.00     0.031 A 
ATOM     41  C   UNL A   1      39.881  29.191  27.406  1.00  0.00     0.131 A 
ATOM     42  C   UNL A   1      39.044  28.858  30.019  1.00  0.00     0.055 A 
ATOM     43  C   UNL A   1      38.515  29.191  27.693  1.00  0.00     0.041 A 
ATOM     44  F   UNL A   1      40.245  29.348  26.123  1.00  0.00    -0.206 F 
ATOM     45  C   UNL A   1      38.092  29.016  29.005  1.00  0.00     0.022 A 
BRANCH  42  46
ATOM     46  S   UNL A   1      38.427  28.571  31.700  1.00  0.00     0.124 S 
ATOM     47  O   UNL A   1      38.651  27.136  31.857  1.00  0.00    -0.237 OA
ATOM     48  O   UNL A   1      39.301  29.429  32.497  1.00  0.00    -0.237 OA
ATOM     49  O   UNL A   1      37.029  28.979  31.635  1.00  0.00    -0.744 OA
ENDBRANCH  42  46
ENDBRANCH  25  39
BRANCH  26  50
ATOM     50  C   UNL A   1      50.463  27.933  25.800  1.00  0.00     0.023 A 
ATOM     51  C   UNL A   1      50.813  27.993  24.437  1.00  0.00     0.031 A 
ATOM     52  C   UNL A   1      51.422  27.467  26.713  1.00  0.00     0.131 A 
ATOM     53  C   UNL A   1      52.063  27.516  24.021  1.00  0.00     0.055 A 
ATOM     54  C   UNL A   1      52.689  27.053  26.300  1.00  0.00     0.041 A 
ATOM     55  F   UNL A   1      51.121  27.367  28.017  1.00  0.00    -0.206 F 
ATOM     56  C   UNL A   1      53.008  27.057  24.945  1.00  0.00     0.022 A 
BRANCH  53  57
ATOM     57  S   UNL A   1      52.447  27.322  22.256  1.00  0.00     0.124 S 
ATOM     58  O   UNL A   1      52.916  28.657  21.898  1.00  0.00    -0.237 OA
ATOM     59  O   UNL A   1      53.470  26.280  22.286  1.00  0.00    -0.237 OA
ATOM     60  O   UNL A   1      51.174  26.922  21.667  1.00  0.00    -0.744 OA
ENDBRANCH  53  57
ENDBRANCH  26  50
BRANCH  38  61
ATOM     61  C   UNL A   1      46.789  33.121  28.856  1.00  0.00     0.023 A 
ATOM     62  C   UNL A   1      47.107  33.320  30.214  1.00  0.00     0.031 A 
ATOM     63  C   UNL A   1      46.666  34.249  28.027  1.00  0.00     0.131 A 
ATOM     64  C   UNL A   1      47.256  34.620  30.709  1.00  0.00     0.055 A 
ATOM     65  C   UNL A   1      46.858  35.540  28.517  1.00  0.00     0.041 A 
ATOM     66  F   UNL A   1      46.351  34.109  26.730  1.00  0.00    -0.206 F 
ATOM     67  C   UNL A   1      47.140  35.731  29.866  1.00  0.00     0.022 A 
BRANCH  64  68
ATOM     68  S   UNL A   1      47.509  34.922  32.479  1.00  0.00     0.124 S 
ATOM     69  O   UNL A   1      48.119  33.668  32.913  1.00  0.00    -0.237 OA
ATOM     70  O   UNL A   1      48.401  36.080  32.470  1.00  0.00    -0.237 OA
ATOM     71  O   UNL A   1      46.165  35.172  32.990  1.00  0.00    -0.744 OA
ENDBRANCH  64  68
ENDBRANCH  38  61
ENDBRANCH  12  13
ENDBRANCH   5   7
ENDBRANCH   4   5
ENDBRANCH   3   4
ENDBRANCH   2   3
ENDBRANCH   1   2
BRANCH   1  72
ATOM     72  C   UNL A   1      41.339  21.070  26.982  1.00  0.00     0.188 C 
BRANCH  72  73
ATOM     73  C   UNL A   1      39.967  21.695  26.734  1.00  0.00     0.188 C 
BRANCH  73  74
ATOM     74  O   UNL A   1      39.809  23.024  27.219  1.00  0.00    -0.376 OA
BRANCH  74  75
ATOM     75  C   UNL A   1      38.846  23.835  26.538  1.00  0.00     0.202 C 
BRANCH  75  76
ATOM     76  C   UNL A   1      37.794  23.093  25.702  1.00  0.00     0.261 C 
BRANCH  76  77
ATOM     77  O   UNL A   1      36.823  23.951  25.061  1.00  0.00    -0.460 OA
BRANCH  77  78
ATOM     78  C   UNL A   1      35.531  23.712  25.375  1.00  0.00     0.338 C 
ATOM     79  O   UNL A   1      35.107  23.162  26.396  1.00  0.00    -0.246 OA
BRANCH  78  80
ATOM     80  C   UNL A   1      34.632  24.136  24.291  1.00  0.00     0.067 A 
ATOM     81  C   UNL A   1      34.426  23.190  23.286  1.00  0.00     0.016 A 
ATOM     82  C   UNL A   1      33.867  25.337  24.356  1.00  0.00    -0.002 A 
ATOM     83  C   UNL A   1      33.447  23.419  22.338  1.00  0.00     0.002 A 
ATOM     84  C   UNL A   1      32.852  25.575  23.393  1.00  0.00    -0.010 A 
ATOM     85  C   UNL A   1      34.070  26.304  25.353  1.00  0.00     0.026 A 
ATOM     86  C   UNL A   1      32.685  24.588  22.388  1.00  0.00     0.009 A 
ATOM     87  C   UNL A   1      32.027  26.761  23.484  1.00  0.00    -0.009 A 
ATOM     88  C   UNL A   1      33.299  27.465  25.430  1.00  0.00     0.026 A 
ATOM     89  C   UNL A   1      32.254  27.711  24.518  1.00  0.00    -0.004 A 
ATOM     90  C   UNL A   1      30.957  27.030  22.590  1.00  0.00     0.009 A 
ATOM     91  Br  UNL A   1      33.738  28.657  26.855  1.00  0.00    -0.050 Br
ATOM     92  C   UNL A   1      31.416  28.854  24.600  1.00  0.00     0.010 A 
ATOM     93  C   UNL A   1      30.137  28.155  22.702  1.00  0.00     0.001 A 
ATOM     94  C   UNL A   1      30.367  29.070  23.711  1.00  0.00     0.001 A 
ENDBRANCH  78  80
ENDBRANCH  77  78
ENDBRANCH  76  77
ENDBRANCH  75  76
ENDBRANCH  74  75
ENDBRANCH  73  74
ENDBRANCH  72  73
ENDBRANCH   1  72
TORSDOF 20
ENDMDL
MODEL 2
REMARK VINA RESULT:     -10.4      5.385      9.527
REMARK SMILES O=C(OCCOCCOCCOC(=O)c1cccc2c1cc(Br)c1ccccc12)c1ccc(-c2c3nc(c(-c4cc(S(=O)(=O)[O-])ccc4F)c4ccc([nH]4)c(-c4cc(S(=O)(=O)[O-])ccc4F)c4nc(c(-c5cc(S(=O)(=O)[O-])ccc5F)c5ccc2[nH]5)C=C4)C=C3)cc1
REMARK SMILES IDX 6 1 5 2 4 3 3 4 2 5 1 6 30 7 31 8 92 9 32 10 91 11 33 12
REMARK SMILES IDX 34 13 35 14 85 15 36 16 90 17 84 18 86 19 37 20 89 21 83 22
REMARK SMILES IDX 82 23 38 25 70 26 50 27 69 28 51 29 54 30 68 31 87 32 52 33
REMARK SMILES IDX 53 34 67 36 88 37 55 38 39 39 40 40 48 41 41 42 47 43 49 44
REMARK SMILES IDX 46 45 42 46 43 47 44 48 45 49 71 50 72 51 80 52 73 53 79 54
REMARK SMILES IDX 81 55 78 56 74 57 75 58 76 59 77 60 56 61 57 62 65 63 58 64
REMARK SMILES IDX 64 65 66 66 63 67 59 68 60 69 61 70 62 71 7 72 8 73 9 74
REMARK SMILES IDX 10 75 11 76 12 77 13 78 14 79 15 80 16 81 20 82 17 83 19 84
REMARK SMILES IDX 21 85 18 86 29 87 22 88 24 89 28 90 23 91 25 92 27 93 26 94
REMARK H PARENT 86 24 54 35
REMARK Flexibility Score: inf
ROOT
ATOM      1  O   UNL A   1      31.248  29.149  24.162  1.00  0.00    -0.376 OA
ENDROOT
BRANCH   1   2
ATOM      2  C   UNL A   1      30.839  30.226  25.007  1.00  0.00     0.202 C 
BRANCH   2   3
ATOM      3  C   UNL A   1      31.607  30.297  26.334  1.00  0.00     0.261 C 
BRANCH   3   4
ATOM      4  O   UNL A   1      32.869  30.972  26.224  1.00  0.00    -0.460 OA
BRANCH   4   5
ATOM      5  C   UNL A   1      33.637  31.529  27.195  1.00  0.00     0.338 C 
ATOM      6  O   UNL A   1      33.229  32.578  27.694  1.00  0.00    -0.246 OA
BRANCH   5   7
ATOM      7  C   UNL A   1      34.943  30.977  27.704  1.00  0.00     0.060 A 
ATOM      8  C   UNL A   1      35.959  31.917  27.977  1.00  0.00     0.016 A 
ATOM      9  C   UNL A   1      35.244  29.634  27.938  1.00  0.00     0.016 A 
ATOM     10  C   UNL A   1      37.196  31.530  28.512  1.00  0.00     0.010 A 
ATOM     11  C   UNL A   1      36.459  29.242  28.500  1.00  0.00     0.010 A 
ATOM     12  C   UNL A   1      37.436  30.187  28.810  1.00  0.00    -0.014 A 
BRANCH  12  13
ATOM     13  C   UNL A   1      38.600  29.752  29.612  1.00  0.00     0.031 A 
ATOM     14  C   UNL A   1      38.963  30.418  30.900  1.00  0.00     0.074 A 
ATOM     15  C   UNL A   1      39.435  28.856  29.054  1.00  0.00     0.049 A 
ATOM     16  N   UNL A   1      39.937  30.132  31.724  1.00  0.00    -0.248 NA
ATOM     17  C   UNL A   1      38.151  31.574  31.304  1.00  0.00     0.031 C 
ATOM     18  C   UNL A   1      39.249  28.261  27.730  1.00  0.00     0.029 A 
ATOM     19  N   UNL A   1      40.621  28.334  29.497  1.00  0.00    -0.354 N 
ATOM     20  C   UNL A   1      39.817  31.028  32.776  1.00  0.00     0.074 A 
ATOM     21  C   UNL A   1      38.748  31.937  32.433  1.00  0.00     0.031 C 
ATOM     22  C   UNL A   1      40.299  27.474  27.456  1.00  0.00     0.029 A 
ATOM     23  C   UNL A   1      41.227  27.506  28.583  1.00  0.00     0.049 A 
ATOM     24  H   UNL A   1      41.003  28.533  30.382  1.00  0.00     0.167 HD
ATOM     25  C   UNL A   1      40.509  31.056  33.940  1.00  0.00     0.034 A 
ATOM     26  C   UNL A   1      42.395  26.837  28.648  1.00  0.00     0.034 A 
ATOM     27  C   UNL A   1      41.633  30.202  34.211  1.00  0.00     0.049 A 
ATOM     28  C   UNL A   1      43.172  26.880  29.934  1.00  0.00     0.074 A 
ATOM     29  C   UNL A   1      42.391  30.114  35.363  1.00  0.00     0.029 A 
ATOM     30  N   UNL A   1      42.183  29.307  33.302  1.00  0.00    -0.354 N 
ATOM     31  N   UNL A   1      42.930  27.587  31.015  1.00  0.00    -0.248 NA
ATOM     32  C   UNL A   1      44.347  26.009  30.038  1.00  0.00     0.031 C 
ATOM     33  C   UNL A   1      43.430  29.208  35.132  1.00  0.00     0.029 A 
ATOM     34  C   UNL A   1      43.286  28.682  33.857  1.00  0.00     0.049 A 
ATOM     35  H   UNL A   1      41.837  29.140  32.395  1.00  0.00     0.167 HD
ATOM     36  C   UNL A   1      43.909  27.230  31.935  1.00  0.00     0.074 A 
ATOM     37  C   UNL A   1      44.734  26.228  31.289  1.00  0.00     0.031 C 
ATOM     38  C   UNL A   1      44.105  27.689  33.198  1.00  0.00     0.034 A 
BRANCH  25  39
ATOM     39  C   UNL A   1      40.032  31.985  35.029  1.00  0.00     0.023 A 
ATOM     40  C   UNL A   1      40.532  33.293  35.148  1.00  0.00     0.031 A 
ATOM     41  C   UNL A   1      39.153  31.516  36.024  1.00  0.00     0.131 A 
ATOM     42  C   UNL A   1      40.153  34.082  36.245  1.00  0.00     0.055 A 
ATOM     43  C   UNL A   1      38.758  32.315  37.097  1.00  0.00     0.041 A 
ATOM     44  F   UNL A   1      38.650  30.272  35.958  1.00  0.00    -0.206 F 
ATOM     45  C   UNL A   1      39.265  33.603  37.214  1.00  0.00     0.022 A 
BRANCH  42  46
ATOM     46  S   UNL A   1      40.829  35.748  36.488  1.00  0.00     0.124 S 
ATOM     47  O   UNL A   1      41.059  35.766  37.931  1.00  0.00    -0.237 OA
ATOM     48  O   UNL A   1      42.035  35.711  35.665  1.00  0.00    -0.237 OA
ATOM     49  O   UNL A   1      39.767  36.629  36.016  1.00  0.00    -0.744 OA
ENDBRANCH  42  46
ENDBRANCH  25  39
BRANCH  26  50
ATOM     50  C   UNL A   1      42.776  25.986  27.486  1.00  0.00     0.023 A 
ATOM     51  C   UNL A   1      42.250  24.688  27.341  1.00  0.00     0.031 A 
ATOM     52  C   UNL A   1      43.823  26.379  26.636  1.00  0.00     0.131 A 
ATOM     53  C   UNL A   1      42.830  23.804  26.421  1.00  0.00     0.055 A 
ATOM     54  C   UNL A   1      44.354  25.515  25.678  1.00  0.00     0.041 A 
ATOM     55  F   UNL A   1      44.372  27.597  26.759  1.00  0.00    -0.206 F 
ATOM     56  C   UNL A   1      43.871  24.213  25.581  1.00  0.00     0.022 A 
BRANCH  53  57
ATOM     57  S   UNL A   1      42.365  22.048  26.395  1.00  0.00     0.124 S 
ATOM     58  O   UNL A   1      43.259  21.512  25.373  1.00  0.00    -0.237 OA
ATOM     59  O   UNL A   1      42.660  21.642  27.767  1.00  0.00    -0.237 OA
ATOM     60  O   UNL A   1      40.949  22.070  26.047  1.00  0.00    -0.744 OA
ENDBRANCH  53  57
ENDBRANCH  26  50
BRANCH  38  61
ATOM     61  C   UNL A   1      45.268  27.140  33.984  1.00  0.00     0.023 A 
ATOM     62  C   UNL A   1      45.066  26.091  34.901  1.00  0.00     0.031 A 
ATOM     63  C   UNL A   1      46.533  27.750  33.934  1.00  0.00     0.131 A 
ATOM     64  C   UNL A   1      46.105  25.708  35.758  1.00  0.00     0.055 A 
ATOM     65  C   UNL A   1      47.578  27.335  34.760  1.00  0.00     0.041 A 
ATOM     66  F   UNL A   1      46.768  28.762  33.085  1.00  0.00    -0.206 F 
ATOM     67  C   UNL A   1      47.361  26.319  35.687  1.00  0.00     0.022 A 
BRANCH  64  68
ATOM     68  S   UNL A   1      45.836  24.471  37.057  1.00  0.00     0.124 S 
ATOM     69  O   UNL A   1      44.391  24.552  37.253  1.00  0.00    -0.237 OA
ATOM     70  O   UNL A   1      46.313  23.245  36.420  1.00  0.00    -0.237 OA
ATOM     71  O   UNL A   1      46.645  24.951  38.173  1.00  0.00    -0.744 OA
ENDBRANCH  64  68
ENDBRANCH  38  61
ENDBRANCH  12  13
ENDBRANCH   5   7
ENDBRANCH   4   5
ENDBRANCH   3   4
ENDBRANCH   2   3
ENDBRANCH   1   2
BRANCH   1  72
ATOM     72  C   UNL A   1      30.604  29.172  22.883  1.00  0.00     0.188 C 
BRANCH  72  73
ATOM     73  C   UNL A   1      30.473  27.773  22.284  1.00  0.00     0.188 C 
BRANCH  73  74
ATOM     74  O   UNL A   1      31.436  26.826  22.736  1.00  0.00    -0.376 OA
BRANCH  74  75
ATOM     75  C   UNL A   1      31.177  25.457  22.412  1.00  0.00     0.202 C 
BRANCH  75  76
ATOM     76  C   UNL A   1      30.276  24.680  23.383  1.00  0.00     0.261 C 
BRANCH  76  77
ATOM     77  O   UNL A   1      30.061  25.332  24.654  1.00  0.00    -0.460 OA
BRANCH  77  78
ATOM     78  C   UNL A   1      30.726  24.805  25.705  1.00  0.00     0.338 C 
ATOM     79  O   UNL A   1      30.230  24.285  26.709  1.00  0.00    -0.246 OA
BRANCH  78  80
ATOM     80  C   UNL A   1      32.179  24.979  25.557  1.00  0.00     0.067 A 
ATOM     81  C   UNL A   1      32.653  26.264  25.821  1.00  0.00     0.016 A 
ATOM     82  C   UNL A   1      33.065  23.880  25.358  1.00  0.00    -0.002 A 
ATOM     83  C   UNL A   1      34.017  26.473  25.905  1.00  0.00     0.002 A 
ATOM     84  C   UNL A   1      34.467  24.084  25.454  1.00  0.00    -0.010 A 
ATOM     85  C   UNL A   1      32.605  22.584  25.080  1.00  0.00     0.026 A 
ATOM     86  C   UNL A   1      34.900  25.408  25.718  1.00  0.00     0.009 A 
ATOM     87  C   UNL A   1      35.375  22.966  25.316  1.00  0.00    -0.009 A 
ATOM     88  C   UNL A   1      33.476  21.506  24.916  1.00  0.00     0.026 A 
ATOM     89  C   UNL A   1      34.869  21.664  25.049  1.00  0.00    -0.004 A 
ATOM     90  C   UNL A   1      36.783  23.089  25.460  1.00  0.00     0.009 A 
ATOM     91  Br  UNL A   1      32.651  19.826  24.535  1.00  0.00    -0.050 Br
ATOM     92  C   UNL A   1      35.779  20.579  24.942  1.00  0.00     0.010 A 
ATOM     93  C   UNL A   1      37.655  22.003  25.365  1.00  0.00     0.001 A 
ATOM     94  C   UNL A   1      37.151  20.743  25.106  1.00  0.00     0.001 A 
ENDBRANCH  78  80
ENDBRANCH  77  78
ENDBRANCH  76  77
ENDBRANCH  75  76
ENDBRANCH  74  75
ENDBRANCH  73  74
ENDBRANCH  72  73
ENDBRANCH   1  72
TORSDOF 20
ENDMDL
MODEL 3
REMARK VINA RESULT:     -10.2      7.750     14.366
REMARK SMILES O=C(OCCOCCOCCOC(=O)c1cccc2c1cc(Br)c1ccccc12)c1ccc(-c2c3nc(c(-c4cc(S(=O)(=O)[O-])ccc4F)c4ccc([nH]4)c(-c4cc(S(=O)(=O)[O-])ccc4F)c4nc(c(-c5cc(S(=O)(=O)[O-])ccc5F)c5ccc2[nH]5)C=C4)C=C3)cc1
REMARK SMILES IDX 6 1 5 2 4 3 3 4 2 5 1 6 30 7 31 8 92 9 32 10 91 11 33 12
REMARK SMILES IDX 34 13 35 14 85 15 36 16 90 17 84 18 86 19 37 20 89 21 83 22
REMARK SMILES IDX 82 23 38 25 70 26 50 27 69 28 51 29 54 30 68 31 87 32 52 33
REMARK SMILES IDX 53 34 67 36 88 37 55 38 39 39 40 40 48 41 41 42 47 43 49 44
REMARK SMILES IDX 46 45 42 46 43 47 44 48 45 49 71 50 72 51 80 52 73 53 79 54
REMARK SMILES IDX 81 55 78 56 74 57 75 58 76 59 77 60 56 61 57 62 65 63 58 64
REMARK SMILES IDX 64 65 66 66 63 67 59 68 60 69 61 70 62 71 7 72 8 73 9 74
REMARK SMILES IDX 10 75 11 76 12 77 13 78 14 79 15 80 16 81 20 82 17 83 19 84
REMARK SMILES IDX 21 85 18 86 29 87 22 88 24 89 28 90 23 91 25 92 27 93 26 94
REMARK H PARENT 86 24 54 35
REMARK Flexibility Score: inf
ROOT
ATOM      1  O   UNL A   1      46.847  41.092  25.854  1.00  0.00    -0.376 OA
ENDROOT
BRANCH   1   2
ATOM      2  C   UNL A   1      46.771  40.368  27.085  1.00  0.00     0.202 C 
BRANCH   2   3
ATOM      3  C   UNL A   1      46.476  38.873  26.906  1.00  0.00     0.261 C 
BRANCH   3   4
ATOM      4  O   UNL A   1      46.357  38.165  28.150  1.00  0.00    -0.460 OA
BRANCH   4   5
ATOM      5  C   UNL A   1      46.872  36.963  28.511  1.00  0.00     0.338 C 
ATOM      6  O   UNL A   1      48.076  36.927  28.767  1.00  0.00    -0.246 OA
BRANCH   5   7
ATOM      7  C   UNL A   1      46.099  35.674  28.615  1.00  0.00     0.060 A 
ATOM      8  C   UNL A   1      45.008  35.522  27.732  1.00  0.00     0.016 A 
ATOM      9  C   UNL A   1      46.357  34.617  29.489  1.00  0.00     0.016 A 
ATOM     10  C   UNL A   1      44.251  34.342  27.694  1.00  0.00     0.010 A 
ATOM     11  C   UNL A   1      45.631  33.427  29.437  1.00  0.00     0.010 A 
ATOM     12  C   UNL A   1      44.586  33.272  28.527  1.00  0.00    -0.014 A 
BRANCH  12  13
ATOM     13  C   UNL A   1      44.007  31.923  28.351  1.00  0.00     0.031 A 
ATOM     14  C   UNL A   1      42.784  31.486  29.092  1.00  0.00     0.074 A 
ATOM     15  C   UNL A   1      44.722  31.032  27.640  1.00  0.00     0.049 A 
ATOM     16  N   UNL A   1      42.148  30.346  29.023  1.00  0.00    -0.248 NA
ATOM     17  C   UNL A   1      42.217  32.435  30.060  1.00  0.00     0.031 C 
ATOM     18  C   UNL A   1      46.010  31.318  27.005  1.00  0.00     0.029 A 
ATOM     19  N   UNL A   1      44.504  29.705  27.380  1.00  0.00    -0.354 N 
ATOM     20  C   UNL A   1      41.068  30.464  29.886  1.00  0.00     0.074 A 
ATOM     21  C   UNL A   1      41.199  31.740  30.551  1.00  0.00     0.031 C 
ATOM     22  C   UNL A   1      46.480  30.193  26.449  1.00  0.00     0.029 A 
ATOM     23  C   UNL A   1      45.529  29.110  26.685  1.00  0.00     0.049 A 
ATOM     24  H   UNL A   1      43.693  29.225  27.663  1.00  0.00     0.167 HD
ATOM     25  C   UNL A   1      40.041  29.601  30.069  1.00  0.00     0.034 A 
ATOM     26  C   UNL A   1      45.683  27.837  26.272  1.00  0.00     0.034 A 
ATOM     27  C   UNL A   1      39.989  28.295  29.468  1.00  0.00     0.049 A 
ATOM     28  C   UNL A   1      44.549  26.874  26.489  1.00  0.00     0.074 A 
ATOM     29  C   UNL A   1      38.987  27.347  29.552  1.00  0.00     0.029 A 
ATOM     30  N   UNL A   1      41.001  27.740  28.696  1.00  0.00    -0.354 N 
ATOM     31  N   UNL A   1      43.425  27.064  27.143  1.00  0.00    -0.248 NA
ATOM     32  C   UNL A   1      44.671  25.545  25.881  1.00  0.00     0.031 C 
ATOM     33  C   UNL A   1      39.416  26.201  28.878  1.00  0.00     0.029 A 
ATOM     34  C   UNL A   1      40.660  26.453  28.319  1.00  0.00     0.049 A 
ATOM     35  H   UNL A   1      41.839  28.196  28.452  1.00  0.00     0.167 HD
ATOM     36  C   UNL A   1      42.696  25.888  27.006  1.00  0.00     0.074 A 
ATOM     37  C   UNL A   1      43.500  25.000  26.188  1.00  0.00     0.031 C 
ATOM     38  C   UNL A   1      41.475  25.574  27.509  1.00  0.00     0.034 A 
BRANCH  25  39
ATOM     39  C   UNL A   1      38.863  30.062  30.891  1.00  0.00     0.023 A 
ATOM     40  C   UNL A   1      37.926  30.978  30.383  1.00  0.00     0.031 A 
ATOM     41  C   UNL A   1      38.742  29.665  32.237  1.00  0.00     0.131 A 
ATOM     42  C   UNL A   1      36.915  31.472  31.221  1.00  0.00     0.055 A 
ATOM     43  C   UNL A   1      37.718  30.138  33.057  1.00  0.00     0.041 A 
ATOM     44  F   UNL A   1      39.614  28.794  32.772  1.00  0.00    -0.206 F 
ATOM     45  C   UNL A   1      36.802  31.053  32.551  1.00  0.00     0.022 A 
BRANCH  42  46
ATOM     46  S   UNL A   1      35.729  32.714  30.638  1.00  0.00     0.124 S 
ATOM     47  O   UNL A   1      35.717  32.460  29.199  1.00  0.00    -0.237 OA
ATOM     48  O   UNL A   1      34.511  32.331  31.349  1.00  0.00    -0.237 OA
ATOM     49  O   UNL A   1      36.323  33.983  31.041  1.00  0.00    -0.744 OA
ENDBRANCH  42  46
ENDBRANCH  25  39
BRANCH  26  50
ATOM     50  C   UNL A   1      46.914  27.496  25.506  1.00  0.00     0.023 A 
ATOM     51  C   UNL A   1      47.098  27.969  24.192  1.00  0.00     0.031 A 
ATOM     52  C   UNL A   1      47.808  26.531  25.996  1.00  0.00     0.131 A 
ATOM     53  C   UNL A   1      48.104  27.412  23.389  1.00  0.00     0.055 A 
ATOM     54  C   UNL A   1      48.847  26.026  25.214  1.00  0.00     0.041 A 
ATOM     55  F   UNL A   1      47.652  26.033  27.233  1.00  0.00    -0.206 F 
ATOM     56  C   UNL A   1      48.986  26.453  23.896  1.00  0.00     0.022 A 
BRANCH  53  57
ATOM     57  S   UNL A   1      48.199  27.794  21.616  1.00  0.00     0.124 S 
ATOM     58  O   UNL A   1      49.255  28.800  21.578  1.00  0.00    -0.237 OA
ATOM     59  O   UNL A   1      48.546  26.493  21.050  1.00  0.00    -0.237 OA
ATOM     60  O   UNL A   1      46.859  28.272  21.293  1.00  0.00    -0.744 OA
ENDBRANCH  53  57
ENDBRANCH  26  50
BRANCH  38  61
ATOM     61  C   UNL A   1      40.915  24.205  27.221  1.00  0.00     0.023 A 
ATOM     62  C   UNL A   1      39.749  24.070  26.444  1.00  0.00     0.031 A 
ATOM     63  C   UNL A   1      41.446  23.057  27.834  1.00  0.00     0.131 A 
ATOM     64  C   UNL A   1      39.131  22.819  26.331  1.00  0.00     0.055 A 
ATOM     65  C   UNL A   1      40.851  21.806  27.682  1.00  0.00     0.041 A 
ATOM     66  F   UNL A   1      42.549  23.140  28.595  1.00  0.00    -0.206 F 
ATOM     67  C   UNL A   1      39.680  21.685  26.939  1.00  0.00     0.022 A 
BRANCH  64  68
ATOM     68  S   UNL A   1      37.544  22.636  25.471  1.00  0.00     0.124 S 
ATOM     69  O   UNL A   1      37.310  23.991  24.981  1.00  0.00    -0.237 OA
ATOM     70  O   UNL A   1      37.862  21.646  24.444  1.00  0.00    -0.237 OA
ATOM     71  O   UNL A   1      36.629  22.183  26.514  1.00  0.00    -0.744 OA
ENDBRANCH  64  68
ENDBRANCH  38  61
ENDBRANCH  12  13
ENDBRANCH   5   7
ENDBRANCH   4   5
ENDBRANCH   3   4
ENDBRANCH   2   3
ENDBRANCH   1   2
BRANCH   1  72
ATOM     72  C   UNL A   1      46.072  42.295  25.870  1.00  0.00     0.188 C 
BRANCH  72  73
ATOM     73  C   UNL A   1      46.003  42.949  24.491  1.00  0.00     0.188 C 
BRANCH  73  74
ATOM     74  O   UNL A   1      45.509  44.284  24.476  1.00  0.00    -0.376 OA
BRANCH  74  75
ATOM     75  C   UNL A   1      44.162  44.455  24.025  1.00  0.00     0.202 C 
BRANCH  75  76
ATOM     76  C   UNL A   1      43.602  43.359  23.106  1.00  0.00     0.261 C 
BRANCH  76  77
ATOM     77  O   UNL A   1      43.837  43.579  21.697  1.00  0.00    -0.460 OA
BRANCH  77  78
ATOM     78  C   UNL A   1      43.108  42.814  20.854  1.00  0.00     0.338 C 
ATOM     79  O   UNL A   1      42.964  41.589  20.905  1.00  0.00    -0.246 OA
BRANCH  78  80
ATOM     80  C   UNL A   1      42.524  43.622  19.773  1.00  0.00     0.067 A 
ATOM     81  C   UNL A   1      41.178  43.370  19.503  1.00  0.00     0.016 A 
ATOM     82  C   UNL A   1      43.214  44.718  19.179  1.00  0.00    -0.002 A 
ATOM     83  C   UNL A   1      40.495  44.214  18.649  1.00  0.00     0.002 A 
ATOM     84  C   UNL A   1      42.517  45.597  18.308  1.00  0.00    -0.010 A 
ATOM     85  C   UNL A   1      44.570  44.978  19.430  1.00  0.00     0.026 A 
ATOM     86  C   UNL A   1      41.153  45.296  18.061  1.00  0.00     0.009 A 
ATOM     87  C   UNL A   1      43.188  46.750  17.748  1.00  0.00    -0.009 A 
ATOM     88  C   UNL A   1      45.233  46.072  18.869  1.00  0.00     0.026 A 
ATOM     89  C   UNL A   1      44.560  46.988  18.038  1.00  0.00    -0.004 A 
ATOM     90  C   UNL A   1      42.534  47.700  16.920  1.00  0.00     0.009 A 
ATOM     91  Br  UNL A   1      47.078  46.244  19.329  1.00  0.00    -0.050 Br
ATOM     92  C   UNL A   1      45.190  48.139  17.495  1.00  0.00     0.010 A 
ATOM     93  C   UNL A   1      43.173  48.833  16.411  1.00  0.00     0.001 A 
ATOM     94  C   UNL A   1      44.505  49.053  16.700  1.00  0.00     0.001 A 
ENDBRANCH  78  80
ENDBRANCH  77  78
ENDBRANCH  76  77
ENDBRANCH  75  76
ENDBRANCH  74  75
ENDBRANCH  73  74
ENDBRANCH  72  73
ENDBRANCH   1  72
TORSDOF 20
ENDMDL
