MODEL 1
REMARK VINA RESULT:     -11.3      0.000      0.000
REMARK SMILES C[C@@H](C(=O)OCCOCCOCCOC(=O)c1ccc(-c2c3nc(c(-c4cc(S(=O)(=O)[O-])ccc4F)c4ccc([nH]4)c(-c4cc(S(=O)(=O)[O-])ccc4F)c4nc(c(-c5cc(S(=O)(=O)[O-])ccc5F)c5ccc2[nH]5)C=C4)C=C3)cc1)c1ccc2c3cc(Cl)ccc3n(C(=O)c3cocn3)c2c1
REMARK SMILES IDX 9 1 8 2 7 3 6 4 5 5 3 6 4 7 2 8 1 9 80 10 81 11 100 12 82 13
REMARK SMILES IDX 99 14 83 15 91 16 84 17 90 18 85 19 89 20 86 21 88 22 87 23
REMARK SMILES IDX 92 24 93 25 94 26 95 27 98 28 96 29 97 30 10 31 11 32 12 33
REMARK SMILES IDX 13 34 14 35 15 36 16 37 17 38 18 39 79 40 19 41 78 42 20 43
REMARK SMILES IDX 21 44 22 45 72 46 23 47 77 48 71 49 73 50 24 51 76 52 70 53
REMARK SMILES IDX 69 54 25 56 57 57 37 58 56 59 38 60 41 61 55 62 74 63 39 64
REMARK SMILES IDX 40 65 54 67 75 68 42 69 26 70 27 71 35 72 28 73 34 74 36 75
REMARK SMILES IDX 33 76 29 77 30 78 31 79 32 80 58 81 59 82 67 83 60 84 66 85
REMARK SMILES IDX 68 86 65 87 61 88 62 89 63 90 64 91 43 92 44 93 52 94 45 95
REMARK SMILES IDX 51 96 53 97 50 98 46 99 47 100 48 101 49 102
REMARK H PARENT 73 55 41 66
REMARK Flexibility Score: inf
ROOT
ATOM      1  C   UNL A   1      31.740  29.013  27.584  1.00  0.00     0.188 C 
ENDROOT
BRANCH   1   2
ATOM      2  O   UNL A   1      31.438  27.620  27.540  1.00  0.00    -0.376 OA
BRANCH   2   3
ATOM      3  C   UNL A   1      31.090  27.039  26.285  1.00  0.00     0.202 C 
BRANCH   3   4
ATOM      4  C   UNL A   1      30.955  27.995  25.095  1.00  0.00     0.261 C 
BRANCH   4   5
ATOM      5  O   UNL A   1      30.269  27.386  23.987  1.00  0.00    -0.463 OA
BRANCH   5   6
ATOM      6  C   UNL A   1      30.999  27.277  22.847  1.00  0.00     0.313 C 
ATOM      7  O   UNL A   1      30.577  27.586  21.736  1.00  0.00    -0.252 OA
BRANCH   6   8
ATOM      8  C   UNL A   1      32.437  26.811  23.100  1.00  0.00     0.126 C 
ATOM      9  C   UNL A   1      33.445  27.623  22.276  1.00  0.00     0.025 C 
BRANCH   8  10
ATOM     10  C   UNL A   1      32.612  25.285  23.096  1.00  0.00    -0.032 A 
ATOM     11  C   UNL A   1      31.480  24.466  23.016  1.00  0.00     0.005 A 
ATOM     12  C   UNL A   1      33.864  24.669  23.320  1.00  0.00     0.032 A 
ATOM     13  C   UNL A   1      31.563  23.080  23.188  1.00  0.00     0.011 A 
ATOM     14  C   UNL A   1      33.949  23.266  23.534  1.00  0.00     0.058 A 
ATOM     15  C   UNL A   1      32.800  22.479  23.494  1.00  0.00     0.008 A 
ATOM     16  N   UNL A   1      35.043  22.415  23.820  1.00  0.00    -0.274 N 
ATOM     17  C   UNL A   1      33.155  21.166  23.907  1.00  0.00     0.009 A 
ATOM     18  C   UNL A   1      34.527  21.157  24.181  1.00  0.00     0.057 A 
ATOM     19  C   UNL A   1      32.378  20.016  24.174  1.00  0.00     0.031 A 
ATOM     20  C   UNL A   1      35.121  20.023  24.773  1.00  0.00     0.029 A 
ATOM     21  C   UNL A   1      32.980  18.903  24.752  1.00  0.00     0.041 A 
ATOM     22  C   UNL A   1      34.334  18.898  25.038  1.00  0.00     0.023 A 
ATOM     23  Cl  UNL A   1      32.026  17.563  25.229  1.00  0.00    -0.084 Cl
BRANCH  16  24
ATOM     24  C   UNL A   1      36.414  22.816  23.796  1.00  0.00     0.284 C 
ATOM     25  O   UNL A   1      36.890  23.050  22.687  1.00  0.00    -0.266 OA
BRANCH  24  26
ATOM     26  C   UNL A   1      37.284  22.934  24.966  1.00  0.00     0.167 A 
ATOM     27  C   UNL A   1      38.204  22.032  25.463  1.00  0.00     0.231 A 
ATOM     28  N   UNL A   1      37.379  24.110  25.703  1.00  0.00    -0.211 NA
ATOM     29  O   UNL A   1      38.844  22.609  26.517  1.00  0.00    -0.451 OA
ATOM     30  C   UNL A   1      38.314  23.857  26.590  1.00  0.00     0.308 A 
ENDBRANCH  24  26
ENDBRANCH  16  24
ENDBRANCH   8  10
ENDBRANCH   6   8
ENDBRANCH   5   6
ENDBRANCH   4   5
ENDBRANCH   3   4
ENDBRANCH   2   3
ENDBRANCH   1   2
BRANCH   1  31
ATOM     31  C   UNL A   1      33.164  29.471  27.228  1.00  0.00     0.188 C 
BRANCH  31  32
ATOM     32  O   UNL A   1      33.262  30.834  26.847  1.00  0.00    -0.376 OA
BRANCH  32  33
ATOM     33  C   UNL A   1      32.044  31.565  26.877  1.00  0.00     0.202 C 
BRANCH  33  34
ATOM     34  C   UNL A   1      32.274  33.079  26.958  1.00  0.00     0.261 C 
BRANCH  34  35
ATOM     35  O   UNL A   1      32.613  33.553  28.274  1.00  0.00    -0.460 OA
BRANCH  35  36
ATOM     36  C   UNL A   1      33.732  34.313  28.363  1.00  0.00     0.338 C 
ATOM     37  O   UNL A   1      33.800  35.525  28.301  1.00  0.00    -0.246 OA
BRANCH  36  38
ATOM     38  C   UNL A   1      34.838  33.424  28.770  1.00  0.00     0.060 A 
ATOM     39  C   UNL A   1      34.553  32.312  29.573  1.00  0.00     0.016 A 
ATOM     40  C   UNL A   1      36.144  33.681  28.347  1.00  0.00     0.016 A 
ATOM     41  C   UNL A   1      35.586  31.464  29.971  1.00  0.00     0.010 A 
ATOM     42  C   UNL A   1      37.180  32.846  28.772  1.00  0.00     0.010 A 
ATOM     43  C   UNL A   1      36.909  31.750  29.608  1.00  0.00    -0.014 A 
BRANCH  43  44
ATOM     44  C   UNL A   1      38.026  31.033  30.272  1.00  0.00     0.031 A 
ATOM     45  C   UNL A   1      38.321  31.371  31.707  1.00  0.00     0.074 A 
ATOM     46  C   UNL A   1      38.756  30.109  29.620  1.00  0.00     0.049 A 
ATOM     47  N   UNL A   1      39.265  30.922  32.491  1.00  0.00    -0.248 NA
ATOM     48  C   UNL A   1      37.424  32.350  32.342  1.00  0.00     0.031 C 
ATOM     49  C   UNL A   1      38.525  29.672  28.245  1.00  0.00     0.029 A 
ATOM     50  N   UNL A   1      39.845  29.377  30.028  1.00  0.00    -0.354 N 
ATOM     51  C   UNL A   1      39.096  31.584  33.703  1.00  0.00     0.074 A 
ATOM     52  C   UNL A   1      37.959  32.465  33.547  1.00  0.00     0.031 C 
ATOM     53  C   UNL A   1      39.449  28.749  27.922  1.00  0.00     0.029 A 
ATOM     54  C   UNL A   1      40.361  28.555  29.049  1.00  0.00     0.049 A 
ATOM     55  H   UNL A   1      40.221  29.434  30.935  1.00  0.00     0.167 HD
ATOM     56  C   UNL A   1      39.832  31.477  34.834  1.00  0.00     0.034 A 
ATOM     57  C   UNL A   1      41.452  27.759  29.064  1.00  0.00     0.034 A 
ATOM     58  C   UNL A   1      40.975  30.609  34.966  1.00  0.00     0.049 A 
ATOM     59  C   UNL A   1      42.280  27.694  30.331  1.00  0.00     0.074 A 
ATOM     60  C   UNL A   1      41.789  30.417  36.068  1.00  0.00     0.029 A 
ATOM     61  N   UNL A   1      41.478  29.801  33.954  1.00  0.00    -0.354 N 
ATOM     62  N   UNL A   1      42.083  28.296  31.484  1.00  0.00    -0.248 NA
ATOM     63  C   UNL A   1      43.473  26.837  30.302  1.00  0.00     0.031 C 
ATOM     64  C   UNL A   1      42.822  29.545  35.702  1.00  0.00     0.029 A 
ATOM     65  C   UNL A   1      42.610  29.135  34.395  1.00  0.00     0.049 A 
ATOM     66  H   UNL A   1      41.087  29.716  33.054  1.00  0.00     0.167 HD
ATOM     67  C   UNL A   1      43.110  27.861  32.321  1.00  0.00     0.074 A 
ATOM     68  C   UNL A   1      43.904  26.928  31.551  1.00  0.00     0.031 C 
ATOM     69  C   UNL A   1      43.383  28.204  33.608  1.00  0.00     0.034 A 
BRANCH  56  70
ATOM     70  C   UNL A   1      39.462  32.380  35.984  1.00  0.00     0.023 A 
ATOM     71  C   UNL A   1      38.636  31.945  37.035  1.00  0.00     0.031 A 
ATOM     72  C   UNL A   1      39.903  33.715  36.000  1.00  0.00     0.131 A 
ATOM     73  C   UNL A   1      38.222  32.855  38.020  1.00  0.00     0.055 A 
ATOM     74  C   UNL A   1      39.550  34.594  37.024  1.00  0.00     0.041 A 
ATOM     75  F   UNL A   1      40.671  34.192  35.009  1.00  0.00    -0.206 F 
ATOM     76  C   UNL A   1      38.691  34.170  38.035  1.00  0.00     0.022 A 
BRANCH  73  77
ATOM     77  S   UNL A   1      36.948  32.331  39.201  1.00  0.00     0.124 S 
ATOM     78  O   UNL A   1      35.725  32.743  38.515  1.00  0.00    -0.237 OA
ATOM     79  O   UNL A   1      37.174  30.894  39.293  1.00  0.00    -0.237 OA
ATOM     80  O   UNL A   1      37.265  33.094  40.407  1.00  0.00    -0.744 OA
ENDBRANCH  73  77
ENDBRANCH  56  70
BRANCH  57  81
ATOM     81  C   UNL A   1      41.845  26.964  27.856  1.00  0.00     0.023 A 
ATOM     82  C   UNL A   1      41.883  25.559  27.892  1.00  0.00     0.031 A 
ATOM     83  C   UNL A   1      42.235  27.586  26.657  1.00  0.00     0.131 A 
ATOM     84  C   UNL A   1      42.292  24.824  26.768  1.00  0.00     0.055 A 
ATOM     85  C   UNL A   1      42.610  26.853  25.528  1.00  0.00     0.041 A 
ATOM     86  F   UNL A   1      42.252  28.925  26.561  1.00  0.00    -0.206 F 
ATOM     87  C   UNL A   1      42.644  25.463  25.580  1.00  0.00     0.022 A 
BRANCH  84  88
ATOM     88  S   UNL A   1      42.446  23.020  26.909  1.00  0.00     0.124 S 
ATOM     89  O   UNL A   1      41.575  22.727  28.041  1.00  0.00    -0.237 OA
ATOM     90  O   UNL A   1      41.978  22.573  25.601  1.00  0.00    -0.237 OA
ATOM     91  O   UNL A   1      43.873  22.822  27.155  1.00  0.00    -0.744 OA
ENDBRANCH  84  88
ENDBRANCH  57  81
BRANCH  69  92
ATOM     92  C   UNL A   1      44.563  27.527  34.265  1.00  0.00     0.023 A 
ATOM     93  C   UNL A   1      44.412  26.346  35.014  1.00  0.00     0.031 A 
ATOM     94  C   UNL A   1      45.853  28.073  34.145  1.00  0.00     0.131 A 
ATOM     95  C   UNL A   1      45.521  25.785  35.664  1.00  0.00     0.055 A 
ATOM     96  C   UNL A   1      46.963  27.477  34.744  1.00  0.00     0.041 A 
ATOM     97  F   UNL A   1      46.055  29.198  33.438  1.00  0.00    -0.206 F 
ATOM     98  C   UNL A   1      46.799  26.333  35.521  1.00  0.00     0.022 A 
BRANCH  95  99
ATOM     99  S   UNL A   1      45.258  24.376  36.776  1.00  0.00     0.124 S 
ATOM    100  O   UNL A   1      44.652  25.016  37.938  1.00  0.00    -0.237 OA
ATOM    101  O   UNL A   1      44.378  23.518  35.989  1.00  0.00    -0.237 OA
ATOM    102  O   UNL A   1      46.606  23.850  36.989  1.00  0.00    -0.744 OA
ENDBRANCH  95  99
ENDBRANCH  69  92
ENDBRANCH  43  44
ENDBRANCH  36  38
ENDBRANCH  35  36
ENDBRANCH  34  35
ENDBRANCH  33  34
ENDBRANCH  32  33
ENDBRANCH  31  32
ENDBRANCH   1  31
TORSDOF 23
ENDMDL
MODEL 2
REMARK VINA RESULT:     -10.9      1.576      7.313
REMARK SMILES C[C@@H](C(=O)OCCOCCOCCOC(=O)c1ccc(-c2c3nc(c(-c4cc(S(=O)(=O)[O-])ccc4F)c4ccc([nH]4)c(-c4cc(S(=O)(=O)[O-])ccc4F)c4nc(c(-c5cc(S(=O)(=O)[O-])ccc5F)c5ccc2[nH]5)C=C4)C=C3)cc1)c1ccc2c3cc(Cl)ccc3n(C(=O)c3cocn3)c2c1
REMARK SMILES IDX 9 1 8 2 7 3 6 4 5 5 3 6 4 7 2 8 1 9 80 10 81 11 100 12 82 13
REMARK SMILES IDX 99 14 83 15 91 16 84 17 90 18 85 19 89 20 86 21 88 22 87 23
REMARK SMILES IDX 92 24 93 25 94 26 95 27 98 28 96 29 97 30 10 31 11 32 12 33
REMARK SMILES IDX 13 34 14 35 15 36 16 37 17 38 18 39 79 40 19 41 78 42 20 43
REMARK SMILES IDX 21 44 22 45 72 46 23 47 77 48 71 49 73 50 24 51 76 52 70 53
REMARK SMILES IDX 69 54 25 56 57 57 37 58 56 59 38 60 41 61 55 62 74 63 39 64
REMARK SMILES IDX 40 65 54 67 75 68 42 69 26 70 27 71 35 72 28 73 34 74 36 75
REMARK SMILES IDX 33 76 29 77 30 78 31 79 32 80 58 81 59 82 67 83 60 84 66 85
REMARK SMILES IDX 68 86 65 87 61 88 62 89 63 90 64 91 43 92 44 93 52 94 45 95
REMARK SMILES IDX 51 96 53 97 50 98 46 99 47 100 48 101 49 102
REMARK H PARENT 73 55 41 66
REMARK Flexibility Score: inf
ROOT
ATOM      1  C   UNL A   1      32.603  28.086  26.994  1.00  0.00     0.188 C 
ENDROOT
BRANCH   1   2
ATOM      2  O   UNL A   1      32.513  26.723  26.586  1.00  0.00    -0.376 OA
BRANCH   2   3
ATOM      3  C   UNL A   1      31.283  26.259  26.032  1.00  0.00     0.202 C 
BRANCH   3   4
ATOM      4  C   UNL A   1      30.586  27.180  25.026  1.00  0.00     0.261 C 
BRANCH   4   5
ATOM      5  O   UNL A   1      30.927  26.854  23.667  1.00  0.00    -0.463 OA
BRANCH   5   6
ATOM      6  C   UNL A   1      31.739  27.747  23.046  1.00  0.00     0.313 C 
ATOM      7  O   UNL A   1      31.356  28.829  22.613  1.00  0.00    -0.252 OA
BRANCH   6   8
ATOM      8  C   UNL A   1      33.206  27.303  23.019  1.00  0.00     0.126 C 
ATOM      9  C   UNL A   1      34.028  28.134  22.026  1.00  0.00     0.025 C 
BRANCH   8  10
ATOM     10  C   UNL A   1      33.399  25.780  22.971  1.00  0.00    -0.032 A 
ATOM     11  C   UNL A   1      32.809  25.046  21.935  1.00  0.00     0.005 A 
ATOM     12  C   UNL A   1      34.027  25.065  24.016  1.00  0.00     0.032 A 
ATOM     13  C   UNL A   1      32.799  23.647  21.938  1.00  0.00     0.011 A 
ATOM     14  C   UNL A   1      33.987  23.645  24.044  1.00  0.00     0.058 A 
ATOM     15  C   UNL A   1      33.353  22.940  23.023  1.00  0.00     0.008 A 
ATOM     16  N   UNL A   1      34.482  22.700  24.975  1.00  0.00    -0.274 N 
ATOM     17  C   UNL A   1      33.318  21.568  23.395  1.00  0.00     0.009 A 
ATOM     18  C   UNL A   1      33.948  21.443  24.638  1.00  0.00     0.057 A 
ATOM     19  C   UNL A   1      32.691  20.445  22.809  1.00  0.00     0.031 A 
ATOM     20  C   UNL A   1      33.909  20.213  25.327  1.00  0.00     0.029 A 
ATOM     21  C   UNL A   1      32.668  19.237  23.499  1.00  0.00     0.041 A 
ATOM     22  C   UNL A   1      33.278  19.116  24.735  1.00  0.00     0.023 A 
ATOM     23  Cl  UNL A   1      31.778  17.913  22.878  1.00  0.00    -0.084 Cl
BRANCH  16  24
ATOM     24  C   UNL A   1      35.323  23.015  26.086  1.00  0.00     0.284 C 
ATOM     25  O   UNL A   1      34.749  23.345  27.123  1.00  0.00    -0.266 OA
BRANCH  24  26
ATOM     26  C   UNL A   1      36.786  23.006  26.073  1.00  0.00     0.167 A 
ATOM     27  C   UNL A   1      37.667  23.994  26.462  1.00  0.00     0.231 A 
ATOM     28  N   UNL A   1      37.516  21.866  25.751  1.00  0.00    -0.211 NA
ATOM     29  O   UNL A   1      38.934  23.505  26.356  1.00  0.00    -0.451 OA
ATOM     30  C   UNL A   1      38.765  22.222  25.944  1.00  0.00     0.308 A 
ENDBRANCH  24  26
ENDBRANCH  16  24
ENDBRANCH   8  10
ENDBRANCH   6   8
ENDBRANCH   5   6
ENDBRANCH   4   5
ENDBRANCH   3   4
ENDBRANCH   2   3
ENDBRANCH   1   2
BRANCH   1  31
ATOM     31  C   UNL A   1      33.540  29.029  26.219  1.00  0.00     0.188 C 
BRANCH  31  32
ATOM     32  O   UNL A   1      32.872  29.961  25.384  1.00  0.00    -0.376 OA
BRANCH  32  33
ATOM     33  C   UNL A   1      31.636  30.453  25.885  1.00  0.00     0.202 C 
BRANCH  33  34
ATOM     34  C   UNL A   1      31.769  31.855  26.490  1.00  0.00     0.261 C 
BRANCH  34  35
ATOM     35  O   UNL A   1      32.612  31.917  27.655  1.00  0.00    -0.460 OA
BRANCH  35  36
ATOM     36  C   UNL A   1      33.537  32.908  27.669  1.00  0.00     0.338 C 
ATOM     37  O   UNL A   1      33.345  34.090  27.460  1.00  0.00    -0.246 OA
BRANCH  36  38
ATOM     38  C   UNL A   1      34.789  32.335  28.202  1.00  0.00     0.060 A 
ATOM     39  C   UNL A   1      34.775  31.030  28.711  1.00  0.00     0.016 A 
ATOM     40  C   UNL A   1      35.971  33.080  28.184  1.00  0.00     0.016 A 
ATOM     41  C   UNL A   1      35.947  30.475  29.222  1.00  0.00     0.010 A 
ATOM     42  C   UNL A   1      37.135  32.531  28.724  1.00  0.00     0.010 A 
ATOM     43  C   UNL A   1      37.122  31.236  29.270  1.00  0.00    -0.014 A 
BRANCH  43  44
ATOM     44  C   UNL A   1      38.274  30.763  30.078  1.00  0.00     0.031 A 
ATOM     45  C   UNL A   1      39.229  29.795  29.436  1.00  0.00     0.074 A 
ATOM     46  C   UNL A   1      38.465  31.180  31.343  1.00  0.00     0.049 A 
ATOM     47  N   UNL A   1      40.279  29.203  29.941  1.00  0.00    -0.248 NA
ATOM     48  C   UNL A   1      38.961  29.452  28.030  1.00  0.00     0.031 C 
ATOM     49  C   UNL A   1      37.629  32.152  32.043  1.00  0.00     0.029 A 
ATOM     50  N   UNL A   1      39.423  30.833  32.265  1.00  0.00    -0.354 N 
ATOM     51  C   UNL A   1      40.780  28.394  28.927  1.00  0.00     0.074 A 
ATOM     52  C   UNL A   1      39.918  28.573  27.779  1.00  0.00     0.031 C 
ATOM     53  C   UNL A   1      38.108  32.319  33.289  1.00  0.00     0.029 A 
ATOM     54  C   UNL A   1      39.261  31.442  33.491  1.00  0.00     0.049 A 
ATOM     55  H   UNL A   1      40.157  30.208  32.068  1.00  0.00     0.167 HD
ATOM     56  C   UNL A   1      41.853  27.567  28.957  1.00  0.00     0.034 A 
ATOM     57  C   UNL A   1      39.955  31.288  34.640  1.00  0.00     0.034 A 
ATOM     58  C   UNL A   1      42.689  27.384  30.116  1.00  0.00     0.049 A 
ATOM     59  C   UNL A   1      41.123  30.324  34.654  1.00  0.00     0.074 A 
ATOM     60  C   UNL A   1      43.804  26.577  30.256  1.00  0.00     0.029 A 
ATOM     61  N   UNL A   1      42.491  28.005  31.343  1.00  0.00    -0.354 N 
ATOM     62  N   UNL A   1      41.610  29.595  33.673  1.00  0.00    -0.248 NA
ATOM     63  C   UNL A   1      41.837  30.165  35.927  1.00  0.00     0.031 C 
ATOM     64  C   UNL A   1      44.239  26.659  31.584  1.00  0.00     0.029 A 
ATOM     65  C   UNL A   1      43.441  27.574  32.254  1.00  0.00     0.049 A 
ATOM     66  H   UNL A   1      41.777  28.655  31.537  1.00  0.00     0.167 HD
ATOM     67  C   UNL A   1      42.707  28.921  34.208  1.00  0.00     0.074 A 
ATOM     68  C   UNL A   1      42.825  29.351  35.585  1.00  0.00     0.031 C 
ATOM     69  C   UNL A   1      43.541  28.021  33.623  1.00  0.00     0.034 A 
BRANCH  56  70
ATOM     70  C   UNL A   1      42.123  26.745  27.722  1.00  0.00     0.023 A 
ATOM     71  C   UNL A   1      42.036  25.342  27.728  1.00  0.00     0.031 A 
ATOM     72  C   UNL A   1      42.522  27.376  26.530  1.00  0.00     0.131 A 
ATOM     73  C   UNL A   1      42.411  24.615  26.588  1.00  0.00     0.055 A 
ATOM     74  C   UNL A   1      42.820  26.650  25.377  1.00  0.00     0.041 A 
ATOM     75  F   UNL A   1      42.648  28.711  26.474  1.00  0.00    -0.206 F 
ATOM     76  C   UNL A   1      42.780  25.259  25.406  1.00  0.00     0.022 A 
BRANCH  73  77
ATOM     77  S   UNL A   1      42.546  22.810  26.720  1.00  0.00     0.124 S 
ATOM     78  O   UNL A   1      43.977  22.639  26.958  1.00  0.00    -0.237 OA
ATOM     79  O   UNL A   1      41.672  22.509  27.848  1.00  0.00    -0.237 OA
ATOM     80  O   UNL A   1      42.076  22.336  25.420  1.00  0.00    -0.744 OA
ENDBRANCH  73  77
ENDBRANCH  56  70
BRANCH  57  81
ATOM     81  C   UNL A   1      39.577  32.045  35.877  1.00  0.00     0.023 A 
ATOM     82  C   UNL A   1      38.673  31.507  36.810  1.00  0.00     0.031 A 
ATOM     83  C   UNL A   1      40.073  33.335  36.133  1.00  0.00     0.131 A 
ATOM     84  C   UNL A   1      38.295  32.242  37.946  1.00  0.00     0.055 A 
ATOM     85  C   UNL A   1      39.721  34.052  37.280  1.00  0.00     0.041 A 
ATOM     86  F   UNL A   1      40.917  33.923  35.270  1.00  0.00    -0.206 F 
ATOM     87  C   UNL A   1      38.823  33.507  38.194  1.00  0.00     0.022 A 
BRANCH  84  88
ATOM     88  S   UNL A   1      37.027  31.555  39.050  1.00  0.00     0.124 S 
ATOM     89  O   UNL A   1      37.703  31.581  40.343  1.00  0.00    -0.237 OA
ATOM     90  O   UNL A   1      35.930  32.501  38.877  1.00  0.00    -0.237 OA
ATOM     91  O   UNL A   1      36.788  30.222  38.500  1.00  0.00    -0.744 OA
ENDBRANCH  84  88
ENDBRANCH  57  81
BRANCH  69  92
ATOM     92  C   UNL A   1      44.675  27.484  34.465  1.00  0.00     0.023 A 
ATOM     93  C   UNL A   1      45.915  28.142  34.539  1.00  0.00     0.031 A 
ATOM     94  C   UNL A   1      44.512  26.296  35.199  1.00  0.00     0.131 A 
ATOM     95  C   UNL A   1      46.964  27.575  35.278  1.00  0.00     0.055 A 
ATOM     96  C   UNL A   1      45.540  25.768  35.982  1.00  0.00     0.041 A 
ATOM     97  F   UNL A   1      43.347  25.627  35.169  1.00  0.00    -0.206 F 
ATOM     98  C   UNL A   1      46.780  26.402  36.014  1.00  0.00     0.022 A 
BRANCH  95  99
ATOM     99  S   UNL A   1      48.603  28.347  35.196  1.00  0.00     0.124 S 
ATOM    100  O   UNL A   1      48.573  29.246  36.345  1.00  0.00    -0.237 OA
ATOM    101  O   UNL A   1      49.496  27.198  35.306  1.00  0.00    -0.237 OA
ATOM    102  O   UNL A   1      48.606  29.009  33.891  1.00  0.00    -0.744 OA
ENDBRANCH  95  99
ENDBRANCH  69  92
ENDBRANCH  43  44
ENDBRANCH  36  38
ENDBRANCH  35  36
ENDBRANCH  34  35
ENDBRANCH  33  34
ENDBRANCH  32  33
ENDBRANCH  31  32
ENDBRANCH   1  31
TORSDOF 23
ENDMDL
MODEL 3
REMARK VINA RESULT:     -10.7      1.520      7.316
REMARK SMILES C[C@@H](C(=O)OCCOCCOCCOC(=O)c1ccc(-c2c3nc(c(-c4cc(S(=O)(=O)[O-])ccc4F)c4ccc([nH]4)c(-c4cc(S(=O)(=O)[O-])ccc4F)c4nc(c(-c5cc(S(=O)(=O)[O-])ccc5F)c5ccc2[nH]5)C=C4)C=C3)cc1)c1ccc2c3cc(Cl)ccc3n(C(=O)c3cocn3)c2c1
REMARK SMILES IDX 9 1 8 2 7 3 6 4 5 5 3 6 4 7 2 8 1 9 80 10 81 11 100 12 82 13
REMARK SMILES IDX 99 14 83 15 91 16 84 17 90 18 85 19 89 20 86 21 88 22 87 23
REMARK SMILES IDX 92 24 93 25 94 26 95 27 98 28 96 29 97 30 10 31 11 32 12 33
REMARK SMILES IDX 13 34 14 35 15 36 16 37 17 38 18 39 79 40 19 41 78 42 20 43
REMARK SMILES IDX 21 44 22 45 72 46 23 47 77 48 71 49 73 50 24 51 76 52 70 53
REMARK SMILES IDX 69 54 25 56 57 57 37 58 56 59 38 60 41 61 55 62 74 63 39 64
REMARK SMILES IDX 40 65 54 67 75 68 42 69 26 70 27 71 35 72 28 73 34 74 36 75
REMARK SMILES IDX 33 76 29 77 30 78 31 79 32 80 58 81 59 82 67 83 60 84 66 85
REMARK SMILES IDX 68 86 65 87 61 88 62 89 63 90 64 91 43 92 44 93 52 94 45 95
REMARK SMILES IDX 51 96 53 97 50 98 46 99 47 100 48 101 49 102
REMARK H PARENT 73 55 41 66
REMARK Flexibility Score: inf
ROOT
ATOM      1  C   UNL A   1      32.695  28.221  27.133  1.00  0.00     0.188 C 
ENDROOT
BRANCH   1   2
ATOM      2  O   UNL A   1      32.632  26.895  26.614  1.00  0.00    -0.376 OA
BRANCH   2   3
ATOM      3  C   UNL A   1      31.367  26.393  26.184  1.00  0.00     0.202 C 
BRANCH   3   4
ATOM      4  C   UNL A   1      30.600  27.235  25.160  1.00  0.00     0.261 C 
BRANCH   4   5
ATOM      5  O   UNL A   1      30.923  26.869  23.808  1.00  0.00    -0.463 OA
BRANCH   5   6
ATOM      6  C   UNL A   1      31.719  27.749  23.147  1.00  0.00     0.313 C 
ATOM      7  O   UNL A   1      31.324  28.822  22.701  1.00  0.00    -0.252 OA
BRANCH   6   8
ATOM      8  C   UNL A   1      33.184  27.304  23.091  1.00  0.00     0.126 C 
ATOM      9  C   UNL A   1      33.993  28.152  22.099  1.00  0.00     0.025 C 
BRANCH   8  10
ATOM     10  C   UNL A   1      33.375  25.782  23.014  1.00  0.00    -0.032 A 
ATOM     11  C   UNL A   1      32.769  25.067  21.975  1.00  0.00     0.005 A 
ATOM     12  C   UNL A   1      34.017  25.050  24.038  1.00  0.00     0.032 A 
ATOM     13  C   UNL A   1      32.759  23.668  21.955  1.00  0.00     0.011 A 
ATOM     14  C   UNL A   1      33.976  23.629  24.043  1.00  0.00     0.058 A 
ATOM     15  C   UNL A   1      33.327  22.942  23.020  1.00  0.00     0.008 A 
ATOM     16  N   UNL A   1      34.483  22.669  24.951  1.00  0.00    -0.274 N 
ATOM     17  C   UNL A   1      33.296  21.564  23.369  1.00  0.00     0.009 A 
ATOM     18  C   UNL A   1      33.944  21.418  24.600  1.00  0.00     0.057 A 
ATOM     19  C   UNL A   1      32.659  20.452  22.773  1.00  0.00     0.031 A 
ATOM     20  C   UNL A   1      33.914  20.176  25.270  1.00  0.00     0.029 A 
ATOM     21  C   UNL A   1      32.645  19.232  23.443  1.00  0.00     0.041 A 
ATOM     22  C   UNL A   1      33.272  19.090  24.669  1.00  0.00     0.023 A 
ATOM     23  Cl  UNL A   1      31.744  17.919  22.813  1.00  0.00    -0.084 Cl
BRANCH  16  24
ATOM     24  C   UNL A   1      35.341  22.964  26.055  1.00  0.00     0.284 C 
ATOM     25  O   UNL A   1      34.783  23.297  27.099  1.00  0.00    -0.266 OA
BRANCH  24  26
ATOM     26  C   UNL A   1      36.803  22.932  26.026  1.00  0.00     0.167 A 
ATOM     27  C   UNL A   1      37.703  23.930  26.342  1.00  0.00     0.231 A 
ATOM     28  N   UNL A   1      37.513  21.764  25.771  1.00  0.00    -0.211 NA
ATOM     29  O   UNL A   1      38.961  23.417  26.254  1.00  0.00    -0.451 OA
ATOM     30  C   UNL A   1      38.770  22.113  25.926  1.00  0.00     0.308 A 
ENDBRANCH  24  26
ENDBRANCH  16  24
ENDBRANCH   8  10
ENDBRANCH   6   8
ENDBRANCH   5   6
ENDBRANCH   4   5
ENDBRANCH   3   4
ENDBRANCH   2   3
ENDBRANCH   1   2
BRANCH   1  31
ATOM     31  C   UNL A   1      33.511  29.276  26.367  1.00  0.00     0.188 C 
BRANCH  31  32
ATOM     32  O   UNL A   1      32.755  30.044  25.443  1.00  0.00    -0.376 OA
BRANCH  32  33
ATOM     33  C   UNL A   1      31.545  30.591  25.951  1.00  0.00     0.202 C 
BRANCH  33  34
ATOM     34  C   UNL A   1      31.712  32.042  26.414  1.00  0.00     0.261 C 
BRANCH  34  35
ATOM     35  O   UNL A   1      32.435  32.187  27.650  1.00  0.00    -0.460 OA
BRANCH  35  36
ATOM     36  C   UNL A   1      33.340  33.195  27.697  1.00  0.00     0.338 C 
ATOM     37  O   UNL A   1      33.132  34.375  27.492  1.00  0.00    -0.246 OA
BRANCH  36  38
ATOM     38  C   UNL A   1      34.588  32.641  28.257  1.00  0.00     0.060 A 
ATOM     39  C   UNL A   1      34.558  31.378  28.863  1.00  0.00     0.016 A 
ATOM     40  C   UNL A   1      35.783  33.361  28.171  1.00  0.00     0.016 A 
ATOM     41  C   UNL A   1      35.726  30.842  29.402  1.00  0.00     0.010 A 
ATOM     42  C   UNL A   1      36.944  32.832  28.738  1.00  0.00     0.010 A 
ATOM     43  C   UNL A   1      36.915  31.583  29.380  1.00  0.00    -0.014 A 
BRANCH  43  44
ATOM     44  C   UNL A   1      38.068  31.151  30.209  1.00  0.00     0.031 A 
ATOM     45  C   UNL A   1      39.064  30.211  29.587  1.00  0.00     0.074 A 
ATOM     46  C   UNL A   1      38.225  31.580  31.474  1.00  0.00     0.049 A 
ATOM     47  N   UNL A   1      40.124  29.656  30.113  1.00  0.00    -0.248 NA
ATOM     48  C   UNL A   1      38.830  29.853  28.179  1.00  0.00     0.031 C 
ATOM     49  C   UNL A   1      37.347  32.527  32.156  1.00  0.00     0.029 A 
ATOM     50  N   UNL A   1      39.178  31.269  32.414  1.00  0.00    -0.354 N 
ATOM     51  C   UNL A   1      40.668  28.858  29.111  1.00  0.00     0.074 A 
ATOM     52  C   UNL A   1      39.819  29.004  27.949  1.00  0.00     0.031 C 
ATOM     53  C   UNL A   1      37.801  32.717  33.409  1.00  0.00     0.029 A 
ATOM     54  C   UNL A   1      38.978  31.878  33.634  1.00  0.00     0.049 A 
ATOM     55  H   UNL A   1      39.935  30.666  32.232  1.00  0.00     0.167 HD
ATOM     56  C   UNL A   1      41.765  28.066  29.163  1.00  0.00     0.034 A 
ATOM     57  C   UNL A   1      39.657  31.752  34.794  1.00  0.00     0.034 A 
ATOM     58  C   UNL A   1      42.588  27.916  30.336  1.00  0.00     0.049 A 
ATOM     59  C   UNL A   1      40.855  30.826  34.832  1.00  0.00     0.074 A 
ATOM     60  C   UNL A   1      43.726  27.146  30.498  1.00  0.00     0.029 A 
ATOM     61  N   UNL A   1      42.350  28.536  31.556  1.00  0.00    -0.354 N 
ATOM     62  N   UNL A   1      41.382  30.108  33.863  1.00  0.00    -0.248 NA
ATOM     63  C   UNL A   1      41.553  30.695  36.117  1.00  0.00     0.031 C 
ATOM     64  C   UNL A   1      44.137  27.248  31.833  1.00  0.00     0.029 A 
ATOM     65  C   UNL A   1      43.299  28.140  32.484  1.00  0.00     0.049 A 
ATOM     66  H   UNL A   1      41.613  29.164  31.735  1.00  0.00     0.167 HD
ATOM     67  C   UNL A   1      42.490  29.472  34.419  1.00  0.00     0.074 A 
ATOM     68  C   UNL A   1      42.572  29.912  35.796  1.00  0.00     0.031 C 
ATOM     69  C   UNL A   1      43.362  28.597  33.853  1.00  0.00     0.034 A 
BRANCH  56  70
ATOM     70  C   UNL A   1      42.081  27.248  27.936  1.00  0.00     0.023 A 
ATOM     71  C   UNL A   1      41.986  25.845  27.933  1.00  0.00     0.031 A 
ATOM     72  C   UNL A   1      42.534  27.881  26.765  1.00  0.00     0.131 A 
ATOM     73  C   UNL A   1      42.404  25.120  26.807  1.00  0.00     0.055 A 
ATOM     74  C   UNL A   1      42.875  27.158  25.622  1.00  0.00     0.041 A 
ATOM     75  F   UNL A   1      42.670  29.215  26.720  1.00  0.00    -0.206 F 
ATOM     76  C   UNL A   1      42.826  25.766  25.643  1.00  0.00     0.022 A 
BRANCH  73  77
ATOM     77  S   UNL A   1      42.522  23.314  26.936  1.00  0.00     0.124 S 
ATOM     78  O   UNL A   1      43.922  23.137  27.313  1.00  0.00    -0.237 OA
ATOM     79  O   UNL A   1      41.540  23.006  27.969  1.00  0.00    -0.237 OA
ATOM     80  O   UNL A   1      42.182  22.851  25.592  1.00  0.00    -0.744 OA
ENDBRANCH  73  77
ENDBRANCH  56  70
BRANCH  57  81
ATOM     81  C   UNL A   1      39.236  32.502  36.022  1.00  0.00     0.023 A 
ATOM     82  C   UNL A   1      39.714  33.799  36.280  1.00  0.00     0.031 A 
ATOM     83  C   UNL A   1      38.387  31.928  36.983  1.00  0.00     0.131 A 
ATOM     84  C   UNL A   1      39.346  34.478  37.453  1.00  0.00     0.055 A 
ATOM     85  C   UNL A   1      37.994  32.616  38.134  1.00  0.00     0.041 A 
ATOM     86  F   UNL A   1      37.917  30.681  36.816  1.00  0.00    -0.206 F 
ATOM     87  C   UNL A   1      38.478  33.899  38.377  1.00  0.00     0.022 A 
BRANCH  84  88
ATOM     88  S   UNL A   1      40.093  36.096  37.799  1.00  0.00     0.124 S 
ATOM     89  O   UNL A   1      41.418  35.724  38.282  1.00  0.00    -0.237 OA
ATOM     90  O   UNL A   1      40.040  36.740  36.491  1.00  0.00    -0.237 OA
ATOM     91  O   UNL A   1      39.203  36.669  38.808  1.00  0.00    -0.744 OA
ENDBRANCH  84  88
ENDBRANCH  57  81
BRANCH  69  92
ATOM     92  C   UNL A   1      44.499  28.100  34.715  1.00  0.00     0.023 A 
ATOM     93  C   UNL A   1      44.387  26.924  35.478  1.00  0.00     0.031 A 
ATOM     94  C   UNL A   1      45.708  28.816  34.777  1.00  0.00     0.131 A 
ATOM     95  C   UNL A   1      45.440  26.533  36.317  1.00  0.00     0.055 A 
ATOM     96  C   UNL A   1      46.776  28.388  35.567  1.00  0.00     0.041 A 
ATOM     97  F   UNL A   1      45.872  29.943  34.066  1.00  0.00    -0.206 F 
ATOM     98  C   UNL A   1      46.641  27.247  36.355  1.00  0.00     0.022 A 
BRANCH  95  99
ATOM     99  S   UNL A   1      45.189  25.123  37.430  1.00  0.00     0.124 S 
ATOM    100  O   UNL A   1      46.436  24.383  37.268  1.00  0.00    -0.237 OA
ATOM    101  O   UNL A   1      44.995  25.774  38.722  1.00  0.00    -0.237 OA
ATOM    102  O   UNL A   1      44.002  24.463  36.885  1.00  0.00    -0.744 OA
ENDBRANCH  95  99
ENDBRANCH  69  92
ENDBRANCH  43  44
ENDBRANCH  36  38
ENDBRANCH  35  36
ENDBRANCH  34  35
ENDBRANCH  33  34
ENDBRANCH  32  33
ENDBRANCH  31  32
ENDBRANCH   1  31
TORSDOF 23
ENDMDL
