MODEL 1
REMARK VINA RESULT:     -10.4      0.000      0.000
REMARK SMILES O=C(OCCOCCOCCOC(=O)c1cc(S(=O)(=O)Nc2ccccc2-n2cc(Br)cn2)c[nH]1)c1ccc(-c2c3nc(c(-c4cc(S(=O)(=O)[O-])ccc4F)c4ccc([nH]4)c(-c4cc(S(=O)(=O)[O-])ccc4F)c4nc(c(-c5cc(S(=O)(=O)[O-])ccc5F)c5ccc2[nH]5)C=C4)C=C3)cc1
REMARK SMILES IDX 8 1 7 2 6 3 5 4 4 5 3 6 2 7 1 8 36 9 37 10 98 11 38 12 97 13
REMARK SMILES IDX 39 14 40 15 41 16 91 17 42 18 96 19 90 20 92 21 43 22 95 23
REMARK SMILES IDX 89 24 88 25 44 27 76 28 56 29 75 30 57 31 60 32 74 33 93 34
REMARK SMILES IDX 58 35 59 36 73 38 94 39 61 40 45 41 46 42 54 43 47 44 53 45
REMARK SMILES IDX 55 46 52 47 48 48 49 49 50 50 51 51 77 52 78 53 86 54 79 55
REMARK SMILES IDX 85 56 87 57 84 58 80 59 81 60 82 61 83 62 62 63 63 64 71 65
REMARK SMILES IDX 64 66 70 67 72 68 69 69 65 70 66 71 67 72 68 73 9 74 10 75
REMARK SMILES IDX 11 76 12 77 13 78 14 79 15 80 16 81 35 82 17 83 34 84 18 86
REMARK SMILES IDX 19 87 20 88 21 89 22 91 23 92 27 93 24 94 26 95 25 96 28 97
REMARK SMILES IDX 29 98 33 99 30 100 32 101 31 102
REMARK H PARENT 92 26 60 37 35 85 21 90
REMARK Flexibility Score: inf
ROOT
ATOM      1  C   UNL A   1      35.203  32.744  29.359  1.00  0.00     0.188 C 
ENDROOT
BRANCH   1   2
ATOM      2  C   UNL A   1      34.742  33.496  30.622  1.00  0.00     0.188 C 
BRANCH   2   3
ATOM      3  O   UNL A   1      35.187  32.836  31.809  1.00  0.00    -0.376 OA
BRANCH   3   4
ATOM      4  C   UNL A   1      36.417  32.142  31.681  1.00  0.00     0.202 C 
BRANCH   4   5
ATOM      5  C   UNL A   1      36.492  30.818  32.466  1.00  0.00     0.261 C 
BRANCH   5   6
ATOM      6  O   UNL A   1      37.080  29.698  31.759  1.00  0.00    -0.460 OA
BRANCH   6   7
ATOM      7  C   UNL A   1      37.967  28.730  32.065  1.00  0.00     0.338 C 
ATOM      8  O   UNL A   1      37.700  27.964  32.990  1.00  0.00    -0.246 OA
BRANCH   7   9
ATOM      9  C   UNL A   1      39.268  28.565  31.374  1.00  0.00     0.060 A 
ATOM     10  C   UNL A   1      39.441  28.674  29.998  1.00  0.00     0.016 A 
ATOM     11  C   UNL A   1      40.396  28.296  32.176  1.00  0.00     0.016 A 
ATOM     12  C   UNL A   1      40.677  28.499  29.417  1.00  0.00     0.010 A 
ATOM     13  C   UNL A   1      41.645  28.077  31.597  1.00  0.00     0.010 A 
ATOM     14  C   UNL A   1      41.766  28.156  30.210  1.00  0.00    -0.014 A 
BRANCH  14  15
ATOM     15  C   UNL A   1      42.994  27.833  29.472  1.00  0.00     0.031 A 
ATOM     16  C   UNL A   1      43.880  29.051  29.246  1.00  0.00     0.074 A 
ATOM     17  C   UNL A   1      43.035  26.566  28.965  1.00  0.00     0.049 A 
ATOM     18  N   UNL A   1      44.575  29.395  28.204  1.00  0.00    -0.248 NA
ATOM     19  C   UNL A   1      43.872  30.126  30.271  1.00  0.00     0.031 C 
ATOM     20  C   UNL A   1      42.007  25.528  29.223  1.00  0.00     0.029 A 
ATOM     21  N   UNL A   1      43.897  25.896  28.129  1.00  0.00    -0.354 N 
ATOM     22  C   UNL A   1      45.298  30.556  28.557  1.00  0.00     0.074 A 
ATOM     23  C   UNL A   1      44.672  31.057  29.744  1.00  0.00     0.031 C 
ATOM     24  C   UNL A   1      42.272  24.404  28.529  1.00  0.00     0.029 A 
ATOM     25  C   UNL A   1      43.497  24.581  27.778  1.00  0.00     0.049 A 
ATOM     26  H   UNL A   1      44.732  26.300  27.797  1.00  0.00     0.167 HD
ATOM     27  C   UNL A   1      46.484  30.911  27.970  1.00  0.00     0.034 A 
ATOM     28  C   UNL A   1      44.092  23.694  26.925  1.00  0.00     0.034 A 
ATOM     29  C   UNL A   1      46.822  29.972  26.945  1.00  0.00     0.049 A 
ATOM     30  C   UNL A   1      45.346  24.336  26.492  1.00  0.00     0.074 A 
ATOM     31  C   UNL A   1      46.341  29.695  25.693  1.00  0.00     0.029 A 
ATOM     32  N   UNL A   1      47.707  28.975  27.295  1.00  0.00    -0.354 N 
ATOM     33  N   UNL A   1      46.383  24.518  27.252  1.00  0.00    -0.248 NA
ATOM     34  C   UNL A   1      45.435  24.889  25.135  1.00  0.00     0.031 C 
ATOM     35  C   UNL A   1      46.633  28.325  25.502  1.00  0.00     0.029 A 
ATOM     36  C   UNL A   1      47.338  27.844  26.613  1.00  0.00     0.049 A 
ATOM     37  H   UNL A   1      48.464  29.060  27.918  1.00  0.00     0.167 HD
ATOM     38  C   UNL A   1      47.101  25.474  26.575  1.00  0.00     0.074 A 
ATOM     39  C   UNL A   1      46.651  25.424  25.200  1.00  0.00     0.031 C 
ATOM     40  C   UNL A   1      47.569  26.556  27.250  1.00  0.00     0.034 A 
BRANCH  27  41
ATOM     41  C   UNL A   1      47.580  31.876  28.386  1.00  0.00     0.023 A 
ATOM     42  C   UNL A   1      48.204  32.602  27.337  1.00  0.00     0.031 A 
ATOM     43  C   UNL A   1      48.226  31.935  29.628  1.00  0.00     0.131 A 
ATOM     44  C   UNL A   1      49.459  33.205  27.492  1.00  0.00     0.055 A 
ATOM     45  C   UNL A   1      49.448  32.607  29.804  1.00  0.00     0.041 A 
ATOM     46  F   UNL A   1      47.762  31.291  30.706  1.00  0.00    -0.206 F 
ATOM     47  C   UNL A   1      50.091  33.211  28.727  1.00  0.00     0.022 A 
BRANCH  44  48
ATOM     48  S   UNL A   1      50.320  33.798  26.006  1.00  0.00     0.124 S 
ATOM     49  O   UNL A   1      50.607  32.556  25.298  1.00  0.00    -0.237 OA
ATOM     50  O   UNL A   1      49.313  34.661  25.398  1.00  0.00    -0.237 OA
ATOM     51  O   UNL A   1      51.488  34.490  26.546  1.00  0.00    -0.744 OA
ENDBRANCH  44  48
ENDBRANCH  27  41
BRANCH  28  52
ATOM     52  C   UNL A   1      43.777  22.339  26.330  1.00  0.00     0.023 A 
ATOM     53  C   UNL A   1      44.701  21.470  25.726  1.00  0.00     0.031 A 
ATOM     54  C   UNL A   1      42.445  21.831  26.404  1.00  0.00     0.131 A 
ATOM     55  C   UNL A   1      44.307  20.179  25.293  1.00  0.00     0.055 A 
ATOM     56  C   UNL A   1      42.073  20.539  26.033  1.00  0.00     0.041 A 
ATOM     57  F   UNL A   1      41.424  22.571  26.859  1.00  0.00    -0.206 F 
ATOM     58  C   UNL A   1      43.011  19.696  25.483  1.00  0.00     0.022 A 
BRANCH  55  59
ATOM     59  S   UNL A   1      45.484  19.051  24.490  1.00  0.00     0.124 S 
ATOM     60  O   UNL A   1      44.809  18.757  23.231  1.00  0.00    -0.237 OA
ATOM     61  O   UNL A   1      46.700  19.851  24.392  1.00  0.00    -0.237 OA
ATOM     62  O   UNL A   1      45.558  17.935  25.434  1.00  0.00    -0.744 OA
ENDBRANCH  55  59
ENDBRANCH  28  52
BRANCH  40  63
ATOM     63  C   UNL A   1      47.792  26.312  28.748  1.00  0.00     0.023 A 
ATOM     64  C   UNL A   1      46.751  26.488  29.680  1.00  0.00     0.031 A 
ATOM     65  C   UNL A   1      49.053  26.021  29.300  1.00  0.00     0.131 A 
ATOM     66  C   UNL A   1      47.000  26.412  31.069  1.00  0.00     0.055 A 
ATOM     67  C   UNL A   1      49.306  25.935  30.672  1.00  0.00     0.041 A 
ATOM     68  F   UNL A   1      50.105  25.808  28.519  1.00  0.00    -0.206 F 
ATOM     69  C   UNL A   1      48.274  26.140  31.569  1.00  0.00     0.022 A 
BRANCH  66  70
ATOM     70  S   UNL A   1      45.636  26.645  32.241  1.00  0.00     0.124 S 
ATOM     71  O   UNL A   1      46.221  26.210  33.505  1.00  0.00    -0.237 OA
ATOM     72  O   UNL A   1      45.355  28.073  32.124  1.00  0.00    -0.237 OA
ATOM     73  O   UNL A   1      44.583  25.772  31.718  1.00  0.00    -0.744 OA
ENDBRANCH  66  70
ENDBRANCH  40  63
ENDBRANCH  14  15
ENDBRANCH   7   9
ENDBRANCH   6   7
ENDBRANCH   5   6
ENDBRANCH   4   5
ENDBRANCH   3   4
ENDBRANCH   2   3
ENDBRANCH   1   2
BRANCH   1  74
ATOM     74  O   UNL A   1      34.259  31.929  28.664  1.00  0.00    -0.376 OA
BRANCH  74  75
ATOM     75  C   UNL A   1      34.731  30.730  28.073  1.00  0.00     0.202 C 
BRANCH  75  76
ATOM     76  C   UNL A   1      34.073  30.473  26.709  1.00  0.00     0.261 C 
BRANCH  76  77
ATOM     77  O   UNL A   1      32.694  30.077  26.773  1.00  0.00    -0.459 OA
BRANCH  77  78
ATOM     78  C   UNL A   1      32.451  28.771  26.455  1.00  0.00     0.354 C 
ATOM     79  O   UNL A   1      31.885  27.951  27.162  1.00  0.00    -0.244 OA
BRANCH  78  80
ATOM     80  C   UNL A   1      32.976  28.465  25.144  1.00  0.00     0.126 A 
ATOM     81  C   UNL A   1      33.634  27.341  24.677  1.00  0.00     0.057 A 
ATOM     82  N   UNL A   1      32.760  29.280  24.052  1.00  0.00    -0.354 N 
ATOM     83  C   UNL A   1      33.401  27.311  23.274  1.00  0.00     0.106 A 
ATOM     84  C   UNL A   1      32.973  28.567  22.900  1.00  0.00     0.105 A 
ATOM     85  H   UNL A   1      32.494  30.227  24.093  1.00  0.00     0.166 HD
BRANCH  83  86
ATOM     86  S   UNL A   1      33.430  25.875  22.310  1.00  0.00     0.263 S 
ATOM     87  O   UNL A   1      33.403  26.323  20.937  1.00  0.00    -0.201 OA
ATOM     88  O   UNL A   1      34.516  25.078  22.840  1.00  0.00    -0.201 OA
BRANCH  86  89
ATOM     89  N   UNL A   1      31.972  24.987  22.562  1.00  0.00    -0.277 N 
ATOM     90  H   UNL A   1      31.647  24.322  21.912  1.00  0.00     0.180 HD
BRANCH  89  91
ATOM     91  C   UNL A   1      31.259  25.278  23.780  1.00  0.00     0.075 A 
ATOM     92  C   UNL A   1      30.174  26.165  23.694  1.00  0.00     0.029 A 
ATOM     93  C   UNL A   1      31.456  24.542  24.967  1.00  0.00     0.089 A 
ATOM     94  C   UNL A   1      29.270  26.294  24.750  1.00  0.00     0.002 A 
ATOM     95  C   UNL A   1      30.527  24.674  26.020  1.00  0.00     0.030 A 
ATOM     96  C   UNL A   1      29.437  25.539  25.905  1.00  0.00     0.002 A 
BRANCH  93  97
ATOM     97  N   UNL A   1      32.506  23.590  25.122  1.00  0.00    -0.238 N 
ATOM     98  C   UNL A   1      32.695  22.386  24.475  1.00  0.00     0.130 A 
ATOM     99  N   UNL A   1      33.495  23.801  26.038  1.00  0.00    -0.175 NA
ATOM    100  C   UNL A   1      33.674  21.729  25.167  1.00  0.00     0.056 A 
ATOM    101  C   UNL A   1      34.116  22.623  26.139  1.00  0.00     0.151 A 
ATOM    102  Br  UNL A   1      34.317  20.002  24.892  1.00  0.00    -0.047 Br
ENDBRANCH  93  97
ENDBRANCH  89  91
ENDBRANCH  86  89
ENDBRANCH  83  86
ENDBRANCH  78  80
ENDBRANCH  77  78
ENDBRANCH  76  77
ENDBRANCH  75  76
ENDBRANCH  74  75
ENDBRANCH   1  74
TORSDOF 24
ENDMDL
MODEL 2
REMARK VINA RESULT:     -10.4      2.726      3.932
REMARK SMILES O=C(OCCOCCOCCOC(=O)c1cc(S(=O)(=O)Nc2ccccc2-n2cc(Br)cn2)c[nH]1)c1ccc(-c2c3nc(c(-c4cc(S(=O)(=O)[O-])ccc4F)c4ccc([nH]4)c(-c4cc(S(=O)(=O)[O-])ccc4F)c4nc(c(-c5cc(S(=O)(=O)[O-])ccc5F)c5ccc2[nH]5)C=C4)C=C3)cc1
REMARK SMILES IDX 8 1 7 2 6 3 5 4 4 5 3 6 2 7 1 8 36 9 37 10 98 11 38 12 97 13
REMARK SMILES IDX 39 14 40 15 41 16 91 17 42 18 96 19 90 20 92 21 43 22 95 23
REMARK SMILES IDX 89 24 88 25 44 27 76 28 56 29 75 30 57 31 60 32 74 33 93 34
REMARK SMILES IDX 58 35 59 36 73 38 94 39 61 40 45 41 46 42 54 43 47 44 53 45
REMARK SMILES IDX 55 46 52 47 48 48 49 49 50 50 51 51 77 52 78 53 86 54 79 55
REMARK SMILES IDX 85 56 87 57 84 58 80 59 81 60 82 61 83 62 62 63 63 64 71 65
REMARK SMILES IDX 64 66 70 67 72 68 69 69 65 70 66 71 67 72 68 73 9 74 10 75
REMARK SMILES IDX 11 76 12 77 13 78 14 79 15 80 16 81 35 82 17 83 34 84 18 86
REMARK SMILES IDX 19 87 20 88 21 89 22 91 23 92 27 93 24 94 26 95 25 96 28 97
REMARK SMILES IDX 29 98 33 99 30 100 32 101 31 102
REMARK H PARENT 92 26 60 37 35 85 21 90
REMARK Flexibility Score: inf
ROOT
ATOM      1  C   UNL A   1      33.449  33.859  27.959  1.00  0.00     0.188 C 
ENDROOT
BRANCH   1   2
ATOM      2  C   UNL A   1      34.100  33.858  29.354  1.00  0.00     0.188 C 
BRANCH   2   3
ATOM      3  O   UNL A   1      33.275  34.527  30.310  1.00  0.00    -0.376 OA
BRANCH   3   4
ATOM      4  C   UNL A   1      33.980  35.199  31.341  1.00  0.00     0.202 C 
BRANCH   4   5
ATOM      5  C   UNL A   1      34.011  34.454  32.690  1.00  0.00     0.261 C 
BRANCH   5   6
ATOM      6  O   UNL A   1      34.712  33.187  32.694  1.00  0.00    -0.460 OA
BRANCH   6   7
ATOM      7  C   UNL A   1      35.797  32.692  33.324  1.00  0.00     0.338 C 
ATOM      8  O   UNL A   1      35.863  32.804  34.547  1.00  0.00    -0.246 OA
BRANCH   7   9
ATOM      9  C   UNL A   1      36.937  32.061  32.616  1.00  0.00     0.060 A 
ATOM     10  C   UNL A   1      37.765  31.095  33.178  1.00  0.00     0.016 A 
ATOM     11  C   UNL A   1      37.175  32.463  31.286  1.00  0.00     0.016 A 
ATOM     12  C   UNL A   1      38.815  30.555  32.469  1.00  0.00     0.010 A 
ATOM     13  C   UNL A   1      38.258  31.954  30.572  1.00  0.00     0.010 A 
ATOM     14  C   UNL A   1      39.088  31.017  31.187  1.00  0.00    -0.014 A 
BRANCH  14  15
ATOM     15  C   UNL A   1      40.323  30.494  30.588  1.00  0.00     0.031 A 
ATOM     16  C   UNL A   1      41.413  31.552  30.472  1.00  0.00     0.074 A 
ATOM     17  C   UNL A   1      40.216  29.231  30.078  1.00  0.00     0.049 A 
ATOM     18  N   UNL A   1      42.266  31.768  29.518  1.00  0.00    -0.248 NA
ATOM     19  C   UNL A   1      41.464  32.624  31.500  1.00  0.00     0.031 C 
ATOM     20  C   UNL A   1      39.012  28.375  30.211  1.00  0.00     0.029 A 
ATOM     21  N   UNL A   1      41.046  28.424  29.338  1.00  0.00    -0.354 N 
ATOM     22  C   UNL A   1      43.123  32.802  29.959  1.00  0.00     0.074 A 
ATOM     23  C   UNL A   1      42.456  33.409  31.073  1.00  0.00     0.031 C 
ATOM     24  C   UNL A   1      39.168  27.217  29.542  1.00  0.00     0.029 A 
ATOM     25  C   UNL A   1      40.482  27.187  28.934  1.00  0.00     0.049 A 
ATOM     26  H   UNL A   1      41.967  28.685  29.105  1.00  0.00     0.167 HD
ATOM     27  C   UNL A   1      44.408  32.955  29.512  1.00  0.00     0.034 A 
ATOM     28  C   UNL A   1      41.018  26.208  28.145  1.00  0.00     0.034 A 
ATOM     29  C   UNL A   1      44.703  31.964  28.522  1.00  0.00     0.049 A 
ATOM     30  C   UNL A   1      42.399  26.635  27.861  1.00  0.00     0.074 A 
ATOM     31  C   UNL A   1      44.326  31.757  27.223  1.00  0.00     0.029 A 
ATOM     32  N   UNL A   1      45.371  30.842  28.961  1.00  0.00    -0.354 N 
ATOM     33  N   UNL A   1      43.360  26.656  28.733  1.00  0.00    -0.248 NA
ATOM     34  C   UNL A   1      42.726  27.153  26.527  1.00  0.00     0.031 C 
ATOM     35  C   UNL A   1      44.414  30.355  27.054  1.00  0.00     0.029 A 
ATOM     36  C   UNL A   1      44.903  29.779  28.233  1.00  0.00     0.049 A 
ATOM     37  H   UNL A   1      46.058  30.810  29.665  1.00  0.00     0.167 HD
ATOM     38  C   UNL A   1      44.294  27.477  28.148  1.00  0.00     0.074 A 
ATOM     39  C   UNL A   1      43.998  27.486  26.732  1.00  0.00     0.031 C 
ATOM     40  C   UNL A   1      44.852  28.476  28.881  1.00  0.00     0.034 A 
BRANCH  27  41
ATOM     41  C   UNL A   1      45.591  33.736  30.056  1.00  0.00     0.023 A 
ATOM     42  C   UNL A   1      46.451  34.322  29.088  1.00  0.00     0.031 A 
ATOM     43  C   UNL A   1      46.083  33.717  31.367  1.00  0.00     0.131 A 
ATOM     44  C   UNL A   1      47.761  34.713  29.394  1.00  0.00     0.055 A 
ATOM     45  C   UNL A   1      47.370  34.182  31.690  1.00  0.00     0.041 A 
ATOM     46  F   UNL A   1      45.392  33.186  32.382  1.00  0.00    -0.206 F 
ATOM     47  C   UNL A   1      48.230  34.644  30.698  1.00  0.00     0.022 A 
BRANCH  44  48
ATOM     48  S   UNL A   1      48.881  35.118  28.023  1.00  0.00     0.124 S 
ATOM     49  O   UNL A   1      49.572  33.853  27.802  1.00  0.00    -0.237 OA
ATOM     50  O   UNL A   1      47.947  35.527  26.979  1.00  0.00    -0.237 OA
ATOM     51  O   UNL A   1      49.710  36.191  28.570  1.00  0.00    -0.744 OA
ENDBRANCH  44  48
ENDBRANCH  27  41
BRANCH  28  52
ATOM     52  C   UNL A   1      40.557  24.915  27.507  1.00  0.00     0.023 A 
ATOM     53  C   UNL A   1      41.330  23.752  27.353  1.00  0.00     0.031 A 
ATOM     54  C   UNL A   1      39.211  24.799  27.047  1.00  0.00     0.131 A 
ATOM     55  C   UNL A   1      40.758  22.565  26.830  1.00  0.00     0.055 A 
ATOM     56  C   UNL A   1      38.635  23.614  26.589  1.00  0.00     0.041 A 
ATOM     57  F   UNL A   1      38.371  25.843  27.029  1.00  0.00    -0.206 F 
ATOM     58  C   UNL A   1      39.407  22.480  26.489  1.00  0.00     0.022 A 
BRANCH  55  59
ATOM     59  S   UNL A   1      41.749  21.059  26.603  1.00  0.00     0.124 S 
ATOM     60  O   UNL A   1      42.567  21.408  25.447  1.00  0.00    -0.237 OA
ATOM     61  O   UNL A   1      42.457  20.930  27.872  1.00  0.00    -0.237 OA
ATOM     62  O   UNL A   1      40.731  20.036  26.361  1.00  0.00    -0.744 OA
ENDBRANCH  55  59
ENDBRANCH  28  52
BRANCH  40  63
ATOM     63  C   UNL A   1      44.864  28.214  30.392  1.00  0.00     0.023 A 
ATOM     64  C   UNL A   1      43.785  28.602  31.210  1.00  0.00     0.031 A 
ATOM     65  C   UNL A   1      45.978  27.691  31.073  1.00  0.00     0.131 A 
ATOM     66  C   UNL A   1      43.867  28.498  32.617  1.00  0.00     0.055 A 
ATOM     67  C   UNL A   1      46.064  27.577  32.463  1.00  0.00     0.041 A 
ATOM     68  F   UNL A   1      47.045  27.267  30.407  1.00  0.00    -0.206 F 
ATOM     69  C   UNL A   1      45.003  27.991  33.248  1.00  0.00     0.022 A 
BRANCH  66  70
ATOM     70  S   UNL A   1      42.458  29.007  33.639  1.00  0.00     0.124 S 
ATOM     71  O   UNL A   1      41.346  28.278  33.039  1.00  0.00    -0.237 OA
ATOM     72  O   UNL A   1      42.860  28.575  34.974  1.00  0.00    -0.237 OA
ATOM     73  O   UNL A   1      42.411  30.459  33.458  1.00  0.00    -0.744 OA
ENDBRANCH  66  70
ENDBRANCH  40  63
ENDBRANCH  14  15
ENDBRANCH   7   9
ENDBRANCH   6   7
ENDBRANCH   5   6
ENDBRANCH   4   5
ENDBRANCH   3   4
ENDBRANCH   2   3
ENDBRANCH   1   2
BRANCH   1  74
ATOM     74  O   UNL A   1      33.546  32.681  27.157  1.00  0.00    -0.376 OA
BRANCH  74  75
ATOM     75  C   UNL A   1      32.915  31.505  27.633  1.00  0.00     0.202 C 
BRANCH  75  76
ATOM     76  C   UNL A   1      33.297  30.277  26.793  1.00  0.00     0.261 C 
BRANCH  76  77
ATOM     77  O   UNL A   1      32.257  29.792  25.929  1.00  0.00    -0.459 OA
BRANCH  77  78
ATOM     78  C   UNL A   1      31.771  28.555  26.246  1.00  0.00     0.354 C 
ATOM     79  O   UNL A   1      31.437  28.176  27.358  1.00  0.00    -0.244 OA
BRANCH  78  80
ATOM     80  C   UNL A   1      31.713  27.720  25.069  1.00  0.00     0.126 A 
ATOM     81  C   UNL A   1      32.696  27.380  24.156  1.00  0.00     0.057 A 
ATOM     82  N   UNL A   1      30.594  26.985  24.737  1.00  0.00    -0.354 N 
ATOM     83  C   UNL A   1      32.287  26.142  23.589  1.00  0.00     0.106 A 
ATOM     84  C   UNL A   1      30.945  25.985  23.866  1.00  0.00     0.105 A 
ATOM     85  H   UNL A   1      29.684  27.152  25.073  1.00  0.00     0.166 HD
BRANCH  83  86
ATOM     86  S   UNL A   1      33.366  24.978  22.903  1.00  0.00     0.263 S 
ATOM     87  O   UNL A   1      32.643  23.727  22.897  1.00  0.00    -0.201 OA
ATOM     88  O   UNL A   1      33.866  25.585  21.688  1.00  0.00    -0.201 OA
BRANCH  86  89
ATOM     89  N   UNL A   1      34.714  24.757  23.957  1.00  0.00    -0.277 N 
ATOM     90  H   UNL A   1      35.172  25.517  24.386  1.00  0.00     0.180 HD
BRANCH  89  91
ATOM     91  C   UNL A   1      35.131  23.393  24.172  1.00  0.00     0.075 A 
ATOM     92  C   UNL A   1      36.296  22.967  23.515  1.00  0.00     0.029 A 
ATOM     93  C   UNL A   1      34.563  22.577  25.171  1.00  0.00     0.089 A 
ATOM     94  C   UNL A   1      36.919  21.769  23.870  1.00  0.00     0.002 A 
ATOM     95  C   UNL A   1      35.210  21.375  25.526  1.00  0.00     0.030 A 
ATOM     96  C   UNL A   1      36.385  20.981  24.884  1.00  0.00     0.002 A 
BRANCH  93  97
ATOM     97  N   UNL A   1      33.406  22.954  25.914  1.00  0.00    -0.238 N 
ATOM     98  C   UNL A   1      32.238  22.251  26.126  1.00  0.00     0.130 A 
ATOM     99  N   UNL A   1      33.343  24.178  26.512  1.00  0.00    -0.175 NA
ATOM    100  C   UNL A   1      31.345  23.142  26.654  1.00  0.00     0.056 A 
ATOM    101  C   UNL A   1      32.058  24.324  26.846  1.00  0.00     0.151 A 
ATOM    102  Br  UNL A   1      29.546  22.870  27.057  1.00  0.00    -0.047 Br
ENDBRANCH  93  97
ENDBRANCH  89  91
ENDBRANCH  86  89
ENDBRANCH  83  86
ENDBRANCH  78  80
ENDBRANCH  77  78
ENDBRANCH  76  77
ENDBRANCH  75  76
ENDBRANCH  74  75
ENDBRANCH   1  74
TORSDOF 24
ENDMDL
MODEL 3
REMARK VINA RESULT:     -10.4      3.982      5.601
REMARK SMILES O=C(OCCOCCOCCOC(=O)c1cc(S(=O)(=O)Nc2ccccc2-n2cc(Br)cn2)c[nH]1)c1ccc(-c2c3nc(c(-c4cc(S(=O)(=O)[O-])ccc4F)c4ccc([nH]4)c(-c4cc(S(=O)(=O)[O-])ccc4F)c4nc(c(-c5cc(S(=O)(=O)[O-])ccc5F)c5ccc2[nH]5)C=C4)C=C3)cc1
REMARK SMILES IDX 8 1 7 2 6 3 5 4 4 5 3 6 2 7 1 8 36 9 37 10 98 11 38 12 97 13
REMARK SMILES IDX 39 14 40 15 41 16 91 17 42 18 96 19 90 20 92 21 43 22 95 23
REMARK SMILES IDX 89 24 88 25 44 27 76 28 56 29 75 30 57 31 60 32 74 33 93 34
REMARK SMILES IDX 58 35 59 36 73 38 94 39 61 40 45 41 46 42 54 43 47 44 53 45
REMARK SMILES IDX 55 46 52 47 48 48 49 49 50 50 51 51 77 52 78 53 86 54 79 55
REMARK SMILES IDX 85 56 87 57 84 58 80 59 81 60 82 61 83 62 62 63 63 64 71 65
REMARK SMILES IDX 64 66 70 67 72 68 69 69 65 70 66 71 67 72 68 73 9 74 10 75
REMARK SMILES IDX 11 76 12 77 13 78 14 79 15 80 16 81 35 82 17 83 34 84 18 86
REMARK SMILES IDX 19 87 20 88 21 89 22 91 23 92 27 93 24 94 26 95 25 96 28 97
REMARK SMILES IDX 29 98 33 99 30 100 32 101 31 102
REMARK H PARENT 92 26 60 37 35 85 21 90
REMARK Flexibility Score: inf
ROOT
ATOM      1  C   UNL A   1      35.308  33.316  28.220  1.00  0.00     0.188 C 
ENDROOT
BRANCH   1   2
ATOM      2  C   UNL A   1      34.147  34.169  28.764  1.00  0.00     0.188 C 
BRANCH   2   3
ATOM      3  O   UNL A   1      33.921  33.911  30.151  1.00  0.00    -0.376 OA
BRANCH   3   4
ATOM      4  C   UNL A   1      35.084  33.594  30.898  1.00  0.00     0.202 C 
BRANCH   4   5
ATOM      5  C   UNL A   1      34.975  32.310  31.743  1.00  0.00     0.261 C 
BRANCH   5   6
ATOM      6  O   UNL A   1      35.986  32.140  32.766  1.00  0.00    -0.460 OA
BRANCH   6   7
ATOM      7  C   UNL A   1      37.264  32.540  32.929  1.00  0.00     0.338 C 
ATOM      8  O   UNL A   1      37.477  33.727  33.172  1.00  0.00    -0.246 OA
BRANCH   7   9
ATOM      9  C   UNL A   1      38.429  31.635  32.787  1.00  0.00     0.060 A 
ATOM     10  C   UNL A   1      38.463  30.328  33.262  1.00  0.00     0.016 A 
ATOM     11  C   UNL A   1      39.560  32.137  32.113  1.00  0.00     0.016 A 
ATOM     12  C   UNL A   1      39.583  29.541  33.108  1.00  0.00     0.010 A 
ATOM     13  C   UNL A   1      40.714  31.366  31.986  1.00  0.00     0.010 A 
ATOM     14  C   UNL A   1      40.720  30.075  32.512  1.00  0.00    -0.014 A 
BRANCH  14  15
ATOM     15  C   UNL A   1      41.904  29.206  32.546  1.00  0.00     0.031 A 
ATOM     16  C   UNL A   1      42.821  29.511  33.724  1.00  0.00     0.074 A 
ATOM     17  C   UNL A   1      42.068  28.425  31.438  1.00  0.00     0.049 A 
ATOM     18  N   UNL A   1      44.118  29.540  33.785  1.00  0.00    -0.248 NA
ATOM     19  C   UNL A   1      42.208  30.006  34.983  1.00  0.00     0.031 C 
ATOM     20  C   UNL A   1      41.088  28.334  30.328  1.00  0.00     0.029 A 
ATOM     21  N   UNL A   1      43.064  27.588  30.995  1.00  0.00    -0.354 N 
ATOM     22  C   UNL A   1      44.461  29.770  35.136  1.00  0.00     0.074 A 
ATOM     23  C   UNL A   1      43.264  30.244  35.764  1.00  0.00     0.031 C 
ATOM     24  C   UNL A   1      41.555  27.548  29.338  1.00  0.00     0.029 A 
ATOM     25  C   UNL A   1      42.856  27.032  29.707  1.00  0.00     0.049 A 
ATOM     26  H   UNL A   1      43.864  27.388  31.534  1.00  0.00     0.167 HD
ATOM     27  C   UNL A   1      45.645  29.363  35.691  1.00  0.00     0.034 A 
ATOM     28  C   UNL A   1      43.679  26.228  28.968  1.00  0.00     0.034 A 
ATOM     29  C   UNL A   1      46.463  28.740  34.695  1.00  0.00     0.049 A 
ATOM     30  C   UNL A   1      44.834  25.936  29.834  1.00  0.00     0.074 A 
ATOM     31  C   UNL A   1      47.177  29.185  33.616  1.00  0.00     0.029 A 
ATOM     32  N   UNL A   1      46.426  27.363  34.648  1.00  0.00    -0.354 N 
ATOM     33  N   UNL A   1      44.797  25.173  30.883  1.00  0.00    -0.248 NA
ATOM     34  C   UNL A   1      46.116  26.599  29.564  1.00  0.00     0.031 C 
ATOM     35  C   UNL A   1      47.191  28.084  32.728  1.00  0.00     0.029 A 
ATOM     36  C   UNL A   1      46.546  26.997  33.332  1.00  0.00     0.049 A 
ATOM     37  H   UNL A   1      46.332  26.755  35.416  1.00  0.00     0.167 HD
ATOM     38  C   UNL A   1      45.939  25.521  31.563  1.00  0.00     0.074 A 
ATOM     39  C   UNL A   1      46.820  26.133  30.592  1.00  0.00     0.031 C 
ATOM     40  C   UNL A   1      45.866  25.788  32.893  1.00  0.00     0.034 A 
BRANCH  27  41
ATOM     41  C   UNL A   1      46.090  29.190  37.132  1.00  0.00     0.023 A 
ATOM     42  C   UNL A   1      47.176  30.004  37.553  1.00  0.00     0.031 A 
ATOM     43  C   UNL A   1      45.746  28.147  38.002  1.00  0.00     0.131 A 
ATOM     44  C   UNL A   1      47.948  29.693  38.679  1.00  0.00     0.055 A 
ATOM     45  C   UNL A   1      46.473  27.881  39.175  1.00  0.00     0.041 A 
ATOM     46  F   UNL A   1      44.754  27.291  37.733  1.00  0.00    -0.206 F 
ATOM     47  C   UNL A   1      47.602  28.628  39.499  1.00  0.00     0.022 A 
BRANCH  44  48
ATOM     48  S   UNL A   1      49.510  30.586  38.927  1.00  0.00     0.124 S 
ATOM     49  O   UNL A   1      49.890  30.179  40.275  1.00  0.00    -0.237 OA
ATOM     50  O   UNL A   1      50.335  30.059  37.845  1.00  0.00    -0.237 OA
ATOM     51  O   UNL A   1      49.124  31.989  38.787  1.00  0.00    -0.744 OA
ENDBRANCH  44  48
ENDBRANCH  27  41
BRANCH  28  52
ATOM     52  C   UNL A   1      43.707  25.649  27.570  1.00  0.00     0.023 A 
ATOM     53  C   UNL A   1      44.238  24.399  27.208  1.00  0.00     0.031 A 
ATOM     54  C   UNL A   1      43.114  26.377  26.495  1.00  0.00     0.131 A 
ATOM     55  C   UNL A   1      44.117  23.918  25.880  1.00  0.00     0.055 A 
ATOM     56  C   UNL A   1      42.944  25.876  25.204  1.00  0.00     0.041 A 
ATOM     57  F   UNL A   1      42.653  27.626  26.649  1.00  0.00    -0.206 F 
ATOM     58  C   UNL A   1      43.437  24.630  24.890  1.00  0.00     0.022 A 
BRANCH  55  59
ATOM     59  S   UNL A   1      44.816  22.314  25.389  1.00  0.00     0.124 S 
ATOM     60  O   UNL A   1      43.684  21.417  25.591  1.00  0.00    -0.237 OA
ATOM     61  O   UNL A   1      45.219  22.534  24.004  1.00  0.00    -0.237 OA
ATOM     62  O   UNL A   1      45.923  22.143  26.331  1.00  0.00    -0.744 OA
ENDBRANCH  55  59
ENDBRANCH  28  52
BRANCH  40  63
ATOM     63  C   UNL A   1      44.699  25.093  33.608  1.00  0.00     0.023 A 
ATOM     64  C   UNL A   1      43.677  25.835  34.231  1.00  0.00     0.031 A 
ATOM     65  C   UNL A   1      44.633  23.700  33.796  1.00  0.00     0.131 A 
ATOM     66  C   UNL A   1      42.692  25.196  35.017  1.00  0.00     0.055 A 
ATOM     67  C   UNL A   1      43.657  23.060  34.565  1.00  0.00     0.041 A 
ATOM     68  F   UNL A   1      45.527  22.895  33.236  1.00  0.00    -0.206 F 
ATOM     69  C   UNL A   1      42.680  23.812  35.190  1.00  0.00     0.022 A 
BRANCH  66  70
ATOM     70  S   UNL A   1      41.390  26.184  35.804  1.00  0.00     0.124 S 
ATOM     71  O   UNL A   1      40.796  26.890  34.674  1.00  0.00    -0.237 OA
ATOM     72  O   UNL A   1      40.554  25.166  36.432  1.00  0.00    -0.237 OA
ATOM     73  O   UNL A   1      42.125  27.033  36.742  1.00  0.00    -0.744 OA
ENDBRANCH  66  70
ENDBRANCH  40  63
ENDBRANCH  14  15
ENDBRANCH   7   9
ENDBRANCH   6   7
ENDBRANCH   5   6
ENDBRANCH   4   5
ENDBRANCH   3   4
ENDBRANCH   2   3
ENDBRANCH   1   2
BRANCH   1  74
ATOM     74  O   UNL A   1      35.003  32.166  27.431  1.00  0.00    -0.376 OA
BRANCH  74  75
ATOM     75  C   UNL A   1      34.623  30.981  28.111  1.00  0.00     0.202 C 
BRANCH  75  76
ATOM     76  C   UNL A   1      34.373  29.823  27.134  1.00  0.00     0.261 C 
BRANCH  76  77
ATOM     77  O   UNL A   1      33.415  30.103  26.102  1.00  0.00    -0.459 OA
BRANCH  77  78
ATOM     78  C   UNL A   1      32.608  29.054  25.760  1.00  0.00     0.354 C 
ATOM     79  O   UNL A   1      31.720  28.575  26.450  1.00  0.00    -0.244 OA
BRANCH  78  80
ATOM     80  C   UNL A   1      32.954  28.558  24.449  1.00  0.00     0.126 A 
ATOM     81  C   UNL A   1      33.620  27.406  24.069  1.00  0.00     0.057 A 
ATOM     82  N   UNL A   1      32.516  29.164  23.289  1.00  0.00    -0.354 N 
ATOM     83  C   UNL A   1      33.184  27.126  22.744  1.00  0.00     0.106 A 
ATOM     84  C   UNL A   1      32.610  28.277  22.247  1.00  0.00     0.105 A 
ATOM     85  H   UNL A   1      32.188  30.089  23.220  1.00  0.00     0.166 HD
BRANCH  83  86
ATOM     86  S   UNL A   1      33.180  25.551  22.030  1.00  0.00     0.263 S 
ATOM     87  O   UNL A   1      33.175  25.767  20.602  1.00  0.00    -0.201 OA
ATOM     88  O   UNL A   1      34.240  24.824  22.696  1.00  0.00    -0.201 OA
BRANCH  86  89
ATOM     89  N   UNL A   1      31.697  24.755  22.409  1.00  0.00    -0.277 N 
ATOM     90  H   UNL A   1      31.236  24.173  21.760  1.00  0.00     0.180 HD
BRANCH  89  91
ATOM     91  C   UNL A   1      31.171  24.994  23.729  1.00  0.00     0.075 A 
ATOM     92  C   UNL A   1      30.220  26.018  23.867  1.00  0.00     0.029 A 
ATOM     93  C   UNL A   1      31.393  24.108  24.804  1.00  0.00     0.089 A 
ATOM     94  C   UNL A   1      29.466  26.140  25.036  1.00  0.00     0.002 A 
ATOM     95  C   UNL A   1      30.614  24.238  25.973  1.00  0.00     0.030 A 
ATOM     96  C   UNL A   1      29.652  25.243  26.081  1.00  0.00     0.002 A 
BRANCH  93  97
ATOM     97  N   UNL A   1      32.308  23.017  24.732  1.00  0.00    -0.238 N 
ATOM     98  C   UNL A   1      33.480  22.814  25.432  1.00  0.00     0.130 A 
ATOM     99  N   UNL A   1      32.093  21.996  23.853  1.00  0.00    -0.175 NA
ATOM    100  C   UNL A   1      34.123  21.781  24.809  1.00  0.00     0.056 A 
ATOM    101  C   UNL A   1      33.249  21.328  23.824  1.00  0.00     0.151 A 
ATOM    102  Br  UNL A   1      35.813  21.087  25.178  1.00  0.00    -0.047 Br
ENDBRANCH  93  97
ENDBRANCH  89  91
ENDBRANCH  86  89
ENDBRANCH  83  86
ENDBRANCH  78  80
ENDBRANCH  77  78
ENDBRANCH  76  77
ENDBRANCH  75  76
ENDBRANCH  74  75
ENDBRANCH   1  74
TORSDOF 24
ENDMDL
