MODEL 1
REMARK VINA RESULT:      -8.9      0.000      0.000
REMARK SMILES COCC[C@H]([NH3+])C(=O)N1CC(n2cc(C(=O)OCCOCCOCCOC(=O)c3ccc(-c4c5nc(c(-c6cc(S(=O)(=O)[O-])ccc6F)c6ccc([nH]6)c(-c6cc(S(=O)(=O)[O-])ccc6F)c6nc(c(-c7cc(S(=O)(=O)[O-])ccc7F)c7ccc4[nH]7)C=C6)C=C5)cc3)nn2)C1
REMARK SMILES IDX 21 1 20 2 19 3 18 4 17 5 15 6 16 7 14 8 12 9 13 10 93 11
REMARK SMILES IDX 92 12 11 13 7 14 8 15 9 16 10 17 94 18 5 19 4 20 3 21 2 22
REMARK SMILES IDX 1 23 6 24 22 28 23 29 24 30 25 31 26 32 27 33 28 34 29 35
REMARK SMILES IDX 30 36 91 37 31 38 90 39 32 40 33 41 34 42 84 43 35 44 89 45
REMARK SMILES IDX 83 46 85 47 36 48 88 49 82 50 81 51 37 53 69 54 49 55 68 56
REMARK SMILES IDX 50 57 53 58 67 59 86 60 51 61 52 62 66 64 87 65 54 66 38 67
REMARK SMILES IDX 39 68 47 69 40 70 46 71 48 72 45 73 41 74 42 75 43 76 44 77
REMARK SMILES IDX 70 78 71 79 79 80 72 81 78 82 80 83 77 84 73 85 74 86 75 87
REMARK SMILES IDX 76 88 55 89 56 90 64 91 57 92 63 93 65 94 62 95 58 96 59 97
REMARK SMILES IDX 60 98 61 99
REMARK H PARENT 6 25 6 26 6 27 85 52 53 63
REMARK Flexibility Score: inf
ROOT
ATOM      1  C   UNL A   1      34.332  26.295  25.556  1.00  0.00     0.188 C 
ENDROOT
BRANCH   1   2
ATOM      2  O   UNL A   1      33.474  27.366  25.183  1.00  0.00    -0.376 OA
BRANCH   2   3
ATOM      3  C   UNL A   1      33.933  28.390  24.313  1.00  0.00     0.202 C 
BRANCH   3   4
ATOM      4  C   UNL A   1      33.049  28.829  23.134  1.00  0.00     0.261 C 
BRANCH   4   5
ATOM      5  O   UNL A   1      31.690  29.142  23.480  1.00  0.00    -0.458 OA
BRANCH   5   6
ATOM      6  C   UNL A   1      30.722  28.511  22.751  1.00  0.00     0.360 C 
ATOM      7  O   UNL A   1      30.356  28.864  21.639  1.00  0.00    -0.244 OA
BRANCH   6   8
ATOM      8  C   UNL A   1      30.211  27.320  23.417  1.00  0.00     0.190 A 
ATOM      9  N   UNL A   1      29.929  25.425  24.428  1.00  0.00    -0.245 N 
ATOM     10  C   UNL A   1      30.894  26.199  23.850  1.00  0.00     0.147 A 
ATOM     11  N   UNL A   1      28.717  25.985  24.309  1.00  0.00    -0.066 NA
ATOM     12  N   UNL A   1      28.874  27.148  23.693  1.00  0.00    -0.123 NA
BRANCH   9  13
ATOM     13  C   UNL A   1      30.239  24.351  25.314  1.00  0.00     0.148 C 
ATOM     14  C   UNL A   1      32.513  22.696  27.012  1.00  0.00     0.280 C 
ATOM     15  O   UNL A   1      32.216  22.495  28.191  1.00  0.00    -0.268 OA
ATOM     16  N   UNL A   1      31.895  23.658  26.272  1.00  0.00    -0.333 N 
ATOM     17  C   UNL A   1      30.934  24.690  26.640  1.00  0.00     0.149 C 
ATOM     18  C   UNL A   1      31.592  23.743  24.863  1.00  0.00     0.149 C 
BRANCH  14  19
ATOM     19  C   UNL A   1      33.701  21.956  26.357  1.00  0.00     0.273 C 
BRANCH  19  20
ATOM     20  C   UNL A   1      33.382  20.467  26.166  1.00  0.00     0.104 C 
BRANCH  20  21
ATOM     21  C   UNL A   1      32.481  20.156  24.966  1.00  0.00     0.166 C 
BRANCH  21  22
ATOM     22  O   UNL A   1      32.001  18.813  24.977  1.00  0.00    -0.384 OA
ATOM     23  C   UNL A   1      32.822  17.907  25.706  1.00  0.00     0.194 C 
ENDBRANCH  21  22
ENDBRANCH  20  21
ENDBRANCH  19  20
BRANCH  19  24
ATOM     24  N   UNL A   1      34.952  22.116  27.132  1.00  0.00    -0.347 N 
ATOM     25  H   UNL A   1      35.637  22.623  26.572  1.00  0.00     0.345 HD
ATOM     26  H   UNL A   1      35.323  21.197  27.373  1.00  0.00     0.345 HD
ATOM     27  H   UNL A   1      34.759  22.639  27.986  1.00  0.00     0.345 HD
ENDBRANCH  19  24
ENDBRANCH  14  19
ENDBRANCH   9  13
ENDBRANCH   6   8
ENDBRANCH   5   6
ENDBRANCH   4   5
ENDBRANCH   3   4
ENDBRANCH   2   3
ENDBRANCH   1   2
BRANCH   1  28
ATOM     28  C   UNL A   1      34.649  25.133  24.588  1.00  0.00     0.188 C 
BRANCH  28  29
ATOM     29  O   UNL A   1      35.804  24.370  24.903  1.00  0.00    -0.376 OA
BRANCH  29  30
ATOM     30  C   UNL A   1      35.989  23.153  24.184  1.00  0.00     0.202 C 
BRANCH  30  31
ATOM     31  C   UNL A   1      37.343  22.460  24.327  1.00  0.00     0.261 C 
BRANCH  31  32
ATOM     32  O   UNL A   1      37.584  21.894  25.604  1.00  0.00    -0.460 OA
BRANCH  32  33
ATOM     33  C   UNL A   1      38.876  21.615  25.870  1.00  0.00     0.338 C 
ATOM     34  O   UNL A   1      39.387  20.510  25.924  1.00  0.00    -0.246 OA
BRANCH  33  35
ATOM     35  C   UNL A   1      39.561  22.876  26.167  1.00  0.00     0.060 A 
ATOM     36  C   UNL A   1      40.951  22.876  26.060  1.00  0.00     0.016 A 
ATOM     37  C   UNL A   1      38.856  23.885  26.840  1.00  0.00     0.016 A 
ATOM     38  C   UNL A   1      41.654  23.761  26.845  1.00  0.00     0.010 A 
ATOM     39  C   UNL A   1      39.558  24.747  27.643  1.00  0.00     0.010 A 
ATOM     40  C   UNL A   1      40.941  24.603  27.703  1.00  0.00    -0.014 A 
BRANCH  40  41
ATOM     41  C   UNL A   1      41.693  25.349  28.684  1.00  0.00     0.031 A 
ATOM     42  C   UNL A   1      41.167  26.700  28.937  1.00  0.00     0.074 A 
ATOM     43  C   UNL A   1      42.719  24.802  29.359  1.00  0.00     0.049 A 
ATOM     44  N   UNL A   1      41.745  27.830  28.706  1.00  0.00    -0.248 NA
ATOM     45  C   UNL A   1      39.762  26.809  29.363  1.00  0.00     0.031 C 
ATOM     46  C   UNL A   1      43.130  23.395  29.381  1.00  0.00     0.029 A 
ATOM     47  N   UNL A   1      43.544  25.384  30.270  1.00  0.00    -0.354 N 
ATOM     48  C   UNL A   1      40.863  28.791  29.178  1.00  0.00     0.074 A 
ATOM     49  C   UNL A   1      39.601  28.131  29.375  1.00  0.00     0.031 C 
ATOM     50  C   UNL A   1      43.970  23.199  30.422  1.00  0.00     0.029 A 
ATOM     51  C   UNL A   1      44.242  24.480  31.058  1.00  0.00     0.049 A 
ATOM     52  H   UNL A   1      43.637  26.359  30.362  1.00  0.00     0.167 HD
ATOM     53  C   UNL A   1      41.310  29.995  29.621  1.00  0.00     0.034 A 
ATOM     54  C   UNL A   1      44.913  24.756  32.206  1.00  0.00     0.034 A 
ATOM     55  C   UNL A   1      42.613  30.307  29.083  1.00  0.00     0.049 A 
ATOM     56  C   UNL A   1      45.217  26.210  32.198  1.00  0.00     0.074 A 
ATOM     57  C   UNL A   1      43.117  30.399  27.798  1.00  0.00     0.029 A 
ATOM     58  N   UNL A   1      43.714  30.192  29.901  1.00  0.00    -0.354 N 
ATOM     59  N   UNL A   1      46.028  26.774  31.345  1.00  0.00    -0.248 NA
ATOM     60  C   UNL A   1      44.275  27.117  32.839  1.00  0.00     0.031 C 
ATOM     61  C   UNL A   1      44.425  29.839  27.870  1.00  0.00     0.029 A 
ATOM     62  C   UNL A   1      44.675  29.498  29.201  1.00  0.00     0.049 A 
ATOM     63  H   UNL A   1      43.798  30.543  30.817  1.00  0.00     0.167 HD
ATOM     64  C   UNL A   1      45.430  27.983  31.022  1.00  0.00     0.074 A 
ATOM     65  C   UNL A   1      44.418  28.188  32.054  1.00  0.00     0.031 C 
ATOM     66  C   UNL A   1      45.615  28.565  29.798  1.00  0.00     0.034 A 
BRANCH  53  67
ATOM     67  C   UNL A   1      40.696  30.713  30.796  1.00  0.00     0.023 A 
ATOM     68  C   UNL A   1      41.033  30.274  32.085  1.00  0.00     0.031 A 
ATOM     69  C   UNL A   1      39.613  31.625  30.717  1.00  0.00     0.131 A 
ATOM     70  C   UNL A   1      40.288  30.689  33.202  1.00  0.00     0.055 A 
ATOM     71  C   UNL A   1      38.929  32.097  31.837  1.00  0.00     0.041 A 
ATOM     72  F   UNL A   1      39.089  32.030  29.553  1.00  0.00    -0.206 F 
ATOM     73  C   UNL A   1      39.249  31.610  33.090  1.00  0.00     0.022 A 
BRANCH  70  74
ATOM     74  S   UNL A   1      40.585  29.865  34.785  1.00  0.00     0.124 S 
ATOM     75  O   UNL A   1      39.395  30.240  35.541  1.00  0.00    -0.237 OA
ATOM     76  O   UNL A   1      40.679  28.467  34.381  1.00  0.00    -0.237 OA
ATOM     77  O   UNL A   1      41.833  30.467  35.250  1.00  0.00    -0.744 OA
ENDBRANCH  70  74
ENDBRANCH  53  67
BRANCH  54  78
ATOM     78  C   UNL A   1      44.988  23.898  33.417  1.00  0.00     0.023 A 
ATOM     79  C   UNL A   1      46.186  23.289  33.838  1.00  0.00     0.031 A 
ATOM     80  C   UNL A   1      43.899  23.847  34.320  1.00  0.00     0.131 A 
ATOM     81  C   UNL A   1      46.258  22.662  35.103  1.00  0.00     0.055 A 
ATOM     82  C   UNL A   1      43.969  23.212  35.559  1.00  0.00     0.041 A 
ATOM     83  F   UNL A   1      42.749  24.491  34.064  1.00  0.00    -0.206 F 
ATOM     84  C   UNL A   1      45.155  22.621  35.962  1.00  0.00     0.022 A 
BRANCH  81  85
ATOM     85  S   UNL A   1      47.835  21.977  35.699  1.00  0.00     0.124 S 
ATOM     86  O   UNL A   1      48.336  21.282  34.519  1.00  0.00    -0.237 OA
ATOM     87  O   UNL A   1      48.562  23.175  36.105  1.00  0.00    -0.237 OA
ATOM     88  O   UNL A   1      47.433  21.104  36.803  1.00  0.00    -0.744 OA
ENDBRANCH  81  85
ENDBRANCH  54  78
BRANCH  66  89
ATOM     89  C   UNL A   1      46.726  28.038  28.906  1.00  0.00     0.023 A 
ATOM     90  C   UNL A   1      46.578  26.993  27.964  1.00  0.00     0.031 A 
ATOM     91  C   UNL A   1      47.961  28.712  28.936  1.00  0.00     0.131 A 
ATOM     92  C   UNL A   1      47.648  26.652  27.111  1.00  0.00     0.055 A 
ATOM     93  C   UNL A   1      49.010  28.386  28.076  1.00  0.00     0.041 A 
ATOM     94  F   UNL A   1      48.159  29.733  29.788  1.00  0.00    -0.206 F 
ATOM     95  C   UNL A   1      48.858  27.349  27.163  1.00  0.00     0.022 A 
BRANCH  92  96
ATOM     96  S   UNL A   1      47.488  25.280  25.922  1.00  0.00     0.124 S 
ATOM     97  O   UNL A   1      46.098  25.362  25.489  1.00  0.00    -0.237 OA
ATOM     98  O   UNL A   1      48.493  25.616  24.917  1.00  0.00    -0.237 OA
ATOM     99  O   UNL A   1      47.805  24.097  26.725  1.00  0.00    -0.744 OA
ENDBRANCH  92  96
ENDBRANCH  66  89
ENDBRANCH  40  41
ENDBRANCH  33  35
ENDBRANCH  32  33
ENDBRANCH  31  32
ENDBRANCH  30  31
ENDBRANCH  29  30
ENDBRANCH  28  29
ENDBRANCH   1  28
TORSDOF 26
ENDMDL
MODEL 2
REMARK VINA RESULT:      -8.5      5.534     11.782
REMARK SMILES COCC[C@H]([NH3+])C(=O)N1CC(n2cc(C(=O)OCCOCCOCCOC(=O)c3ccc(-c4c5nc(c(-c6cc(S(=O)(=O)[O-])ccc6F)c6ccc([nH]6)c(-c6cc(S(=O)(=O)[O-])ccc6F)c6nc(c(-c7cc(S(=O)(=O)[O-])ccc7F)c7ccc4[nH]7)C=C6)C=C5)cc3)nn2)C1
REMARK SMILES IDX 21 1 20 2 19 3 18 4 17 5 15 6 16 7 14 8 12 9 13 10 93 11
REMARK SMILES IDX 92 12 11 13 7 14 8 15 9 16 10 17 94 18 5 19 4 20 3 21 2 22
REMARK SMILES IDX 1 23 6 24 22 28 23 29 24 30 25 31 26 32 27 33 28 34 29 35
REMARK SMILES IDX 30 36 91 37 31 38 90 39 32 40 33 41 34 42 84 43 35 44 89 45
REMARK SMILES IDX 83 46 85 47 36 48 88 49 82 50 81 51 37 53 69 54 49 55 68 56
REMARK SMILES IDX 50 57 53 58 67 59 86 60 51 61 52 62 66 64 87 65 54 66 38 67
REMARK SMILES IDX 39 68 47 69 40 70 46 71 48 72 45 73 41 74 42 75 43 76 44 77
REMARK SMILES IDX 70 78 71 79 79 80 72 81 78 82 80 83 77 84 73 85 74 86 75 87
REMARK SMILES IDX 76 88 55 89 56 90 64 91 57 92 63 93 65 94 62 95 58 96 59 97
REMARK SMILES IDX 60 98 61 99
REMARK H PARENT 6 25 6 26 6 27 85 52 53 63
REMARK Flexibility Score: inf
ROOT
ATOM      1  C   UNL A   1      46.322  26.356  25.024  1.00  0.00     0.188 C 
ENDROOT
BRANCH   1   2
ATOM      2  O   UNL A   1      47.350  27.301  25.292  1.00  0.00    -0.376 OA
BRANCH   2   3
ATOM      3  C   UNL A   1      48.492  26.929  26.050  1.00  0.00     0.202 C 
BRANCH   3   4
ATOM      4  C   UNL A   1      49.431  28.024  26.583  1.00  0.00     0.261 C 
BRANCH   4   5
ATOM      5  O   UNL A   1      48.901  28.801  27.669  1.00  0.00    -0.458 OA
BRANCH   5   6
ATOM      6  C   UNL A   1      49.581  28.726  28.852  1.00  0.00     0.360 C 
ATOM      7  O   UNL A   1      50.694  29.193  29.039  1.00  0.00    -0.244 OA
BRANCH   6   8
ATOM      8  C   UNL A   1      48.801  28.080  29.901  1.00  0.00     0.190 A 
ATOM      9  N   UNL A   1      47.452  26.866  31.083  1.00  0.00    -0.245 N 
ATOM     10  C   UNL A   1      47.797  27.137  29.790  1.00  0.00     0.147 A 
ATOM     11  N   UNL A   1      48.139  27.630  31.942  1.00  0.00    -0.066 NA
ATOM     12  N   UNL A   1      48.972  28.379  31.233  1.00  0.00    -0.123 NA
BRANCH   9  13
ATOM     13  C   UNL A   1      46.713  25.702  31.449  1.00  0.00     0.148 C 
ATOM     14  C   UNL A   1      45.011  24.079  33.743  1.00  0.00     0.280 C 
ATOM     15  O   UNL A   1      43.928  23.640  33.352  1.00  0.00    -0.268 OA
ATOM     16  N   UNL A   1      45.666  25.069  33.076  1.00  0.00    -0.333 N 
ATOM     17  C   UNL A   1      45.270  25.891  31.939  1.00  0.00     0.149 C 
ATOM     18  C   UNL A   1      47.071  25.358  32.918  1.00  0.00     0.149 C 
BRANCH  14  19
ATOM     19  C   UNL A   1      45.612  23.620  35.091  1.00  0.00     0.273 C 
BRANCH  19  20
ATOM     20  C   UNL A   1      45.084  22.234  35.485  1.00  0.00     0.104 C 
BRANCH  20  21
ATOM     21  C   UNL A   1      45.745  21.066  34.744  1.00  0.00     0.166 C 
BRANCH  21  22
ATOM     22  O   UNL A   1      47.169  21.134  34.778  1.00  0.00    -0.384 OA
ATOM     23  C   UNL A   1      47.820  20.056  34.117  1.00  0.00     0.194 C 
ENDBRANCH  21  22
ENDBRANCH  20  21
ENDBRANCH  19  20
BRANCH  19  24
ATOM     24  N   UNL A   1      45.352  24.593  36.176  1.00  0.00    -0.347 N 
ATOM     25  H   UNL A   1      46.202  24.731  36.722  1.00  0.00     0.345 HD
ATOM     26  H   UNL A   1      44.612  24.237  36.782  1.00  0.00     0.345 HD
ATOM     27  H   UNL A   1      45.061  25.484  35.772  1.00  0.00     0.345 HD
ENDBRANCH  19  24
ENDBRANCH  14  19
ENDBRANCH   9  13
ENDBRANCH   6   8
ENDBRANCH   5   6
ENDBRANCH   4   5
ENDBRANCH   3   4
ENDBRANCH   2   3
ENDBRANCH   1   2
BRANCH   1  28
ATOM     28  C   UNL A   1      46.551  24.837  25.190  1.00  0.00     0.188 C 
BRANCH  28  29
ATOM     29  O   UNL A   1      45.735  24.001  24.382  1.00  0.00    -0.376 OA
BRANCH  29  30
ATOM     30  C   UNL A   1      44.828  23.136  25.061  1.00  0.00     0.202 C 
BRANCH  30  31
ATOM     31  C   UNL A   1      43.337  23.364  24.817  1.00  0.00     0.261 C 
BRANCH  31  32
ATOM     32  O   UNL A   1      42.706  24.208  25.766  1.00  0.00    -0.460 OA
BRANCH  32  33
ATOM     33  C   UNL A   1      41.657  23.658  26.409  1.00  0.00     0.338 C 
ATOM     34  O   UNL A   1      41.104  22.607  26.137  1.00  0.00    -0.246 OA
BRANCH  33  35
ATOM     35  C   UNL A   1      41.232  24.585  27.461  1.00  0.00     0.060 A 
ATOM     36  C   UNL A   1      40.211  25.478  27.138  1.00  0.00     0.016 A 
ATOM     37  C   UNL A   1      42.056  24.757  28.584  1.00  0.00     0.016 A 
ATOM     38  C   UNL A   1      40.178  26.681  27.803  1.00  0.00     0.010 A 
ATOM     39  C   UNL A   1      42.039  25.967  29.226  1.00  0.00     0.010 A 
ATOM     40  C   UNL A   1      41.164  26.943  28.759  1.00  0.00    -0.014 A 
BRANCH  40  41
ATOM     41  C   UNL A   1      41.258  28.289  29.270  1.00  0.00     0.031 A 
ATOM     42  C   UNL A   1      42.369  29.068  28.699  1.00  0.00     0.074 A 
ATOM     43  C   UNL A   1      40.345  28.792  30.119  1.00  0.00     0.049 A 
ATOM     44  N   UNL A   1      43.399  29.543  29.311  1.00  0.00    -0.248 NA
ATOM     45  C   UNL A   1      42.412  29.207  27.234  1.00  0.00     0.031 C 
ATOM     46  C   UNL A   1      39.066  28.197  30.518  1.00  0.00     0.029 A 
ATOM     47  N   UNL A   1      40.322  30.013  30.718  1.00  0.00    -0.354 N 
ATOM     48  C   UNL A   1      44.104  30.245  28.345  1.00  0.00     0.074 A 
ATOM     49  C   UNL A   1      43.573  29.839  27.072  1.00  0.00     0.031 C 
ATOM     50  C   UNL A   1      38.302  29.147  31.102  1.00  0.00     0.029 A 
ATOM     51  C   UNL A   1      39.080  30.371  31.223  1.00  0.00     0.049 A 
ATOM     52  H   UNL A   1      41.116  30.591  30.786  1.00  0.00     0.167 HD
ATOM     53  C   UNL A   1      44.888  31.302  28.679  1.00  0.00     0.034 A 
ATOM     54  C   UNL A   1      38.695  31.612  31.618  1.00  0.00     0.034 A 
ATOM     55  C   UNL A   1      45.276  31.256  30.069  1.00  0.00     0.049 A 
ATOM     56  C   UNL A   1      39.929  32.383  31.914  1.00  0.00     0.074 A 
ATOM     57  C   UNL A   1      45.920  30.312  30.849  1.00  0.00     0.029 A 
ATOM     58  N   UNL A   1      44.663  32.108  30.958  1.00  0.00    -0.354 N 
ATOM     59  N   UNL A   1      40.742  32.098  32.894  1.00  0.00    -0.248 NA
ATOM     60  C   UNL A   1      40.512  33.188  30.851  1.00  0.00     0.031 C 
ATOM     61  C   UNL A   1      45.255  30.353  32.108  1.00  0.00     0.029 A 
ATOM     62  C   UNL A   1      44.291  31.361  32.053  1.00  0.00     0.049 A 
ATOM     63  H   UNL A   1      44.517  33.074  30.834  1.00  0.00     0.167 HD
ATOM     64  C   UNL A   1      42.014  32.304  32.383  1.00  0.00     0.074 A 
ATOM     65  C   UNL A   1      41.806  33.081  31.164  1.00  0.00     0.031 C 
ATOM     66  C   UNL A   1      43.089  31.590  32.837  1.00  0.00     0.034 A 
BRANCH  53  67
ATOM     67  C   UNL A   1      45.015  32.532  27.816  1.00  0.00     0.023 A 
ATOM     68  C   UNL A   1      46.248  32.773  27.191  1.00  0.00     0.031 A 
ATOM     69  C   UNL A   1      44.084  33.601  27.781  1.00  0.00     0.131 A 
ATOM     70  C   UNL A   1      46.532  34.028  26.624  1.00  0.00     0.055 A 
ATOM     71  C   UNL A   1      44.341  34.816  27.145  1.00  0.00     0.041 A 
ATOM     72  F   UNL A   1      42.922  33.573  28.444  1.00  0.00    -0.206 F 
ATOM     73  C   UNL A   1      45.581  35.045  26.583  1.00  0.00     0.022 A 
BRANCH  70  74
ATOM     74  S   UNL A   1      48.230  34.369  26.101  1.00  0.00     0.124 S 
ATOM     75  O   UNL A   1      48.843  33.049  26.212  1.00  0.00    -0.237 OA
ATOM     76  O   UNL A   1      48.030  34.876  24.749  1.00  0.00    -0.237 OA
ATOM     77  O   UNL A   1      48.692  35.354  27.077  1.00  0.00    -0.744 OA
ENDBRANCH  70  74
ENDBRANCH  53  67
BRANCH  54  78
ATOM     78  C   UNL A   1      37.357  32.229  31.421  1.00  0.00     0.023 A 
ATOM     79  C   UNL A   1      36.919  32.697  30.166  1.00  0.00     0.031 A 
ATOM     80  C   UNL A   1      36.385  32.162  32.447  1.00  0.00     0.131 A 
ATOM     81  C   UNL A   1      35.570  33.078  29.981  1.00  0.00     0.055 A 
ATOM     82  C   UNL A   1      35.060  32.556  32.264  1.00  0.00     0.041 A 
ATOM     83  F   UNL A   1      36.670  31.628  33.645  1.00  0.00    -0.206 F 
ATOM     84  C   UNL A   1      34.643  33.009  31.024  1.00  0.00     0.022 A 
BRANCH  81  85
ATOM     85  S   UNL A   1      34.974  33.571  28.334  1.00  0.00     0.124 S 
ATOM     86  O   UNL A   1      33.738  32.807  28.210  1.00  0.00    -0.237 OA
ATOM     87  O   UNL A   1      34.833  35.016  28.472  1.00  0.00    -0.237 OA
ATOM     88  O   UNL A   1      36.052  33.145  27.439  1.00  0.00    -0.744 OA
ENDBRANCH  81  85
ENDBRANCH  54  78
BRANCH  66  89
ATOM     89  C   UNL A   1      42.939  30.792  34.120  1.00  0.00     0.023 A 
ATOM     90  C   UNL A   1      42.467  29.460  34.193  1.00  0.00     0.031 A 
ATOM     91  C   UNL A   1      43.409  31.377  35.311  1.00  0.00     0.131 A 
ATOM     92  C   UNL A   1      42.466  28.776  35.425  1.00  0.00     0.055 A 
ATOM     93  C   UNL A   1      43.427  30.689  36.524  1.00  0.00     0.041 A 
ATOM     94  F   UNL A   1      43.897  32.630  35.307  1.00  0.00    -0.206 F 
ATOM     95  C   UNL A   1      42.949  29.386  36.586  1.00  0.00     0.022 A 
BRANCH  92  96
ATOM     96  S   UNL A   1      41.822  27.075  35.543  1.00  0.00     0.124 S 
ATOM     97  O   UNL A   1      43.001  26.245  35.328  1.00  0.00    -0.237 OA
ATOM     98  O   UNL A   1      41.254  27.046  36.889  1.00  0.00    -0.237 OA
ATOM     99  O   UNL A   1      40.830  27.013  34.467  1.00  0.00    -0.744 OA
ENDBRANCH  92  96
ENDBRANCH  66  89
ENDBRANCH  40  41
ENDBRANCH  33  35
ENDBRANCH  32  33
ENDBRANCH  31  32
ENDBRANCH  30  31
ENDBRANCH  29  30
ENDBRANCH  28  29
ENDBRANCH   1  28
TORSDOF 26
ENDMDL
MODEL 3
REMARK VINA RESULT:      -8.5      6.084     13.990
REMARK SMILES COCC[C@H]([NH3+])C(=O)N1CC(n2cc(C(=O)OCCOCCOCCOC(=O)c3ccc(-c4c5nc(c(-c6cc(S(=O)(=O)[O-])ccc6F)c6ccc([nH]6)c(-c6cc(S(=O)(=O)[O-])ccc6F)c6nc(c(-c7cc(S(=O)(=O)[O-])ccc7F)c7ccc4[nH]7)C=C6)C=C5)cc3)nn2)C1
REMARK SMILES IDX 21 1 20 2 19 3 18 4 17 5 15 6 16 7 14 8 12 9 13 10 93 11
REMARK SMILES IDX 92 12 11 13 7 14 8 15 9 16 10 17 94 18 5 19 4 20 3 21 2 22
REMARK SMILES IDX 1 23 6 24 22 28 23 29 24 30 25 31 26 32 27 33 28 34 29 35
REMARK SMILES IDX 30 36 91 37 31 38 90 39 32 40 33 41 34 42 84 43 35 44 89 45
REMARK SMILES IDX 83 46 85 47 36 48 88 49 82 50 81 51 37 53 69 54 49 55 68 56
REMARK SMILES IDX 50 57 53 58 67 59 86 60 51 61 52 62 66 64 87 65 54 66 38 67
REMARK SMILES IDX 39 68 47 69 40 70 46 71 48 72 45 73 41 74 42 75 43 76 44 77
REMARK SMILES IDX 70 78 71 79 79 80 72 81 78 82 80 83 77 84 73 85 74 86 75 87
REMARK SMILES IDX 76 88 55 89 56 90 64 91 57 92 63 93 65 94 62 95 58 96 59 97
REMARK SMILES IDX 60 98 61 99
REMARK H PARENT 6 25 6 26 6 27 85 52 53 63
REMARK Flexibility Score: inf
ROOT
ATOM      1  C   UNL A   1      47.541  24.961  26.406  1.00  0.00     0.188 C 
ENDROOT
BRANCH   1   2
ATOM      2  O   UNL A   1      48.911  24.775  26.741  1.00  0.00    -0.376 OA
BRANCH   2   3
ATOM      3  C   UNL A   1      49.790  25.887  26.823  1.00  0.00     0.202 C 
BRANCH   3   4
ATOM      4  C   UNL A   1      49.786  26.934  25.697  1.00  0.00     0.261 C 
BRANCH   4   5
ATOM      5  O   UNL A   1      50.154  26.433  24.402  1.00  0.00    -0.458 OA
BRANCH   5   6
ATOM      6  C   UNL A   1      49.363  26.821  23.358  1.00  0.00     0.360 C 
ATOM      7  O   UNL A   1      48.236  26.394  23.151  1.00  0.00    -0.244 OA
BRANCH   6   8
ATOM      8  C   UNL A   1      49.984  27.858  22.544  1.00  0.00     0.190 A 
ATOM      9  N   UNL A   1      51.324  29.229  21.535  1.00  0.00    -0.245 N 
ATOM     10  C   UNL A   1      51.309  28.246  22.483  1.00  0.00     0.147 A 
ATOM     11  N   UNL A   1      50.090  29.488  21.082  1.00  0.00    -0.066 NA
ATOM     12  N   UNL A   1      49.258  28.655  21.689  1.00  0.00    -0.123 NA
BRANCH   9  13
ATOM     13  C   UNL A   1      52.526  29.661  20.901  1.00  0.00     0.148 C 
ATOM     14  C   UNL A   1      54.502  32.144  20.051  1.00  0.00     0.280 C 
ATOM     15  O   UNL A   1      55.687  31.966  20.335  1.00  0.00    -0.268 OA
ATOM     16  N   UNL A   1      53.507  31.425  20.641  1.00  0.00    -0.333 N 
ATOM     17  C   UNL A   1      53.533  30.464  21.737  1.00  0.00     0.149 C 
ATOM     18  C   UNL A   1      52.218  30.987  20.160  1.00  0.00     0.149 C 
BRANCH  14  19
ATOM     19  C   UNL A   1      54.076  33.293  19.108  1.00  0.00     0.273 C 
BRANCH  19  20
ATOM     20  C   UNL A   1      54.805  33.197  17.761  1.00  0.00     0.104 C 
BRANCH  20  21
ATOM     21  C   UNL A   1      56.012  34.131  17.621  1.00  0.00     0.166 C 
BRANCH  21  22
ATOM     22  O   UNL A   1      55.631  35.477  17.345  1.00  0.00    -0.384 OA
ATOM     23  C   UNL A   1      55.017  35.660  16.074  1.00  0.00     0.194 C 
ENDBRANCH  21  22
ENDBRANCH  20  21
ENDBRANCH  19  20
BRANCH  19  24
ATOM     24  N   UNL A   1      54.300  34.624  19.717  1.00  0.00    -0.347 N 
ATOM     25  H   UNL A   1      55.291  34.859  19.666  1.00  0.00     0.345 HD
ATOM     26  H   UNL A   1      54.005  34.605  20.693  1.00  0.00     0.345 HD
ATOM     27  H   UNL A   1      53.759  35.325  19.211  1.00  0.00     0.345 HD
ENDBRANCH  19  24
ENDBRANCH  14  19
ENDBRANCH   9  13
ENDBRANCH   6   8
ENDBRANCH   5   6
ENDBRANCH   4   5
ENDBRANCH   3   4
ENDBRANCH   2   3
ENDBRANCH   1   2
BRANCH   1  28
ATOM     28  C   UNL A   1      46.430  24.068  27.003  1.00  0.00     0.188 C 
BRANCH  28  29
ATOM     29  O   UNL A   1      45.882  23.098  26.122  1.00  0.00    -0.376 OA
BRANCH  29  30
ATOM     30  C   UNL A   1      44.497  22.801  26.273  1.00  0.00     0.202 C 
BRANCH  30  31
ATOM     31  C   UNL A   1      43.546  23.369  25.220  1.00  0.00     0.261 C 
BRANCH  31  32
ATOM     32  O   UNL A   1      42.567  24.259  25.728  1.00  0.00    -0.460 OA
BRANCH  32  33
ATOM     33  C   UNL A   1      41.585  23.677  26.446  1.00  0.00     0.338 C 
ATOM     34  O   UNL A   1      41.077  22.589  26.239  1.00  0.00    -0.246 OA
BRANCH  33  35
ATOM     35  C   UNL A   1      41.165  24.618  27.488  1.00  0.00     0.060 A 
ATOM     36  C   UNL A   1      40.031  25.386  27.224  1.00  0.00     0.016 A 
ATOM     37  C   UNL A   1      42.067  24.934  28.515  1.00  0.00     0.016 A 
ATOM     38  C   UNL A   1      39.936  26.616  27.830  1.00  0.00     0.010 A 
ATOM     39  C   UNL A   1      41.985  26.172  29.097  1.00  0.00     0.010 A 
ATOM     40  C   UNL A   1      40.974  27.028  28.671  1.00  0.00    -0.014 A 
BRANCH  40  41
ATOM     41  C   UNL A   1      40.975  28.405  29.105  1.00  0.00     0.031 A 
ATOM     42  C   UNL A   1      42.090  29.199  28.565  1.00  0.00     0.074 A 
ATOM     43  C   UNL A   1      39.984  28.913  29.858  1.00  0.00     0.049 A 
ATOM     44  N   UNL A   1      43.053  29.756  29.217  1.00  0.00    -0.248 NA
ATOM     45  C   UNL A   1      42.232  29.256  27.101  1.00  0.00     0.031 C 
ATOM     46  C   UNL A   1      38.706  28.284  30.203  1.00  0.00     0.029 A 
ATOM     47  N   UNL A   1      39.868  30.164  30.379  1.00  0.00    -0.354 N 
ATOM     48  C   UNL A   1      43.796  30.433  28.260  1.00  0.00     0.074 A 
ATOM     49  C   UNL A   1      43.374  29.930  26.981  1.00  0.00     0.031 C 
ATOM     50  C   UNL A   1      37.864  29.230  30.676  1.00  0.00     0.029 A 
ATOM     51  C   UNL A   1      38.579  30.493  30.775  1.00  0.00     0.049 A 
ATOM     52  H   UNL A   1      40.630  30.781  30.466  1.00  0.00     0.167 HD
ATOM     53  C   UNL A   1      44.509  31.542  28.582  1.00  0.00     0.034 A 
ATOM     54  C   UNL A   1      38.115  31.735  31.068  1.00  0.00     0.034 A 
ATOM     55  C   UNL A   1      44.799  31.593  29.996  1.00  0.00     0.049 A 
ATOM     56  C   UNL A   1      39.293  32.578  31.400  1.00  0.00     0.074 A 
ATOM     57  C   UNL A   1      45.425  30.726  30.874  1.00  0.00     0.029 A 
ATOM     58  N   UNL A   1      44.089  32.466  30.788  1.00  0.00    -0.354 N 
ATOM     59  N   UNL A   1      40.045  32.387  32.449  1.00  0.00    -0.248 NA
ATOM     60  C   UNL A   1      39.915  33.347  30.333  1.00  0.00     0.031 C 
ATOM     61  C   UNL A   1      44.672  30.809  32.080  1.00  0.00     0.029 A 
ATOM     62  C   UNL A   1      43.672  31.767  31.898  1.00  0.00     0.049 A 
ATOM     63  H   UNL A   1      43.913  33.416  30.597  1.00  0.00     0.167 HD
ATOM     64  C   UNL A   1      41.340  32.621  32.014  1.00  0.00     0.074 A 
ATOM     65  C   UNL A   1      41.187  33.317  30.740  1.00  0.00     0.031 C 
ATOM     66  C   UNL A   1      42.409  31.985  32.583  1.00  0.00     0.034 A 
BRANCH  53  67
ATOM     67  C   UNL A   1      44.645  32.725  27.657  1.00  0.00     0.023 A 
ATOM     68  C   UNL A   1      43.995  33.916  28.012  1.00  0.00     0.031 A 
ATOM     69  C   UNL A   1      45.158  32.670  26.336  1.00  0.00     0.131 A 
ATOM     70  C   UNL A   1      43.829  34.950  27.075  1.00  0.00     0.055 A 
ATOM     71  C   UNL A   1      45.063  33.732  25.436  1.00  0.00     0.041 A 
ATOM     72  F   UNL A   1      45.684  31.558  25.808  1.00  0.00    -0.206 F 
ATOM     73  C   UNL A   1      44.373  34.873  25.795  1.00  0.00     0.022 A 
BRANCH  70  74
ATOM     74  S   UNL A   1      42.734  36.326  27.500  1.00  0.00     0.124 S 
ATOM     75  O   UNL A   1      43.227  37.379  26.618  1.00  0.00    -0.237 OA
ATOM     76  O   UNL A   1      41.424  35.775  27.179  1.00  0.00    -0.237 OA
ATOM     77  O   UNL A   1      42.992  36.535  28.924  1.00  0.00    -0.744 OA
ENDBRANCH  70  74
ENDBRANCH  53  67
BRANCH  54  78
ATOM     78  C   UNL A   1      36.770  32.278  30.742  1.00  0.00     0.023 A 
ATOM     79  C   UNL A   1      35.929  32.848  31.719  1.00  0.00     0.031 A 
ATOM     80  C   UNL A   1      36.380  32.447  29.392  1.00  0.00     0.131 A 
ATOM     81  C   UNL A   1      34.758  33.539  31.331  1.00  0.00     0.055 A 
ATOM     82  C   UNL A   1      35.215  33.115  29.017  1.00  0.00     0.041 A 
ATOM     83  F   UNL A   1      37.166  32.041  28.382  1.00  0.00    -0.206 F 
ATOM     84  C   UNL A   1      34.400  33.673  29.987  1.00  0.00     0.022 A 
BRANCH  81  85
ATOM     85  S   UNL A   1      33.732  34.375  32.581  1.00  0.00     0.124 S 
ATOM     86  O   UNL A   1      32.733  35.050  31.759  1.00  0.00    -0.237 OA
ATOM     87  O   UNL A   1      33.259  33.261  33.393  1.00  0.00    -0.237 OA
ATOM     88  O   UNL A   1      34.676  35.267  33.257  1.00  0.00    -0.744 OA
ENDBRANCH  81  85
ENDBRANCH  54  78
BRANCH  66  89
ATOM     89  C   UNL A   1      42.202  31.256  33.899  1.00  0.00     0.023 A 
ATOM     90  C   UNL A   1      42.070  29.854  34.034  1.00  0.00     0.031 A 
ATOM     91  C   UNL A   1      42.259  32.017  35.082  1.00  0.00     0.131 A 
ATOM     92  C   UNL A   1      41.986  29.270  35.314  1.00  0.00     0.055 A 
ATOM     93  C   UNL A   1      42.197  31.433  36.347  1.00  0.00     0.041 A 
ATOM     94  F   UNL A   1      42.411  33.351  35.026  1.00  0.00    -0.206 F 
ATOM     95  C   UNL A   1      42.055  30.056  36.468  1.00  0.00     0.022 A 
BRANCH  92  96
ATOM     96  S   UNL A   1      41.772  27.470  35.503  1.00  0.00     0.124 S 
ATOM     97  O   UNL A   1      43.121  26.944  35.329  1.00  0.00    -0.237 OA
ATOM     98  O   UNL A   1      41.209  27.359  36.846  1.00  0.00    -0.237 OA
ATOM     99  O   UNL A   1      40.842  27.125  34.426  1.00  0.00    -0.744 OA
ENDBRANCH  92  96
ENDBRANCH  66  89
ENDBRANCH  40  41
ENDBRANCH  33  35
ENDBRANCH  32  33
ENDBRANCH  31  32
ENDBRANCH  30  31
ENDBRANCH  29  30
ENDBRANCH  28  29
ENDBRANCH   1  28
TORSDOF 26
ENDMDL
