MODEL 1
REMARK VINA RESULT:     -10.7      0.000      0.000
REMARK SMILES COc1cccc(-c2c(C(=O)OCCOCCOCCOC(=O)c3ccc(-c4c5nc(c(-c6cc(S(=O)(=O)[O-])ccc6F)c6ccc([nH]6)c(-c6cc(S(=O)(=O)[O-])ccc6F)c6nc(c(-c7cc(S(=O)(=O)[O-])ccc7F)c7ccc4[nH]7)C=C6)C=C5)cc3)nnn2-c2ccc(OC(F)(F)F)cc2)c1
REMARK SMILES IDX 16 1 15 2 14 3 13 4 12 5 10 6 11 7 9 8 8 9 89 10 87 11 88 12
REMARK SMILES IDX 7 13 3 14 4 15 101 16 5 17 6 18 2 19 1 20 90 21 91 22 100 23
REMARK SMILES IDX 92 24 99 25 93 26 94 27 95 28 96 29 97 30 98 31 17 32 18 33
REMARK SMILES IDX 19 34 20 35 21 36 22 37 23 38 24 39 25 40 86 41 26 42 85 43
REMARK SMILES IDX 27 44 28 45 29 46 79 47 30 48 84 49 78 50 80 51 31 52 83 53
REMARK SMILES IDX 77 54 76 55 32 57 64 58 44 59 63 60 45 61 48 62 62 63 81 64
REMARK SMILES IDX 46 65 47 66 61 68 82 69 49 70 33 71 34 72 42 73 35 74 41 75
REMARK SMILES IDX 43 76 40 77 36 78 37 79 38 80 39 81 65 82 66 83 74 84 67 85
REMARK SMILES IDX 73 86 75 87 72 88 68 89 69 90 70 91 71 92 50 93 51 94 59 95
REMARK SMILES IDX 52 96 58 97 60 98 57 99 53 100 54 101 55 102 56 103
REMARK H PARENT 80 56 48 67
REMARK Flexibility Score: inf
ROOT
ATOM      1  C   UNL A   1      31.043  31.131  25.635  1.00  0.00     0.188 C 
ENDROOT
BRANCH   1   2
ATOM      2  O   UNL A   1      30.165  30.923  24.542  1.00  0.00    -0.376 OA
BRANCH   2   3
ATOM      3  C   UNL A   1      29.228  31.915  24.159  1.00  0.00     0.202 C 
BRANCH   3   4
ATOM      4  C   UNL A   1      28.123  31.662  23.113  1.00  0.00     0.261 C 
BRANCH   4   5
ATOM      5  O   UNL A   1      27.650  30.313  23.005  1.00  0.00    -0.458 OA
BRANCH   5   6
ATOM      6  C   UNL A   1      28.459  29.431  22.357  1.00  0.00     0.361 C 
ATOM      7  O   UNL A   1      29.057  29.685  21.312  1.00  0.00    -0.244 OA
BRANCH   6   8
ATOM      8  C   UNL A   1      28.650  28.186  23.083  1.00  0.00     0.198 A 
ATOM      9  C   UNL A   1      29.768  27.365  23.195  1.00  0.00     0.109 A 
ATOM     10  N   UNL A   1      29.334  26.388  24.091  1.00  0.00    -0.212 N 
ATOM     11  N   UNL A   1      27.581  27.577  23.707  1.00  0.00    -0.122 NA
ATOM     12  N   UNL A   1      27.989  26.417  24.198  1.00  0.00    -0.061 NA
BRANCH   9  13
ATOM     13  C   UNL A   1      31.115  27.414  22.619  1.00  0.00     0.007 A 
ATOM     14  C   UNL A   1      32.840  26.429  21.198  1.00  0.00     0.119 A 
ATOM     15  C   UNL A   1      33.755  27.362  21.684  1.00  0.00     0.046 A 
ATOM     16  C   UNL A   1      31.521  26.463  21.657  1.00  0.00     0.056 A 
ATOM     17  C   UNL A   1      33.354  28.340  22.593  1.00  0.00     0.005 A 
ATOM     18  C   UNL A   1      32.040  28.365  23.060  1.00  0.00     0.011 A 
BRANCH  14  19
ATOM     19  O   UNL A   1      33.365  25.491  20.352  1.00  0.00    -0.497 OA
ATOM     20  C   UNL A   1      32.605  25.204  19.182  1.00  0.00     0.278 C 
ENDBRANCH  14  19
ENDBRANCH   9  13
BRANCH  10  21
ATOM     21  C   UNL A   1      30.097  25.581  24.968  1.00  0.00     0.067 A 
ATOM     22  C   UNL A   1      30.076  24.190  24.855  1.00  0.00     0.032 A 
ATOM     23  C   UNL A   1      30.823  26.190  25.999  1.00  0.00     0.032 A 
ATOM     24  C   UNL A   1      30.835  23.421  25.743  1.00  0.00     0.049 A 
ATOM     25  C   UNL A   1      31.539  25.410  26.908  1.00  0.00     0.049 A 
ATOM     26  C   UNL A   1      31.567  24.023  26.776  1.00  0.00     0.129 A 
BRANCH  26  27
ATOM     27  O   UNL A   1      32.252  23.155  27.577  1.00  0.00    -0.406 OA
BRANCH  27  28
ATOM     28  C   UNL A   1      33.535  22.737  27.140  1.00  0.00     0.573 C 
ATOM     29  F   UNL A   1      33.908  23.383  26.013  1.00  0.00    -0.132 F 
ATOM     30  F   UNL A   1      34.466  22.934  28.099  1.00  0.00    -0.132 F 
ATOM     31  F   UNL A   1      33.494  21.414  26.865  1.00  0.00    -0.132 F 
ENDBRANCH  27  28
ENDBRANCH  26  27
ENDBRANCH  10  21
ENDBRANCH   6   8
ENDBRANCH   5   6
ENDBRANCH   4   5
ENDBRANCH   3   4
ENDBRANCH   2   3
ENDBRANCH   1   2
BRANCH   1  32
ATOM     32  C   UNL A   1      31.951  29.996  26.156  1.00  0.00     0.188 C 
BRANCH  32  33
ATOM     33  O   UNL A   1      32.531  30.159  27.431  1.00  0.00    -0.376 OA
BRANCH  33  34
ATOM     34  C   UNL A   1      33.925  30.317  27.643  1.00  0.00     0.202 C 
BRANCH  34  35
ATOM     35  C   UNL A   1      34.698  31.632  27.574  1.00  0.00     0.261 C 
BRANCH  35  36
ATOM     36  O   UNL A   1      36.099  31.535  27.672  1.00  0.00    -0.460 OA
BRANCH  36  37
ATOM     37  C   UNL A   1      36.613  32.352  28.614  1.00  0.00     0.338 C 
ATOM     38  O   UNL A   1      36.513  33.568  28.667  1.00  0.00    -0.246 OA
BRANCH  37  39
ATOM     39  C   UNL A   1      37.404  31.550  29.542  1.00  0.00     0.060 A 
ATOM     40  C   UNL A   1      38.589  32.127  29.994  1.00  0.00     0.016 A 
ATOM     41  C   UNL A   1      37.169  30.169  29.564  1.00  0.00     0.016 A 
ATOM     42  C   UNL A   1      39.660  31.294  30.191  1.00  0.00     0.010 A 
ATOM     43  C   UNL A   1      38.245  29.344  29.732  1.00  0.00     0.010 A 
ATOM     44  C   UNL A   1      39.492  29.930  29.936  1.00  0.00    -0.014 A 
BRANCH  44  45
ATOM     45  C   UNL A   1      40.652  29.077  30.012  1.00  0.00     0.031 A 
ATOM     46  C   UNL A   1      41.007  28.790  31.414  1.00  0.00     0.074 A 
ATOM     47  C   UNL A   1      41.228  28.538  28.922  1.00  0.00     0.049 A 
ATOM     48  N   UNL A   1      42.016  29.249  32.075  1.00  0.00    -0.248 NA
ATOM     49  C   UNL A   1      39.988  28.134  32.256  1.00  0.00     0.031 C 
ATOM     50  C   UNL A   1      40.777  28.587  27.529  1.00  0.00     0.029 A 
ATOM     51  N   UNL A   1      42.311  27.724  28.852  1.00  0.00    -0.354 N 
ATOM     52  C   UNL A   1      41.900  28.681  33.335  1.00  0.00     0.074 A 
ATOM     53  C   UNL A   1      40.531  28.269  33.465  1.00  0.00     0.031 C 
ATOM     54  C   UNL A   1      41.433  27.641  26.816  1.00  0.00     0.029 A 
ATOM     55  C   UNL A   1      42.420  26.996  27.670  1.00  0.00     0.049 A 
ATOM     56  H   UNL A   1      42.969  27.654  29.581  1.00  0.00     0.167 HD
ATOM     57  C   UNL A   1      43.009  28.283  34.011  1.00  0.00     0.034 A 
ATOM     58  C   UNL A   1      43.191  25.888  27.481  1.00  0.00     0.034 A 
ATOM     59  C   UNL A   1      44.188  28.967  33.519  1.00  0.00     0.049 A 
ATOM     60  C   UNL A   1      44.249  25.937  28.533  1.00  0.00     0.074 A 
ATOM     61  C   UNL A   1      44.504  30.302  33.330  1.00  0.00     0.029 A 
ATOM     62  N   UNL A   1      45.078  28.269  32.729  1.00  0.00    -0.354 N 
ATOM     63  N   UNL A   1      45.167  26.868  28.577  1.00  0.00    -0.248 NA
ATOM     64  C   UNL A   1      43.959  25.295  29.810  1.00  0.00     0.031 C 
ATOM     65  C   UNL A   1      45.164  30.346  32.067  1.00  0.00     0.029 A 
ATOM     66  C   UNL A   1      45.320  29.036  31.611  1.00  0.00     0.049 A 
ATOM     67  H   UNL A   1      45.466  27.387  32.927  1.00  0.00     0.167 HD
ATOM     68  C   UNL A   1      45.254  27.227  29.915  1.00  0.00     0.074 A 
ATOM     69  C   UNL A   1      44.526  26.181  30.636  1.00  0.00     0.031 C 
ATOM     70  C   UNL A   1      45.631  28.484  30.303  1.00  0.00     0.034 A 
BRANCH  57  71
ATOM     71  C   UNL A   1      43.065  26.997  34.806  1.00  0.00     0.023 A 
ATOM     72  C   UNL A   1      43.811  25.942  34.257  1.00  0.00     0.031 A 
ATOM     73  C   UNL A   1      42.230  26.654  35.900  1.00  0.00     0.131 A 
ATOM     74  C   UNL A   1      43.641  24.626  34.720  1.00  0.00     0.055 A 
ATOM     75  C   UNL A   1      42.122  25.357  36.402  1.00  0.00     0.041 A 
ATOM     76  F   UNL A   1      41.396  27.517  36.489  1.00  0.00    -0.206 F 
ATOM     77  C   UNL A   1      42.806  24.326  35.792  1.00  0.00     0.022 A 
BRANCH  74  78
ATOM     78  S   UNL A   1      44.400  23.288  33.772  1.00  0.00     0.124 S 
ATOM     79  O   UNL A   1      45.788  23.735  33.699  1.00  0.00    -0.237 OA
ATOM     80  O   UNL A   1      44.140  22.134  34.627  1.00  0.00    -0.237 OA
ATOM     81  O   UNL A   1      43.667  23.309  32.510  1.00  0.00    -0.744 OA
ENDBRANCH  74  78
ENDBRANCH  57  71
BRANCH  58  82
ATOM     82  C   UNL A   1      42.810  24.634  26.751  1.00  0.00     0.023 A 
ATOM     83  C   UNL A   1      43.714  23.912  25.934  1.00  0.00     0.031 A 
ATOM     84  C   UNL A   1      41.588  23.983  27.043  1.00  0.00     0.131 A 
ATOM     85  C   UNL A   1      43.380  22.617  25.458  1.00  0.00     0.055 A 
ATOM     86  C   UNL A   1      41.266  22.708  26.572  1.00  0.00     0.041 A 
ATOM     87  F   UNL A   1      40.687  24.524  27.875  1.00  0.00    -0.206 F 
ATOM     88  C   UNL A   1      42.165  22.014  25.785  1.00  0.00     0.022 A 
BRANCH  85  89
ATOM     89  S   UNL A   1      44.564  21.638  24.468  1.00  0.00     0.124 S 
ATOM     90  O   UNL A   1      44.015  20.291  24.575  1.00  0.00    -0.237 OA
ATOM     91  O   UNL A   1      44.483  22.271  23.157  1.00  0.00    -0.237 OA
ATOM     92  O   UNL A   1      45.836  21.837  25.163  1.00  0.00    -0.744 OA
ENDBRANCH  85  89
ENDBRANCH  58  82
BRANCH  70  93
ATOM     93  C   UNL A   1      46.227  29.436  29.278  1.00  0.00     0.023 A 
ATOM     94  C   UNL A   1      45.516  30.425  28.554  1.00  0.00     0.031 A 
ATOM     95  C   UNL A   1      47.628  29.413  29.132  1.00  0.00     0.131 A 
ATOM     96  C   UNL A   1      46.213  31.330  27.723  1.00  0.00     0.055 A 
ATOM     97  C   UNL A   1      48.313  30.325  28.330  1.00  0.00     0.041 A 
ATOM     98  F   UNL A   1      48.367  28.514  29.802  1.00  0.00    -0.206 F 
ATOM     99  C   UNL A   1      47.607  31.284  27.618  1.00  0.00     0.022 A 
BRANCH  96 100
ATOM    100  S   UNL A   1      45.323  32.577  26.732  1.00  0.00     0.124 S 
ATOM    101  O   UNL A   1      44.041  32.704  27.413  1.00  0.00    -0.237 OA
ATOM    102  O   UNL A   1      46.210  33.736  26.814  1.00  0.00    -0.237 OA
ATOM    103  O   UNL A   1      45.248  31.966  25.404  1.00  0.00    -0.744 OA
ENDBRANCH  96 100
ENDBRANCH  70  93
ENDBRANCH  44  45
ENDBRANCH  37  39
ENDBRANCH  36  37
ENDBRANCH  35  36
ENDBRANCH  34  35
ENDBRANCH  33  34
ENDBRANCH  32  33
ENDBRANCH   1  32
TORSDOF 25
ENDMDL
MODEL 2
REMARK VINA RESULT:     -10.5      4.440      5.920
REMARK SMILES COc1cccc(-c2c(C(=O)OCCOCCOCCOC(=O)c3ccc(-c4c5nc(c(-c6cc(S(=O)(=O)[O-])ccc6F)c6ccc([nH]6)c(-c6cc(S(=O)(=O)[O-])ccc6F)c6nc(c(-c7cc(S(=O)(=O)[O-])ccc7F)c7ccc4[nH]7)C=C6)C=C5)cc3)nnn2-c2ccc(OC(F)(F)F)cc2)c1
REMARK SMILES IDX 16 1 15 2 14 3 13 4 12 5 10 6 11 7 9 8 8 9 89 10 87 11 88 12
REMARK SMILES IDX 7 13 3 14 4 15 101 16 5 17 6 18 2 19 1 20 90 21 91 22 100 23
REMARK SMILES IDX 92 24 99 25 93 26 94 27 95 28 96 29 97 30 98 31 17 32 18 33
REMARK SMILES IDX 19 34 20 35 21 36 22 37 23 38 24 39 25 40 86 41 26 42 85 43
REMARK SMILES IDX 27 44 28 45 29 46 79 47 30 48 84 49 78 50 80 51 31 52 83 53
REMARK SMILES IDX 77 54 76 55 32 57 64 58 44 59 63 60 45 61 48 62 62 63 81 64
REMARK SMILES IDX 46 65 47 66 61 68 82 69 49 70 33 71 34 72 42 73 35 74 41 75
REMARK SMILES IDX 43 76 40 77 36 78 37 79 38 80 39 81 65 82 66 83 74 84 67 85
REMARK SMILES IDX 73 86 75 87 72 88 68 89 69 90 70 91 71 92 50 93 51 94 59 95
REMARK SMILES IDX 52 96 58 97 60 98 57 99 53 100 54 101 55 102 56 103
REMARK H PARENT 80 56 48 67
REMARK Flexibility Score: inf
ROOT
ATOM      1  C   UNL A   1      33.210  31.400  27.345  1.00  0.00     0.188 C 
ENDROOT
BRANCH   1   2
ATOM      2  O   UNL A   1      32.359  30.853  26.353  1.00  0.00    -0.376 OA
BRANCH   2   3
ATOM      3  C   UNL A   1      32.542  29.528  25.883  1.00  0.00     0.202 C 
BRANCH   3   4
ATOM      4  C   UNL A   1      31.402  28.489  25.850  1.00  0.00     0.261 C 
BRANCH   4   5
ATOM      5  O   UNL A   1      31.693  27.249  25.191  1.00  0.00    -0.458 OA
BRANCH   5   6
ATOM      6  C   UNL A   1      31.034  26.147  25.642  1.00  0.00     0.361 C 
ATOM      7  O   UNL A   1      30.296  26.140  26.627  1.00  0.00    -0.244 OA
BRANCH   6   8
ATOM      8  C   UNL A   1      31.189  24.990  24.775  1.00  0.00     0.198 A 
ATOM      9  C   UNL A   1      32.179  24.013  24.735  1.00  0.00     0.109 A 
ATOM     10  N   UNL A   1      31.706  23.147  23.749  1.00  0.00    -0.212 N 
ATOM     11  N   UNL A   1      30.326  24.799  23.716  1.00  0.00    -0.122 NA
ATOM     12  N   UNL A   1      30.739  23.748  23.024  1.00  0.00    -0.061 NA
BRANCH   9  13
ATOM     13  C   UNL A   1      33.416  23.802  25.493  1.00  0.00     0.007 A 
ATOM     14  C   UNL A   1      35.856  23.756  25.578  1.00  0.00     0.119 A 
ATOM     15  C   UNL A   1      35.788  23.186  26.849  1.00  0.00     0.046 A 
ATOM     16  C   UNL A   1      34.673  24.073  24.907  1.00  0.00     0.056 A 
ATOM     17  C   UNL A   1      34.555  22.964  27.460  1.00  0.00     0.005 A 
ATOM     18  C   UNL A   1      33.373  23.269  26.784  1.00  0.00     0.011 A 
BRANCH  14  19
ATOM     19  O   UNL A   1      37.119  23.877  25.067  1.00  0.00    -0.497 OA
ATOM     20  C   UNL A   1      38.186  23.831  26.009  1.00  0.00     0.278 C 
ENDBRANCH  14  19
ENDBRANCH   9  13
BRANCH  10  21
ATOM     21  C   UNL A   1      31.967  21.767  23.575  1.00  0.00     0.067 A 
ATOM     22  C   UNL A   1      31.986  21.202  22.299  1.00  0.00     0.032 A 
ATOM     23  C   UNL A   1      32.139  20.957  24.704  1.00  0.00     0.032 A 
ATOM     24  C   UNL A   1      32.239  19.833  22.162  1.00  0.00     0.049 A 
ATOM     25  C   UNL A   1      32.344  19.584  24.558  1.00  0.00     0.049 A 
ATOM     26  C   UNL A   1      32.414  19.015  23.287  1.00  0.00     0.129 A 
BRANCH  26  27
ATOM     27  O   UNL A   1      32.641  17.697  23.012  1.00  0.00    -0.406 OA
BRANCH  27  28
ATOM     28  C   UNL A   1      33.744  17.076  23.653  1.00  0.00     0.573 C 
ATOM     29  F   UNL A   1      34.750  17.953  23.866  1.00  0.00    -0.132 F 
ATOM     30  F   UNL A   1      33.375  16.522  24.828  1.00  0.00    -0.132 F 
ATOM     31  F   UNL A   1      34.215  16.090  22.856  1.00  0.00    -0.132 F 
ENDBRANCH  27  28
ENDBRANCH  26  27
ENDBRANCH  10  21
ENDBRANCH   6   8
ENDBRANCH   5   6
ENDBRANCH   4   5
ENDBRANCH   3   4
ENDBRANCH   2   3
ENDBRANCH   1   2
BRANCH   1  32
ATOM     32  C   UNL A   1      33.158  32.901  27.702  1.00  0.00     0.188 C 
BRANCH  32  33
ATOM     33  O   UNL A   1      34.342  33.499  28.181  1.00  0.00    -0.376 OA
BRANCH  33  34
ATOM     34  C   UNL A   1      34.390  34.330  29.330  1.00  0.00     0.202 C 
BRANCH  34  35
ATOM     35  C   UNL A   1      33.214  35.098  29.929  1.00  0.00     0.261 C 
BRANCH  35  36
ATOM     36  O   UNL A   1      33.452  35.736  31.161  1.00  0.00    -0.460 OA
BRANCH  36  37
ATOM     37  C   UNL A   1      33.024  35.010  32.214  1.00  0.00     0.338 C 
ATOM     38  O   UNL A   1      31.876  34.908  32.618  1.00  0.00    -0.246 OA
BRANCH  37  39
ATOM     39  C   UNL A   1      34.185  34.418  32.871  1.00  0.00     0.060 A 
ATOM     40  C   UNL A   1      35.252  35.278  33.122  1.00  0.00     0.016 A 
ATOM     41  C   UNL A   1      34.323  33.026  32.804  1.00  0.00     0.016 A 
ATOM     42  C   UNL A   1      36.517  34.761  33.006  1.00  0.00     0.010 A 
ATOM     43  C   UNL A   1      35.585  32.519  32.661  1.00  0.00     0.010 A 
ATOM     44  C   UNL A   1      36.652  33.414  32.657  1.00  0.00    -0.014 A 
BRANCH  44  45
ATOM     45  C   UNL A   1      37.978  32.908  32.403  1.00  0.00     0.031 A 
ATOM     46  C   UNL A   1      38.760  32.823  33.651  1.00  0.00     0.074 A 
ATOM     47  C   UNL A   1      38.366  32.466  31.193  1.00  0.00     0.049 A 
ATOM     48  N   UNL A   1      39.742  33.578  34.010  1.00  0.00    -0.248 NA
ATOM     49  C   UNL A   1      38.224  31.980  34.738  1.00  0.00     0.031 C 
ATOM     50  C   UNL A   1      37.563  32.297  29.980  1.00  0.00     0.029 A 
ATOM     51  N   UNL A   1      39.571  31.967  30.821  1.00  0.00    -0.354 N 
ATOM     52  C   UNL A   1      40.128  33.089  35.249  1.00  0.00     0.074 A 
ATOM     53  C   UNL A   1      39.012  32.338  35.749  1.00  0.00     0.031 C 
ATOM     54  C   UNL A   1      38.238  31.512  29.106  1.00  0.00     0.029 A 
ATOM     55  C   UNL A   1      39.555  31.214  29.649  1.00  0.00     0.049 A 
ATOM     56  H   UNL A   1      40.393  32.124  31.339  1.00  0.00     0.167 HD
ATOM     57  C   UNL A   1      41.443  33.048  35.590  1.00  0.00     0.034 A 
ATOM     58  C   UNL A   1      40.521  30.339  29.248  1.00  0.00     0.034 A 
ATOM     59  C   UNL A   1      42.212  33.985  34.796  1.00  0.00     0.049 A 
ATOM     60  C   UNL A   1      41.766  30.741  29.966  1.00  0.00     0.074 A 
ATOM     61  C   UNL A   1      42.087  35.340  34.536  1.00  0.00     0.029 A 
ATOM     62  N   UNL A   1      43.014  33.495  33.786  1.00  0.00    -0.354 N 
ATOM     63  N   UNL A   1      42.370  31.883  29.762  1.00  0.00    -0.248 NA
ATOM     64  C   UNL A   1      42.017  30.136  31.269  1.00  0.00     0.031 C 
ATOM     65  C   UNL A   1      42.347  35.469  33.139  1.00  0.00     0.029 A 
ATOM     66  C   UNL A   1      42.728  34.219  32.650  1.00  0.00     0.049 A 
ATOM     67  H   UNL A   1      43.668  32.764  33.863  1.00  0.00     0.167 HD
ATOM     68  C   UNL A   1      42.710  32.345  31.026  1.00  0.00     0.074 A 
ATOM     69  C   UNL A   1      42.518  31.195  31.913  1.00  0.00     0.031 C 
ATOM     70  C   UNL A   1      42.817  33.681  31.303  1.00  0.00     0.034 A 
BRANCH  57  71
ATOM     71  C   UNL A   1      42.060  31.882  36.329  1.00  0.00     0.023 A 
ATOM     72  C   UNL A   1      42.918  32.188  37.397  1.00  0.00     0.031 A 
ATOM     73  C   UNL A   1      42.083  30.533  35.892  1.00  0.00     0.131 A 
ATOM     74  C   UNL A   1      43.801  31.222  37.909  1.00  0.00     0.055 A 
ATOM     75  C   UNL A   1      42.909  29.560  36.454  1.00  0.00     0.041 A 
ATOM     76  F   UNL A   1      41.388  30.088  34.840  1.00  0.00    -0.206 F 
ATOM     77  C   UNL A   1      43.800  29.908  37.449  1.00  0.00     0.022 A 
BRANCH  74  78
ATOM     78  S   UNL A   1      45.077  31.766  39.067  1.00  0.00     0.124 S 
ATOM     79  O   UNL A   1      45.578  30.490  39.568  1.00  0.00    -0.237 OA
ATOM     80  O   UNL A   1      45.975  32.512  38.191  1.00  0.00    -0.237 OA
ATOM     81  O   UNL A   1      44.336  32.572  40.033  1.00  0.00    -0.744 OA
ENDBRANCH  74  78
ENDBRANCH  57  71
BRANCH  58  82
ATOM     82  C   UNL A   1      40.318  28.982  28.642  1.00  0.00     0.023 A 
ATOM     83  C   UNL A   1      41.030  28.530  27.504  1.00  0.00     0.031 A 
ATOM     84  C   UNL A   1      39.573  27.998  29.335  1.00  0.00     0.131 A 
ATOM     85  C   UNL A   1      40.977  27.166  27.114  1.00  0.00     0.055 A 
ATOM     86  C   UNL A   1      39.524  26.657  28.945  1.00  0.00     0.041 A 
ATOM     87  F   UNL A   1      38.927  28.280  30.475  1.00  0.00    -0.206 F 
ATOM     88  C   UNL A   1      40.235  26.232  27.839  1.00  0.00     0.022 A 
BRANCH  85  89
ATOM     89  S   UNL A   1      41.949  26.548  25.696  1.00  0.00     0.124 S 
ATOM     90  O   UNL A   1      43.168  26.075  26.342  1.00  0.00    -0.237 OA
ATOM     91  O   UNL A   1      41.075  25.529  25.130  1.00  0.00    -0.237 OA
ATOM     92  O   UNL A   1      42.123  27.736  24.859  1.00  0.00    -0.744 OA
ENDBRANCH  85  89
ENDBRANCH  58  82
BRANCH  70  93
ATOM     93  C   UNL A   1      42.832  34.683  30.159  1.00  0.00     0.023 A 
ATOM     94  C   UNL A   1      43.988  35.180  29.510  1.00  0.00     0.031 A 
ATOM     95  C   UNL A   1      41.583  35.048  29.620  1.00  0.00     0.131 A 
ATOM     96  C   UNL A   1      43.859  36.012  28.376  1.00  0.00     0.055 A 
ATOM     97  C   UNL A   1      41.462  35.849  28.486  1.00  0.00     0.041 A 
ATOM     98  F   UNL A   1      40.445  34.598  30.175  1.00  0.00    -0.206 F 
ATOM     99  C   UNL A   1      42.600  36.338  27.862  1.00  0.00     0.022 A 
BRANCH  96 100
ATOM    100  S   UNL A   1      45.326  36.717  27.551  1.00  0.00     0.124 S 
ATOM    101  O   UNL A   1      45.880  35.588  26.814  1.00  0.00    -0.237 OA
ATOM    102  O   UNL A   1      44.750  37.789  26.744  1.00  0.00    -0.237 OA
ATOM    103  O   UNL A   1      46.155  37.178  28.668  1.00  0.00    -0.744 OA
ENDBRANCH  96 100
ENDBRANCH  70  93
ENDBRANCH  44  45
ENDBRANCH  37  39
ENDBRANCH  36  37
ENDBRANCH  35  36
ENDBRANCH  34  35
ENDBRANCH  33  34
ENDBRANCH  32  33
ENDBRANCH   1  32
TORSDOF 25
ENDMDL
MODEL 3
REMARK VINA RESULT:     -10.4      2.080      6.524
REMARK SMILES COc1cccc(-c2c(C(=O)OCCOCCOCCOC(=O)c3ccc(-c4c5nc(c(-c6cc(S(=O)(=O)[O-])ccc6F)c6ccc([nH]6)c(-c6cc(S(=O)(=O)[O-])ccc6F)c6nc(c(-c7cc(S(=O)(=O)[O-])ccc7F)c7ccc4[nH]7)C=C6)C=C5)cc3)nnn2-c2ccc(OC(F)(F)F)cc2)c1
REMARK SMILES IDX 16 1 15 2 14 3 13 4 12 5 10 6 11 7 9 8 8 9 89 10 87 11 88 12
REMARK SMILES IDX 7 13 3 14 4 15 101 16 5 17 6 18 2 19 1 20 90 21 91 22 100 23
REMARK SMILES IDX 92 24 99 25 93 26 94 27 95 28 96 29 97 30 98 31 17 32 18 33
REMARK SMILES IDX 19 34 20 35 21 36 22 37 23 38 24 39 25 40 86 41 26 42 85 43
REMARK SMILES IDX 27 44 28 45 29 46 79 47 30 48 84 49 78 50 80 51 31 52 83 53
REMARK SMILES IDX 77 54 76 55 32 57 64 58 44 59 63 60 45 61 48 62 62 63 81 64
REMARK SMILES IDX 46 65 47 66 61 68 82 69 49 70 33 71 34 72 42 73 35 74 41 75
REMARK SMILES IDX 43 76 40 77 36 78 37 79 38 80 39 81 65 82 66 83 74 84 67 85
REMARK SMILES IDX 73 86 75 87 72 88 68 89 69 90 70 91 71 92 50 93 51 94 59 95
REMARK SMILES IDX 52 96 58 97 60 98 57 99 53 100 54 101 55 102 56 103
REMARK H PARENT 80 56 48 67
REMARK Flexibility Score: inf
ROOT
ATOM      1  C   UNL A   1      31.629  30.911  26.105  1.00  0.00     0.188 C 
ENDROOT
BRANCH   1   2
ATOM      2  O   UNL A   1      30.461  30.857  25.304  1.00  0.00    -0.376 OA
BRANCH   2   3
ATOM      3  C   UNL A   1      30.048  31.976  24.537  1.00  0.00     0.202 C 
BRANCH   3   4
ATOM      4  C   UNL A   1      29.075  31.861  23.346  1.00  0.00     0.261 C 
BRANCH   4   5
ATOM      5  O   UNL A   1      28.160  30.758  23.380  1.00  0.00    -0.458 OA
BRANCH   5   6
ATOM      6  C   UNL A   1      28.392  29.744  22.502  1.00  0.00     0.361 C 
ATOM      7  O   UNL A   1      28.537  29.901  21.290  1.00  0.00    -0.244 OA
BRANCH   6   8
ATOM      8  C   UNL A   1      28.573  28.454  23.148  1.00  0.00     0.198 A 
ATOM      9  C   UNL A   1      29.693  27.631  23.232  1.00  0.00     0.109 A 
ATOM     10  N   UNL A   1      29.243  26.595  24.050  1.00  0.00    -0.212 N 
ATOM     11  N   UNL A   1      27.493  27.800  23.704  1.00  0.00    -0.122 NA
ATOM     12  N   UNL A   1      27.896  26.612  24.127  1.00  0.00    -0.061 NA
BRANCH   9  13
ATOM     13  C   UNL A   1      31.053  27.724  22.693  1.00  0.00     0.007 A 
ATOM     14  C   UNL A   1      32.939  26.692  21.535  1.00  0.00     0.119 A 
ATOM     15  C   UNL A   1      33.725  27.799  21.856  1.00  0.00     0.046 A 
ATOM     16  C   UNL A   1      31.603  26.661  21.944  1.00  0.00     0.056 A 
ATOM     17  C   UNL A   1      33.178  28.879  22.548  1.00  0.00     0.005 A 
ATOM     18  C   UNL A   1      31.848  28.842  22.966  1.00  0.00     0.011 A 
BRANCH  14  19
ATOM     19  O   UNL A   1      33.602  25.678  20.900  1.00  0.00    -0.497 OA
ATOM     20  C   UNL A   1      32.887  25.013  19.864  1.00  0.00     0.278 C 
ENDBRANCH  14  19
ENDBRANCH   9  13
BRANCH  10  21
ATOM     21  C   UNL A   1      29.990  25.735  24.890  1.00  0.00     0.067 A 
ATOM     22  C   UNL A   1      30.054  24.365  24.627  1.00  0.00     0.032 A 
ATOM     23  C   UNL A   1      30.609  26.261  26.030  1.00  0.00     0.032 A 
ATOM     24  C   UNL A   1      30.794  23.541  25.482  1.00  0.00     0.049 A 
ATOM     25  C   UNL A   1      31.305  25.422  26.901  1.00  0.00     0.049 A 
ATOM     26  C   UNL A   1      31.420  24.060  26.624  1.00  0.00     0.129 A 
BRANCH  26  27
ATOM     27  O   UNL A   1      32.098  23.144  27.376  1.00  0.00    -0.406 OA
BRANCH  27  28
ATOM     28  C   UNL A   1      33.411  22.804  26.963  1.00  0.00     0.573 C 
ATOM     29  F   UNL A   1      33.479  21.525  26.532  1.00  0.00    -0.132 F 
ATOM     30  F   UNL A   1      33.844  23.630  25.986  1.00  0.00    -0.132 F 
ATOM     31  F   UNL A   1      34.249  22.932  28.017  1.00  0.00    -0.132 F 
ENDBRANCH  27  28
ENDBRANCH  26  27
ENDBRANCH  10  21
ENDBRANCH   6   8
ENDBRANCH   5   6
ENDBRANCH   4   5
ENDBRANCH   3   4
ENDBRANCH   2   3
ENDBRANCH   1   2
BRANCH   1  32
ATOM     32  C   UNL A   1      32.853  30.025  25.790  1.00  0.00     0.188 C 
BRANCH  32  33
ATOM     33  O   UNL A   1      33.323  29.175  26.813  1.00  0.00    -0.376 OA
BRANCH  33  34
ATOM     34  C   UNL A   1      34.488  29.441  27.578  1.00  0.00     0.202 C 
BRANCH  34  35
ATOM     35  C   UNL A   1      35.075  30.821  27.866  1.00  0.00     0.261 C 
BRANCH  35  36
ATOM     36  O   UNL A   1      36.464  30.870  28.089  1.00  0.00    -0.460 OA
BRANCH  36  37
ATOM     37  C   UNL A   1      36.850  30.122  29.143  1.00  0.00     0.338 C 
ATOM     38  O   UNL A   1      36.528  30.278  30.311  1.00  0.00    -0.246 OA
BRANCH  37  39
ATOM     39  C   UNL A   1      37.805  29.123  28.677  1.00  0.00     0.060 A 
ATOM     40  C   UNL A   1      38.198  28.168  29.614  1.00  0.00     0.016 A 
ATOM     41  C   UNL A   1      38.559  29.431  27.538  1.00  0.00     0.016 A 
ATOM     42  C   UNL A   1      39.499  27.736  29.565  1.00  0.00     0.010 A 
ATOM     43  C   UNL A   1      39.862  29.021  27.508  1.00  0.00     0.010 A 
ATOM     44  C   UNL A   1      40.336  28.269  28.580  1.00  0.00    -0.014 A 
BRANCH  44  45
ATOM     45  C   UNL A   1      41.734  27.918  28.614  1.00  0.00     0.031 A 
ATOM     46  C   UNL A   1      41.983  26.670  27.868  1.00  0.00     0.074 A 
ATOM     47  C   UNL A   1      42.669  28.717  29.159  1.00  0.00     0.049 A 
ATOM     48  N   UNL A   1      42.274  25.512  28.358  1.00  0.00    -0.248 NA
ATOM     49  C   UNL A   1      41.610  26.640  26.441  1.00  0.00     0.031 C 
ATOM     50  C   UNL A   1      42.518  30.072  29.692  1.00  0.00     0.029 A 
ATOM     51  N   UNL A   1      44.007  28.510  29.254  1.00  0.00    -0.354 N 
ATOM     52  C   UNL A   1      42.411  24.686  27.253  1.00  0.00     0.074 A 
ATOM     53  C   UNL A   1      41.724  25.340  26.175  1.00  0.00     0.031 C 
ATOM     54  C   UNL A   1      43.741  30.641  29.815  1.00  0.00     0.029 A 
ATOM     55  C   UNL A   1      44.761  29.661  29.474  1.00  0.00     0.049 A 
ATOM     56  H   UNL A   1      44.412  27.617  29.174  1.00  0.00     0.167 HD
ATOM     57  C   UNL A   1      43.370  23.723  27.232  1.00  0.00     0.034 A 
ATOM     58  C   UNL A   1      46.104  29.787  29.272  1.00  0.00     0.034 A 
ATOM     59  C   UNL A   1      43.785  23.378  28.577  1.00  0.00     0.049 A 
ATOM     60  C   UNL A   1      46.660  28.403  29.314  1.00  0.00     0.074 A 
ATOM     61  C   UNL A   1      43.098  22.991  29.716  1.00  0.00     0.029 A 
ATOM     62  N   UNL A   1      45.008  23.828  29.028  1.00  0.00    -0.354 N 
ATOM     63  N   UNL A   1      46.642  27.660  30.390  1.00  0.00    -0.248 NA
ATOM     64  C   UNL A   1      46.724  27.666  28.057  1.00  0.00     0.031 C 
ATOM     65  C   UNL A   1      43.709  23.722  30.777  1.00  0.00     0.029 A 
ATOM     66  C   UNL A   1      44.800  24.418  30.255  1.00  0.00     0.049 A 
ATOM     67  H   UNL A   1      45.870  23.745  28.560  1.00  0.00     0.167 HD
ATOM     68  C   UNL A   1      46.262  26.398  29.954  1.00  0.00     0.074 A 
ATOM     69  C   UNL A   1      46.383  26.449  28.496  1.00  0.00     0.031 C 
ATOM     70  C   UNL A   1      45.589  25.525  30.766  1.00  0.00     0.034 A 
BRANCH  57  71
ATOM     71  C   UNL A   1      44.196  23.418  26.003  1.00  0.00     0.023 A 
ATOM     72  C   UNL A   1      44.202  22.088  25.555  1.00  0.00     0.031 A 
ATOM     73  C   UNL A   1      45.174  24.265  25.422  1.00  0.00     0.131 A 
ATOM     74  C   UNL A   1      45.190  21.634  24.664  1.00  0.00     0.055 A 
ATOM     75  C   UNL A   1      46.106  23.826  24.481  1.00  0.00     0.041 A 
ATOM     76  F   UNL A   1      45.359  25.537  25.790  1.00  0.00    -0.206 F 
ATOM     77  C   UNL A   1      46.139  22.495  24.119  1.00  0.00     0.022 A 
BRANCH  74  78
ATOM     78  S   UNL A   1      45.318  19.856  24.370  1.00  0.00     0.124 S 
ATOM     79  O   UNL A   1      44.545  19.321  25.487  1.00  0.00    -0.237 OA
ATOM     80  O   UNL A   1      44.712  19.729  23.048  1.00  0.00    -0.237 OA
ATOM     81  O   UNL A   1      46.755  19.606  24.425  1.00  0.00    -0.744 OA
ENDBRANCH  74  78
ENDBRANCH  57  71
BRANCH  58  82
ATOM     82  C   UNL A   1      46.819  30.946  28.644  1.00  0.00     0.023 A 
ATOM     83  C   UNL A   1      46.244  31.750  27.630  1.00  0.00     0.031 A 
ATOM     84  C   UNL A   1      48.019  31.436  29.213  1.00  0.00     0.131 A 
ATOM     85  C   UNL A   1      46.860  32.968  27.238  1.00  0.00     0.055 A 
ATOM     86  C   UNL A   1      48.621  32.634  28.822  1.00  0.00     0.041 A 
ATOM     87  F   UNL A   1      48.614  30.812  30.240  1.00  0.00    -0.206 F 
ATOM     88  C   UNL A   1      48.038  33.412  27.839  1.00  0.00     0.022 A 
BRANCH  85  89
ATOM     89  S   UNL A   1      46.093  34.057  25.988  1.00  0.00     0.124 S 
ATOM     90  O   UNL A   1      45.474  35.087  26.815  1.00  0.00    -0.237 OA
ATOM     91  O   UNL A   1      47.234  34.470  25.181  1.00  0.00    -0.237 OA
ATOM     92  O   UNL A   1      45.148  33.175  25.301  1.00  0.00    -0.744 OA
ENDBRANCH  85  89
ENDBRANCH  58  82
BRANCH  70  93
ATOM     93  C   UNL A   1      45.486  25.817  32.255  1.00  0.00     0.023 A 
ATOM     94  C   UNL A   1      44.323  26.259  32.933  1.00  0.00     0.031 A 
ATOM     95  C   UNL A   1      46.609  25.499  33.043  1.00  0.00     0.131 A 
ATOM     96  C   UNL A   1      44.326  26.372  34.341  1.00  0.00     0.055 A 
ATOM     97  C   UNL A   1      46.598  25.588  34.434  1.00  0.00     0.041 A 
ATOM     98  F   UNL A   1      47.739  25.056  32.468  1.00  0.00    -0.206 F 
ATOM     99  C   UNL A   1      45.458  26.030  35.088  1.00  0.00     0.022 A 
BRANCH  96 100
ATOM    100  S   UNL A   1      42.866  26.994  35.241  1.00  0.00     0.124 S 
ATOM    101  O   UNL A   1      42.318  28.006  34.346  1.00  0.00    -0.237 OA
ATOM    102  O   UNL A   1      42.063  25.786  35.411  1.00  0.00    -0.237 OA
ATOM    103  O   UNL A   1      43.432  27.524  36.483  1.00  0.00    -0.744 OA
ENDBRANCH  96 100
ENDBRANCH  70  93
ENDBRANCH  44  45
ENDBRANCH  37  39
ENDBRANCH  36  37
ENDBRANCH  35  36
ENDBRANCH  34  35
ENDBRANCH  33  34
ENDBRANCH  32  33
ENDBRANCH   1  32
TORSDOF 25
ENDMDL
