MODEL 1
REMARK VINA RESULT:     -10.7      0.000      0.000
REMARK SMILES CC1=C(CC(=O)OCCOCCOCCOC(=O)c2ccc(-c3c4nc(c(-c5cc(S(=O)(=O)[O-])ccc5F)c5ccc([nH]5)c(-c5cc(S(=O)(=O)[O-])ccc5F)c5nc(c(-c6cc(S(=O)(=O)[O-])ccc6F)c6ccc3[nH]6)C=C5)C=C4)cc2)c2cc(F)ccc2/C1=C\c1cccc(OCc2ccccc2)c1
REMARK SMILES IDX 11 1 10 2 9 3 8 4 7 5 5 6 6 7 4 8 3 9 1 10 2 11 89 12 82 13
REMARK SMILES IDX 88 14 90 15 83 16 87 17 84 18 86 19 85 20 91 21 92 22 104 23
REMARK SMILES IDX 93 24 95 25 94 26 96 27 97 28 98 29 99 30 103 31 100 32
REMARK SMILES IDX 102 33 101 34 12 35 13 36 14 37 15 38 16 39 17 40 18 41
REMARK SMILES IDX 19 42 20 43 81 44 21 45 80 46 22 47 23 48 24 49 74 50 25 51
REMARK SMILES IDX 79 52 73 53 75 54 26 55 78 56 72 57 71 58 27 60 59 61 39 62
REMARK SMILES IDX 58 63 40 64 43 65 57 66 76 67 41 68 42 69 56 71 77 72 44 73
REMARK SMILES IDX 28 74 29 75 37 76 30 77 36 78 38 79 35 80 31 81 32 82 33 83
REMARK SMILES IDX 34 84 60 85 61 86 69 87 62 88 68 89 70 90 67 91 63 92 64 93
REMARK SMILES IDX 65 94 66 95 45 96 46 97 54 98 47 99 53 100 55 101 52 102
REMARK SMILES IDX 48 103 49 104 50 105 51 106
REMARK H PARENT 75 59 43 70
REMARK Flexibility Score: inf
ROOT
ATOM      1  C   UNL A   1      39.340  22.714  26.097  1.00  0.00     0.188 C 
ENDROOT
BRANCH   1   2
ATOM      2  O   UNL A   1      38.006  22.211  26.174  1.00  0.00    -0.376 OA
BRANCH   2   3
ATOM      3  C   UNL A   1      37.380  21.820  24.957  1.00  0.00     0.202 C 
BRANCH   3   4
ATOM      4  C   UNL A   1      36.634  20.487  25.030  1.00  0.00     0.261 C 
BRANCH   4   5
ATOM      5  O   UNL A   1      35.243  20.687  25.354  1.00  0.00    -0.463 OA
BRANCH   5   6
ATOM      6  C   UNL A   1      34.360  19.941  24.641  1.00  0.00     0.310 C 
ATOM      7  O   UNL A   1      34.364  18.715  24.620  1.00  0.00    -0.252 OA
BRANCH   6   8
ATOM      8  C   UNL A   1      33.264  20.774  23.974  1.00  0.00     0.159 C 
BRANCH   8   9
ATOM      9  C   UNL A   1      33.175  22.240  24.286  1.00  0.00    -0.025 C 
ATOM     10  C   UNL A   1      34.828  23.218  22.617  1.00  0.00     0.045 C 
ATOM     11  C   UNL A   1      33.847  23.280  23.738  1.00  0.00    -0.039 C 
ATOM     12  C   UNL A   1      33.393  24.548  24.341  1.00  0.00    -0.014 C 
ATOM     13  C   UNL A   1      32.162  22.817  25.195  1.00  0.00    -0.011 A 
ATOM     14  C   UNL A   1      32.355  24.204  25.325  1.00  0.00    -0.010 A 
ATOM     15  C   UNL A   1      33.787  25.778  23.965  1.00  0.00     0.017 C 
ATOM     16  C   UNL A   1      31.082  22.218  25.823  1.00  0.00     0.048 A 
ATOM     17  C   UNL A   1      31.589  24.961  26.206  1.00  0.00     0.012 A 
ATOM     18  C   UNL A   1      30.263  23.006  26.637  1.00  0.00     0.123 A 
ATOM     19  C   UNL A   1      30.533  24.349  26.873  1.00  0.00     0.040 A 
ATOM     20  F   UNL A   1      29.200  22.447  27.228  1.00  0.00    -0.207 F 
BRANCH  15  21
ATOM     21  C   UNL A   1      33.233  27.040  24.476  1.00  0.00    -0.021 A 
ATOM     22  C   UNL A   1      32.032  27.539  23.967  1.00  0.00     0.008 A 
ATOM     23  C   UNL A   1      33.952  27.790  25.421  1.00  0.00     0.054 A 
ATOM     24  C   UNL A   1      31.567  28.787  24.381  1.00  0.00     0.004 A 
ATOM     25  C   UNL A   1      33.470  29.020  25.870  1.00  0.00     0.120 A 
ATOM     26  C   UNL A   1      32.285  29.523  25.326  1.00  0.00     0.046 A 
BRANCH  25  27
ATOM     27  O   UNL A   1      34.052  29.825  26.812  1.00  0.00    -0.489 OA
BRANCH  27  28
ATOM     28  C   UNL A   1      33.288  30.909  27.359  1.00  0.00     0.265 C 
BRANCH  28  29
ATOM     29  C   UNL A   1      34.159  31.967  28.001  1.00  0.00    -0.011 A 
ATOM     30  C   UNL A   1      35.397  31.624  28.564  1.00  0.00     0.007 A 
ATOM     31  C   UNL A   1      33.767  33.313  27.992  1.00  0.00     0.007 A 
ATOM     32  C   UNL A   1      36.243  32.613  29.064  1.00  0.00     0.000 A 
ATOM     33  C   UNL A   1      34.621  34.303  28.478  1.00  0.00     0.000 A 
ATOM     34  C   UNL A   1      35.861  33.953  29.008  1.00  0.00     0.000 A 
ENDBRANCH  28  29
ENDBRANCH  27  28
ENDBRANCH  25  27
ENDBRANCH  15  21
ENDBRANCH   8   9
ENDBRANCH   6   8
ENDBRANCH   5   6
ENDBRANCH   4   5
ENDBRANCH   3   4
ENDBRANCH   2   3
ENDBRANCH   1   2
BRANCH   1  35
ATOM     35  C   UNL A   1      40.430  21.974  26.887  1.00  0.00     0.188 C 
BRANCH  35  36
ATOM     36  O   UNL A   1      40.810  20.757  26.250  1.00  0.00    -0.376 OA
BRANCH  36  37
ATOM     37  C   UNL A   1      41.596  19.907  27.077  1.00  0.00     0.202 C 
BRANCH  37  38
ATOM     38  C   UNL A   1      42.465  18.994  26.213  1.00  0.00     0.261 C 
BRANCH  38  39
ATOM     39  O   UNL A   1      42.924  19.620  25.000  1.00  0.00    -0.460 OA
BRANCH  39  40
ATOM     40  C   UNL A   1      44.263  19.658  24.828  1.00  0.00     0.338 C 
ATOM     41  O   UNL A   1      44.986  18.735  24.505  1.00  0.00    -0.246 OA
BRANCH  40  42
ATOM     42  C   UNL A   1      44.705  21.054  25.003  1.00  0.00     0.060 A 
ATOM     43  C   UNL A   1      44.554  21.986  23.982  1.00  0.00     0.016 A 
ATOM     44  C   UNL A   1      45.217  21.448  26.237  1.00  0.00     0.016 A 
ATOM     45  C   UNL A   1      44.903  23.322  24.221  1.00  0.00     0.010 A 
ATOM     46  C   UNL A   1      45.507  22.788  26.496  1.00  0.00     0.010 A 
ATOM     47  C   UNL A   1      45.353  23.743  25.489  1.00  0.00    -0.014 A 
BRANCH  47  48
ATOM     48  C   UNL A   1      45.548  25.191  25.777  1.00  0.00     0.031 A 
ATOM     49  C   UNL A   1      44.428  26.065  26.268  1.00  0.00     0.074 A 
ATOM     50  C   UNL A   1      46.765  25.730  25.557  1.00  0.00     0.049 A 
ATOM     51  N   UNL A   1      44.489  27.287  26.734  1.00  0.00    -0.248 NA
ATOM     52  C   UNL A   1      43.064  25.519  26.204  1.00  0.00     0.031 C 
ATOM     53  C   UNL A   1      47.890  25.021  24.948  1.00  0.00     0.029 A 
ATOM     54  N   UNL A   1      47.265  26.980  25.828  1.00  0.00    -0.354 N 
ATOM     55  C   UNL A   1      43.181  27.646  27.044  1.00  0.00     0.074 A 
ATOM     56  C   UNL A   1      42.339  26.544  26.635  1.00  0.00     0.031 C 
ATOM     57  C   UNL A   1      48.966  25.820  24.952  1.00  0.00     0.029 A 
ATOM     58  C   UNL A   1      48.607  27.105  25.548  1.00  0.00     0.049 A 
ATOM     59  H   UNL A   1      46.718  27.715  26.186  1.00  0.00     0.167 HD
ATOM     60  C   UNL A   1      42.735  28.773  27.650  1.00  0.00     0.034 A 
ATOM     61  C   UNL A   1      49.465  28.121  25.780  1.00  0.00     0.034 A 
ATOM     62  C   UNL A   1      43.597  29.858  28.051  1.00  0.00     0.049 A 
ATOM     63  C   UNL A   1      48.965  29.342  26.510  1.00  0.00     0.074 A 
ATOM     64  C   UNL A   1      43.263  31.004  28.751  1.00  0.00     0.029 A 
ATOM     65  N   UNL A   1      44.958  29.936  27.786  1.00  0.00    -0.354 N 
ATOM     66  N   UNL A   1      47.757  29.595  26.959  1.00  0.00    -0.248 NA
ATOM     67  C   UNL A   1      49.940  30.404  26.791  1.00  0.00     0.031 C 
ATOM     68  C   UNL A   1      44.403  31.800  28.856  1.00  0.00     0.029 A 
ATOM     69  C   UNL A   1      45.469  31.123  28.286  1.00  0.00     0.049 A 
ATOM     70  H   UNL A   1      45.481  29.251  27.313  1.00  0.00     0.167 HD
ATOM     71  C   UNL A   1      47.833  30.831  27.594  1.00  0.00     0.074 A 
ATOM     72  C   UNL A   1      49.212  31.263  27.495  1.00  0.00     0.031 C 
ATOM     73  C   UNL A   1      46.849  31.542  28.200  1.00  0.00     0.034 A 
BRANCH  60  74
ATOM     74  C   UNL A   1      41.266  28.886  27.988  1.00  0.00     0.023 A 
ATOM     75  C   UNL A   1      40.807  28.634  29.295  1.00  0.00     0.031 A 
ATOM     76  C   UNL A   1      40.307  29.096  26.979  1.00  0.00     0.131 A 
ATOM     77  C   UNL A   1      39.430  28.571  29.550  1.00  0.00     0.055 A 
ATOM     78  C   UNL A   1      38.938  29.074  27.247  1.00  0.00     0.041 A 
ATOM     79  F   UNL A   1      40.690  29.327  25.712  1.00  0.00    -0.206 F 
ATOM     80  C   UNL A   1      38.494  28.797  28.536  1.00  0.00     0.022 A 
BRANCH  77  81
ATOM     81  S   UNL A   1      38.793  28.124  31.190  1.00  0.00     0.124 S 
ATOM     82  O   UNL A   1      38.528  26.695  31.029  1.00  0.00    -0.237 OA
ATOM     83  O   UNL A   1      39.920  28.455  32.057  1.00  0.00    -0.237 OA
ATOM     84  O   UNL A   1      37.608  28.960  31.346  1.00  0.00    -0.744 OA
ENDBRANCH  77  81
ENDBRANCH  60  74
BRANCH  61  85
ATOM     85  C   UNL A   1      50.905  27.942  25.428  1.00  0.00     0.023 A 
ATOM     86  C   UNL A   1      51.360  28.117  24.109  1.00  0.00     0.031 A 
ATOM     87  C   UNL A   1      51.818  27.464  26.384  1.00  0.00     0.131 A 
ATOM     88  C   UNL A   1      52.671  27.754  23.769  1.00  0.00     0.055 A 
ATOM     89  C   UNL A   1      53.143  27.168  26.056  1.00  0.00     0.041 A 
ATOM     90  F   UNL A   1      51.427  27.261  27.652  1.00  0.00    -0.206 F 
ATOM     91  C   UNL A   1      53.570  27.296  24.739  1.00  0.00     0.022 A 
BRANCH  88  92
ATOM     92  S   UNL A   1      53.213  27.731  22.038  1.00  0.00     0.124 S 
ATOM     93  O   UNL A   1      54.589  28.203  22.144  1.00  0.00    -0.237 OA
ATOM     94  O   UNL A   1      53.055  26.319  21.695  1.00  0.00    -0.237 OA
ATOM     95  O   UNL A   1      52.283  28.637  21.374  1.00  0.00    -0.744 OA
ENDBRANCH  88  92
ENDBRANCH  61  85
BRANCH  73  96
ATOM     96  C   UNL A   1      47.190  32.878  28.815  1.00  0.00     0.023 A 
ATOM     97  C   UNL A   1      47.193  34.039  28.018  1.00  0.00     0.031 A 
ATOM     98  C   UNL A   1      47.676  32.974  30.130  1.00  0.00     0.131 A 
ATOM     99  C   UNL A   1      47.716  35.234  28.528  1.00  0.00     0.055 A 
ATOM    100  C   UNL A   1      48.152  34.178  30.649  1.00  0.00     0.041 A 
ATOM    101  F   UNL A   1      47.705  31.892  30.926  1.00  0.00    -0.206 F 
ATOM    102  C   UNL A   1      48.190  35.311  29.842  1.00  0.00     0.022 A 
BRANCH  99 103
ATOM    103  S   UNL A   1      47.894  36.704  27.477  1.00  0.00     0.124 S 
ATOM    104  O   UNL A   1      47.540  37.779  28.403  1.00  0.00    -0.237 OA
ATOM    105  O   UNL A   1      49.303  36.644  27.101  1.00  0.00    -0.237 OA
ATOM    106  O   UNL A   1      46.943  36.480  26.394  1.00  0.00    -0.744 OA
ENDBRANCH  99 103
ENDBRANCH  73  96
ENDBRANCH  47  48
ENDBRANCH  40  42
ENDBRANCH  39  40
ENDBRANCH  38  39
ENDBRANCH  37  38
ENDBRANCH  36  37
ENDBRANCH  35  36
ENDBRANCH   1  35
TORSDOF 25
ENDMDL
MODEL 2
REMARK VINA RESULT:     -10.1      1.658      2.153
REMARK SMILES CC1=C(CC(=O)OCCOCCOCCOC(=O)c2ccc(-c3c4nc(c(-c5cc(S(=O)(=O)[O-])ccc5F)c5ccc([nH]5)c(-c5cc(S(=O)(=O)[O-])ccc5F)c5nc(c(-c6cc(S(=O)(=O)[O-])ccc6F)c6ccc3[nH]6)C=C5)C=C4)cc2)c2cc(F)ccc2/C1=C\c1cccc(OCc2ccccc2)c1
REMARK SMILES IDX 11 1 10 2 9 3 8 4 7 5 5 6 6 7 4 8 3 9 1 10 2 11 89 12 82 13
REMARK SMILES IDX 88 14 90 15 83 16 87 17 84 18 86 19 85 20 91 21 92 22 104 23
REMARK SMILES IDX 93 24 95 25 94 26 96 27 97 28 98 29 99 30 103 31 100 32
REMARK SMILES IDX 102 33 101 34 12 35 13 36 14 37 15 38 16 39 17 40 18 41
REMARK SMILES IDX 19 42 20 43 81 44 21 45 80 46 22 47 23 48 24 49 74 50 25 51
REMARK SMILES IDX 79 52 73 53 75 54 26 55 78 56 72 57 71 58 27 60 59 61 39 62
REMARK SMILES IDX 58 63 40 64 43 65 57 66 76 67 41 68 42 69 56 71 77 72 44 73
REMARK SMILES IDX 28 74 29 75 37 76 30 77 36 78 38 79 35 80 31 81 32 82 33 83
REMARK SMILES IDX 34 84 60 85 61 86 69 87 62 88 68 89 70 90 67 91 63 92 64 93
REMARK SMILES IDX 65 94 66 95 45 96 46 97 54 98 47 99 53 100 55 101 52 102
REMARK SMILES IDX 48 103 49 104 50 105 51 106
REMARK H PARENT 75 59 43 70
REMARK Flexibility Score: inf
ROOT
ATOM      1  C   UNL A   1      37.583  23.663  25.701  1.00  0.00     0.188 C 
ENDROOT
BRANCH   1   2
ATOM      2  O   UNL A   1      36.490  22.849  26.124  1.00  0.00    -0.376 OA
BRANCH   2   3
ATOM      3  C   UNL A   1      35.887  22.003  25.151  1.00  0.00     0.202 C 
BRANCH   3   4
ATOM      4  C   UNL A   1      34.827  21.052  25.710  1.00  0.00     0.261 C 
BRANCH   4   5
ATOM      5  O   UNL A   1      34.382  20.120  24.703  1.00  0.00    -0.463 OA
BRANCH   5   6
ATOM      6  C   UNL A   1      33.041  19.927  24.633  1.00  0.00     0.310 C 
ATOM      7  O   UNL A   1      32.408  19.242  25.430  1.00  0.00    -0.252 OA
BRANCH   6   8
ATOM      8  C   UNL A   1      32.364  20.763  23.545  1.00  0.00     0.159 C 
BRANCH   8   9
ATOM      9  C   UNL A   1      32.234  22.245  23.744  1.00  0.00    -0.025 C 
ATOM     10  C   UNL A   1      33.243  23.142  21.588  1.00  0.00     0.045 C 
ATOM     11  C   UNL A   1      32.623  23.261  22.938  1.00  0.00    -0.039 C 
ATOM     12  C   UNL A   1      32.245  24.554  23.538  1.00  0.00    -0.014 C 
ATOM     13  C   UNL A   1      31.474  22.851  24.859  1.00  0.00    -0.011 A 
ATOM     14  C   UNL A   1      31.568  24.253  24.809  1.00  0.00    -0.010 A 
ATOM     15  C   UNL A   1      32.400  25.760  22.961  1.00  0.00     0.017 C 
ATOM     16  C   UNL A   1      30.679  22.255  25.824  1.00  0.00     0.048 A 
ATOM     17  C   UNL A   1      31.019  25.050  25.809  1.00  0.00     0.012 A 
ATOM     18  C   UNL A   1      30.058  23.072  26.773  1.00  0.00     0.123 A 
ATOM     19  C   UNL A   1      30.260  24.447  26.806  1.00  0.00     0.040 A 
ATOM     20  F   UNL A   1      29.265  22.513  27.695  1.00  0.00    -0.207 F 
BRANCH  15  21
ATOM     21  C   UNL A   1      31.901  27.031  23.504  1.00  0.00    -0.021 A 
ATOM     22  C   UNL A   1      30.622  27.485  23.175  1.00  0.00     0.008 A 
ATOM     23  C   UNL A   1      32.741  27.835  24.292  1.00  0.00     0.054 A 
ATOM     24  C   UNL A   1      30.196  28.740  23.609  1.00  0.00     0.004 A 
ATOM     25  C   UNL A   1      32.305  29.074  24.763  1.00  0.00     0.120 A 
ATOM     26  C   UNL A   1      31.036  29.530  24.397  1.00  0.00     0.046 A 
BRANCH  25  27
ATOM     27  O   UNL A   1      33.008  29.930  25.568  1.00  0.00    -0.489 OA
BRANCH  27  28
ATOM     28  C   UNL A   1      33.349  29.505  26.894  1.00  0.00     0.265 C 
BRANCH  28  29
ATOM     29  C   UNL A   1      34.635  30.128  27.391  1.00  0.00    -0.011 A 
ATOM     30  C   UNL A   1      34.699  31.500  27.673  1.00  0.00     0.007 A 
ATOM     31  C   UNL A   1      35.766  29.332  27.629  1.00  0.00     0.007 A 
ATOM     32  C   UNL A   1      35.854  32.054  28.225  1.00  0.00     0.000 A 
ATOM     33  C   UNL A   1      36.913  29.885  28.197  1.00  0.00     0.000 A 
ATOM     34  C   UNL A   1      36.955  31.244  28.500  1.00  0.00     0.000 A 
ENDBRANCH  28  29
ENDBRANCH  27  28
ENDBRANCH  25  27
ENDBRANCH  15  21
ENDBRANCH   8   9
ENDBRANCH   6   8
ENDBRANCH   5   6
ENDBRANCH   4   5
ENDBRANCH   3   4
ENDBRANCH   2   3
ENDBRANCH   1   2
BRANCH   1  35
ATOM     35  C   UNL A   1      38.930  23.481  26.419  1.00  0.00     0.188 C 
BRANCH  35  36
ATOM     36  O   UNL A   1      39.287  22.104  26.530  1.00  0.00    -0.376 OA
BRANCH  36  37
ATOM     37  C   UNL A   1      40.402  21.877  27.383  1.00  0.00     0.202 C 
BRANCH  37  38
ATOM     38  C   UNL A   1      41.081  20.558  27.015  1.00  0.00     0.261 C 
BRANCH  38  39
ATOM     39  O   UNL A   1      41.635  20.550  25.686  1.00  0.00    -0.460 OA
BRANCH  39  40
ATOM     40  C   UNL A   1      42.963  20.313  25.604  1.00  0.00     0.338 C 
ATOM     41  O   UNL A   1      43.504  19.243  25.403  1.00  0.00    -0.246 OA
BRANCH  40  42
ATOM     42  C   UNL A   1      43.663  21.608  25.702  1.00  0.00     0.060 A 
ATOM     43  C   UNL A   1      43.248  22.704  24.955  1.00  0.00     0.016 A 
ATOM     44  C   UNL A   1      44.711  21.739  26.610  1.00  0.00     0.016 A 
ATOM     45  C   UNL A   1      43.882  23.939  25.146  1.00  0.00     0.010 A 
ATOM     46  C   UNL A   1      45.303  22.980  26.845  1.00  0.00     0.010 A 
ATOM     47  C   UNL A   1      44.895  24.098  26.114  1.00  0.00    -0.014 A 
BRANCH  47  48
ATOM     48  C   UNL A   1      45.432  25.450  26.429  1.00  0.00     0.031 A 
ATOM     49  C   UNL A   1      44.695  26.417  27.312  1.00  0.00     0.074 A 
ATOM     50  C   UNL A   1      46.604  25.820  25.871  1.00  0.00     0.049 A 
ATOM     51  N   UNL A   1      45.119  27.546  27.821  1.00  0.00    -0.248 NA
ATOM     52  C   UNL A   1      43.299  26.099  27.648  1.00  0.00     0.031 C 
ATOM     53  C   UNL A   1      47.341  25.029  24.885  1.00  0.00     0.029 A 
ATOM     54  N   UNL A   1      47.385  26.933  26.057  1.00  0.00    -0.354 N 
ATOM     55  C   UNL A   1      44.057  28.059  28.557  1.00  0.00     0.074 A 
ATOM     56  C   UNL A   1      42.941  27.161  28.360  1.00  0.00     0.031 C 
ATOM     57  C   UNL A   1      48.497  25.646  24.603  1.00  0.00     0.029 A 
ATOM     58  C   UNL A   1      48.579  26.885  25.373  1.00  0.00     0.049 A 
ATOM     59  H   UNL A   1      47.118  27.692  26.623  1.00  0.00     0.167 HD
ATOM     60  C   UNL A   1      44.032  29.156  29.353  1.00  0.00     0.034 A 
ATOM     61  C   UNL A   1      49.640  27.720  25.392  1.00  0.00     0.034 A 
ATOM     62  C   UNL A   1      45.160  30.036  29.535  1.00  0.00     0.049 A 
ATOM     63  C   UNL A   1      49.619  28.901  26.329  1.00  0.00     0.074 A 
ATOM     64  C   UNL A   1      45.270  31.122  30.385  1.00  0.00     0.029 A 
ATOM     65  N   UNL A   1      46.366  29.937  28.856  1.00  0.00    -0.354 N 
ATOM     66  N   UNL A   1      48.672  29.278  27.157  1.00  0.00    -0.248 NA
ATOM     67  C   UNL A   1      50.813  29.757  26.359  1.00  0.00     0.031 C 
ATOM     68  C   UNL A   1      46.516  31.714  30.178  1.00  0.00     0.029 A 
ATOM     69  C   UNL A   1      47.215  30.959  29.250  1.00  0.00     0.049 A 
ATOM     70  H   UNL A   1      46.586  29.245  28.193  1.00  0.00     0.167 HD
ATOM     71  C   UNL A   1      49.164  30.397  27.822  1.00  0.00     0.074 A 
ATOM     72  C   UNL A   1      50.503  30.621  27.319  1.00  0.00     0.031 C 
ATOM     73  C   UNL A   1      48.558  31.168  28.759  1.00  0.00     0.034 A 
BRANCH  60  74
ATOM     74  C   UNL A   1      42.780  29.449  30.149  1.00  0.00     0.023 A 
ATOM     75  C   UNL A   1      42.709  29.134  31.520  1.00  0.00     0.031 A 
ATOM     76  C   UNL A   1      41.608  29.902  29.513  1.00  0.00     0.131 A 
ATOM     77  C   UNL A   1      41.488  29.249  32.199  1.00  0.00     0.055 A 
ATOM     78  C   UNL A   1      40.406  30.056  30.204  1.00  0.00     0.041 A 
ATOM     79  F   UNL A   1      41.617  30.205  28.204  1.00  0.00    -0.206 F 
ATOM     80  C   UNL A   1      40.340  29.716  31.551  1.00  0.00     0.022 A 
BRANCH  77  81
ATOM     81  S   UNL A   1      41.319  28.734  33.931  1.00  0.00     0.124 S 
ATOM     82  O   UNL A   1      41.436  27.281  33.824  1.00  0.00    -0.237 OA
ATOM     83  O   UNL A   1      42.452  29.405  34.562  1.00  0.00    -0.237 OA
ATOM     84  O   UNL A   1      40.000  29.223  34.316  1.00  0.00    -0.744 OA
ENDBRANCH  77  81
ENDBRANCH  60  74
BRANCH  61  85
ATOM     85  C   UNL A   1      50.847  27.368  24.587  1.00  0.00     0.023 A 
ATOM     86  C   UNL A   1      50.919  27.664  23.214  1.00  0.00     0.031 A 
ATOM     87  C   UNL A   1      51.888  26.612  25.156  1.00  0.00     0.131 A 
ATOM     88  C   UNL A   1      51.974  27.151  22.444  1.00  0.00     0.055 A 
ATOM     89  C   UNL A   1      52.971  26.161  24.399  1.00  0.00     0.041 A 
ATOM     90  F   UNL A   1      51.854  26.287  26.457  1.00  0.00    -0.206 F 
ATOM     91  C   UNL A   1      53.008  26.415  23.032  1.00  0.00     0.022 A 
BRANCH  88  92
ATOM     92  S   UNL A   1      51.967  27.301  20.637  1.00  0.00     0.124 S 
ATOM     93  O   UNL A   1      51.900  25.906  20.215  1.00  0.00    -0.237 OA
ATOM     94  O   UNL A   1      50.757  28.088  20.407  1.00  0.00    -0.237 OA
ATOM     95  O   UNL A   1      53.218  27.991  20.343  1.00  0.00    -0.744 OA
ENDBRANCH  88  92
ENDBRANCH  61  85
BRANCH  73  96
ATOM     96  C   UNL A   1      49.310  32.348  29.328  1.00  0.00     0.023 A 
ATOM     97  C   UNL A   1      49.302  33.581  28.648  1.00  0.00     0.031 A 
ATOM     98  C   UNL A   1      50.166  32.203  30.434  1.00  0.00     0.131 A 
ATOM     99  C   UNL A   1      50.168  34.605  29.051  1.00  0.00     0.055 A 
ATOM    100  C   UNL A   1      50.991  33.244  30.861  1.00  0.00     0.041 A 
ATOM    101  F   UNL A   1      50.218  31.043  31.108  1.00  0.00    -0.206 F 
ATOM    102  C   UNL A   1      51.008  34.446  30.158  1.00  0.00     0.022 A 
BRANCH  99 103
ATOM    103  S   UNL A   1      50.310  36.143  28.098  1.00  0.00     0.124 S 
ATOM    104  O   UNL A   1      49.720  35.758  26.816  1.00  0.00    -0.237 OA
ATOM    105  O   UNL A   1      49.515  37.073  28.894  1.00  0.00    -0.237 OA
ATOM    106  O   UNL A   1      51.744  36.409  28.066  1.00  0.00    -0.744 OA
ENDBRANCH  99 103
ENDBRANCH  73  96
ENDBRANCH  47  48
ENDBRANCH  40  42
ENDBRANCH  39  40
ENDBRANCH  38  39
ENDBRANCH  37  38
ENDBRANCH  36  37
ENDBRANCH  35  36
ENDBRANCH   1  35
TORSDOF 25
ENDMDL
MODEL 3
REMARK VINA RESULT:      -9.9      2.959      8.242
REMARK SMILES CC1=C(CC(=O)OCCOCCOCCOC(=O)c2ccc(-c3c4nc(c(-c5cc(S(=O)(=O)[O-])ccc5F)c5ccc([nH]5)c(-c5cc(S(=O)(=O)[O-])ccc5F)c5nc(c(-c6cc(S(=O)(=O)[O-])ccc6F)c6ccc3[nH]6)C=C5)C=C4)cc2)c2cc(F)ccc2/C1=C\c1cccc(OCc2ccccc2)c1
REMARK SMILES IDX 11 1 10 2 9 3 8 4 7 5 5 6 6 7 4 8 3 9 1 10 2 11 89 12 82 13
REMARK SMILES IDX 88 14 90 15 83 16 87 17 84 18 86 19 85 20 91 21 92 22 104 23
REMARK SMILES IDX 93 24 95 25 94 26 96 27 97 28 98 29 99 30 103 31 100 32
REMARK SMILES IDX 102 33 101 34 12 35 13 36 14 37 15 38 16 39 17 40 18 41
REMARK SMILES IDX 19 42 20 43 81 44 21 45 80 46 22 47 23 48 24 49 74 50 25 51
REMARK SMILES IDX 79 52 73 53 75 54 26 55 78 56 72 57 71 58 27 60 59 61 39 62
REMARK SMILES IDX 58 63 40 64 43 65 57 66 76 67 41 68 42 69 56 71 77 72 44 73
REMARK SMILES IDX 28 74 29 75 37 76 30 77 36 78 38 79 35 80 31 81 32 82 33 83
REMARK SMILES IDX 34 84 60 85 61 86 69 87 62 88 68 89 70 90 67 91 63 92 64 93
REMARK SMILES IDX 65 94 66 95 45 96 46 97 54 98 47 99 53 100 55 101 52 102
REMARK SMILES IDX 48 103 49 104 50 105 51 106
REMARK H PARENT 75 59 43 70
REMARK Flexibility Score: inf
ROOT
ATOM      1  C   UNL A   1      33.512  21.305  26.699  1.00  0.00     0.188 C 
ENDROOT
BRANCH   1   2
ATOM      2  O   UNL A   1      32.713  20.695  25.685  1.00  0.00    -0.376 OA
BRANCH   2   3
ATOM      3  C   UNL A   1      31.935  21.552  24.857  1.00  0.00     0.202 C 
BRANCH   3   4
ATOM      4  C   UNL A   1      31.023  22.512  25.623  1.00  0.00     0.261 C 
BRANCH   4   5
ATOM      5  O   UNL A   1      31.256  23.879  25.225  1.00  0.00    -0.463 OA
BRANCH   5   6
ATOM      6  C   UNL A   1      31.186  24.122  23.892  1.00  0.00     0.310 C 
ATOM      7  O   UNL A   1      30.391  23.571  23.138  1.00  0.00    -0.252 OA
BRANCH   6   8
ATOM      8  C   UNL A   1      32.102  25.260  23.436  1.00  0.00     0.159 C 
BRANCH   8   9
ATOM      9  C   UNL A   1      32.135  26.530  24.236  1.00  0.00    -0.025 C 
ATOM     10  C   UNL A   1      34.044  26.064  25.853  1.00  0.00     0.045 C 
ATOM     11  C   UNL A   1      32.933  26.873  25.275  1.00  0.00    -0.039 C 
ATOM     12  C   UNL A   1      32.625  28.247  25.716  1.00  0.00    -0.014 C 
ATOM     13  C   UNL A   1      31.349  27.732  23.886  1.00  0.00    -0.011 A 
ATOM     14  C   UNL A   1      31.552  28.743  24.841  1.00  0.00    -0.010 A 
ATOM     15  C   UNL A   1      33.291  28.933  26.663  1.00  0.00     0.017 C 
ATOM     16  C   UNL A   1      30.561  27.991  22.777  1.00  0.00     0.048 A 
ATOM     17  C   UNL A   1      30.843  29.940  24.788  1.00  0.00     0.012 A 
ATOM     18  C   UNL A   1      29.923  29.231  22.686  1.00  0.00     0.123 A 
ATOM     19  C   UNL A   1      30.015  30.181  23.697  1.00  0.00     0.040 A 
ATOM     20  F   UNL A   1      29.180  29.505  21.607  1.00  0.00    -0.207 F 
BRANCH  15  21
ATOM     21  C   UNL A   1      33.066  30.344  27.004  1.00  0.00    -0.021 A 
ATOM     22  C   UNL A   1      31.802  30.915  26.846  1.00  0.00     0.008 A 
ATOM     23  C   UNL A   1      34.144  31.147  27.412  1.00  0.00     0.054 A 
ATOM     24  C   UNL A   1      31.621  32.280  27.071  1.00  0.00     0.004 A 
ATOM     25  C   UNL A   1      33.961  32.505  27.679  1.00  0.00     0.120 A 
ATOM     26  C   UNL A   1      32.698  33.069  27.483  1.00  0.00     0.046 A 
BRANCH  25  27
ATOM     27  O   UNL A   1      34.916  33.382  28.119  1.00  0.00    -0.489 OA
BRANCH  27  28
ATOM     28  C   UNL A   1      36.285  32.957  28.135  1.00  0.00     0.265 C 
BRANCH  28  29
ATOM     29  C   UNL A   1      37.045  33.493  29.329  1.00  0.00    -0.011 A 
ATOM     30  C   UNL A   1      38.400  33.836  29.215  1.00  0.00     0.007 A 
ATOM     31  C   UNL A   1      36.390  33.708  30.551  1.00  0.00     0.007 A 
ATOM     32  C   UNL A   1      39.072  34.424  30.287  1.00  0.00     0.000 A 
ATOM     33  C   UNL A   1      37.060  34.312  31.615  1.00  0.00     0.000 A 
ATOM     34  C   UNL A   1      38.398  34.675  31.481  1.00  0.00     0.000 A 
ENDBRANCH  28  29
ENDBRANCH  27  28
ENDBRANCH  25  27
ENDBRANCH  15  21
ENDBRANCH   8   9
ENDBRANCH   6   8
ENDBRANCH   5   6
ENDBRANCH   4   5
ENDBRANCH   3   4
ENDBRANCH   2   3
ENDBRANCH   1   2
BRANCH   1  35
ATOM     35  C   UNL A   1      35.023  21.425  26.443  1.00  0.00     0.188 C 
BRANCH  35  36
ATOM     36  O   UNL A   1      35.302  22.225  25.297  1.00  0.00    -0.376 OA
BRANCH  36  37
ATOM     37  C   UNL A   1      36.023  21.531  24.286  1.00  0.00     0.202 C 
BRANCH  37  38
ATOM     38  C   UNL A   1      37.361  21.043  24.840  1.00  0.00     0.261 C 
BRANCH  38  39
ATOM     39  O   UNL A   1      38.061  22.039  25.609  1.00  0.00    -0.460 OA
BRANCH  39  40
ATOM     40  C   UNL A   1      39.227  21.642  26.165  1.00  0.00     0.338 C 
ATOM     41  O   UNL A   1      39.722  20.533  26.112  1.00  0.00    -0.246 OA
BRANCH  40  42
ATOM     42  C   UNL A   1      39.864  22.823  26.777  1.00  0.00     0.060 A 
ATOM     43  C   UNL A   1      40.885  22.682  27.710  1.00  0.00     0.016 A 
ATOM     44  C   UNL A   1      39.474  24.092  26.356  1.00  0.00     0.016 A 
ATOM     45  C   UNL A   1      41.524  23.828  28.199  1.00  0.00     0.010 A 
ATOM     46  C   UNL A   1      40.150  25.231  26.796  1.00  0.00     0.010 A 
ATOM     47  C   UNL A   1      41.186  25.112  27.725  1.00  0.00    -0.014 A 
BRANCH  47  48
ATOM     48  C   UNL A   1      41.993  26.299  28.120  1.00  0.00     0.031 A 
ATOM     49  C   UNL A   1      43.353  26.569  27.540  1.00  0.00     0.074 A 
ATOM     50  C   UNL A   1      41.490  27.135  29.052  1.00  0.00     0.049 A 
ATOM     51  N   UNL A   1      44.088  27.647  27.646  1.00  0.00    -0.248 NA
ATOM     52  C   UNL A   1      43.987  25.490  26.769  1.00  0.00     0.031 C 
ATOM     53  C   UNL A   1      40.248  26.905  29.792  1.00  0.00     0.029 A 
ATOM     54  N   UNL A   1      41.941  28.342  29.527  1.00  0.00    -0.354 N 
ATOM     55  C   UNL A   1      45.255  27.389  26.935  1.00  0.00     0.074 A 
ATOM     56  C   UNL A   1      45.166  26.022  26.473  1.00  0.00     0.031 C 
ATOM     57  C   UNL A   1      40.002  27.964  30.576  1.00  0.00     0.029 A 
ATOM     58  C   UNL A   1      41.073  28.943  30.409  1.00  0.00     0.049 A 
ATOM     59  H   UNL A   1      42.802  28.739  29.262  1.00  0.00     0.167 HD
ATOM     60  C   UNL A   1      46.282  28.230  26.662  1.00  0.00     0.034 A 
ATOM     61  C   UNL A   1      41.110  30.162  30.990  1.00  0.00     0.034 A 
ATOM     62  C   UNL A   1      46.345  29.591  27.134  1.00  0.00     0.049 A 
ATOM     63  C   UNL A   1      42.228  31.106  30.627  1.00  0.00     0.074 A 
ATOM     64  C   UNL A   1      47.295  30.555  26.843  1.00  0.00     0.029 A 
ATOM     65  N   UNL A   1      45.430  30.181  27.996  1.00  0.00    -0.354 N 
ATOM     66  N   UNL A   1      43.236  30.912  29.810  1.00  0.00    -0.248 NA
ATOM     67  C   UNL A   1      42.205  32.442  31.239  1.00  0.00     0.031 C 
ATOM     68  C   UNL A   1      46.989  31.704  27.573  1.00  0.00     0.029 A 
ATOM     69  C   UNL A   1      45.809  31.486  28.266  1.00  0.00     0.049 A 
ATOM     70  H   UNL A   1      44.632  29.737  28.361  1.00  0.00     0.167 HD
ATOM     71  C   UNL A   1      43.953  32.105  29.791  1.00  0.00     0.074 A 
ATOM     72  C   UNL A   1      43.247  33.025  30.659  1.00  0.00     0.031 C 
ATOM     73  C   UNL A   1      45.092  32.406  29.119  1.00  0.00     0.034 A 
BRANCH  60  74
ATOM     74  C   UNL A   1      47.398  27.748  25.764  1.00  0.00     0.023 A 
ATOM     75  C   UNL A   1      47.419  28.088  24.397  1.00  0.00     0.031 A 
ATOM     76  C   UNL A   1      48.357  26.829  26.232  1.00  0.00     0.131 A 
ATOM     77  C   UNL A   1      48.359  27.493  23.545  1.00  0.00     0.055 A 
ATOM     78  C   UNL A   1      49.318  26.272  25.387  1.00  0.00     0.041 A 
ATOM     79  F   UNL A   1      48.374  26.461  27.523  1.00  0.00    -0.206 F 
ATOM     80  C   UNL A   1      49.312  26.593  24.033  1.00  0.00     0.022 A 
BRANCH  77  81
ATOM     81  S   UNL A   1      48.342  27.803  21.757  1.00  0.00     0.124 S 
ATOM     82  O   UNL A   1      48.566  26.462  21.219  1.00  0.00    -0.237 OA
ATOM     83  O   UNL A   1      47.001  28.341  21.552  1.00  0.00    -0.237 OA
ATOM     84  O   UNL A   1      49.439  28.743  21.553  1.00  0.00    -0.744 OA
ENDBRANCH  77  81
ENDBRANCH  60  74
BRANCH  61  85
ATOM     85  C   UNL A   1      39.972  30.578  31.862  1.00  0.00     0.023 A 
ATOM     86  C   UNL A   1      40.126  30.695  33.255  1.00  0.00     0.031 A 
ATOM     87  C   UNL A   1      38.682  30.734  31.325  1.00  0.00     0.131 A 
ATOM     88  C   UNL A   1      39.000  30.895  34.067  1.00  0.00     0.055 A 
ATOM     89  C   UNL A   1      37.574  30.999  32.131  1.00  0.00     0.041 A 
ATOM     90  F   UNL A   1      38.480  30.610  30.004  1.00  0.00    -0.206 F 
ATOM     91  C   UNL A   1      37.728  31.064  33.512  1.00  0.00     0.022 A 
BRANCH  88  92
ATOM     92  S   UNL A   1      39.127  30.803  35.875  1.00  0.00     0.124 S 
ATOM     93  O   UNL A   1      40.173  29.801  36.056  1.00  0.00    -0.237 OA
ATOM     94  O   UNL A   1      39.500  32.173  36.219  1.00  0.00    -0.237 OA
ATOM     95  O   UNL A   1      37.789  30.401  36.294  1.00  0.00    -0.744 OA
ENDBRANCH  88  92
ENDBRANCH  61  85
BRANCH  73  96
ATOM     96  C   UNL A   1      45.685  33.786  29.274  1.00  0.00     0.023 A 
ATOM     97  C   UNL A   1      46.567  34.057  30.338  1.00  0.00     0.031 A 
ATOM     98  C   UNL A   1      45.246  34.863  28.484  1.00  0.00     0.131 A 
ATOM     99  C   UNL A   1      46.943  35.378  30.613  1.00  0.00     0.055 A 
ATOM    100  C   UNL A   1      45.662  36.171  28.732  1.00  0.00     0.041 A 
ATOM    101  F   UNL A   1      44.395  34.657  27.465  1.00  0.00    -0.206 F 
ATOM    102  C   UNL A   1      46.501  36.436  29.811  1.00  0.00     0.022 A 
BRANCH  99 103
ATOM    103  S   UNL A   1      47.938  35.785  32.075  1.00  0.00     0.124 S 
ATOM    104  O   UNL A   1      49.266  35.976  31.492  1.00  0.00    -0.237 OA
ATOM    105  O   UNL A   1      47.291  37.000  32.560  1.00  0.00    -0.237 OA
ATOM    106  O   UNL A   1      47.801  34.613  32.933  1.00  0.00    -0.744 OA
ENDBRANCH  99 103
ENDBRANCH  73  96
ENDBRANCH  47  48
ENDBRANCH  40  42
ENDBRANCH  39  40
ENDBRANCH  38  39
ENDBRANCH  37  38
ENDBRANCH  36  37
ENDBRANCH  35  36
ENDBRANCH   1  35
TORSDOF 25
ENDMDL
