MODEL 1
REMARK VINA RESULT:      -9.7      0.000      0.000
REMARK SMILES Cc1ccc(F)c(C(=O)N[C@@H]2C=C[C@@H](C(=O)OCCOCCOCCOC(=O)c3ccc(-c4c5nc(c(-c6cc(S(=O)(=O)[O-])ccc6F)c6ccc([nH]6)c(-c6cc(S(=O)(=O)[O-])ccc6F)c6nc(c(-c7cc(S(=O)(=O)[O-])ccc7F)c7ccc4[nH]7)C=C6)C=C5)cc3)C2)c1
REMARK SMILES IDX 22 1 21 2 20 3 19 4 18 5 17 6 15 7 16 8 14 9 11 10 12 11
REMARK SMILES IDX 92 12 13 13 10 14 8 15 9 16 7 18 1 19 2 20 3 21 93 22 4 23
REMARK SMILES IDX 5 24 6 25 23 26 24 27 25 28 26 29 27 30 28 31 29 32 30 33
REMARK SMILES IDX 91 34 31 35 90 36 32 37 33 38 34 39 84 40 35 41 89 42 83 43
REMARK SMILES IDX 85 44 36 45 88 46 82 47 81 48 37 50 69 51 49 52 68 53 50 54
REMARK SMILES IDX 53 55 67 56 86 57 51 58 52 59 66 61 87 62 54 63 38 64 39 65
REMARK SMILES IDX 47 66 40 67 46 68 48 69 45 70 41 71 42 72 43 73 44 74 70 75
REMARK SMILES IDX 71 76 79 77 72 78 78 79 80 80 77 81 73 82 74 83 75 84 76 85
REMARK SMILES IDX 55 86 56 87 64 88 57 89 63 90 65 91 62 92 58 93 59 94 60 95
REMARK SMILES IDX 61 96
REMARK H PARENT 10 17 85 49 53 60
REMARK Flexibility Score: inf
ROOT
ATOM      1  C   UNL A   1      34.463  34.976  28.165  1.00  0.00     0.188 C 
ENDROOT
BRANCH   1   2
ATOM      2  C   UNL A   1      35.501  34.443  29.172  1.00  0.00     0.188 C 
BRANCH   2   3
ATOM      3  O   UNL A   1      36.099  33.169  28.938  1.00  0.00    -0.376 OA
BRANCH   3   4
ATOM      4  C   UNL A   1      35.265  32.023  28.816  1.00  0.00     0.202 C 
BRANCH   4   5
ATOM      5  C   UNL A   1      35.090  31.439  27.413  1.00  0.00     0.261 C 
BRANCH   5   6
ATOM      6  O   UNL A   1      34.078  30.419  27.344  1.00  0.00    -0.463 OA
BRANCH   6   7
ATOM      7  C   UNL A   1      34.515  29.191  26.957  1.00  0.00     0.312 C 
ATOM      8  O   UNL A   1      35.340  28.535  27.587  1.00  0.00    -0.252 OA
BRANCH   7   9
ATOM      9  C   UNL A   1      33.821  28.670  25.691  1.00  0.00     0.124 C 
ATOM     10  C   UNL A   1      31.630  27.647  25.109  1.00  0.00     0.106 C 
ATOM     11  C   UNL A   1      31.620  29.136  24.974  1.00  0.00    -0.006 C 
ATOM     12  C   UNL A   1      32.973  27.392  25.805  1.00  0.00     0.048 C 
ATOM     13  C   UNL A   1      32.806  29.684  25.253  1.00  0.00    -0.014 C 
BRANCH  10  14
ATOM     14  N   UNL A   1      31.460  27.106  23.777  1.00  0.00    -0.346 N 
ATOM     15  C   UNL A   1      30.744  27.491  22.673  1.00  0.00     0.254 C 
ATOM     16  O   UNL A   1      31.048  26.972  21.601  1.00  0.00    -0.269 OA
ATOM     17  H   UNL A   1      31.970  26.277  23.632  1.00  0.00     0.164 HD
BRANCH  15  18
ATOM     18  C   UNL A   1      29.629  28.460  22.718  1.00  0.00     0.075 A 
ATOM     19  C   UNL A   1      28.749  32.074  21.908  1.00  0.00     0.044 C 
ATOM     20  C   UNL A   1      28.635  30.651  22.359  1.00  0.00    -0.050 A 
ATOM     21  C   UNL A   1      27.406  30.171  22.828  1.00  0.00     0.006 A 
ATOM     22  C   UNL A   1      29.735  29.781  22.270  1.00  0.00     0.020 A 
ATOM     23  C   UNL A   1      27.283  28.845  23.237  1.00  0.00     0.040 A 
ATOM     24  C   UNL A   1      28.391  28.005  23.190  1.00  0.00     0.135 A 
ATOM     25  F   UNL A   1      28.239  26.752  23.640  1.00  0.00    -0.206 F 
ENDBRANCH  15  18
ENDBRANCH  10  14
ENDBRANCH   7   9
ENDBRANCH   6   7
ENDBRANCH   5   6
ENDBRANCH   4   5
ENDBRANCH   3   4
ENDBRANCH   2   3
ENDBRANCH   1   2
BRANCH   1  26
ATOM     26  O   UNL A   1      33.720  36.085  28.635  1.00  0.00    -0.376 OA
BRANCH  26  27
ATOM     27  C   UNL A   1      32.845  35.849  29.722  1.00  0.00     0.202 C 
BRANCH  27  28
ATOM     28  C   UNL A   1      32.879  36.894  30.838  1.00  0.00     0.261 C 
BRANCH  28  29
ATOM     29  O   UNL A   1      33.613  36.506  32.013  1.00  0.00    -0.460 OA
BRANCH  29  30
ATOM     30  C   UNL A   1      33.357  35.289  32.536  1.00  0.00     0.338 C 
ATOM     31  O   UNL A   1      32.254  34.797  32.746  1.00  0.00    -0.246 OA
BRANCH  30  32
ATOM     32  C   UNL A   1      34.645  34.591  32.704  1.00  0.00     0.060 A 
ATOM     33  C   UNL A   1      34.677  33.287  33.217  1.00  0.00     0.016 A 
ATOM     34  C   UNL A   1      35.831  35.233  32.349  1.00  0.00     0.016 A 
ATOM     35  C   UNL A   1      35.898  32.631  33.403  1.00  0.00     0.010 A 
ATOM     36  C   UNL A   1      37.051  34.576  32.532  1.00  0.00     0.010 A 
ATOM     37  C   UNL A   1      37.096  33.279  33.078  1.00  0.00    -0.014 A 
BRANCH  37  38
ATOM     38  C   UNL A   1      38.414  32.674  33.405  1.00  0.00     0.031 A 
ATOM     39  C   UNL A   1      38.949  31.587  32.511  1.00  0.00     0.074 A 
ATOM     40  C   UNL A   1      39.095  33.041  34.506  1.00  0.00     0.049 A 
ATOM     41  N   UNL A   1      39.959  30.780  32.698  1.00  0.00    -0.248 NA
ATOM     42  C   UNL A   1      38.236  31.379  31.241  1.00  0.00     0.031 C 
ATOM     43  C   UNL A   1      38.707  34.111  35.423  1.00  0.00     0.029 A 
ATOM     44  N   UNL A   1      40.244  32.527  35.060  1.00  0.00    -0.354 N 
ATOM     45  C   UNL A   1      39.985  29.943  31.587  1.00  0.00     0.074 A 
ATOM     46  C   UNL A   1      38.885  30.340  30.735  1.00  0.00     0.031 C 
ATOM     47  C   UNL A   1      39.583  34.152  36.443  1.00  0.00     0.029 A 
ATOM     48  C   UNL A   1      40.560  33.077  36.283  1.00  0.00     0.049 A 
ATOM     49  H   UNL A   1      40.789  31.833  34.624  1.00  0.00     0.167 HD
ATOM     50  C   UNL A   1      40.843  28.930  31.313  1.00  0.00     0.034 A 
ATOM     51  C   UNL A   1      41.495  32.720  37.189  1.00  0.00     0.034 A 
ATOM     52  C   UNL A   1      41.944  28.556  32.165  1.00  0.00     0.049 A 
ATOM     53  C   UNL A   1      42.402  31.547  36.886  1.00  0.00     0.074 A 
ATOM     54  C   UNL A   1      42.899  27.576  31.957  1.00  0.00     0.029 A 
ATOM     55  N   UNL A   1      42.232  29.135  33.394  1.00  0.00    -0.354 N 
ATOM     56  N   UNL A   1      42.424  30.770  35.827  1.00  0.00    -0.248 NA
ATOM     57  C   UNL A   1      43.410  31.205  37.897  1.00  0.00     0.031 C 
ATOM     58  C   UNL A   1      43.718  27.514  33.088  1.00  0.00     0.029 A 
ATOM     59  C   UNL A   1      43.326  28.508  33.970  1.00  0.00     0.049 A 
ATOM     60  H   UNL A   1      41.734  29.883  33.796  1.00  0.00     0.167 HD
ATOM     61  C   UNL A   1      43.470  29.873  36.035  1.00  0.00     0.074 A 
ATOM     62  C   UNL A   1      44.062  30.213  37.309  1.00  0.00     0.031 C 
ATOM     63  C   UNL A   1      43.906  28.861  35.242  1.00  0.00     0.034 A 
BRANCH  50  64
ATOM     64  C   UNL A   1      40.590  28.111  30.073  1.00  0.00     0.023 A 
ATOM     65  C   UNL A   1      41.379  28.235  28.917  1.00  0.00     0.031 A 
ATOM     66  C   UNL A   1      39.537  27.176  30.059  1.00  0.00     0.131 A 
ATOM     67  C   UNL A   1      41.076  27.468  27.782  1.00  0.00     0.055 A 
ATOM     68  C   UNL A   1      39.284  26.369  28.950  1.00  0.00     0.041 A 
ATOM     69  F   UNL A   1      38.737  27.034  31.127  1.00  0.00    -0.206 F 
ATOM     70  C   UNL A   1      40.051  26.518  27.799  1.00  0.00     0.022 A 
BRANCH  67  71
ATOM     71  S   UNL A   1      41.978  27.797  26.242  1.00  0.00     0.124 S 
ATOM     72  O   UNL A   1      43.362  27.597  26.663  1.00  0.00    -0.237 OA
ATOM     73  O   UNL A   1      41.432  26.794  25.335  1.00  0.00    -0.237 OA
ATOM     74  O   UNL A   1      41.623  29.180  25.927  1.00  0.00    -0.744 OA
ENDBRANCH  67  71
ENDBRANCH  50  64
BRANCH  51  75
ATOM     75  C   UNL A   1      41.586  33.413  38.509  1.00  0.00     0.023 A 
ATOM     76  C   UNL A   1      40.819  32.994  39.608  1.00  0.00     0.031 A 
ATOM     77  C   UNL A   1      42.372  34.570  38.663  1.00  0.00     0.131 A 
ATOM     78  C   UNL A   1      40.801  33.760  40.785  1.00  0.00     0.055 A 
ATOM     79  C   UNL A   1      42.402  35.292  39.857  1.00  0.00     0.041 A 
ATOM     80  F   UNL A   1      43.121  35.024  37.644  1.00  0.00    -0.206 F 
ATOM     81  C   UNL A   1      41.597  34.898  40.922  1.00  0.00     0.022 A 
BRANCH  78  82
ATOM     82  S   UNL A   1      39.619  33.319  42.090  1.00  0.00     0.124 S 
ATOM     83  O   UNL A   1      40.264  32.160  42.695  1.00  0.00    -0.237 OA
ATOM     84  O   UNL A   1      39.595  34.534  42.896  1.00  0.00    -0.237 OA
ATOM     85  O   UNL A   1      38.389  33.036  41.352  1.00  0.00    -0.744 OA
ENDBRANCH  78  82
ENDBRANCH  51  75
BRANCH  63  86
ATOM     86  C   UNL A   1      45.122  28.094  35.707  1.00  0.00     0.023 A 
ATOM     87  C   UNL A   1      45.014  26.931  36.490  1.00  0.00     0.031 A 
ATOM     88  C   UNL A   1      46.410  28.542  35.361  1.00  0.00     0.131 A 
ATOM     89  C   UNL A   1      46.175  26.285  36.944  1.00  0.00     0.055 A 
ATOM     90  C   UNL A   1      47.559  27.862  35.766  1.00  0.00     0.041 A 
ATOM     91  F   UNL A   1      46.572  29.647  34.616  1.00  0.00    -0.206 F 
ATOM     92  C   UNL A   1      47.445  26.734  36.573  1.00  0.00     0.022 A 
BRANCH  89  93
ATOM     93  S   UNL A   1      46.005  24.896  38.098  1.00  0.00     0.124 S 
ATOM     94  O   UNL A   1      46.212  25.545  39.388  1.00  0.00    -0.237 OA
ATOM     95  O   UNL A   1      44.648  24.431  37.829  1.00  0.00    -0.237 OA
ATOM     96  O   UNL A   1      47.066  23.978  37.688  1.00  0.00    -0.744 OA
ENDBRANCH  89  93
ENDBRANCH  63  86
ENDBRANCH  37  38
ENDBRANCH  30  32
ENDBRANCH  29  30
ENDBRANCH  28  29
ENDBRANCH  27  28
ENDBRANCH  26  27
ENDBRANCH   1  26
TORSDOF 22
ENDMDL
MODEL 2
REMARK VINA RESULT:      -9.5      4.528      9.843
REMARK SMILES Cc1ccc(F)c(C(=O)N[C@@H]2C=C[C@@H](C(=O)OCCOCCOCCOC(=O)c3ccc(-c4c5nc(c(-c6cc(S(=O)(=O)[O-])ccc6F)c6ccc([nH]6)c(-c6cc(S(=O)(=O)[O-])ccc6F)c6nc(c(-c7cc(S(=O)(=O)[O-])ccc7F)c7ccc4[nH]7)C=C6)C=C5)cc3)C2)c1
REMARK SMILES IDX 22 1 21 2 20 3 19 4 18 5 17 6 15 7 16 8 14 9 11 10 12 11
REMARK SMILES IDX 92 12 13 13 10 14 8 15 9 16 7 18 1 19 2 20 3 21 93 22 4 23
REMARK SMILES IDX 5 24 6 25 23 26 24 27 25 28 26 29 27 30 28 31 29 32 30 33
REMARK SMILES IDX 91 34 31 35 90 36 32 37 33 38 34 39 84 40 35 41 89 42 83 43
REMARK SMILES IDX 85 44 36 45 88 46 82 47 81 48 37 50 69 51 49 52 68 53 50 54
REMARK SMILES IDX 53 55 67 56 86 57 51 58 52 59 66 61 87 62 54 63 38 64 39 65
REMARK SMILES IDX 47 66 40 67 46 68 48 69 45 70 41 71 42 72 43 73 44 74 70 75
REMARK SMILES IDX 71 76 79 77 72 78 78 79 80 80 77 81 73 82 74 83 75 84 76 85
REMARK SMILES IDX 55 86 56 87 64 88 57 89 63 90 65 91 62 92 58 93 59 94 60 95
REMARK SMILES IDX 61 96
REMARK H PARENT 10 17 85 49 53 60
REMARK Flexibility Score: inf
ROOT
ATOM      1  C   UNL A   1      34.517  31.695  28.634  1.00  0.00     0.188 C 
ENDROOT
BRANCH   1   2
ATOM      2  C   UNL A   1      33.469  31.547  27.514  1.00  0.00     0.188 C 
BRANCH   2   3
ATOM      3  O   UNL A   1      32.822  30.287  27.335  1.00  0.00    -0.376 OA
BRANCH   3   4
ATOM      4  C   UNL A   1      33.612  29.107  27.265  1.00  0.00     0.202 C 
BRANCH   4   5
ATOM      5  C   UNL A   1      33.737  28.435  25.896  1.00  0.00     0.261 C 
BRANCH   5   6
ATOM      6  O   UNL A   1      33.361  27.047  25.908  1.00  0.00    -0.463 OA
BRANCH   6   7
ATOM      7  C   UNL A   1      32.086  26.786  25.516  1.00  0.00     0.312 C 
ATOM      8  O   UNL A   1      31.252  27.659  25.297  1.00  0.00    -0.252 OA
BRANCH   7   9
ATOM      9  C   UNL A   1      31.808  25.291  25.305  1.00  0.00     0.124 C 
ATOM     10  C   UNL A   1      31.618  23.259  26.726  1.00  0.00     0.106 C 
ATOM     11  C   UNL A   1      30.302  23.933  26.514  1.00  0.00    -0.006 C 
ATOM     12  C   UNL A   1      32.606  24.281  26.148  1.00  0.00     0.048 C 
ATOM     13  C   UNL A   1      30.396  25.005  25.723  1.00  0.00    -0.014 C 
BRANCH  10  14
ATOM     14  N   UNL A   1      31.539  21.970  26.072  1.00  0.00    -0.346 N 
ATOM     15  C   UNL A   1      32.400  21.238  25.297  1.00  0.00     0.254 C 
ATOM     16  O   UNL A   1      32.137  20.047  25.141  1.00  0.00    -0.269 OA
ATOM     17  H   UNL A   1      30.675  21.521  26.214  1.00  0.00     0.164 HD
BRANCH  15  18
ATOM     18  C   UNL A   1      33.589  21.809  24.630  1.00  0.00     0.075 A 
ATOM     19  C   UNL A   1      37.380  22.025  24.905  1.00  0.00     0.044 C 
ATOM     20  C   UNL A   1      35.979  22.204  24.407  1.00  0.00    -0.050 A 
ATOM     21  C   UNL A   1      35.750  22.925  23.229  1.00  0.00     0.006 A 
ATOM     22  C   UNL A   1      34.897  21.615  25.084  1.00  0.00     0.020 A 
ATOM     23  C   UNL A   1      34.454  23.087  22.748  1.00  0.00     0.040 A 
ATOM     24  C   UNL A   1      33.385  22.541  23.452  1.00  0.00     0.135 A 
ATOM     25  F   UNL A   1      32.151  22.764  22.980  1.00  0.00    -0.206 F 
ENDBRANCH  15  18
ENDBRANCH  10  14
ENDBRANCH   7   9
ENDBRANCH   6   7
ENDBRANCH   5   6
ENDBRANCH   4   5
ENDBRANCH   3   4
ENDBRANCH   2   3
ENDBRANCH   1   2
BRANCH   1  26
ATOM     26  O   UNL A   1      35.848  31.809  28.167  1.00  0.00    -0.376 OA
BRANCH  26  27
ATOM     27  C   UNL A   1      36.757  30.811  28.591  1.00  0.00     0.202 C 
BRANCH  27  28
ATOM     28  C   UNL A   1      37.411  31.046  29.954  1.00  0.00     0.261 C 
BRANCH  28  29
ATOM     29  O   UNL A   1      36.808  30.334  31.049  1.00  0.00    -0.460 OA
BRANCH  29  30
ATOM     30  C   UNL A   1      37.246  30.617  32.293  1.00  0.00     0.338 C 
ATOM     31  O   UNL A   1      36.655  31.263  33.152  1.00  0.00    -0.246 OA
BRANCH  30  32
ATOM     32  C   UNL A   1      38.524  29.908  32.493  1.00  0.00     0.060 A 
ATOM     33  C   UNL A   1      39.703  30.631  32.715  1.00  0.00     0.016 A 
ATOM     34  C   UNL A   1      38.553  28.514  32.461  1.00  0.00     0.016 A 
ATOM     35  C   UNL A   1      40.921  29.964  32.880  1.00  0.00     0.010 A 
ATOM     36  C   UNL A   1      39.770  27.847  32.628  1.00  0.00     0.010 A 
ATOM     37  C   UNL A   1      40.966  28.566  32.819  1.00  0.00    -0.014 A 
BRANCH  37  38
ATOM     38  C   UNL A   1      42.259  27.833  32.835  1.00  0.00     0.031 A 
ATOM     39  C   UNL A   1      42.917  27.562  34.161  1.00  0.00     0.074 A 
ATOM     40  C   UNL A   1      42.867  27.467  31.690  1.00  0.00     0.049 A 
ATOM     41  N   UNL A   1      44.123  27.130  34.418  1.00  0.00    -0.248 NA
ATOM     42  C   UNL A   1      42.104  27.831  35.357  1.00  0.00     0.031 C 
ATOM     43  C   UNL A   1      42.310  27.629  30.348  1.00  0.00     0.029 A 
ATOM     44  N   UNL A   1      44.105  26.911  31.474  1.00  0.00    -0.354 N 
ATOM     45  C   UNL A   1      44.229  27.105  35.804  1.00  0.00     0.074 A 
ATOM     46  C   UNL A   1      42.965  27.572  36.332  1.00  0.00     0.031 C 
ATOM     47  C   UNL A   1      43.218  27.215  29.446  1.00  0.00     0.029 A 
ATOM     48  C   UNL A   1      44.438  26.811  30.141  1.00  0.00     0.049 A 
ATOM     49  H   UNL A   1      44.697  26.612  32.201  1.00  0.00     0.167 HD
ATOM     50  C   UNL A   1      45.290  26.736  36.563  1.00  0.00     0.034 A 
ATOM     51  C   UNL A   1      45.608  26.483  29.552  1.00  0.00     0.034 A 
ATOM     52  C   UNL A   1      46.538  26.259  36.023  1.00  0.00     0.049 A 
ATOM     53  C   UNL A   1      46.796  26.133  30.423  1.00  0.00     0.074 A 
ATOM     54  C   UNL A   1      47.658  25.817  36.706  1.00  0.00     0.029 A 
ATOM     55  N   UNL A   1      46.838  26.171  34.670  1.00  0.00    -0.354 N 
ATOM     56  N   UNL A   1      46.881  26.103  31.734  1.00  0.00    -0.248 NA
ATOM     57  C   UNL A   1      48.043  25.771  29.736  1.00  0.00     0.031 C 
ATOM     58  C   UNL A   1      48.658  25.531  35.771  1.00  0.00     0.029 A 
ATOM     59  C   UNL A   1      48.137  25.718  34.500  1.00  0.00     0.049 A 
ATOM     60  H   UNL A   1      46.219  26.396  33.938  1.00  0.00     0.167 HD
ATOM     61  C   UNL A   1      48.179  25.685  32.021  1.00  0.00     0.074 A 
ATOM     62  C   UNL A   1      48.835  25.463  30.751  1.00  0.00     0.031 C 
ATOM     63  C   UNL A   1      48.776  25.499  33.226  1.00  0.00     0.034 A 
BRANCH  50  64
ATOM     64  C   UNL A   1      45.174  26.896  38.057  1.00  0.00     0.023 A 
ATOM     65  C   UNL A   1      45.484  28.101  38.710  1.00  0.00     0.031 A 
ATOM     66  C   UNL A   1      44.730  25.814  38.841  1.00  0.00     0.131 A 
ATOM     67  C   UNL A   1      45.388  28.181  40.108  1.00  0.00     0.055 A 
ATOM     68  C   UNL A   1      44.572  25.922  40.223  1.00  0.00     0.041 A 
ATOM     69  F   UNL A   1      44.443  24.632  38.273  1.00  0.00    -0.206 F 
ATOM     70  C   UNL A   1      44.909  27.108  40.866  1.00  0.00     0.022 A 
BRANCH  67  71
ATOM     71  S   UNL A   1      45.991  29.676  40.939  1.00  0.00     0.124 S 
ATOM     72  O   UNL A   1      46.393  30.502  39.803  1.00  0.00    -0.237 OA
ATOM     73  O   UNL A   1      44.815  30.127  41.673  1.00  0.00    -0.237 OA
ATOM     74  O   UNL A   1      47.093  29.188  41.766  1.00  0.00    -0.744 OA
ENDBRANCH  67  71
ENDBRANCH  50  64
BRANCH  51  75
ATOM     75  C   UNL A   1      45.762  26.540  28.068  1.00  0.00     0.023 A 
ATOM     76  C   UNL A   1      45.602  25.393  27.273  1.00  0.00     0.031 A 
ATOM     77  C   UNL A   1      46.168  27.727  27.430  1.00  0.00     0.131 A 
ATOM     78  C   UNL A   1      45.911  25.439  25.904  1.00  0.00     0.055 A 
ATOM     79  C   UNL A   1      46.411  27.784  26.057  1.00  0.00     0.041 A 
ATOM     80  F   UNL A   1      46.345  28.854  28.140  1.00  0.00    -0.206 F 
ATOM     81  C   UNL A   1      46.302  26.630  25.288  1.00  0.00     0.022 A 
BRANCH  78  82
ATOM     82  S   UNL A   1      45.923  23.887  24.964  1.00  0.00     0.124 S 
ATOM     83  O   UNL A   1      46.839  24.206  23.876  1.00  0.00    -0.237 OA
ATOM     84  O   UNL A   1      46.411  22.937  25.958  1.00  0.00    -0.237 OA
ATOM     85  O   UNL A   1      44.525  23.716  24.574  1.00  0.00    -0.744 OA
ENDBRANCH  78  82
ENDBRANCH  51  75
BRANCH  63  86
ATOM     86  C   UNL A   1      50.191  24.968  33.221  1.00  0.00     0.023 A 
ATOM     87  C   UNL A   1      50.469  23.591  33.212  1.00  0.00     0.031 A 
ATOM     88  C   UNL A   1      51.276  25.864  33.230  1.00  0.00     0.131 A 
ATOM     89  C   UNL A   1      51.800  23.147  33.265  1.00  0.00     0.055 A 
ATOM     90  C   UNL A   1      52.599  25.416  33.222  1.00  0.00     0.041 A 
ATOM     91  F   UNL A   1      51.069  27.190  33.240  1.00  0.00    -0.206 F 
ATOM     92  C   UNL A   1      52.866  24.051  33.253  1.00  0.00     0.022 A 
BRANCH  89  93
ATOM     93  S   UNL A   1      52.121  21.370  33.434  1.00  0.00     0.124 S 
ATOM     94  O   UNL A   1      52.677  21.036  32.127  1.00  0.00    -0.237 OA
ATOM     95  O   UNL A   1      53.057  21.327  34.554  1.00  0.00    -0.237 OA
ATOM     96  O   UNL A   1      50.802  20.807  33.709  1.00  0.00    -0.744 OA
ENDBRANCH  89  93
ENDBRANCH  63  86
ENDBRANCH  37  38
ENDBRANCH  30  32
ENDBRANCH  29  30
ENDBRANCH  28  29
ENDBRANCH  27  28
ENDBRANCH  26  27
ENDBRANCH   1  26
TORSDOF 22
ENDMDL
MODEL 3
REMARK VINA RESULT:      -9.4      5.979     10.502
REMARK SMILES Cc1ccc(F)c(C(=O)N[C@@H]2C=C[C@@H](C(=O)OCCOCCOCCOC(=O)c3ccc(-c4c5nc(c(-c6cc(S(=O)(=O)[O-])ccc6F)c6ccc([nH]6)c(-c6cc(S(=O)(=O)[O-])ccc6F)c6nc(c(-c7cc(S(=O)(=O)[O-])ccc7F)c7ccc4[nH]7)C=C6)C=C5)cc3)C2)c1
REMARK SMILES IDX 22 1 21 2 20 3 19 4 18 5 17 6 15 7 16 8 14 9 11 10 12 11
REMARK SMILES IDX 92 12 13 13 10 14 8 15 9 16 7 18 1 19 2 20 3 21 93 22 4 23
REMARK SMILES IDX 5 24 6 25 23 26 24 27 25 28 26 29 27 30 28 31 29 32 30 33
REMARK SMILES IDX 91 34 31 35 90 36 32 37 33 38 34 39 84 40 35 41 89 42 83 43
REMARK SMILES IDX 85 44 36 45 88 46 82 47 81 48 37 50 69 51 49 52 68 53 50 54
REMARK SMILES IDX 53 55 67 56 86 57 51 58 52 59 66 61 87 62 54 63 38 64 39 65
REMARK SMILES IDX 47 66 40 67 46 68 48 69 45 70 41 71 42 72 43 73 44 74 70 75
REMARK SMILES IDX 71 76 79 77 72 78 78 79 80 80 77 81 73 82 74 83 75 84 76 85
REMARK SMILES IDX 55 86 56 87 64 88 57 89 63 90 65 91 62 92 58 93 59 94 60 95
REMARK SMILES IDX 61 96
REMARK H PARENT 10 17 85 49 53 60
REMARK Flexibility Score: inf
ROOT
ATOM      1  C   UNL A   1      41.263  21.851  26.738  1.00  0.00     0.188 C 
ENDROOT
BRANCH   1   2
ATOM      2  C   UNL A   1      40.823  20.411  26.407  1.00  0.00     0.188 C 
BRANCH   2   3
ATOM      3  O   UNL A   1      39.503  20.188  25.913  1.00  0.00    -0.376 OA
BRANCH   3   4
ATOM      4  C   UNL A   1      38.707  21.304  25.534  1.00  0.00     0.202 C 
BRANCH   4   5
ATOM      5  C   UNL A   1      37.319  21.005  24.964  1.00  0.00     0.261 C 
BRANCH   5   6
ATOM      6  O   UNL A   1      36.402  22.105  25.096  1.00  0.00    -0.463 OA
BRANCH   6   7
ATOM      7  C   UNL A   1      35.952  22.631  23.926  1.00  0.00     0.312 C 
ATOM      8  O   UNL A   1      36.659  22.781  22.934  1.00  0.00    -0.252 OA
BRANCH   7   9
ATOM      9  C   UNL A   1      34.451  22.955  23.942  1.00  0.00     0.124 C 
ATOM     10  C   UNL A   1      32.500  22.599  22.442  1.00  0.00     0.106 C 
ATOM     11  C   UNL A   1      32.669  21.492  23.431  1.00  0.00    -0.006 C 
ATOM     12  C   UNL A   1      33.795  23.402  22.624  1.00  0.00     0.048 C 
ATOM     13  C   UNL A   1      33.697  21.697  24.259  1.00  0.00    -0.014 C 
BRANCH  10  14
ATOM     14  N   UNL A   1      31.256  23.263  22.767  1.00  0.00    -0.346 N 
ATOM     15  C   UNL A   1      30.932  24.518  23.217  1.00  0.00     0.254 C 
ATOM     16  O   UNL A   1      29.756  24.863  23.111  1.00  0.00    -0.269 OA
ATOM     17  H   UNL A   1      30.468  22.688  22.638  1.00  0.00     0.164 HD
BRANCH  15  18
ATOM     18  C   UNL A   1      31.905  25.443  23.835  1.00  0.00     0.075 A 
ATOM     19  C   UNL A   1      34.005  28.531  23.100  1.00  0.00     0.044 C 
ATOM     20  C   UNL A   1      33.389  27.369  23.816  1.00  0.00    -0.050 A 
ATOM     21  C   UNL A   1      33.710  27.135  25.159  1.00  0.00     0.006 A 
ATOM     22  C   UNL A   1      32.456  26.542  23.169  1.00  0.00     0.020 A 
ATOM     23  C   UNL A   1      33.134  26.067  25.840  1.00  0.00     0.040 A 
ATOM     24  C   UNL A   1      32.247  25.225  25.176  1.00  0.00     0.135 A 
ATOM     25  F   UNL A   1      31.755  24.180  25.856  1.00  0.00    -0.206 F 
ENDBRANCH  15  18
ENDBRANCH  10  14
ENDBRANCH   7   9
ENDBRANCH   6   7
ENDBRANCH   5   6
ENDBRANCH   4   5
ENDBRANCH   3   4
ENDBRANCH   2   3
ENDBRANCH   1   2
BRANCH   1  26
ATOM     26  O   UNL A   1      42.662  22.006  26.890  1.00  0.00    -0.376 OA
BRANCH  26  27
ATOM     27  C   UNL A   1      43.454  21.784  25.739  1.00  0.00     0.202 C 
BRANCH  27  28
ATOM     28  C   UNL A   1      43.439  22.905  24.699  1.00  0.00     0.261 C 
BRANCH  28  29
ATOM     29  O   UNL A   1      43.359  24.236  25.238  1.00  0.00    -0.460 OA
BRANCH  29  30
ATOM     30  C   UNL A   1      44.482  24.981  25.229  1.00  0.00     0.338 C 
ATOM     31  O   UNL A   1      45.524  24.735  24.632  1.00  0.00    -0.246 OA
BRANCH  30  32
ATOM     32  C   UNL A   1      44.205  26.223  25.976  1.00  0.00     0.060 A 
ATOM     33  C   UNL A   1      43.431  27.236  25.393  1.00  0.00     0.016 A 
ATOM     34  C   UNL A   1      44.714  26.384  27.264  1.00  0.00     0.016 A 
ATOM     35  C   UNL A   1      43.187  28.426  26.087  1.00  0.00     0.010 A 
ATOM     36  C   UNL A   1      44.468  27.572  27.958  1.00  0.00     0.010 A 
ATOM     37  C   UNL A   1      43.720  28.609  27.369  1.00  0.00    -0.014 A 
BRANCH  37  38
ATOM     38  C   UNL A   1      43.611  29.915  28.071  1.00  0.00     0.031 A 
ATOM     39  C   UNL A   1      44.818  30.814  28.112  1.00  0.00     0.074 A 
ATOM     40  C   UNL A   1      42.481  30.270  28.710  1.00  0.00     0.049 A 
ATOM     41  N   UNL A   1      45.030  31.889  28.823  1.00  0.00    -0.248 NA
ATOM     42  C   UNL A   1      45.941  30.435  27.240  1.00  0.00     0.031 C 
ATOM     43  C   UNL A   1      41.232  29.511  28.704  1.00  0.00     0.029 A 
ATOM     44  N   UNL A   1      42.212  31.348  29.519  1.00  0.00    -0.354 N 
ATOM     45  C   UNL A   1      46.322  32.300  28.513  1.00  0.00     0.074 A 
ATOM     46  C   UNL A   1      46.846  31.352  27.552  1.00  0.00     0.031 C 
ATOM     47  C   UNL A   1      40.341  30.129  29.501  1.00  0.00     0.029 A 
ATOM     48  C   UNL A   1      40.972  31.295  30.116  1.00  0.00     0.049 A 
ATOM     49  H   UNL A   1      42.846  32.090  29.659  1.00  0.00     0.167 HD
ATOM     50  C   UNL A   1      47.009  33.364  28.995  1.00  0.00     0.034 A 
ATOM     51  C   UNL A   1      40.430  32.064  31.084  1.00  0.00     0.034 A 
ATOM     52  C   UNL A   1      46.467  34.308  29.941  1.00  0.00     0.049 A 
ATOM     53  C   UNL A   1      41.241  33.211  31.649  1.00  0.00     0.074 A 
ATOM     54  C   UNL A   1      47.063  35.445  30.458  1.00  0.00     0.029 A 
ATOM     55  N   UNL A   1      45.209  34.221  30.522  1.00  0.00    -0.354 N 
ATOM     56  N   UNL A   1      42.458  33.596  31.340  1.00  0.00    -0.248 NA
ATOM     57  C   UNL A   1      40.604  34.027  32.692  1.00  0.00     0.031 C 
ATOM     58  C   UNL A   1      46.197  36.004  31.402  1.00  0.00     0.029 A 
ATOM     59  C   UNL A   1      45.027  35.262  31.418  1.00  0.00     0.049 A 
ATOM     60  H   UNL A   1      44.543  33.522  30.325  1.00  0.00     0.167 HD
ATOM     61  C   UNL A   1      42.713  34.718  32.126  1.00  0.00     0.074 A 
ATOM     62  C   UNL A   1      41.522  34.955  32.911  1.00  0.00     0.031 C 
ATOM     63  C   UNL A   1      43.830  35.487  32.192  1.00  0.00     0.034 A 
BRANCH  50  64
ATOM     64  C   UNL A   1      48.443  33.530  28.562  1.00  0.00     0.023 A 
ATOM     65  C   UNL A   1      48.794  34.157  27.355  1.00  0.00     0.031 A 
ATOM     66  C   UNL A   1      49.479  33.057  29.388  1.00  0.00     0.131 A 
ATOM     67  C   UNL A   1      50.146  34.255  26.989  1.00  0.00     0.055 A 
ATOM     68  C   UNL A   1      50.823  33.218  29.049  1.00  0.00     0.041 A 
ATOM     69  F   UNL A   1      49.200  32.428  30.541  1.00  0.00    -0.206 F 
ATOM     70  C   UNL A   1      51.162  33.813  27.839  1.00  0.00     0.022 A 
BRANCH  67  71
ATOM     71  S   UNL A   1      50.557  34.880  25.336  1.00  0.00     0.124 S 
ATOM     72  O   UNL A   1      49.303  35.517  24.941  1.00  0.00    -0.237 OA
ATOM     73  O   UNL A   1      51.675  35.777  25.606  1.00  0.00    -0.237 OA
ATOM     74  O   UNL A   1      50.896  33.671  24.587  1.00  0.00    -0.744 OA
ENDBRANCH  67  71
ENDBRANCH  50  64
BRANCH  51  75
ATOM     75  C   UNL A   1      39.086  31.749  31.652  1.00  0.00     0.023 A 
ATOM     76  C   UNL A   1      37.928  32.398  31.191  1.00  0.00     0.031 A 
ATOM     77  C   UNL A   1      38.951  30.861  32.735  1.00  0.00     0.131 A 
ATOM     78  C   UNL A   1      36.704  32.203  31.851  1.00  0.00     0.055 A 
ATOM     79  C   UNL A   1      37.719  30.620  33.347  1.00  0.00     0.041 A 
ATOM     80  F   UNL A   1      40.023  30.217  33.224  1.00  0.00    -0.206 F 
ATOM     81  C   UNL A   1      36.589  31.309  32.917  1.00  0.00     0.022 A 
BRANCH  78  82
ATOM     82  S   UNL A   1      35.290  33.237  31.380  1.00  0.00     0.124 S 
ATOM     83  O   UNL A   1      34.174  32.488  31.943  1.00  0.00    -0.237 OA
ATOM     84  O   UNL A   1      35.611  34.502  32.034  1.00  0.00    -0.237 OA
ATOM     85  O   UNL A   1      35.356  33.258  29.920  1.00  0.00    -0.744 OA
ENDBRANCH  78  82
ENDBRANCH  51  75
BRANCH  63  86
ATOM     86  C   UNL A   1      43.786  36.694  33.100  1.00  0.00     0.023 A 
ATOM     87  C   UNL A   1      43.463  37.974  32.620  1.00  0.00     0.031 A 
ATOM     88  C   UNL A   1      44.079  36.553  34.469  1.00  0.00     0.131 A 
ATOM     89  C   UNL A   1      43.490  39.074  33.492  1.00  0.00     0.055 A 
ATOM     90  C   UNL A   1      44.046  37.641  35.343  1.00  0.00     0.041 A 
ATOM     91  F   UNL A   1      44.395  35.353  34.981  1.00  0.00    -0.206 F 
ATOM     92  C   UNL A   1      43.763  38.912  34.853  1.00  0.00     0.022 A 
BRANCH  89  93
ATOM     93  S   UNL A   1      43.245  40.736  32.809  1.00  0.00     0.124 S 
ATOM     94  O   UNL A   1      43.114  40.462  31.382  1.00  0.00    -0.237 OA
ATOM     95  O   UNL A   1      42.030  41.178  33.488  1.00  0.00    -0.237 OA
ATOM     96  O   UNL A   1      44.462  41.449  33.194  1.00  0.00    -0.744 OA
ENDBRANCH  89  93
ENDBRANCH  63  86
ENDBRANCH  37  38
ENDBRANCH  30  32
ENDBRANCH  29  30
ENDBRANCH  28  29
ENDBRANCH  27  28
ENDBRANCH  26  27
ENDBRANCH   1  26
TORSDOF 22
ENDMDL
