MODEL 1
REMARK VINA RESULT:     -10.5      0.000      0.000
REMARK SMILES O=C(COc1ccc(Br)cc1)NC(=S)Nc1ccc(Cl)cc1C(=O)OCCOCCOCCOC(=O)c1ccc(-c2c3nc(c(-c4cc(S(=O)(=O)[O-])ccc4F)c4ccc([nH]4)c(-c4cc(S(=O)(=O)[O-])ccc4F)c4nc(c(-c5cc(S(=O)(=O)[O-])ccc5F)c5ccc2[nH]5)C=C4)C=C3)cc1
REMARK SMILES IDX 28 1 27 2 26 3 25 4 23 5 24 6 22 7 16 8 17 9 18 10 21 11
REMARK SMILES IDX 19 12 20 13 15 14 13 16 14 17 12 18 1 19 2 20 3 22 4 23 5 24
REMARK SMILES IDX 6 25 11 26 7 27 10 28 8 29 9 30 29 31 30 32 31 33 32 34
REMARK SMILES IDX 33 35 34 36 35 37 36 38 37 39 38 40 99 41 39 42 98 43 40 44
REMARK SMILES IDX 41 45 42 46 92 47 43 48 97 49 91 50 93 51 44 52 96 53 90 54
REMARK SMILES IDX 89 55 45 57 77 58 57 59 76 60 58 61 61 62 75 63 94 64 59 65
REMARK SMILES IDX 60 66 74 68 95 69 62 70 46 71 47 72 55 73 48 74 54 75 56 76
REMARK SMILES IDX 53 77 49 78 50 79 51 80 52 81 78 82 79 83 87 84 80 85 86 86
REMARK SMILES IDX 88 87 85 88 81 89 82 90 83 91 84 92 63 93 64 94 72 95 65 96
REMARK SMILES IDX 71 97 73 98 70 99 66 100 67 101 68 102 69 103
REMARK H PARENT 15 15 12 21 93 56 61 67
REMARK Flexibility Score: inf
ROOT
ATOM      1  O   UNL A   1      33.242  27.471  26.591  1.00  0.00    -0.376 OA
ENDROOT
BRANCH   1   2
ATOM      2  C   UNL A   1      33.980  26.996  25.480  1.00  0.00     0.202 C 
BRANCH   2   3
ATOM      3  C   UNL A   1      33.673  25.590  24.959  1.00  0.00     0.261 C 
BRANCH   3   4
ATOM      4  O   UNL A   1      34.713  25.013  24.146  1.00  0.00    -0.460 OA
BRANCH   4   5
ATOM      5  C   UNL A   1      34.294  24.023  23.317  1.00  0.00     0.340 C 
ATOM      6  O   UNL A   1      33.974  24.169  22.146  1.00  0.00    -0.246 OA
BRANCH   5   7
ATOM      7  C   UNL A   1      34.312  22.675  23.947  1.00  0.00     0.085 A 
ATOM      8  C   UNL A   1      33.192  21.878  24.246  1.00  0.00     0.055 A 
ATOM      9  C   UNL A   1      33.404  20.528  24.577  1.00  0.00     0.028 A 
ATOM     10  C   UNL A   1      34.685  20.045  24.845  1.00  0.00     0.023 A 
ATOM     11  C   UNL A   1      35.598  22.189  24.248  1.00  0.00     0.038 A 
ATOM     12  C   UNL A   1      35.772  20.900  24.737  1.00  0.00     0.042 A 
ATOM     13  Cl  UNL A   1      37.334  20.356  25.195  1.00  0.00    -0.084 Cl
BRANCH   8  14
ATOM     14  N   UNL A   1      31.878  22.401  24.246  1.00  0.00    -0.332 N 
ATOM     15  H   UNL A   1      31.326  22.147  23.473  1.00  0.00     0.169 HD
BRANCH  14  16
ATOM     16  C   UNL A   1      31.266  23.204  25.159  1.00  0.00     0.177 C 
ATOM     17  S   UNL A   1      31.541  22.945  26.789  1.00  0.00    -0.040 S 
BRANCH  16  18
ATOM     18  N   UNL A   1      30.381  24.191  24.807  1.00  0.00    -0.300 N 
ATOM     19  O   UNL A   1      30.905  24.773  22.609  1.00  0.00    -0.271 OA
ATOM     20  C   UNL A   1      30.299  24.985  23.657  1.00  0.00     0.264 C 
ATOM     21  H   UNL A   1      29.684  24.372  25.478  1.00  0.00     0.172 HD
BRANCH  20  22
ATOM     22  C   UNL A   1      29.273  26.117  23.778  1.00  0.00     0.329 C 
BRANCH  22  23
ATOM     23  O   UNL A   1      29.858  27.361  24.165  1.00  0.00    -0.484 OA
BRANCH  23  24
ATOM     24  C   UNL A   1      29.437  28.366  23.333  1.00  0.00     0.120 A 
ATOM     25  C   UNL A   1      30.376  29.119  22.632  1.00  0.00     0.047 A 
ATOM     26  C   UNL A   1      28.072  28.591  23.156  1.00  0.00     0.047 A 
ATOM     27  C   UNL A   1      29.950  30.148  21.794  1.00  0.00     0.019 A 
ATOM     28  C   UNL A   1      27.646  29.624  22.316  1.00  0.00     0.019 A 
ATOM     29  C   UNL A   1      28.588  30.407  21.649  1.00  0.00     0.018 A 
ATOM     30  Br  UNL A   1      28.021  31.827  20.538  1.00  0.00    -0.051 Br
ENDBRANCH  23  24
ENDBRANCH  22  23
ENDBRANCH  20  22
ENDBRANCH  16  18
ENDBRANCH  14  16
ENDBRANCH   8  14
ENDBRANCH   5   7
ENDBRANCH   4   5
ENDBRANCH   3   4
ENDBRANCH   2   3
ENDBRANCH   1   2
BRANCH   1  31
ATOM     31  C   UNL A   1      33.624  28.676  27.245  1.00  0.00     0.188 C 
BRANCH  31  32
ATOM     32  C   UNL A   1      33.487  30.048  26.547  1.00  0.00     0.188 C 
BRANCH  32  33
ATOM     33  O   UNL A   1      32.971  31.115  27.333  1.00  0.00    -0.376 OA
BRANCH  33  34
ATOM     34  C   UNL A   1      31.846  31.794  26.779  1.00  0.00     0.202 C 
BRANCH  34  35
ATOM     35  C   UNL A   1      31.849  33.299  27.040  1.00  0.00     0.261 C 
BRANCH  35  36
ATOM     36  O   UNL A   1      33.183  33.769  27.296  1.00  0.00    -0.460 OA
BRANCH  36  37
ATOM     37  C   UNL A   1      33.397  34.434  28.446  1.00  0.00     0.338 C 
ATOM     38  O   UNL A   1      32.778  35.402  28.859  1.00  0.00    -0.246 OA
BRANCH  37  39
ATOM     39  C   UNL A   1      34.520  33.781  29.143  1.00  0.00     0.060 A 
ATOM     40  C   UNL A   1      35.838  34.187  28.905  1.00  0.00     0.016 A 
ATOM     41  C   UNL A   1      34.255  32.730  30.022  1.00  0.00     0.016 A 
ATOM     42  C   UNL A   1      36.899  33.525  29.527  1.00  0.00     0.010 A 
ATOM     43  C   UNL A   1      35.317  32.083  30.661  1.00  0.00     0.010 A 
ATOM     44  C   UNL A   1      36.647  32.459  30.401  1.00  0.00    -0.014 A 
BRANCH  44  45
ATOM     45  C   UNL A   1      37.772  31.672  30.973  1.00  0.00     0.031 A 
ATOM     46  C   UNL A   1      38.234  31.957  32.377  1.00  0.00     0.074 A 
ATOM     47  C   UNL A   1      38.379  30.713  30.248  1.00  0.00     0.049 A 
ATOM     48  N   UNL A   1      39.242  31.451  33.039  1.00  0.00    -0.248 NA
ATOM     49  C   UNL A   1      37.454  32.951  33.129  1.00  0.00     0.031 C 
ATOM     50  C   UNL A   1      38.007  30.315  28.891  1.00  0.00     0.029 A 
ATOM     51  N   UNL A   1      39.448  29.906  30.552  1.00  0.00    -0.354 N 
ATOM     52  C   UNL A   1      39.228  32.071  34.284  1.00  0.00     0.074 A 
ATOM     53  C   UNL A   1      38.130  33.016  34.267  1.00  0.00     0.031 C 
ATOM     54  C   UNL A   1      38.838  29.344  28.477  1.00  0.00     0.029 A 
ATOM     55  C   UNL A   1      39.828  29.081  29.519  1.00  0.00     0.049 A 
ATOM     56  H   UNL A   1      39.899  29.916  31.427  1.00  0.00     0.167 HD
ATOM     57  C   UNL A   1      40.047  31.866  35.345  1.00  0.00     0.034 A 
ATOM     58  C   UNL A   1      40.871  28.232  29.414  1.00  0.00     0.034 A 
ATOM     59  C   UNL A   1      41.146  30.928  35.350  1.00  0.00     0.049 A 
ATOM     60  C   UNL A   1      41.817  28.078  30.580  1.00  0.00     0.074 A 
ATOM     61  C   UNL A   1      42.024  30.633  36.379  1.00  0.00     0.029 A 
ATOM     62  N   UNL A   1      41.527  30.140  34.272  1.00  0.00    -0.354 N 
ATOM     63  N   UNL A   1      41.791  28.669  31.753  1.00  0.00    -0.248 NA
ATOM     64  C   UNL A   1      42.928  27.134  30.407  1.00  0.00     0.031 C 
ATOM     65  C   UNL A   1      42.974  29.721  35.903  1.00  0.00     0.029 A 
ATOM     66  C   UNL A   1      42.645  29.386  34.601  1.00  0.00     0.049 A 
ATOM     67  H   UNL A   1      41.071  30.120  33.400  1.00  0.00     0.167 HD
ATOM     68  C   UNL A   1      42.870  28.148  32.463  1.00  0.00     0.074 A 
ATOM     69  C   UNL A   1      43.509  27.180  31.596  1.00  0.00     0.031 C 
ATOM     70  C   UNL A   1      43.295  28.441  33.720  1.00  0.00     0.034 A 
BRANCH  57  71
ATOM     71  C   UNL A   1      39.813  32.715  36.572  1.00  0.00     0.023 A 
ATOM     72  C   UNL A   1      38.965  32.295  37.614  1.00  0.00     0.031 A 
ATOM     73  C   UNL A   1      40.424  33.976  36.690  1.00  0.00     0.131 A 
ATOM     74  C   UNL A   1      38.700  33.155  38.691  1.00  0.00     0.055 A 
ATOM     75  C   UNL A   1      40.216  34.796  37.800  1.00  0.00     0.041 A 
ATOM     76  F   UNL A   1      41.226  34.440  35.718  1.00  0.00    -0.206 F 
ATOM     77  C   UNL A   1      39.338  34.392  38.802  1.00  0.00     0.022 A 
BRANCH  74  78
ATOM     78  S   UNL A   1      37.411  32.688  39.879  1.00  0.00     0.124 S 
ATOM     79  O   UNL A   1      36.228  32.621  39.023  1.00  0.00    -0.237 OA
ATOM     80  O   UNL A   1      37.900  31.413  40.391  1.00  0.00    -0.237 OA
ATOM     81  O   UNL A   1      37.415  33.789  40.839  1.00  0.00    -0.744 OA
ENDBRANCH  74  78
ENDBRANCH  57  71
BRANCH  58  82
ATOM     82  C   UNL A   1      41.117  27.490  28.143  1.00  0.00     0.023 A 
ATOM     83  C   UNL A   1      40.830  26.120  28.034  1.00  0.00     0.031 A 
ATOM     84  C   UNL A   1      41.706  28.132  27.040  1.00  0.00     0.131 A 
ATOM     85  C   UNL A   1      41.177  25.424  26.866  1.00  0.00     0.055 A 
ATOM     86  C   UNL A   1      41.999  27.448  25.859  1.00  0.00     0.041 A 
ATOM     87  F   UNL A   1      42.005  29.440  27.094  1.00  0.00    -0.206 F 
ATOM     88  C   UNL A   1      41.748  26.082  25.773  1.00  0.00     0.022 A 
BRANCH  85  89
ATOM     89  S   UNL A   1      40.953  23.625  26.826  1.00  0.00     0.124 S 
ATOM     90  O   UNL A   1      41.251  23.256  28.205  1.00  0.00    -0.237 OA
ATOM     91  O   UNL A   1      39.558  23.501  26.417  1.00  0.00    -0.237 OA
ATOM     92  O   UNL A   1      41.931  23.181  25.835  1.00  0.00    -0.744 OA
ENDBRANCH  85  89
ENDBRANCH  58  82
BRANCH  70  93
ATOM     93  C   UNL A   1      44.491  27.673  34.233  1.00  0.00     0.023 A 
ATOM     94  C   UNL A   1      44.353  26.421  34.862  1.00  0.00     0.031 A 
ATOM     95  C   UNL A   1      45.782  28.220  34.136  1.00  0.00     0.131 A 
ATOM     96  C   UNL A   1      45.472  25.795  35.432  1.00  0.00     0.055 A 
ATOM     97  C   UNL A   1      46.902  27.561  34.647  1.00  0.00     0.041 A 
ATOM     98  F   UNL A   1      45.979  29.412  33.549  1.00  0.00    -0.206 F 
ATOM     99  C   UNL A   1      46.749  26.350  35.316  1.00  0.00     0.022 A 
BRANCH  96 100
ATOM    100  S   UNL A   1      45.220  24.304  36.437  1.00  0.00     0.124 S 
ATOM    101  O   UNL A   1      46.586  23.819  36.609  1.00  0.00    -0.237 OA
ATOM    102  O   UNL A   1      44.578  24.840  37.632  1.00  0.00    -0.237 OA
ATOM    103  O   UNL A   1      44.366  23.466  35.598  1.00  0.00    -0.744 OA
ENDBRANCH  96 100
ENDBRANCH  70  93
ENDBRANCH  44  45
ENDBRANCH  37  39
ENDBRANCH  36  37
ENDBRANCH  35  36
ENDBRANCH  34  35
ENDBRANCH  33  34
ENDBRANCH  32  33
ENDBRANCH  31  32
ENDBRANCH   1  31
TORSDOF 26
ENDMDL
MODEL 2
REMARK VINA RESULT:     -10.2      1.926      7.427
REMARK SMILES O=C(COc1ccc(Br)cc1)NC(=S)Nc1ccc(Cl)cc1C(=O)OCCOCCOCCOC(=O)c1ccc(-c2c3nc(c(-c4cc(S(=O)(=O)[O-])ccc4F)c4ccc([nH]4)c(-c4cc(S(=O)(=O)[O-])ccc4F)c4nc(c(-c5cc(S(=O)(=O)[O-])ccc5F)c5ccc2[nH]5)C=C4)C=C3)cc1
REMARK SMILES IDX 28 1 27 2 26 3 25 4 23 5 24 6 22 7 16 8 17 9 18 10 21 11
REMARK SMILES IDX 19 12 20 13 15 14 13 16 14 17 12 18 1 19 2 20 3 22 4 23 5 24
REMARK SMILES IDX 6 25 11 26 7 27 10 28 8 29 9 30 29 31 30 32 31 33 32 34
REMARK SMILES IDX 33 35 34 36 35 37 36 38 37 39 38 40 99 41 39 42 98 43 40 44
REMARK SMILES IDX 41 45 42 46 92 47 43 48 97 49 91 50 93 51 44 52 96 53 90 54
REMARK SMILES IDX 89 55 45 57 77 58 57 59 76 60 58 61 61 62 75 63 94 64 59 65
REMARK SMILES IDX 60 66 74 68 95 69 62 70 46 71 47 72 55 73 48 74 54 75 56 76
REMARK SMILES IDX 53 77 49 78 50 79 51 80 52 81 78 82 79 83 87 84 80 85 86 86
REMARK SMILES IDX 88 87 85 88 81 89 82 90 83 91 84 92 63 93 64 94 72 95 65 96
REMARK SMILES IDX 71 97 73 98 70 99 66 100 67 101 68 102 69 103
REMARK H PARENT 15 15 12 21 93 56 61 67
REMARK Flexibility Score: inf
ROOT
ATOM      1  O   UNL A   1      32.907  27.479  25.751  1.00  0.00    -0.376 OA
ENDROOT
BRANCH   1   2
ATOM      2  C   UNL A   1      33.680  26.938  24.695  1.00  0.00     0.202 C 
BRANCH   2   3
ATOM      3  C   UNL A   1      34.206  25.508  24.845  1.00  0.00     0.261 C 
BRANCH   3   4
ATOM      4  O   UNL A   1      34.801  24.962  23.653  1.00  0.00    -0.460 OA
BRANCH   4   5
ATOM      5  C   UNL A   1      34.148  23.889  23.139  1.00  0.00     0.340 C 
ATOM      6  O   UNL A   1      33.481  23.891  22.114  1.00  0.00    -0.246 OA
BRANCH   5   7
ATOM      7  C   UNL A   1      34.360  22.638  23.915  1.00  0.00     0.085 A 
ATOM      8  C   UNL A   1      33.359  21.814  24.462  1.00  0.00     0.055 A 
ATOM      9  C   UNL A   1      33.724  20.535  24.917  1.00  0.00     0.028 A 
ATOM     10  C   UNL A   1      35.064  20.176  25.057  1.00  0.00     0.023 A 
ATOM     11  C   UNL A   1      35.710  22.280  24.087  1.00  0.00     0.038 A 
ATOM     12  C   UNL A   1      36.053  21.079  24.697  1.00  0.00     0.042 A 
ATOM     13  Cl  UNL A   1      37.701  20.703  24.991  1.00  0.00    -0.084 Cl
BRANCH   8  14
ATOM     14  N   UNL A   1      32.018  22.245  24.585  1.00  0.00    -0.332 N 
ATOM     15  H   UNL A   1      31.376  21.794  23.992  1.00  0.00     0.169 HD
BRANCH  14  16
ATOM     16  C   UNL A   1      31.485  23.193  25.404  1.00  0.00     0.177 C 
ATOM     17  S   UNL A   1      31.303  22.856  27.033  1.00  0.00    -0.040 S 
BRANCH  16  18
ATOM     18  N   UNL A   1      31.033  24.404  24.945  1.00  0.00    -0.300 N 
ATOM     19  O   UNL A   1      30.097  23.991  22.849  1.00  0.00    -0.271 OA
ATOM     20  C   UNL A   1      30.490  24.774  23.709  1.00  0.00     0.264 C 
ATOM     21  H   UNL A   1      31.102  25.138  25.597  1.00  0.00     0.172 HD
BRANCH  20  22
ATOM     22  C   UNL A   1      30.318  26.290  23.556  1.00  0.00     0.329 C 
BRANCH  22  23
ATOM     23  O   UNL A   1      28.960  26.713  23.682  1.00  0.00    -0.484 OA
BRANCH  23  24
ATOM     24  C   UNL A   1      28.863  28.068  23.492  1.00  0.00     0.120 A 
ATOM     25  C   UNL A   1      29.954  28.885  23.782  1.00  0.00     0.047 A 
ATOM     26  C   UNL A   1      27.692  28.609  22.961  1.00  0.00     0.047 A 
ATOM     27  C   UNL A   1      29.852  30.262  23.598  1.00  0.00     0.019 A 
ATOM     28  C   UNL A   1      27.592  29.991  22.779  1.00  0.00     0.019 A 
ATOM     29  C   UNL A   1      28.668  30.813  23.111  1.00  0.00     0.018 A 
ATOM     30  Br  UNL A   1      28.528  32.686  22.900  1.00  0.00    -0.051 Br
ENDBRANCH  23  24
ENDBRANCH  22  23
ENDBRANCH  20  22
ENDBRANCH  16  18
ENDBRANCH  14  16
ENDBRANCH   8  14
ENDBRANCH   5   7
ENDBRANCH   4   5
ENDBRANCH   3   4
ENDBRANCH   2   3
ENDBRANCH   1   2
BRANCH   1  31
ATOM     31  C   UNL A   1      33.490  28.392  26.673  1.00  0.00     0.188 C 
BRANCH  31  32
ATOM     32  C   UNL A   1      33.553  29.907  26.373  1.00  0.00     0.188 C 
BRANCH  32  33
ATOM     33  O   UNL A   1      32.849  30.764  27.265  1.00  0.00    -0.376 OA
BRANCH  33  34
ATOM     34  C   UNL A   1      31.800  31.530  26.675  1.00  0.00     0.202 C 
BRANCH  34  35
ATOM     35  C   UNL A   1      31.878  33.022  26.995  1.00  0.00     0.261 C 
BRANCH  35  36
ATOM     36  O   UNL A   1      33.201  33.381  27.430  1.00  0.00    -0.460 OA
BRANCH  36  37
ATOM     37  C   UNL A   1      33.304  34.237  28.463  1.00  0.00     0.338 C 
ATOM     38  O   UNL A   1      32.576  35.186  28.704  1.00  0.00    -0.246 OA
BRANCH  37  39
ATOM     39  C   UNL A   1      34.461  33.822  29.278  1.00  0.00     0.060 A 
ATOM     40  C   UNL A   1      35.753  34.248  28.946  1.00  0.00     0.016 A 
ATOM     41  C   UNL A   1      34.256  32.975  30.366  1.00  0.00     0.016 A 
ATOM     42  C   UNL A   1      36.849  33.805  29.690  1.00  0.00     0.010 A 
ATOM     43  C   UNL A   1      35.353  32.550  31.124  1.00  0.00     0.010 A 
ATOM     44  C   UNL A   1      36.659  32.942  30.778  1.00  0.00    -0.014 A 
BRANCH  44  45
ATOM     45  C   UNL A   1      37.826  32.370  31.499  1.00  0.00     0.031 A 
ATOM     46  C   UNL A   1      38.618  31.260  30.859  1.00  0.00     0.074 A 
ATOM     47  C   UNL A   1      38.179  32.832  32.713  1.00  0.00     0.049 A 
ATOM     48  N   UNL A   1      39.614  30.565  31.343  1.00  0.00    -0.248 NA
ATOM     49  C   UNL A   1      38.224  30.884  29.494  1.00  0.00     0.031 C 
ATOM     50  C   UNL A   1      37.519  33.925  33.428  1.00  0.00     0.029 A 
ATOM     51  N   UNL A   1      39.178  32.430  33.567  1.00  0.00    -0.354 N 
ATOM     52  C   UNL A   1      39.963  29.659  30.346  1.00  0.00     0.074 A 
ATOM     53  C   UNL A   1      39.045  29.873  29.247  1.00  0.00     0.031 C 
ATOM     54  C   UNL A   1      38.127  34.101  34.613  1.00  0.00     0.029 A 
ATOM     55  C   UNL A   1      39.188  33.109  34.763  1.00  0.00     0.049 A 
ATOM     56  H   UNL A   1      39.825  31.723  33.343  1.00  0.00     0.167 HD
ATOM     57  C   UNL A   1      40.961  28.740  30.344  1.00  0.00     0.034 A 
ATOM     58  C   UNL A   1      39.946  32.931  35.865  1.00  0.00     0.034 A 
ATOM     59  C   UNL A   1      41.867  28.527  31.449  1.00  0.00     0.049 A 
ATOM     60  C   UNL A   1      40.999  31.850  35.869  1.00  0.00     0.074 A 
ATOM     61  C   UNL A   1      42.922  27.635  31.540  1.00  0.00     0.029 A 
ATOM     62  N   UNL A   1      41.822  29.204  32.661  1.00  0.00    -0.354 N 
ATOM     63  N   UNL A   1      41.320  31.001  34.919  1.00  0.00    -0.248 NA
ATOM     64  C   UNL A   1      41.796  31.711  37.094  1.00  0.00     0.031 C 
ATOM     65  C   UNL A   1      43.468  27.724  32.826  1.00  0.00     0.029 A 
ATOM     66  C   UNL A   1      42.806  28.726  33.515  1.00  0.00     0.049 A 
ATOM     67  H   UNL A   1      41.182  29.919  32.883  1.00  0.00     0.167 HD
ATOM     68  C   UNL A   1      42.373  30.244  35.428  1.00  0.00     0.074 A 
ATOM     69  C   UNL A   1      42.647  30.754  36.756  1.00  0.00     0.031 C 
ATOM     70  C   UNL A   1      43.056  29.221  34.850  1.00  0.00     0.034 A 
BRANCH  57  71
ATOM     71  C   UNL A   1      41.088  27.861  29.123  1.00  0.00     0.023 A 
ATOM     72  C   UNL A   1      42.103  28.059  28.169  1.00  0.00     0.031 A 
ATOM     73  C   UNL A   1      40.162  26.828  28.894  1.00  0.00     0.131 A 
ATOM     74  C   UNL A   1      42.127  27.281  27.000  1.00  0.00     0.055 A 
ATOM     75  C   UNL A   1      40.236  26.008  27.767  1.00  0.00     0.041 A 
ATOM     76  F   UNL A   1      39.159  26.605  29.759  1.00  0.00    -0.206 F 
ATOM     77  C   UNL A   1      41.214  26.242  26.805  1.00  0.00     0.022 A 
BRANCH  74  78
ATOM     78  S   UNL A   1      43.287  27.731  25.680  1.00  0.00     0.124 S 
ATOM     79  O   UNL A   1      44.148  26.550  25.627  1.00  0.00    -0.237 OA
ATOM     80  O   UNL A   1      42.404  27.928  24.537  1.00  0.00    -0.237 OA
ATOM     81  O   UNL A   1      43.932  28.940  26.187  1.00  0.00    -0.744 OA
ENDBRANCH  74  78
ENDBRANCH  57  71
BRANCH  58  82
ATOM     82  C   UNL A   1      39.715  33.760  37.083  1.00  0.00     0.023 A 
ATOM     83  C   UNL A   1      39.059  33.234  38.207  1.00  0.00     0.031 A 
ATOM     84  C   UNL A   1      40.092  35.115  37.111  1.00  0.00     0.131 A 
ATOM     85  C   UNL A   1      38.756  34.069  39.294  1.00  0.00     0.055 A 
ATOM     86  C   UNL A   1      39.837  35.928  38.216  1.00  0.00     0.041 A 
ATOM     87  F   UNL A   1      40.718  35.668  36.060  1.00  0.00    -0.206 F 
ATOM     88  C   UNL A   1      39.152  35.409  39.311  1.00  0.00     0.022 A 
BRANCH  85  89
ATOM     89  S   UNL A   1      37.755  33.401  40.652  1.00  0.00     0.124 S 
ATOM     90  O   UNL A   1      37.797  34.493  41.617  1.00  0.00    -0.237 OA
ATOM     91  O   UNL A   1      36.471  33.173  39.998  1.00  0.00    -0.237 OA
ATOM     92  O   UNL A   1      38.475  32.191  41.043  1.00  0.00    -0.744 OA
ENDBRANCH  85  89
ENDBRANCH  58  82
BRANCH  70  93
ATOM     93  C   UNL A   1      44.186  28.615  35.651  1.00  0.00     0.023 A 
ATOM     94  C   UNL A   1      45.505  29.096  35.551  1.00  0.00     0.031 A 
ATOM     95  C   UNL A   1      43.950  27.511  36.489  1.00  0.00     0.131 A 
ATOM     96  C   UNL A   1      46.545  28.431  36.217  1.00  0.00     0.055 A 
ATOM     97  C   UNL A   1      44.981  26.895  37.202  1.00  0.00     0.041 A 
ATOM     98  F   UNL A   1      42.714  27.005  36.625  1.00  0.00    -0.206 F 
ATOM     99  C   UNL A   1      46.290  27.342  37.054  1.00  0.00     0.022 A 
BRANCH  96 100
ATOM    100  S   UNL A   1      48.258  28.932  35.878  1.00  0.00     0.124 S 
ATOM    101  O   UNL A   1      48.242  29.112  34.431  1.00  0.00    -0.237 OA
ATOM    102  O   UNL A   1      48.389  30.149  36.672  1.00  0.00    -0.237 OA
ATOM    103  O   UNL A   1      49.046  27.796  36.353  1.00  0.00    -0.744 OA
ENDBRANCH  96 100
ENDBRANCH  70  93
ENDBRANCH  44  45
ENDBRANCH  37  39
ENDBRANCH  36  37
ENDBRANCH  35  36
ENDBRANCH  34  35
ENDBRANCH  33  34
ENDBRANCH  32  33
ENDBRANCH  31  32
ENDBRANCH   1  31
TORSDOF 26
ENDMDL
MODEL 3
REMARK VINA RESULT:      -9.7      0.924      7.170
REMARK SMILES O=C(COc1ccc(Br)cc1)NC(=S)Nc1ccc(Cl)cc1C(=O)OCCOCCOCCOC(=O)c1ccc(-c2c3nc(c(-c4cc(S(=O)(=O)[O-])ccc4F)c4ccc([nH]4)c(-c4cc(S(=O)(=O)[O-])ccc4F)c4nc(c(-c5cc(S(=O)(=O)[O-])ccc5F)c5ccc2[nH]5)C=C4)C=C3)cc1
REMARK SMILES IDX 28 1 27 2 26 3 25 4 23 5 24 6 22 7 16 8 17 9 18 10 21 11
REMARK SMILES IDX 19 12 20 13 15 14 13 16 14 17 12 18 1 19 2 20 3 22 4 23 5 24
REMARK SMILES IDX 6 25 11 26 7 27 10 28 8 29 9 30 29 31 30 32 31 33 32 34
REMARK SMILES IDX 33 35 34 36 35 37 36 38 37 39 38 40 99 41 39 42 98 43 40 44
REMARK SMILES IDX 41 45 42 46 92 47 43 48 97 49 91 50 93 51 44 52 96 53 90 54
REMARK SMILES IDX 89 55 45 57 77 58 57 59 76 60 58 61 61 62 75 63 94 64 59 65
REMARK SMILES IDX 60 66 74 68 95 69 62 70 46 71 47 72 55 73 48 74 54 75 56 76
REMARK SMILES IDX 53 77 49 78 50 79 51 80 52 81 78 82 79 83 87 84 80 85 86 86
REMARK SMILES IDX 88 87 85 88 81 89 82 90 83 91 84 92 63 93 64 94 72 95 65 96
REMARK SMILES IDX 71 97 73 98 70 99 66 100 67 101 68 102 69 103
REMARK H PARENT 15 15 12 21 93 56 61 67
REMARK Flexibility Score: inf
ROOT
ATOM      1  O   UNL A   1      32.836  27.070  26.272  1.00  0.00    -0.376 OA
ENDROOT
BRANCH   1   2
ATOM      2  C   UNL A   1      32.951  26.975  24.864  1.00  0.00     0.202 C 
BRANCH   2   3
ATOM      3  C   UNL A   1      33.696  25.770  24.282  1.00  0.00     0.261 C 
BRANCH   3   4
ATOM      4  O   UNL A   1      33.838  25.791  22.849  1.00  0.00    -0.460 OA
BRANCH   4   5
ATOM      5  C   UNL A   1      33.720  24.577  22.254  1.00  0.00     0.340 C 
ATOM      6  O   UNL A   1      33.413  24.388  21.086  1.00  0.00    -0.246 OA
BRANCH   5   7
ATOM      7  C   UNL A   1      34.067  23.442  23.151  1.00  0.00     0.085 A 
ATOM      8  C   UNL A   1      33.169  22.514  23.711  1.00  0.00     0.055 A 
ATOM      9  C   UNL A   1      33.693  21.351  24.300  1.00  0.00     0.028 A 
ATOM     10  C   UNL A   1      35.059  21.223  24.550  1.00  0.00     0.023 A 
ATOM     11  C   UNL A   1      35.441  23.319  23.433  1.00  0.00     0.038 A 
ATOM     12  C   UNL A   1      35.920  22.241  24.166  1.00  0.00     0.042 A 
ATOM     13  Cl  UNL A   1      37.582  22.157  24.588  1.00  0.00    -0.084 Cl
BRANCH   8  14
ATOM     14  N   UNL A   1      31.772  22.735  23.717  1.00  0.00    -0.332 N 
ATOM     15  H   UNL A   1      31.304  22.482  22.889  1.00  0.00     0.169 HD
BRANCH  14  16
ATOM     16  C   UNL A   1      30.980  23.245  24.699  1.00  0.00     0.177 C 
ATOM     17  S   UNL A   1      30.685  22.329  26.068  1.00  0.00    -0.040 S 
BRANCH  16  18
ATOM     18  N   UNL A   1      30.359  24.464  24.597  1.00  0.00    -0.300 N 
ATOM     19  O   UNL A   1      30.228  25.304  26.770  1.00  0.00    -0.271 OA
ATOM     20  C   UNL A   1      29.919  25.356  25.582  1.00  0.00     0.264 C 
ATOM     21  H   UNL A   1      30.194  24.762  23.674  1.00  0.00     0.172 HD
BRANCH  20  22
ATOM     22  C   UNL A   1      29.080  26.508  25.019  1.00  0.00     0.329 C 
BRANCH  22  23
ATOM     23  O   UNL A   1      29.017  26.508  23.592  1.00  0.00    -0.484 OA
BRANCH  23  24
ATOM     24  C   UNL A   1      28.897  27.789  23.119  1.00  0.00     0.120 A 
ATOM     25  C   UNL A   1      30.028  28.465  22.665  1.00  0.00     0.047 A 
ATOM     26  C   UNL A   1      27.638  28.385  23.048  1.00  0.00     0.047 A 
ATOM     27  C   UNL A   1      29.908  29.771  22.194  1.00  0.00     0.019 A 
ATOM     28  C   UNL A   1      27.520  29.695  22.576  1.00  0.00     0.019 A 
ATOM     29  C   UNL A   1      28.659  30.388  22.163  1.00  0.00     0.018 A 
ATOM     30  Br  UNL A   1      28.512  32.171  21.556  1.00  0.00    -0.051 Br
ENDBRANCH  23  24
ENDBRANCH  22  23
ENDBRANCH  20  22
ENDBRANCH  16  18
ENDBRANCH  14  16
ENDBRANCH   8  14
ENDBRANCH   5   7
ENDBRANCH   4   5
ENDBRANCH   3   4
ENDBRANCH   2   3
ENDBRANCH   1   2
BRANCH   1  31
ATOM     31  C   UNL A   1      33.423  28.164  26.968  1.00  0.00     0.188 C 
BRANCH  31  32
ATOM     32  C   UNL A   1      33.366  29.600  26.400  1.00  0.00     0.188 C 
BRANCH  32  33
ATOM     33  O   UNL A   1      32.770  30.591  27.229  1.00  0.00    -0.376 OA
BRANCH  33  34
ATOM     34  C   UNL A   1      31.720  31.344  26.625  1.00  0.00     0.202 C 
BRANCH  34  35
ATOM     35  C   UNL A   1      31.781  32.838  26.935  1.00  0.00     0.261 C 
BRANCH  35  36
ATOM     36  O   UNL A   1      33.117  33.230  27.292  1.00  0.00    -0.460 OA
BRANCH  36  37
ATOM     37  C   UNL A   1      33.260  34.079  28.327  1.00  0.00     0.338 C 
ATOM     38  O   UNL A   1      32.547  35.032  28.597  1.00  0.00    -0.246 OA
BRANCH  37  39
ATOM     39  C   UNL A   1      34.439  33.651  29.101  1.00  0.00     0.060 A 
ATOM     40  C   UNL A   1      35.698  34.206  28.843  1.00  0.00     0.016 A 
ATOM     41  C   UNL A   1      34.291  32.663  30.074  1.00  0.00     0.016 A 
ATOM     42  C   UNL A   1      36.820  33.755  29.543  1.00  0.00     0.010 A 
ATOM     43  C   UNL A   1      35.412  32.228  30.790  1.00  0.00     0.010 A 
ATOM     44  C   UNL A   1      36.687  32.753  30.513  1.00  0.00    -0.014 A 
BRANCH  44  45
ATOM     45  C   UNL A   1      37.889  32.181  31.176  1.00  0.00     0.031 A 
ATOM     46  C   UNL A   1      38.689  31.121  30.467  1.00  0.00     0.074 A 
ATOM     47  C   UNL A   1      38.266  32.600  32.399  1.00  0.00     0.049 A 
ATOM     48  N   UNL A   1      39.716  30.431  30.892  1.00  0.00    -0.248 NA
ATOM     49  C   UNL A   1      38.264  30.792  29.098  1.00  0.00     0.031 C 
ATOM     50  C   UNL A   1      37.600  33.644  33.178  1.00  0.00     0.029 A 
ATOM     51  N   UNL A   1      39.299  32.189  33.206  1.00  0.00    -0.354 N 
ATOM     52  C   UNL A   1      40.058  29.578  29.848  1.00  0.00     0.074 A 
ATOM     53  C   UNL A   1      39.103  29.815  28.785  1.00  0.00     0.031 C 
ATOM     54  C   UNL A   1      38.237  33.786  34.353  1.00  0.00     0.029 A 
ATOM     55  C   UNL A   1      39.327  32.816  34.429  1.00  0.00     0.049 A 
ATOM     56  H   UNL A   1      39.957  31.509  32.933  1.00  0.00     0.167 HD
ATOM     57  C   UNL A   1      41.079  28.687  29.778  1.00  0.00     0.034 A 
ATOM     58  C   UNL A   1      40.121  32.612  35.500  1.00  0.00     0.034 A 
ATOM     59  C   UNL A   1      42.021  28.451  30.846  1.00  0.00     0.049 A 
ATOM     60  C   UNL A   1      41.201  31.559  35.428  1.00  0.00     0.074 A 
ATOM     61  C   UNL A   1      43.101  27.583  30.869  1.00  0.00     0.029 A 
ATOM     62  N   UNL A   1      41.994  29.074  32.087  1.00  0.00    -0.354 N 
ATOM     63  N   UNL A   1      41.515  30.760  34.434  1.00  0.00    -0.248 NA
ATOM     64  C   UNL A   1      42.037  31.389  36.624  1.00  0.00     0.031 C 
ATOM     65  C   UNL A   1      43.682  27.632  32.142  1.00  0.00     0.029 A 
ATOM     66  C   UNL A   1      43.015  28.587  32.892  1.00  0.00     0.049 A 
ATOM     67  H   UNL A   1      41.344  29.762  32.358  1.00  0.00     0.167 HD
ATOM     68  C   UNL A   1      42.601  30.010  34.880  1.00  0.00     0.074 A 
ATOM     69  C   UNL A   1      42.901  30.470  36.221  1.00  0.00     0.031 C 
ATOM     70  C   UNL A   1      43.291  29.030  34.239  1.00  0.00     0.034 A 
BRANCH  57  71
ATOM     71  C   UNL A   1      41.191  27.864  28.517  1.00  0.00     0.023 A 
ATOM     72  C   UNL A   1      40.842  26.502  28.487  1.00  0.00     0.031 A 
ATOM     73  C   UNL A   1      41.681  28.444  27.333  1.00  0.00     0.131 A 
ATOM     74  C   UNL A   1      41.052  25.751  27.319  1.00  0.00     0.055 A 
ATOM     75  C   UNL A   1      41.817  27.710  26.154  1.00  0.00     0.041 A 
ATOM     76  F   UNL A   1      42.050  29.735  27.306  1.00  0.00    -0.206 F 
ATOM     77  C   UNL A   1      41.514  26.352  26.146  1.00  0.00     0.022 A 
BRANCH  74  78
ATOM     78  S   UNL A   1      40.833  23.951  27.392  1.00  0.00     0.124 S 
ATOM     79  O   UNL A   1      39.396  23.835  27.632  1.00  0.00    -0.237 OA
ATOM     80  O   UNL A   1      41.296  23.523  26.078  1.00  0.00    -0.237 OA
ATOM     81  O   UNL A   1      41.678  23.548  28.514  1.00  0.00    -0.744 OA
ENDBRANCH  74  78
ENDBRANCH  57  71
BRANCH  58  82
ATOM     82  C   UNL A   1      39.906  33.382  36.760  1.00  0.00     0.023 A 
ATOM     83  C   UNL A   1      39.165  32.844  37.823  1.00  0.00     0.031 A 
ATOM     84  C   UNL A   1      40.386  34.698  36.887  1.00  0.00     0.131 A 
ATOM     85  C   UNL A   1      38.883  33.634  38.949  1.00  0.00     0.055 A 
ATOM     86  C   UNL A   1      40.149  35.461  38.031  1.00  0.00     0.041 A 
ATOM     87  F   UNL A   1      41.096  35.261  35.896  1.00  0.00    -0.206 F 
ATOM     88  C   UNL A   1      39.381  34.934  39.065  1.00  0.00     0.022 A 
BRANCH  85  89
ATOM     89  S   UNL A   1      37.778  32.968  40.224  1.00  0.00     0.124 S 
ATOM     90  O   UNL A   1      38.564  31.859  40.750  1.00  0.00    -0.237 OA
ATOM     91  O   UNL A   1      37.614  34.115  41.112  1.00  0.00    -0.237 OA
ATOM     92  O   UNL A   1      36.582  32.588  39.475  1.00  0.00    -0.744 OA
ENDBRANCH  85  89
ENDBRANCH  58  82
BRANCH  70  93
ATOM     93  C   UNL A   1      44.459  28.421  34.981  1.00  0.00     0.023 A 
ATOM     94  C   UNL A   1      44.321  27.246  35.743  1.00  0.00     0.031 A 
ATOM     95  C   UNL A   1      45.716  29.051  34.966  1.00  0.00     0.131 A 
ATOM     96  C   UNL A   1      45.397  26.780  36.513  1.00  0.00     0.055 A 
ATOM     97  C   UNL A   1      46.802  28.545  35.683  1.00  0.00     0.041 A 
ATOM     98  F   UNL A   1      45.910  30.176  34.260  1.00  0.00    -0.206 F 
ATOM     99  C   UNL A   1      46.642  27.414  36.477  1.00  0.00     0.022 A 
BRANCH  96 100
ATOM    100  S   UNL A   1      45.114  25.403  37.664  1.00  0.00     0.124 S 
ATOM    101  O   UNL A   1      43.689  25.148  37.488  1.00  0.00    -0.237 OA
ATOM    102  O   UNL A   1      46.015  24.378  37.148  1.00  0.00    -0.237 OA
ATOM    103  O   UNL A   1      45.489  25.960  38.962  1.00  0.00    -0.744 OA
ENDBRANCH  96 100
ENDBRANCH  70  93
ENDBRANCH  44  45
ENDBRANCH  37  39
ENDBRANCH  36  37
ENDBRANCH  35  36
ENDBRANCH  34  35
ENDBRANCH  33  34
ENDBRANCH  32  33
ENDBRANCH  31  32
ENDBRANCH   1  31
TORSDOF 26
ENDMDL
