MODEL 1
REMARK VINA RESULT:      -9.4      0.000      0.000
REMARK SMILES CCOc1cncc(N(CC(=O)OCCOCCOCCOC(=O)c2ccc(-c3c4nc(c(-c5cc(S(=O)(=O)[O-])ccc5F)c5ccc([nH]5)c(-c5cc(S(=O)(=O)[O-])ccc5F)c5nc(c(-c6cc(S(=O)(=O)[O-])ccc6F)c6ccc3[nH]6)C=C5)C=C4)cc2)C(C)(C)C)n1
REMARK SMILES IDX 17 1 16 2 15 3 14 4 13 5 11 6 12 7 10 8 9 9 8 10 4 11 5 12
REMARK SMILES IDX 92 13 6 14 7 15 3 16 2 17 1 18 88 19 89 20 90 21 91 22 18 23
REMARK SMILES IDX 19 24 20 25 21 26 22 27 23 28 24 29 25 30 26 31 87 32 27 33
REMARK SMILES IDX 86 34 28 35 29 36 30 37 80 38 31 39 85 40 79 41 81 42 32 43
REMARK SMILES IDX 84 44 78 45 77 46 33 48 65 49 45 50 64 51 46 52 49 53 63 54
REMARK SMILES IDX 82 55 47 56 48 57 62 59 83 60 50 61 34 62 35 63 43 64 36 65
REMARK SMILES IDX 42 66 44 67 41 68 37 69 38 70 39 71 40 72 66 73 67 74 75 75
REMARK SMILES IDX 68 76 74 77 76 78 73 79 69 80 70 81 71 82 72 83 51 84 52 85
REMARK SMILES IDX 60 86 53 87 59 88 61 89 58 90 54 91 55 92 56 93 57 94
REMARK H PARENT 81 47 49 58
REMARK Flexibility Score: inf
ROOT
ATOM      1  C   UNL A   1      31.353  28.650  22.889  1.00  0.00     0.188 C 
ENDROOT
BRANCH   1   2
ATOM      2  O   UNL A   1      30.926  27.373  22.404  1.00  0.00    -0.376 OA
BRANCH   2   3
ATOM      3  C   UNL A   1      31.766  26.264  22.712  1.00  0.00     0.202 C 
BRANCH   3   4
ATOM      4  C   UNL A   1      31.002  24.959  22.938  1.00  0.00     0.261 C 
BRANCH   4   5
ATOM      5  O   UNL A   1      31.638  23.844  22.284  1.00  0.00    -0.462 OA
BRANCH   5   6
ATOM      6  C   UNL A   1      32.977  24.001  22.101  1.00  0.00     0.325 C 
ATOM      7  O   UNL A   1      33.481  24.910  21.447  1.00  0.00    -0.250 OA
BRANCH   6   8
ATOM      8  C   UNL A   1      33.823  22.972  22.855  1.00  0.00     0.241 C 
BRANCH   8   9
ATOM      9  N   UNL A   1      34.540  23.473  24.055  1.00  0.00    -0.339 N 
BRANCH   9  10
ATOM     10  C   UNL A   1      33.835  24.280  24.962  1.00  0.00     0.152 A 
ATOM     11  C   UNL A   1      32.184  24.512  26.577  1.00  0.00     0.234 A 
ATOM     12  C   UNL A   1      32.429  25.862  26.702  1.00  0.00     0.179 A 
ATOM     13  N   UNL A   1      32.883  23.716  25.740  1.00  0.00    -0.193 NA
ATOM     14  N   UNL A   1      33.362  26.483  25.961  1.00  0.00    -0.255 NA
ATOM     15  C   UNL A   1      34.040  25.666  25.106  1.00  0.00     0.158 A 
BRANCH  11  16
ATOM     16  O   UNL A   1      31.245  23.917  27.379  1.00  0.00    -0.477 OA
BRANCH  16  17
ATOM     17  C   UNL A   1      30.501  22.941  26.641  1.00  0.00     0.228 C 
ATOM     18  C   UNL A   1      29.162  22.721  27.327  1.00  0.00     0.049 C 
ENDBRANCH  16  17
ENDBRANCH  11  16
ENDBRANCH   9  10
BRANCH   9  19
ATOM     19  C   UNL A   1      35.833  22.839  24.499  1.00  0.00     0.034 C 
ATOM     20  C   UNL A   1      36.521  23.690  25.595  1.00  0.00     0.034 C 
ATOM     21  C   UNL A   1      35.614  21.388  24.977  1.00  0.00     0.034 C 
ATOM     22  C   UNL A   1      36.846  22.734  23.347  1.00  0.00     0.034 C 
ENDBRANCH   9  19
ENDBRANCH   8   9
ENDBRANCH   6   8
ENDBRANCH   5   6
ENDBRANCH   4   5
ENDBRANCH   3   4
ENDBRANCH   2   3
ENDBRANCH   1   2
BRANCH   1  23
ATOM     23  C   UNL A   1      31.075  28.927  24.368  1.00  0.00     0.188 C 
BRANCH  23  24
ATOM     24  O   UNL A   1      31.374  30.296  24.651  1.00  0.00    -0.376 OA
BRANCH  24  25
ATOM     25  C   UNL A   1      31.183  30.614  26.024  1.00  0.00     0.202 C 
BRANCH  25  26
ATOM     26  C   UNL A   1      32.175  29.877  26.932  1.00  0.00     0.261 C 
BRANCH  26  27
ATOM     27  O   UNL A   1      33.558  30.235  26.734  1.00  0.00    -0.460 OA
BRANCH  27  28
ATOM     28  C   UNL A   1      34.029  31.233  27.504  1.00  0.00     0.338 C 
ATOM     29  O   UNL A   1      33.399  32.204  27.912  1.00  0.00    -0.246 OA
BRANCH  28  30
ATOM     30  C   UNL A   1      35.429  30.964  27.876  1.00  0.00     0.060 A 
ATOM     31  C   UNL A   1      35.801  29.655  28.184  1.00  0.00     0.016 A 
ATOM     32  C   UNL A   1      36.329  32.008  28.071  1.00  0.00     0.016 A 
ATOM     33  C   UNL A   1      37.035  29.381  28.772  1.00  0.00     0.010 A 
ATOM     34  C   UNL A   1      37.584  31.732  28.627  1.00  0.00     0.010 A 
ATOM     35  C   UNL A   1      37.932  30.424  29.024  1.00  0.00    -0.014 A 
BRANCH  35  36
ATOM     36  C   UNL A   1      39.168  30.212  29.824  1.00  0.00     0.031 A 
ATOM     37  C   UNL A   1      40.172  29.207  29.329  1.00  0.00     0.074 A 
ATOM     38  C   UNL A   1      39.401  30.875  30.972  1.00  0.00     0.049 A 
ATOM     39  N   UNL A   1      41.111  28.575  29.978  1.00  0.00    -0.248 NA
ATOM     40  C   UNL A   1      40.083  28.861  27.901  1.00  0.00     0.031 C 
ATOM     41  C   UNL A   1      38.588  31.969  31.503  1.00  0.00     0.029 A 
ATOM     42  N   UNL A   1      40.385  30.700  31.915  1.00  0.00    -0.354 N 
ATOM     43  C   UNL A   1      41.681  27.699  29.058  1.00  0.00     0.074 A 
ATOM     44  C   UNL A   1      40.988  27.899  27.802  1.00  0.00     0.031 C 
ATOM     45  C   UNL A   1      39.096  32.356  32.684  1.00  0.00     0.029 A 
ATOM     46  C   UNL A   1      40.203  31.473  33.041  1.00  0.00     0.049 A 
ATOM     47  H   UNL A   1      41.144  30.085  31.798  1.00  0.00     0.167 HD
ATOM     48  C   UNL A   1      42.673  26.796  29.260  1.00  0.00     0.034 A 
ATOM     49  C   UNL A   1      40.804  31.417  34.247  1.00  0.00     0.034 A 
ATOM     50  C   UNL A   1      43.359  26.646  30.519  1.00  0.00     0.049 A 
ATOM     51  C   UNL A   1      41.849  30.354  34.489  1.00  0.00     0.074 A 
ATOM     52  C   UNL A   1      44.347  25.743  30.869  1.00  0.00     0.029 A 
ATOM     53  N   UNL A   1      43.130  27.436  31.639  1.00  0.00    -0.354 N 
ATOM     54  N   UNL A   1      42.293  29.431  33.664  1.00  0.00    -0.248 NA
ATOM     55  C   UNL A   1      42.456  30.308  35.826  1.00  0.00     0.031 C 
ATOM     56  C   UNL A   1      44.683  25.958  32.212  1.00  0.00     0.029 A 
ATOM     57  C   UNL A   1      43.951  27.036  32.680  1.00  0.00     0.049 A 
ATOM     58  H   UNL A   1      42.480  28.174  31.686  1.00  0.00     0.167 HD
ATOM     59  C   UNL A   1      43.249  28.713  34.378  1.00  0.00     0.074 A 
ATOM     60  C   UNL A   1      43.320  29.310  35.696  1.00  0.00     0.031 C 
ATOM     61  C   UNL A   1      44.006  27.659  33.981  1.00  0.00     0.034 A 
BRANCH  48  62
ATOM     62  C   UNL A   1      42.995  25.855  28.126  1.00  0.00     0.023 A 
ATOM     63  C   UNL A   1      42.240  24.698  27.872  1.00  0.00     0.031 A 
ATOM     64  C   UNL A   1      44.121  26.096  27.316  1.00  0.00     0.131 A 
ATOM     65  C   UNL A   1      42.663  23.787  26.889  1.00  0.00     0.055 A 
ATOM     66  C   UNL A   1      44.491  25.228  26.287  1.00  0.00     0.041 A 
ATOM     67  F   UNL A   1      44.896  27.172  27.526  1.00  0.00    -0.206 F 
ATOM     68  C   UNL A   1      43.769  24.057  26.079  1.00  0.00     0.022 A 
BRANCH  65  69
ATOM     69  S   UNL A   1      41.836  22.177  26.783  1.00  0.00     0.124 S 
ATOM     70  O   UNL A   1      42.426  21.468  27.917  1.00  0.00    -0.237 OA
ATOM     71  O   UNL A   1      40.429  22.536  26.916  1.00  0.00    -0.237 OA
ATOM     72  O   UNL A   1      42.231  21.673  25.470  1.00  0.00    -0.744 OA
ENDBRANCH  65  69
ENDBRANCH  48  62
BRANCH  49  73
ATOM     73  C   UNL A   1      40.365  32.319  35.351  1.00  0.00     0.023 A 
ATOM     74  C   UNL A   1      39.296  31.975  36.192  1.00  0.00     0.031 A 
ATOM     75  C   UNL A   1      40.991  33.563  35.559  1.00  0.00     0.131 A 
ATOM     76  C   UNL A   1      38.868  32.872  37.184  1.00  0.00     0.055 A 
ATOM     77  C   UNL A   1      40.595  34.429  36.579  1.00  0.00     0.041 A 
ATOM     78  F   UNL A   1      42.013  33.948  34.778  1.00  0.00    -0.206 F 
ATOM     79  C   UNL A   1      39.520  34.090  37.393  1.00  0.00     0.022 A 
BRANCH  76  80
ATOM     80  S   UNL A   1      37.392  32.458  38.153  1.00  0.00     0.124 S 
ATOM     81  O   UNL A   1      37.714  33.048  39.449  1.00  0.00    -0.237 OA
ATOM     82  O   UNL A   1      36.336  33.117  37.392  1.00  0.00    -0.237 OA
ATOM     83  O   UNL A   1      37.362  30.998  38.122  1.00  0.00    -0.744 OA
ENDBRANCH  76  80
ENDBRANCH  49  73
BRANCH  61  84
ATOM     84  C   UNL A   1      45.024  27.139  34.960  1.00  0.00     0.023 A 
ATOM     85  C   UNL A   1      46.327  27.659  35.022  1.00  0.00     0.031 A 
ATOM     86  C   UNL A   1      44.666  26.119  35.860  1.00  0.00     0.131 A 
ATOM     87  C   UNL A   1      47.239  27.133  35.950  1.00  0.00     0.055 A 
ATOM     88  C   UNL A   1      45.565  25.630  36.807  1.00  0.00     0.041 A 
ATOM     89  F   UNL A   1      43.431  25.593  35.837  1.00  0.00    -0.206 F 
ATOM     90  C   UNL A   1      46.862  26.133  36.851  1.00  0.00     0.022 A 
BRANCH  87  91
ATOM     91  S   UNL A   1      48.946  27.748  35.944  1.00  0.00     0.124 S 
ATOM     92  O   UNL A   1      49.582  26.866  34.971  1.00  0.00    -0.237 OA
ATOM     93  O   UNL A   1      48.779  29.137  35.531  1.00  0.00    -0.237 OA
ATOM     94  O   UNL A   1      49.382  27.564  37.327  1.00  0.00    -0.744 OA
ENDBRANCH  87  91
ENDBRANCH  61  84
ENDBRANCH  35  36
ENDBRANCH  28  30
ENDBRANCH  27  28
ENDBRANCH  26  27
ENDBRANCH  25  26
ENDBRANCH  24  25
ENDBRANCH  23  24
ENDBRANCH   1  23
TORSDOF 25
ENDMDL
MODEL 2
REMARK VINA RESULT:      -9.0      2.100      3.102
REMARK SMILES CCOc1cncc(N(CC(=O)OCCOCCOCCOC(=O)c2ccc(-c3c4nc(c(-c5cc(S(=O)(=O)[O-])ccc5F)c5ccc([nH]5)c(-c5cc(S(=O)(=O)[O-])ccc5F)c5nc(c(-c6cc(S(=O)(=O)[O-])ccc6F)c6ccc3[nH]6)C=C5)C=C4)cc2)C(C)(C)C)n1
REMARK SMILES IDX 17 1 16 2 15 3 14 4 13 5 11 6 12 7 10 8 9 9 8 10 4 11 5 12
REMARK SMILES IDX 92 13 6 14 7 15 3 16 2 17 1 18 88 19 89 20 90 21 91 22 18 23
REMARK SMILES IDX 19 24 20 25 21 26 22 27 23 28 24 29 25 30 26 31 87 32 27 33
REMARK SMILES IDX 86 34 28 35 29 36 30 37 80 38 31 39 85 40 79 41 81 42 32 43
REMARK SMILES IDX 84 44 78 45 77 46 33 48 65 49 45 50 64 51 46 52 49 53 63 54
REMARK SMILES IDX 82 55 47 56 48 57 62 59 83 60 50 61 34 62 35 63 43 64 36 65
REMARK SMILES IDX 42 66 44 67 41 68 37 69 38 70 39 71 40 72 66 73 67 74 75 75
REMARK SMILES IDX 68 76 74 77 76 78 73 79 69 80 70 81 71 82 72 83 51 84 52 85
REMARK SMILES IDX 60 86 53 87 59 88 61 89 58 90 54 91 55 92 56 93 57 94
REMARK H PARENT 81 47 49 58
REMARK Flexibility Score: inf
ROOT
ATOM      1  C   UNL A   1      31.733  28.923  22.941  1.00  0.00     0.188 C 
ENDROOT
BRANCH   1   2
ATOM      2  O   UNL A   1      31.269  27.702  22.357  1.00  0.00    -0.376 OA
BRANCH   2   3
ATOM      3  C   UNL A   1      31.704  26.496  22.978  1.00  0.00     0.202 C 
BRANCH   3   4
ATOM      4  C   UNL A   1      30.636  25.402  23.010  1.00  0.00     0.261 C 
BRANCH   4   5
ATOM      5  O   UNL A   1      31.215  24.084  22.948  1.00  0.00    -0.462 OA
BRANCH   5   6
ATOM      6  C   UNL A   1      32.573  24.081  22.858  1.00  0.00     0.325 C 
ATOM      7  O   UNL A   1      33.194  24.236  21.810  1.00  0.00    -0.250 OA
BRANCH   6   8
ATOM      8  C   UNL A   1      33.274  23.936  24.211  1.00  0.00     0.241 C 
BRANCH   8   9
ATOM      9  N   UNL A   1      32.770  22.854  25.093  1.00  0.00    -0.339 N 
BRANCH   9  10
ATOM     10  C   UNL A   1      33.296  21.563  24.928  1.00  0.00     0.152 A 
ATOM     11  C   UNL A   1      35.121  20.128  24.915  1.00  0.00     0.234 A 
ATOM     12  C   UNL A   1      34.334  19.053  24.565  1.00  0.00     0.179 A 
ATOM     13  N   UNL A   1      34.622  21.366  25.118  1.00  0.00    -0.193 NA
ATOM     14  N   UNL A   1      33.011  19.181  24.363  1.00  0.00    -0.255 NA
ATOM     15  C   UNL A   1      32.531  20.443  24.551  1.00  0.00     0.158 A 
BRANCH  11  16
ATOM     16  O   UNL A   1      36.460  19.940  25.142  1.00  0.00    -0.477 OA
BRANCH  16  17
ATOM     17  C   UNL A   1      37.226  20.960  24.491  1.00  0.00     0.228 C 
ATOM     18  C   UNL A   1      37.633  22.003  25.521  1.00  0.00     0.049 C 
ENDBRANCH  16  17
ENDBRANCH  11  16
ENDBRANCH   9  10
BRANCH   9  19
ATOM     19  C   UNL A   1      32.028  23.179  26.363  1.00  0.00     0.034 C 
ATOM     20  C   UNL A   1      30.557  22.702  26.285  1.00  0.00     0.034 C 
ATOM     21  C   UNL A   1      32.739  22.588  27.599  1.00  0.00     0.034 C 
ATOM     22  C   UNL A   1      31.968  24.694  26.621  1.00  0.00     0.034 C 
ENDBRANCH   9  19
ENDBRANCH   8   9
ENDBRANCH   6   8
ENDBRANCH   5   6
ENDBRANCH   4   5
ENDBRANCH   3   4
ENDBRANCH   2   3
ENDBRANCH   1   2
BRANCH   1  23
ATOM     23  C   UNL A   1      31.601  29.026  24.462  1.00  0.00     0.188 C 
BRANCH  23  24
ATOM     24  O   UNL A   1      31.247  30.366  24.811  1.00  0.00    -0.376 OA
BRANCH  24  25
ATOM     25  C   UNL A   1      31.117  30.539  26.216  1.00  0.00     0.202 C 
BRANCH  25  26
ATOM     26  C   UNL A   1      32.283  29.907  26.986  1.00  0.00     0.261 C 
BRANCH  26  27
ATOM     27  O   UNL A   1      33.582  30.443  26.664  1.00  0.00    -0.460 OA
BRANCH  27  28
ATOM     28  C   UNL A   1      34.057  31.390  27.494  1.00  0.00     0.338 C 
ATOM     29  O   UNL A   1      33.424  32.323  27.979  1.00  0.00    -0.246 OA
BRANCH  28  30
ATOM     30  C   UNL A   1      35.465  31.112  27.822  1.00  0.00     0.060 A 
ATOM     31  C   UNL A   1      35.861  29.788  28.012  1.00  0.00     0.016 A 
ATOM     32  C   UNL A   1      36.353  32.150  28.094  1.00  0.00     0.016 A 
ATOM     33  C   UNL A   1      37.108  29.484  28.557  1.00  0.00     0.010 A 
ATOM     34  C   UNL A   1      37.620  31.847  28.607  1.00  0.00     0.010 A 
ATOM     35  C   UNL A   1      37.993  30.516  28.886  1.00  0.00    -0.014 A 
BRANCH  35  36
ATOM     36  C   UNL A   1      39.244  30.256  29.648  1.00  0.00     0.031 A 
ATOM     37  C   UNL A   1      40.239  29.286  29.071  1.00  0.00     0.074 A 
ATOM     38  C   UNL A   1      39.498  30.845  30.831  1.00  0.00     0.049 A 
ATOM     39  N   UNL A   1      41.190  28.615  29.661  1.00  0.00    -0.248 NA
ATOM     40  C   UNL A   1      40.123  29.031  27.626  1.00  0.00     0.031 C 
ATOM     41  C   UNL A   1      38.695  31.902  31.445  1.00  0.00     0.029 A 
ATOM     42  N   UNL A   1      40.499  30.612  31.743  1.00  0.00    -0.354 N 
ATOM     43  C   UNL A   1      41.743  27.800  28.677  1.00  0.00     0.074 A 
ATOM     44  C   UNL A   1      41.027  28.078  27.449  1.00  0.00     0.031 C 
ATOM     45  C   UNL A   1      39.224  32.214  32.639  1.00  0.00     0.029 A 
ATOM     46  C   UNL A   1      40.338  31.312  32.918  1.00  0.00     0.049 A 
ATOM     47  H   UNL A   1      41.256  30.007  31.573  1.00  0.00     0.167 HD
ATOM     48  C   UNL A   1      42.739  26.888  28.804  1.00  0.00     0.034 A 
ATOM     49  C   UNL A   1      40.961  31.181  34.107  1.00  0.00     0.034 A 
ATOM     50  C   UNL A   1      43.449  26.659  30.038  1.00  0.00     0.049 A 
ATOM     51  C   UNL A   1      42.011  30.107  34.261  1.00  0.00     0.074 A 
ATOM     52  C   UNL A   1      44.443  25.738  30.311  1.00  0.00     0.029 A 
ATOM     53  N   UNL A   1      43.240  27.377  31.209  1.00  0.00    -0.354 N 
ATOM     54  N   UNL A   1      42.440  29.239  33.372  1.00  0.00    -0.248 NA
ATOM     55  C   UNL A   1      42.643  29.977  35.582  1.00  0.00     0.031 C 
ATOM     56  C   UNL A   1      44.804  25.868  31.658  1.00  0.00     0.029 A 
ATOM     57  C   UNL A   1      44.080  26.913  32.208  1.00  0.00     0.049 A 
ATOM     58  H   UNL A   1      42.591  28.109  31.315  1.00  0.00     0.167 HD
ATOM     59  C   UNL A   1      43.409  28.478  34.022  1.00  0.00     0.074 A 
ATOM     60  C   UNL A   1      43.504  28.990  35.373  1.00  0.00     0.031 C 
ATOM     61  C   UNL A   1      44.159  27.452  33.544  1.00  0.00     0.034 A 
BRANCH  48  62
ATOM     62  C   UNL A   1      43.040  26.021  27.606  1.00  0.00     0.023 A 
ATOM     63  C   UNL A   1      42.441  24.765  27.418  1.00  0.00     0.031 A 
ATOM     64  C   UNL A   1      43.996  26.442  26.662  1.00  0.00     0.131 A 
ATOM     65  C   UNL A   1      42.857  23.942  26.358  1.00  0.00     0.055 A 
ATOM     66  C   UNL A   1      44.347  25.653  25.564  1.00  0.00     0.041 A 
ATOM     67  F   UNL A   1      44.621  27.621  26.802  1.00  0.00    -0.206 F 
ATOM     68  C   UNL A   1      43.788  24.388  25.417  1.00  0.00     0.022 A 
BRANCH  65  69
ATOM     69  S   UNL A   1      42.275  22.225  26.311  1.00  0.00     0.124 S 
ATOM     70  O   UNL A   1      42.745  21.719  27.599  1.00  0.00    -0.237 OA
ATOM     71  O   UNL A   1      40.832  22.385  26.175  1.00  0.00    -0.237 OA
ATOM     72  O   UNL A   1      42.953  21.664  25.145  1.00  0.00    -0.744 OA
ENDBRANCH  65  69
ENDBRANCH  48  62
BRANCH  49  73
ATOM     73  C   UNL A   1      40.542  32.011  35.274  1.00  0.00     0.023 A 
ATOM     74  C   UNL A   1      41.177  33.227  35.568  1.00  0.00     0.031 A 
ATOM     75  C   UNL A   1      39.518  31.578  36.137  1.00  0.00     0.131 A 
ATOM     76  C   UNL A   1      40.802  33.955  36.708  1.00  0.00     0.055 A 
ATOM     77  C   UNL A   1      39.112  32.332  37.239  1.00  0.00     0.041 A 
ATOM     78  F   UNL A   1      38.882  30.418  35.908  1.00  0.00    -0.206 F 
ATOM     79  C   UNL A   1      39.763  33.524  37.536  1.00  0.00     0.022 A 
BRANCH  76  80
ATOM     80  S   UNL A   1      41.743  35.445  37.139  1.00  0.00     0.124 S 
ATOM     81  O   UNL A   1      41.006  36.479  36.419  1.00  0.00    -0.237 OA
ATOM     82  O   UNL A   1      41.626  35.467  38.592  1.00  0.00    -0.237 OA
ATOM     83  O   UNL A   1      43.082  35.162  36.627  1.00  0.00    -0.744 OA
ENDBRANCH  76  80
ENDBRANCH  49  73
BRANCH  61  84
ATOM     84  C   UNL A   1      45.196  26.873  34.469  1.00  0.00     0.023 A 
ATOM     85  C   UNL A   1      44.921  25.771  35.296  1.00  0.00     0.031 A 
ATOM     86  C   UNL A   1      46.488  27.427  34.499  1.00  0.00     0.131 A 
ATOM     87  C   UNL A   1      45.923  25.276  36.144  1.00  0.00     0.055 A 
ATOM     88  C   UNL A   1      47.490  26.904  35.314  1.00  0.00     0.041 A 
ATOM     89  F   UNL A   1      46.796  28.480  33.724  1.00  0.00    -0.206 F 
ATOM     90  C   UNL A   1      47.209  25.825  36.148  1.00  0.00     0.022 A 
BRANCH  87  91
ATOM     91  S   UNL A   1      45.517  23.919  37.278  1.00  0.00     0.124 S 
ATOM     92  O   UNL A   1      46.827  23.572  37.817  1.00  0.00    -0.237 OA
ATOM     93  O   UNL A   1      44.592  24.555  38.211  1.00  0.00    -0.237 OA
ATOM     94  O   UNL A   1      44.917  22.911  36.406  1.00  0.00    -0.744 OA
ENDBRANCH  87  91
ENDBRANCH  61  84
ENDBRANCH  35  36
ENDBRANCH  28  30
ENDBRANCH  27  28
ENDBRANCH  26  27
ENDBRANCH  25  26
ENDBRANCH  24  25
ENDBRANCH  23  24
ENDBRANCH   1  23
TORSDOF 25
ENDMDL
MODEL 3
REMARK VINA RESULT:      -8.6      5.832      9.073
REMARK SMILES CCOc1cncc(N(CC(=O)OCCOCCOCCOC(=O)c2ccc(-c3c4nc(c(-c5cc(S(=O)(=O)[O-])ccc5F)c5ccc([nH]5)c(-c5cc(S(=O)(=O)[O-])ccc5F)c5nc(c(-c6cc(S(=O)(=O)[O-])ccc6F)c6ccc3[nH]6)C=C5)C=C4)cc2)C(C)(C)C)n1
REMARK SMILES IDX 17 1 16 2 15 3 14 4 13 5 11 6 12 7 10 8 9 9 8 10 4 11 5 12
REMARK SMILES IDX 92 13 6 14 7 15 3 16 2 17 1 18 88 19 89 20 90 21 91 22 18 23
REMARK SMILES IDX 19 24 20 25 21 26 22 27 23 28 24 29 25 30 26 31 87 32 27 33
REMARK SMILES IDX 86 34 28 35 29 36 30 37 80 38 31 39 85 40 79 41 81 42 32 43
REMARK SMILES IDX 84 44 78 45 77 46 33 48 65 49 45 50 64 51 46 52 49 53 63 54
REMARK SMILES IDX 82 55 47 56 48 57 62 59 83 60 50 61 34 62 35 63 43 64 36 65
REMARK SMILES IDX 42 66 44 67 41 68 37 69 38 70 39 71 40 72 66 73 67 74 75 75
REMARK SMILES IDX 68 76 74 77 76 78 73 79 69 80 70 81 71 82 72 83 51 84 52 85
REMARK SMILES IDX 60 86 53 87 59 88 61 89 58 90 54 91 55 92 56 93 57 94
REMARK H PARENT 81 47 49 58
REMARK Flexibility Score: inf
ROOT
ATOM      1  C   UNL A   1      40.239  20.944  26.237  1.00  0.00     0.188 C 
ENDROOT
BRANCH   1   2
ATOM      2  O   UNL A   1      39.027  21.695  26.346  1.00  0.00    -0.376 OA
BRANCH   2   3
ATOM      3  C   UNL A   1      37.870  21.126  25.741  1.00  0.00     0.202 C 
BRANCH   3   4
ATOM      4  C   UNL A   1      37.390  21.880  24.501  1.00  0.00     0.261 C 
BRANCH   4   5
ATOM      5  O   UNL A   1      36.120  22.524  24.720  1.00  0.00    -0.462 OA
BRANCH   5   6
ATOM      6  C   UNL A   1      35.608  23.128  23.614  1.00  0.00     0.325 C 
ATOM      7  O   UNL A   1      36.121  23.073  22.499  1.00  0.00    -0.250 OA
BRANCH   6   8
ATOM      8  C   UNL A   1      34.274  23.835  23.865  1.00  0.00     0.241 C 
BRANCH   8   9
ATOM      9  N   UNL A   1      33.234  23.034  24.559  1.00  0.00    -0.339 N 
BRANCH   9  10
ATOM     10  C   UNL A   1      32.965  21.741  24.084  1.00  0.00     0.152 A 
ATOM     11  C   UNL A   1      33.196  19.441  24.292  1.00  0.00     0.234 A 
ATOM     12  C   UNL A   1      32.476  19.216  23.138  1.00  0.00     0.179 A 
ATOM     13  N   UNL A   1      33.427  20.677  24.782  1.00  0.00    -0.193 NA
ATOM     14  N   UNL A   1      31.989  20.229  22.401  1.00  0.00    -0.255 NA
ATOM     15  C   UNL A   1      32.252  21.469  22.901  1.00  0.00     0.158 A 
BRANCH  11  16
ATOM     16  O   UNL A   1      33.645  18.374  25.028  1.00  0.00    -0.477 OA
BRANCH  16  17
ATOM     17  C   UNL A   1      32.542  17.589  25.494  1.00  0.00     0.228 C 
ATOM     18  C   UNL A   1      32.840  16.120  25.237  1.00  0.00     0.049 C 
ENDBRANCH  16  17
ENDBRANCH  11  16
ENDBRANCH   9  10
BRANCH   9  19
ATOM     19  C   UNL A   1      32.763  23.415  25.939  1.00  0.00     0.034 C 
ATOM     20  C   UNL A   1      33.631  22.739  27.028  1.00  0.00     0.034 C 
ATOM     21  C   UNL A   1      32.735  24.947  26.122  1.00  0.00     0.034 C 
ATOM     22  C   UNL A   1      31.320  22.952  26.200  1.00  0.00     0.034 C 
ENDBRANCH   9  19
ENDBRANCH   8   9
ENDBRANCH   6   8
ENDBRANCH   5   6
ENDBRANCH   4   5
ENDBRANCH   3   4
ENDBRANCH   2   3
ENDBRANCH   1   2
BRANCH   1  23
ATOM     23  C   UNL A   1      41.511  21.661  26.696  1.00  0.00     0.188 C 
BRANCH  23  24
ATOM     24  O   UNL A   1      41.333  22.114  28.040  1.00  0.00    -0.376 OA
BRANCH  24  25
ATOM     25  C   UNL A   1      42.510  22.715  28.564  1.00  0.00     0.202 C 
BRANCH  25  26
ATOM     26  C   UNL A   1      42.499  24.241  28.409  1.00  0.00     0.261 C 
BRANCH  26  27
ATOM     27  O   UNL A   1      43.555  24.773  27.585  1.00  0.00    -0.460 OA
BRANCH  27  28
ATOM     28  C   UNL A   1      43.170  25.522  26.535  1.00  0.00     0.338 C 
ATOM     29  O   UNL A   1      42.674  25.116  25.488  1.00  0.00    -0.246 OA
BRANCH  28  30
ATOM     30  C   UNL A   1      43.351  26.951  26.842  1.00  0.00     0.060 A 
ATOM     31  C   UNL A   1      44.282  27.315  27.815  1.00  0.00     0.016 A 
ATOM     32  C   UNL A   1      42.506  27.912  26.293  1.00  0.00     0.016 A 
ATOM     33  C   UNL A   1      44.324  28.615  28.316  1.00  0.00     0.010 A 
ATOM     34  C   UNL A   1      42.570  29.227  26.767  1.00  0.00     0.010 A 
ATOM     35  C   UNL A   1      43.447  29.581  27.814  1.00  0.00    -0.014 A 
BRANCH  35  36
ATOM     36  C   UNL A   1      43.316  30.920  28.450  1.00  0.00     0.031 A 
ATOM     37  C   UNL A   1      44.308  31.986  28.073  1.00  0.00     0.074 A 
ATOM     38  C   UNL A   1      42.356  31.194  29.353  1.00  0.00     0.049 A 
ATOM     39  N   UNL A   1      44.651  33.072  28.711  1.00  0.00    -0.248 NA
ATOM     40  C   UNL A   1      45.022  31.778  26.802  1.00  0.00     0.031 C 
ATOM     41  C   UNL A   1      41.250  30.308  29.714  1.00  0.00     0.029 A 
ATOM     42  N   UNL A   1      42.179  32.296  30.154  1.00  0.00    -0.354 N 
ATOM     43  C   UNL A   1      45.674  33.643  27.959  1.00  0.00     0.074 A 
ATOM     44  C   UNL A   1      45.880  32.787  26.809  1.00  0.00     0.031 C 
ATOM     45  C   UNL A   1      40.519  30.894  30.676  1.00  0.00     0.029 A 
ATOM     46  C   UNL A   1      41.161  32.145  31.070  1.00  0.00     0.049 A 
ATOM     47  H   UNL A   1      42.723  33.113  30.080  1.00  0.00     0.167 HD
ATOM     48  C   UNL A   1      46.388  34.765  28.227  1.00  0.00     0.034 A 
ATOM     49  C   UNL A   1      40.840  32.884  32.151  1.00  0.00     0.034 A 
ATOM     50  C   UNL A   1      46.134  35.608  29.369  1.00  0.00     0.049 A 
ATOM     51  C   UNL A   1      41.691  34.085  32.488  1.00  0.00     0.074 A 
ATOM     52  C   UNL A   1      46.809  36.744  29.779  1.00  0.00     0.029 A 
ATOM     53  N   UNL A   1      45.106  35.408  30.283  1.00  0.00    -0.354 N 
ATOM     54  N   UNL A   1      42.747  34.550  31.859  1.00  0.00    -0.248 NA
ATOM     55  C   UNL A   1      41.325  34.845  33.691  1.00  0.00     0.031 C 
ATOM     56  C   UNL A   1      46.219  37.202  30.964  1.00  0.00     0.029 A 
ATOM     57  C   UNL A   1      45.135  36.391  31.257  1.00  0.00     0.049 A 
ATOM     58  H   UNL A   1      44.452  34.673  30.243  1.00  0.00     0.167 HD
ATOM     59  C   UNL A   1      43.153  35.672  32.577  1.00  0.00     0.074 A 
ATOM     60  C   UNL A   1      42.229  35.815  33.684  1.00  0.00     0.031 C 
ATOM     61  C   UNL A   1      44.193  36.513  32.343  1.00  0.00     0.034 A 
BRANCH  48  62
ATOM     62  C   UNL A   1      47.555  35.077  27.323  1.00  0.00     0.023 A 
ATOM     63  C   UNL A   1      48.841  34.560  27.551  1.00  0.00     0.031 A 
ATOM     64  C   UNL A   1      47.383  35.960  26.240  1.00  0.00     0.131 A 
ATOM     65  C   UNL A   1      49.918  34.989  26.758  1.00  0.00     0.055 A 
ATOM     66  C   UNL A   1      48.443  36.320  25.405  1.00  0.00     0.041 A 
ATOM     67  F   UNL A   1      46.183  36.506  25.987  1.00  0.00    -0.206 F 
ATOM     68  C   UNL A   1      49.723  35.846  25.672  1.00  0.00     0.022 A 
BRANCH  65  69
ATOM     69  S   UNL A   1      51.600  34.528  27.255  1.00  0.00     0.124 S 
ATOM     70  O   UNL A   1      52.397  35.553  26.585  1.00  0.00    -0.237 OA
ATOM     71  O   UNL A   1      51.535  34.620  28.710  1.00  0.00    -0.237 OA
ATOM     72  O   UNL A   1      51.759  33.178  26.722  1.00  0.00    -0.744 OA
ENDBRANCH  65  69
ENDBRANCH  48  62
BRANCH  49  73
ATOM     73  C   UNL A   1      39.729  32.460  33.053  1.00  0.00     0.023 A 
ATOM     74  C   UNL A   1      38.486  33.108  33.032  1.00  0.00     0.031 A 
ATOM     75  C   UNL A   1      39.911  31.414  33.978  1.00  0.00     0.131 A 
ATOM     76  C   UNL A   1      37.481  32.726  33.935  1.00  0.00     0.055 A 
ATOM     77  C   UNL A   1      38.892  31.002  34.838  1.00  0.00     0.041 A 
ATOM     78  F   UNL A   1      41.084  30.764  34.047  1.00  0.00    -0.206 F 
ATOM     79  C   UNL A   1      37.670  31.667  34.827  1.00  0.00     0.022 A 
BRANCH  76  80
ATOM     80  S   UNL A   1      35.941  33.683  33.982  1.00  0.00     0.124 S 
ATOM     81  O   UNL A   1      36.341  34.921  33.321  1.00  0.00    -0.237 OA
ATOM     82  O   UNL A   1      35.028  32.823  33.236  1.00  0.00    -0.237 OA
ATOM     83  O   UNL A   1      35.656  33.801  35.410  1.00  0.00    -0.744 OA
ENDBRANCH  76  80
ENDBRANCH  49  73
BRANCH  61  84
ATOM     84  C   UNL A   1      44.333  37.700  33.257  1.00  0.00     0.023 A 
ATOM     85  C   UNL A   1      43.755  38.943  32.954  1.00  0.00     0.031 A 
ATOM     86  C   UNL A   1      45.041  37.567  34.465  1.00  0.00     0.131 A 
ATOM     87  C   UNL A   1      43.922  40.019  33.840  1.00  0.00     0.055 A 
ATOM     88  C   UNL A   1      45.169  38.629  35.359  1.00  0.00     0.041 A 
ATOM     89  F   UNL A   1      45.609  36.396  34.796  1.00  0.00    -0.206 F 
ATOM     90  C   UNL A   1      44.613  39.866  35.046  1.00  0.00     0.022 A 
BRANCH  87  91
ATOM     91  S   UNL A   1      43.255  41.643  33.380  1.00  0.00     0.124 S 
ATOM     92  O   UNL A   1      41.888  41.563  33.885  1.00  0.00    -0.237 OA
ATOM     93  O   UNL A   1      44.143  42.560  34.087  1.00  0.00    -0.237 OA
ATOM     94  O   UNL A   1      43.379  41.664  31.924  1.00  0.00    -0.744 OA
ENDBRANCH  87  91
ENDBRANCH  61  84
ENDBRANCH  35  36
ENDBRANCH  28  30
ENDBRANCH  27  28
ENDBRANCH  26  27
ENDBRANCH  25  26
ENDBRANCH  24  25
ENDBRANCH  23  24
ENDBRANCH   1  23
TORSDOF 25
ENDMDL
