MODEL 1
REMARK VINA RESULT:      -9.5      0.000      0.000
REMARK SMILES C#CC[N@@H+](CC(=O)OCCOCCOCCOC(=O)c1ccc(-c2c3nc(c(-c4cc(S(=O)(=O)[O-])ccc4F)c4ccc([nH]4)c(-c4cc(S(=O)(=O)[O-])ccc4F)c4nc(c(-c5cc(S(=O)(=O)[O-])ccc5F)c5ccc2[nH]5)C=C4)C=C3)cc1)[C@@H](C)Cc1ccco1
REMARK SMILES IDX 12 1 11 2 10 3 9 4 8 5 6 6 7 7 5 8 4 9 3 11 2 12 1 13 83 14
REMARK SMILES IDX 84 15 85 16 86 17 87 18 90 19 88 20 89 21 13 22 14 23 15 24
REMARK SMILES IDX 16 25 17 26 18 27 19 28 20 29 21 30 82 31 22 32 81 33 23 34
REMARK SMILES IDX 24 35 25 36 75 37 26 38 80 39 74 40 76 41 27 42 79 43 73 44
REMARK SMILES IDX 72 45 28 47 60 48 40 49 59 50 41 51 44 52 58 53 77 54 42 55
REMARK SMILES IDX 43 56 57 58 78 59 45 60 29 61 30 62 38 63 31 64 37 65 39 66
REMARK SMILES IDX 36 67 32 68 33 69 34 70 35 71 61 72 62 73 70 74 63 75 69 76
REMARK SMILES IDX 71 77 68 78 64 79 65 80 66 81 67 82 46 83 47 84 55 85 48 86
REMARK SMILES IDX 54 87 56 88 53 89 49 90 50 91 51 92 52 93
REMARK H PARENT 4 10 76 46 44 57
REMARK Flexibility Score: inf
ROOT
ATOM      1  C   UNL A   1      36.254  22.817  25.892  1.00  0.00     0.188 C 
ENDROOT
BRANCH   1   2
ATOM      2  O   UNL A   1      35.260  23.831  25.994  1.00  0.00    -0.376 OA
BRANCH   2   3
ATOM      3  C   UNL A   1      34.109  23.501  26.766  1.00  0.00     0.202 C 
BRANCH   3   4
ATOM      4  C   UNL A   1      32.765  24.083  26.295  1.00  0.00     0.261 C 
BRANCH   4   5
ATOM      5  O   UNL A   1      32.543  25.493  26.552  1.00  0.00    -0.459 OA
BRANCH   5   6
ATOM      6  C   UNL A   1      31.367  26.006  26.098  1.00  0.00     0.361 C 
ATOM      7  O   UNL A   1      30.786  26.931  26.667  1.00  0.00    -0.245 OA
BRANCH   6   8
ATOM      8  C   UNL A   1      30.710  25.350  24.870  1.00  0.00     0.387 C 
BRANCH   8   9
ATOM      9  N   UNL A   1      30.837  25.883  23.487  1.00  0.00    -0.313 N 
ATOM     10  H   UNL A   1      30.503  25.146  22.865  1.00  0.00     0.349 HD
BRANCH   9  11
ATOM     11  C   UNL A   1      32.220  26.057  23.065  1.00  0.00     0.354 C 
BRANCH  11  12
ATOM     12  C   UNL A   1      32.385  25.797  21.577  1.00  0.00    -0.047 C 
ATOM     13  C   UNL A   1      32.526  25.573  20.300  1.00  0.00     0.010 C 
ENDBRANCH  11  12
ENDBRANCH   9  11
BRANCH   9  14
ATOM     14  C   UNL A   1      29.894  26.973  23.165  1.00  0.00     0.189 C 
ATOM     15  C   UNL A   1      28.606  26.672  23.900  1.00  0.00     0.076 C 
BRANCH  14  16
ATOM     16  C   UNL A   1      30.274  28.460  23.456  1.00  0.00     0.140 C 
BRANCH  16  17
ATOM     17  C   UNL A   1      29.349  29.519  22.978  1.00  0.00     0.109 A 
ATOM     18  C   UNL A   1      28.994  30.744  23.509  1.00  0.00     0.046 A 
ATOM     19  O   UNL A   1      28.870  29.412  21.705  1.00  0.00    -0.469 OA
ATOM     20  C   UNL A   1      28.260  31.420  22.506  1.00  0.00     0.042 A 
ATOM     21  C   UNL A   1      28.210  30.566  21.430  1.00  0.00     0.195 A 
ENDBRANCH  16  17
ENDBRANCH  14  16
ENDBRANCH   9  14
ENDBRANCH   8   9
ENDBRANCH   6   8
ENDBRANCH   5   6
ENDBRANCH   4   5
ENDBRANCH   3   4
ENDBRANCH   2   3
ENDBRANCH   1   2
BRANCH   1  22
ATOM     22  C   UNL A   1      36.722  22.488  24.461  1.00  0.00     0.188 C 
BRANCH  22  23
ATOM     23  O   UNL A   1      37.721  21.475  24.442  1.00  0.00    -0.376 OA
BRANCH  23  24
ATOM     24  C   UNL A   1      37.425  20.172  24.944  1.00  0.00     0.202 C 
BRANCH  24  25
ATOM     25  C   UNL A   1      38.541  19.210  25.371  1.00  0.00     0.261 C 
BRANCH  25  26
ATOM     26  O   UNL A   1      39.308  19.639  26.508  1.00  0.00    -0.460 OA
BRANCH  26  27
ATOM     27  C   UNL A   1      40.639  19.855  26.335  1.00  0.00     0.338 C 
ATOM     28  O   UNL A   1      41.420  19.120  25.770  1.00  0.00    -0.246 OA
BRANCH  27  29
ATOM     29  C   UNL A   1      40.914  21.260  26.760  1.00  0.00     0.060 A 
ATOM     30  C   UNL A   1      40.256  22.316  26.117  1.00  0.00     0.016 A 
ATOM     31  C   UNL A   1      41.768  21.541  27.826  1.00  0.00     0.016 A 
ATOM     32  C   UNL A   1      40.380  23.628  26.555  1.00  0.00     0.010 A 
ATOM     33  C   UNL A   1      41.960  22.868  28.225  1.00  0.00     0.010 A 
ATOM     34  C   UNL A   1      41.272  23.915  27.584  1.00  0.00    -0.014 A 
BRANCH  34  35
ATOM     35  C   UNL A   1      41.679  25.321  27.780  1.00  0.00     0.031 A 
ATOM     36  C   UNL A   1      43.026  25.726  27.256  1.00  0.00     0.074 A 
ATOM     37  C   UNL A   1      40.849  26.229  28.321  1.00  0.00     0.049 A 
ATOM     38  N   UNL A   1      43.673  26.850  27.400  1.00  0.00    -0.248 NA
ATOM     39  C   UNL A   1      43.737  24.717  26.452  1.00  0.00     0.031 C 
ATOM     40  C   UNL A   1      39.469  25.976  28.734  1.00  0.00     0.029 A 
ATOM     41  N   UNL A   1      41.054  27.551  28.615  1.00  0.00    -0.354 N 
ATOM     42  C   UNL A   1      44.880  26.674  26.733  1.00  0.00     0.074 A 
ATOM     43  C   UNL A   1      44.880  25.331  26.197  1.00  0.00     0.031 C 
ATOM     44  C   UNL A   1      38.958  27.107  29.251  1.00  0.00     0.029 A 
ATOM     45  C   UNL A   1      39.993  28.140  29.262  1.00  0.00     0.049 A 
ATOM     46  H   UNL A   1      41.881  28.034  28.385  1.00  0.00     0.167 HD
ATOM     47  C   UNL A   1      45.895  27.558  26.590  1.00  0.00     0.034 A 
ATOM     48  C   UNL A   1      39.896  29.356  29.838  1.00  0.00     0.034 A 
ATOM     49  C   UNL A   1      45.868  28.888  27.139  1.00  0.00     0.049 A 
ATOM     50  C   UNL A   1      41.090  30.281  29.781  1.00  0.00     0.074 A 
ATOM     51  C   UNL A   1      46.845  29.865  27.079  1.00  0.00     0.029 A 
ATOM     52  N   UNL A   1      44.807  29.429  27.857  1.00  0.00    -0.354 N 
ATOM     53  N   UNL A   1      42.257  30.093  29.205  1.00  0.00    -0.248 NA
ATOM     54  C   UNL A   1      40.957  31.580  30.452  1.00  0.00     0.031 C 
ATOM     55  C   UNL A   1      46.408  30.963  27.828  1.00  0.00     0.029 A 
ATOM     56  C   UNL A   1      45.121  30.711  28.277  1.00  0.00     0.049 A 
ATOM     57  H   UNL A   1      43.958  28.967  28.042  1.00  0.00     0.167 HD
ATOM     58  C   UNL A   1      42.981  31.263  29.417  1.00  0.00     0.074 A 
ATOM     59  C   UNL A   1      42.115  32.155  30.162  1.00  0.00     0.031 C 
ATOM     60  C   UNL A   1      44.243  31.580  29.026  1.00  0.00     0.034 A 
BRANCH  47  61
ATOM     61  C   UNL A   1      47.139  27.069  25.891  1.00  0.00     0.023 A 
ATOM     62  C   UNL A   1      48.188  26.439  26.583  1.00  0.00     0.031 A 
ATOM     63  C   UNL A   1      47.300  27.291  24.511  1.00  0.00     0.131 A 
ATOM     64  C   UNL A   1      49.378  26.122  25.909  1.00  0.00     0.055 A 
ATOM     65  C   UNL A   1      48.451  26.894  23.830  1.00  0.00     0.041 A 
ATOM     66  F   UNL A   1      46.347  27.919  23.805  1.00  0.00    -0.206 F 
ATOM     67  C   UNL A   1      49.505  26.319  24.532  1.00  0.00     0.022 A 
BRANCH  64  68
ATOM     68  S   UNL A   1      50.814  25.597  26.887  1.00  0.00     0.124 S 
ATOM     69  O   UNL A   1      51.094  26.800  27.666  1.00  0.00    -0.237 OA
ATOM     70  O   UNL A   1      50.289  24.459  27.632  1.00  0.00    -0.237 OA
ATOM     71  O   UNL A   1      51.816  25.272  25.874  1.00  0.00    -0.744 OA
ENDBRANCH  64  68
ENDBRANCH  47  61
BRANCH  48  72
ATOM     72  C   UNL A   1      38.664  29.746  30.587  1.00  0.00     0.023 A 
ATOM     73  C   UNL A   1      37.677  30.551  29.999  1.00  0.00     0.031 A 
ATOM     74  C   UNL A   1      38.492  29.373  31.933  1.00  0.00     0.131 A 
ATOM     75  C   UNL A   1      36.587  30.995  30.767  1.00  0.00     0.055 A 
ATOM     76  C   UNL A   1      37.376  29.765  32.674  1.00  0.00     0.041 A 
ATOM     77  F   UNL A   1      39.411  28.613  32.551  1.00  0.00    -0.206 F 
ATOM     78  C   UNL A   1      36.421  30.593  32.094  1.00  0.00     0.022 A 
BRANCH  75  79
ATOM     79  S   UNL A   1      35.435  32.188  30.032  1.00  0.00     0.124 S 
ATOM     80  O   UNL A   1      36.296  33.349  29.839  1.00  0.00    -0.237 OA
ATOM     81  O   UNL A   1      35.011  31.494  28.820  1.00  0.00    -0.237 OA
ATOM     82  O   UNL A   1      34.402  32.339  31.056  1.00  0.00    -0.744 OA
ENDBRANCH  75  79
ENDBRANCH  48  72
BRANCH  60  83
ATOM     83  C   UNL A   1      44.737  32.971  29.348  1.00  0.00     0.023 A 
ATOM     84  C   UNL A   1      44.447  34.073  28.527  1.00  0.00     0.031 A 
ATOM     85  C   UNL A   1      45.511  33.192  30.502  1.00  0.00     0.131 A 
ATOM     86  C   UNL A   1      44.974  35.335  28.840  1.00  0.00     0.055 A 
ATOM     87  C   UNL A   1      45.974  34.463  30.845  1.00  0.00     0.041 A 
ATOM     88  F   UNL A   1      45.821  32.176  31.323  1.00  0.00    -0.206 F 
ATOM     89  C   UNL A   1      45.718  35.541  30.005  1.00  0.00     0.022 A 
BRANCH  86  90
ATOM     90  S   UNL A   1      44.755  36.690  27.654  1.00  0.00     0.124 S 
ATOM     91  O   UNL A   1      46.132  36.976  27.264  1.00  0.00    -0.237 OA
ATOM     92  O   UNL A   1      43.917  36.076  26.629  1.00  0.00    -0.237 OA
ATOM     93  O   UNL A   1      44.104  37.735  28.442  1.00  0.00    -0.744 OA
ENDBRANCH  86  90
ENDBRANCH  60  83
ENDBRANCH  34  35
ENDBRANCH  27  29
ENDBRANCH  26  27
ENDBRANCH  25  26
ENDBRANCH  24  25
ENDBRANCH  23  24
ENDBRANCH  22  23
ENDBRANCH   1  22
TORSDOF 26
ENDMDL
MODEL 2
REMARK VINA RESULT:      -9.2      1.254      2.226
REMARK SMILES C#CC[N@@H+](CC(=O)OCCOCCOCCOC(=O)c1ccc(-c2c3nc(c(-c4cc(S(=O)(=O)[O-])ccc4F)c4ccc([nH]4)c(-c4cc(S(=O)(=O)[O-])ccc4F)c4nc(c(-c5cc(S(=O)(=O)[O-])ccc5F)c5ccc2[nH]5)C=C4)C=C3)cc1)[C@@H](C)Cc1ccco1
REMARK SMILES IDX 12 1 11 2 10 3 9 4 8 5 6 6 7 7 5 8 4 9 3 11 2 12 1 13 83 14
REMARK SMILES IDX 84 15 85 16 86 17 87 18 90 19 88 20 89 21 13 22 14 23 15 24
REMARK SMILES IDX 16 25 17 26 18 27 19 28 20 29 21 30 82 31 22 32 81 33 23 34
REMARK SMILES IDX 24 35 25 36 75 37 26 38 80 39 74 40 76 41 27 42 79 43 73 44
REMARK SMILES IDX 72 45 28 47 60 48 40 49 59 50 41 51 44 52 58 53 77 54 42 55
REMARK SMILES IDX 43 56 57 58 78 59 45 60 29 61 30 62 38 63 31 64 37 65 39 66
REMARK SMILES IDX 36 67 32 68 33 69 34 70 35 71 61 72 62 73 70 74 63 75 69 76
REMARK SMILES IDX 71 77 68 78 64 79 65 80 66 81 67 82 46 83 47 84 55 85 48 86
REMARK SMILES IDX 54 87 56 88 53 89 49 90 50 91 51 92 52 93
REMARK H PARENT 4 10 76 46 44 57
REMARK Flexibility Score: inf
ROOT
ATOM      1  C   UNL A   1      35.527  22.699  25.304  1.00  0.00     0.188 C 
ENDROOT
BRANCH   1   2
ATOM      2  O   UNL A   1      34.861  23.863  24.824  1.00  0.00    -0.376 OA
BRANCH   2   3
ATOM      3  C   UNL A   1      34.043  23.681  23.672  1.00  0.00     0.202 C 
BRANCH   3   4
ATOM      4  C   UNL A   1      33.498  24.954  22.998  1.00  0.00     0.261 C 
BRANCH   4   5
ATOM      5  O   UNL A   1      32.359  24.784  22.117  1.00  0.00    -0.459 OA
BRANCH   5   6
ATOM      6  C   UNL A   1      31.959  25.893  21.437  1.00  0.00     0.361 C 
ATOM      7  O   UNL A   1      31.823  25.904  20.213  1.00  0.00    -0.245 OA
BRANCH   6   8
ATOM      8  C   UNL A   1      31.743  27.196  22.227  1.00  0.00     0.387 C 
BRANCH   8   9
ATOM      9  N   UNL A   1      30.443  27.581  22.837  1.00  0.00    -0.313 N 
ATOM     10  H   UNL A   1      29.730  27.021  22.369  1.00  0.00     0.349 HD
BRANCH   9  11
ATOM     11  C   UNL A   1      30.041  28.944  22.517  1.00  0.00     0.354 C 
BRANCH  11  12
ATOM     12  C   UNL A   1      28.550  29.149  22.732  1.00  0.00    -0.047 C 
ATOM     13  C   UNL A   1      27.271  29.325  22.917  1.00  0.00     0.010 C 
ENDBRANCH  11  12
ENDBRANCH   9  11
BRANCH   9  14
ATOM     14  C   UNL A   1      30.272  27.142  24.237  1.00  0.00     0.189 C 
ATOM     15  C   UNL A   1      29.574  25.800  24.194  1.00  0.00     0.076 C 
BRANCH  14  16
ATOM     16  C   UNL A   1      31.510  27.006  25.181  1.00  0.00     0.140 C 
BRANCH  16  17
ATOM     17  C   UNL A   1      32.081  28.249  25.759  1.00  0.00     0.109 A 
ATOM     18  C   UNL A   1      32.920  29.212  25.234  1.00  0.00     0.046 A 
ATOM     19  O   UNL A   1      31.587  28.672  26.958  1.00  0.00    -0.469 OA
ATOM     20  C   UNL A   1      32.936  30.282  26.160  1.00  0.00     0.042 A 
ATOM     21  C   UNL A   1      32.112  29.902  27.193  1.00  0.00     0.195 A 
ENDBRANCH  16  17
ENDBRANCH  14  16
ENDBRANCH   9  14
ENDBRANCH   8   9
ENDBRANCH   6   8
ENDBRANCH   5   6
ENDBRANCH   4   5
ENDBRANCH   3   4
ENDBRANCH   2   3
ENDBRANCH   1   2
BRANCH   1  22
ATOM     22  C   UNL A   1      36.227  21.844  24.230  1.00  0.00     0.188 C 
BRANCH  22  23
ATOM     23  O   UNL A   1      37.454  21.294  24.697  1.00  0.00    -0.376 OA
BRANCH  23  24
ATOM     24  C   UNL A   1      37.563  19.890  24.929  1.00  0.00     0.202 C 
BRANCH  24  25
ATOM     25  C   UNL A   1      38.910  19.241  25.271  1.00  0.00     0.261 C 
BRANCH  25  26
ATOM     26  O   UNL A   1      39.539  19.743  26.462  1.00  0.00    -0.460 OA
BRANCH  26  27
ATOM     27  C   UNL A   1      40.886  19.926  26.443  1.00  0.00     0.338 C 
ATOM     28  O   UNL A   1      41.710  19.161  25.990  1.00  0.00    -0.246 OA
BRANCH  27  29
ATOM     29  C   UNL A   1      41.143  21.334  26.867  1.00  0.00     0.060 A 
ATOM     30  C   UNL A   1      40.510  22.385  26.191  1.00  0.00     0.016 A 
ATOM     31  C   UNL A   1      41.953  21.625  27.964  1.00  0.00     0.016 A 
ATOM     32  C   UNL A   1      40.616  23.700  26.624  1.00  0.00     0.010 A 
ATOM     33  C   UNL A   1      42.129  22.955  28.361  1.00  0.00     0.010 A 
ATOM     34  C   UNL A   1      41.467  23.996  27.685  1.00  0.00    -0.014 A 
BRANCH  34  35
ATOM     35  C   UNL A   1      41.864  25.404  27.886  1.00  0.00     0.031 A 
ATOM     36  C   UNL A   1      43.217  25.814  27.381  1.00  0.00     0.074 A 
ATOM     37  C   UNL A   1      41.023  26.309  28.414  1.00  0.00     0.049 A 
ATOM     38  N   UNL A   1      43.857  26.941  27.534  1.00  0.00    -0.248 NA
ATOM     39  C   UNL A   1      43.944  24.808  26.588  1.00  0.00     0.031 C 
ATOM     40  C   UNL A   1      39.638  26.050  28.807  1.00  0.00     0.029 A 
ATOM     41  N   UNL A   1      41.218  27.632  28.711  1.00  0.00    -0.354 N 
ATOM     42  C   UNL A   1      45.075  26.770  26.885  1.00  0.00     0.074 A 
ATOM     43  C   UNL A   1      45.088  25.427  26.350  1.00  0.00     0.031 C 
ATOM     44  C   UNL A   1      39.115  27.179  29.316  1.00  0.00     0.029 A 
ATOM     45  C   UNL A   1      40.145  28.217  29.341  1.00  0.00     0.049 A 
ATOM     46  H   UNL A   1      42.046  28.118  28.492  1.00  0.00     0.167 HD
ATOM     47  C   UNL A   1      46.088  27.658  26.756  1.00  0.00     0.034 A 
ATOM     48  C   UNL A   1      40.034  29.432  29.915  1.00  0.00     0.034 A 
ATOM     49  C   UNL A   1      46.048  28.989  27.304  1.00  0.00     0.049 A 
ATOM     50  C   UNL A   1      41.226  30.362  29.876  1.00  0.00     0.074 A 
ATOM     51  C   UNL A   1      47.021  29.970  27.258  1.00  0.00     0.029 A 
ATOM     52  N   UNL A   1      44.974  29.525  28.007  1.00  0.00    -0.354 N 
ATOM     53  N   UNL A   1      42.401  30.179  29.317  1.00  0.00    -0.248 NA
ATOM     54  C   UNL A   1      41.078  31.661  30.544  1.00  0.00     0.031 C 
ATOM     55  C   UNL A   1      46.569  31.066  28.000  1.00  0.00     0.029 A 
ATOM     56  C   UNL A   1      45.276  30.809  28.430  1.00  0.00     0.049 A 
ATOM     57  H   UNL A   1      44.124  29.060  28.179  1.00  0.00     0.167 HD
ATOM     58  C   UNL A   1      43.117  31.352  29.538  1.00  0.00     0.074 A 
ATOM     59  C   UNL A   1      42.237  32.241  30.271  1.00  0.00     0.031 C 
ATOM     60  C   UNL A   1      44.384  31.675  29.166  1.00  0.00     0.034 A 
BRANCH  47  61
ATOM     61  C   UNL A   1      47.344  27.174  26.076  1.00  0.00     0.023 A 
ATOM     62  C   UNL A   1      48.301  26.388  26.742  1.00  0.00     0.031 A 
ATOM     63  C   UNL A   1      47.614  27.557  24.749  1.00  0.00     0.131 A 
ATOM     64  C   UNL A   1      49.513  26.075  26.105  1.00  0.00     0.055 A 
ATOM     65  C   UNL A   1      48.782  27.168  24.093  1.00  0.00     0.041 A 
ATOM     66  F   UNL A   1      46.753  28.336  24.075  1.00  0.00    -0.206 F 
ATOM     67  C   UNL A   1      49.747  26.435  24.776  1.00  0.00     0.022 A 
BRANCH  64  68
ATOM     68  S   UNL A   1      50.842  25.330  27.091  1.00  0.00     0.124 S 
ATOM     69  O   UNL A   1      51.727  24.816  26.050  1.00  0.00    -0.237 OA
ATOM     70  O   UNL A   1      51.343  26.467  27.853  1.00  0.00    -0.237 OA
ATOM     71  O   UNL A   1      50.153  24.307  27.875  1.00  0.00    -0.744 OA
ENDBRANCH  64  68
ENDBRANCH  47  61
BRANCH  48  72
ATOM     72  C   UNL A   1      38.790  29.818  30.646  1.00  0.00     0.023 A 
ATOM     73  C   UNL A   1      37.898  30.763  30.120  1.00  0.00     0.031 A 
ATOM     74  C   UNL A   1      38.513  29.291  31.922  1.00  0.00     0.131 A 
ATOM     75  C   UNL A   1      36.797  31.188  30.882  1.00  0.00     0.055 A 
ATOM     76  C   UNL A   1      37.384  29.671  32.651  1.00  0.00     0.041 A 
ATOM     77  F   UNL A   1      39.339  28.392  32.481  1.00  0.00    -0.206 F 
ATOM     78  C   UNL A   1      36.526  30.636  32.136  1.00  0.00     0.022 A 
BRANCH  75  79
ATOM     79  S   UNL A   1      35.777  32.550  30.253  1.00  0.00     0.124 S 
ATOM     80  O   UNL A   1      35.872  32.347  28.812  1.00  0.00    -0.237 OA
ATOM     81  O   UNL A   1      34.481  32.261  30.858  1.00  0.00    -0.237 OA
ATOM     82  O   UNL A   1      36.449  33.743  30.763  1.00  0.00    -0.744 OA
ENDBRANCH  75  79
ENDBRANCH  48  72
BRANCH  60  83
ATOM     83  C   UNL A   1      44.867  33.067  29.495  1.00  0.00     0.023 A 
ATOM     84  C   UNL A   1      44.779  34.124  28.572  1.00  0.00     0.031 A 
ATOM     85  C   UNL A   1      45.424  33.339  30.758  1.00  0.00     0.131 A 
ATOM     86  C   UNL A   1      45.291  35.387  28.905  1.00  0.00     0.055 A 
ATOM     87  C   UNL A   1      45.869  34.614  31.108  1.00  0.00     0.041 A 
ATOM     88  F   UNL A   1      45.536  32.368  31.679  1.00  0.00    -0.206 F 
ATOM     89  C   UNL A   1      45.816  35.644  30.174  1.00  0.00     0.022 A 
BRANCH  86  90
ATOM     90  S   UNL A   1      45.350  36.669  27.623  1.00  0.00     0.124 S 
ATOM     91  O   UNL A   1      44.150  37.446  27.918  1.00  0.00    -0.237 OA
ATOM     92  O   UNL A   1      46.622  37.330  27.901  1.00  0.00    -0.237 OA
ATOM     93  O   UNL A   1      45.306  35.910  26.376  1.00  0.00    -0.744 OA
ENDBRANCH  86  90
ENDBRANCH  60  83
ENDBRANCH  34  35
ENDBRANCH  27  29
ENDBRANCH  26  27
ENDBRANCH  25  26
ENDBRANCH  24  25
ENDBRANCH  23  24
ENDBRANCH  22  23
ENDBRANCH   1  22
TORSDOF 26
ENDMDL
MODEL 3
REMARK VINA RESULT:      -8.9      2.414      8.269
REMARK SMILES C#CC[N@@H+](CC(=O)OCCOCCOCCOC(=O)c1ccc(-c2c3nc(c(-c4cc(S(=O)(=O)[O-])ccc4F)c4ccc([nH]4)c(-c4cc(S(=O)(=O)[O-])ccc4F)c4nc(c(-c5cc(S(=O)(=O)[O-])ccc5F)c5ccc2[nH]5)C=C4)C=C3)cc1)[C@@H](C)Cc1ccco1
REMARK SMILES IDX 12 1 11 2 10 3 9 4 8 5 6 6 7 7 5 8 4 9 3 11 2 12 1 13 83 14
REMARK SMILES IDX 84 15 85 16 86 17 87 18 90 19 88 20 89 21 13 22 14 23 15 24
REMARK SMILES IDX 16 25 17 26 18 27 19 28 20 29 21 30 82 31 22 32 81 33 23 34
REMARK SMILES IDX 24 35 25 36 75 37 26 38 80 39 74 40 76 41 27 42 79 43 73 44
REMARK SMILES IDX 72 45 28 47 60 48 40 49 59 50 41 51 44 52 58 53 77 54 42 55
REMARK SMILES IDX 43 56 57 58 78 59 45 60 29 61 30 62 38 63 31 64 37 65 39 66
REMARK SMILES IDX 36 67 32 68 33 69 34 70 35 71 61 72 62 73 70 74 63 75 69 76
REMARK SMILES IDX 71 77 68 78 64 79 65 80 66 81 67 82 46 83 47 84 55 85 48 86
REMARK SMILES IDX 54 87 56 88 53 89 49 90 50 91 51 92 52 93
REMARK H PARENT 4 10 76 46 44 57
REMARK Flexibility Score: inf
ROOT
ATOM      1  C   UNL A   1      33.803  20.379  25.952  1.00  0.00     0.188 C 
ENDROOT
BRANCH   1   2
ATOM      2  O   UNL A   1      32.993  21.546  26.045  1.00  0.00    -0.376 OA
BRANCH   2   3
ATOM      3  C   UNL A   1      33.240  22.389  27.167  1.00  0.00     0.202 C 
BRANCH   3   4
ATOM      4  C   UNL A   1      32.413  23.683  27.260  1.00  0.00     0.261 C 
BRANCH   4   5
ATOM      5  O   UNL A   1      30.984  23.556  27.046  1.00  0.00    -0.459 OA
BRANCH   5   6
ATOM      6  C   UNL A   1      30.408  24.518  26.274  1.00  0.00     0.361 C 
ATOM      7  O   UNL A   1      29.570  25.305  26.716  1.00  0.00    -0.245 OA
BRANCH   6   8
ATOM      8  C   UNL A   1      30.767  24.567  24.778  1.00  0.00     0.387 C 
BRANCH   8   9
ATOM      9  N   UNL A   1      31.655  25.599  24.181  1.00  0.00    -0.313 N 
ATOM     10  H   UNL A   1      31.477  26.462  24.695  1.00  0.00     0.349 HD
BRANCH   9  11
ATOM     11  C   UNL A   1      31.284  25.956  22.818  1.00  0.00     0.354 C 
BRANCH  11  12
ATOM     12  C   UNL A   1      30.462  27.234  22.782  1.00  0.00    -0.047 C 
ATOM     13  C   UNL A   1      29.757  28.331  22.751  1.00  0.00     0.010 C 
ENDBRANCH  11  12
ENDBRANCH   9  11
BRANCH   9  14
ATOM     14  C   UNL A   1      33.092  25.399  24.454  1.00  0.00     0.189 C 
ATOM     15  C   UNL A   1      33.768  25.185  23.116  1.00  0.00     0.076 C 
BRANCH  14  16
ATOM     16  C   UNL A   1      33.908  26.480  25.233  1.00  0.00     0.140 C 
BRANCH  16  17
ATOM     17  C   UNL A   1      33.237  27.769  25.540  1.00  0.00     0.109 A 
ATOM     18  C   UNL A   1      33.127  28.946  24.826  1.00  0.00     0.046 A 
ATOM     19  O   UNL A   1      32.408  27.807  26.623  1.00  0.00    -0.469 OA
ATOM     20  C   UNL A   1      32.178  29.744  25.508  1.00  0.00     0.042 A 
ATOM     21  C   UNL A   1      31.774  29.007  26.596  1.00  0.00     0.195 A 
ENDBRANCH  16  17
ENDBRANCH  14  16
ENDBRANCH   9  14
ENDBRANCH   8   9
ENDBRANCH   6   8
ENDBRANCH   5   6
ENDBRANCH   4   5
ENDBRANCH   3   4
ENDBRANCH   2   3
ENDBRANCH   1   2
BRANCH   1  22
ATOM     22  C   UNL A   1      35.027  20.493  25.022  1.00  0.00     0.188 C 
BRANCH  22  23
ATOM     23  O   UNL A   1      35.044  21.723  24.305  1.00  0.00    -0.376 OA
BRANCH  23  24
ATOM     24  C   UNL A   1      36.264  22.450  24.165  1.00  0.00     0.202 C 
BRANCH  24  25
ATOM     25  C   UNL A   1      37.559  21.967  24.830  1.00  0.00     0.261 C 
BRANCH  25  26
ATOM     26  O   UNL A   1      37.919  22.666  26.034  1.00  0.00    -0.460 OA
BRANCH  26  27
ATOM     27  C   UNL A   1      39.219  22.628  26.428  1.00  0.00     0.338 C 
ATOM     28  O   UNL A   1      40.008  21.731  26.223  1.00  0.00    -0.246 OA
BRANCH  27  29
ATOM     29  C   UNL A   1      39.556  23.985  26.953  1.00  0.00     0.060 A 
ATOM     30  C   UNL A   1      40.034  24.965  26.075  1.00  0.00     0.016 A 
ATOM     31  C   UNL A   1      39.349  24.317  28.292  1.00  0.00     0.016 A 
ATOM     32  C   UNL A   1      40.243  26.275  26.487  1.00  0.00     0.010 A 
ATOM     33  C   UNL A   1      39.631  25.614  28.734  1.00  0.00     0.010 A 
ATOM     34  C   UNL A   1      40.087  26.593  27.832  1.00  0.00    -0.014 A 
BRANCH  34  35
ATOM     35  C   UNL A   1      40.670  27.860  28.320  1.00  0.00     0.031 A 
ATOM     36  C   UNL A   1      39.720  28.896  28.844  1.00  0.00     0.074 A 
ATOM     37  C   UNL A   1      41.999  28.050  28.379  1.00  0.00     0.049 A 
ATOM     38  N   UNL A   1      39.949  30.126  29.213  1.00  0.00    -0.248 NA
ATOM     39  C   UNL A   1      38.313  28.478  28.973  1.00  0.00     0.031 C 
ATOM     40  C   UNL A   1      43.015  27.058  28.029  1.00  0.00     0.029 A 
ATOM     41  N   UNL A   1      42.719  29.152  28.759  1.00  0.00    -0.354 N 
ATOM     42  C   UNL A   1      38.713  30.640  29.588  1.00  0.00     0.074 A 
ATOM     43  C   UNL A   1      37.737  29.593  29.388  1.00  0.00     0.031 C 
ATOM     44  C   UNL A   1      44.231  27.609  28.188  1.00  0.00     0.029 A 
ATOM     45  C   UNL A   1      44.076  29.006  28.591  1.00  0.00     0.049 A 
ATOM     46  H   UNL A   1      42.306  29.971  29.118  1.00  0.00     0.167 HD
ATOM     47  C   UNL A   1      38.426  31.879  30.053  1.00  0.00     0.034 A 
ATOM     48  C   UNL A   1      45.067  29.914  28.703  1.00  0.00     0.034 A 
ATOM     49  C   UNL A   1      39.420  32.904  30.238  1.00  0.00     0.049 A 
ATOM     50  C   UNL A   1      44.708  31.330  29.096  1.00  0.00     0.074 A 
ATOM     51  C   UNL A   1      39.247  34.203  30.680  1.00  0.00     0.029 A 
ATOM     52  N   UNL A   1      40.778  32.746  29.985  1.00  0.00    -0.354 N 
ATOM     53  N   UNL A   1      43.531  31.835  29.390  1.00  0.00    -0.248 NA
ATOM     54  C   UNL A   1      45.810  32.297  29.170  1.00  0.00     0.031 C 
ATOM     55  C   UNL A   1      40.484  34.852  30.616  1.00  0.00     0.029 A 
ATOM     56  C   UNL A   1      41.448  33.935  30.225  1.00  0.00     0.049 A 
ATOM     57  H   UNL A   1      41.202  31.913  29.678  1.00  0.00     0.167 HD
ATOM     58  C   UNL A   1      43.759  33.170  29.717  1.00  0.00     0.074 A 
ATOM     59  C   UNL A   1      45.186  33.386  29.595  1.00  0.00     0.031 C 
ATOM     60  C   UNL A   1      42.873  34.130  30.091  1.00  0.00     0.034 A 
BRANCH  47  61
ATOM     61  C   UNL A   1      36.973  32.203  30.297  1.00  0.00     0.023 A 
ATOM     62  C   UNL A   1      36.116  32.622  29.265  1.00  0.00     0.031 A 
ATOM     63  C   UNL A   1      36.452  32.143  31.602  1.00  0.00     0.131 A 
ATOM     64  C   UNL A   1      34.809  33.036  29.568  1.00  0.00     0.055 A 
ATOM     65  C   UNL A   1      35.126  32.473  31.883  1.00  0.00     0.041 A 
ATOM     66  F   UNL A   1      37.234  31.783  32.633  1.00  0.00    -0.206 F 
ATOM     67  C   UNL A   1      34.300  32.937  30.865  1.00  0.00     0.022 A 
BRANCH  64  68
ATOM     68  S   UNL A   1      33.838  33.856  28.273  1.00  0.00     0.124 S 
ATOM     69  O   UNL A   1      32.959  34.713  29.063  1.00  0.00    -0.237 OA
ATOM     70  O   UNL A   1      34.865  34.537  27.493  1.00  0.00    -0.237 OA
ATOM     71  O   UNL A   1      33.170  32.747  27.593  1.00  0.00    -0.744 OA
ENDBRANCH  64  68
ENDBRANCH  47  61
BRANCH  48  72
ATOM     72  C   UNL A   1      46.475  29.550  28.366  1.00  0.00     0.023 A 
ATOM     73  C   UNL A   1      47.320  28.950  29.311  1.00  0.00     0.031 A 
ATOM     74  C   UNL A   1      47.016  29.862  27.105  1.00  0.00     0.131 A 
ATOM     75  C   UNL A   1      48.671  28.724  28.999  1.00  0.00     0.055 A 
ATOM     76  C   UNL A   1      48.344  29.580  26.777  1.00  0.00     0.041 A 
ATOM     77  F   UNL A   1      46.257  30.449  26.165  1.00  0.00    -0.206 F 
ATOM     78  C   UNL A   1      49.183  29.019  27.734  1.00  0.00     0.022 A 
BRANCH  75  79
ATOM     79  S   UNL A   1      49.778  28.128  30.307  1.00  0.00     0.124 S 
ATOM     80  O   UNL A   1      50.631  27.202  29.571  1.00  0.00    -0.237 OA
ATOM     81  O   UNL A   1      50.409  29.365  30.756  1.00  0.00    -0.237 OA
ATOM     82  O   UNL A   1      48.867  27.510  31.268  1.00  0.00    -0.744 OA
ENDBRANCH  75  79
ENDBRANCH  48  72
BRANCH  60  83
ATOM     83  C   UNL A   1      43.435  35.484  30.453  1.00  0.00     0.023 A 
ATOM     84  C   UNL A   1      43.499  36.537  29.524  1.00  0.00     0.031 A 
ATOM     85  C   UNL A   1      43.912  35.723  31.755  1.00  0.00     0.131 A 
ATOM     86  C   UNL A   1      44.079  37.760  29.893  1.00  0.00     0.055 A 
ATOM     87  C   UNL A   1      44.425  36.963  32.136  1.00  0.00     0.041 A 
ATOM     88  F   UNL A   1      43.878  34.754  32.684  1.00  0.00    -0.206 F 
ATOM     89  C   UNL A   1      44.524  37.987  31.198  1.00  0.00     0.022 A 
BRANCH  86  90
ATOM     90  S   UNL A   1      44.335  39.024  28.617  1.00  0.00     0.124 S 
ATOM     91  O   UNL A   1      43.812  38.362  27.426  1.00  0.00    -0.237 OA
ATOM     92  O   UNL A   1      43.546  40.143  29.123  1.00  0.00    -0.237 OA
ATOM     93  O   UNL A   1      45.782  39.232  28.625  1.00  0.00    -0.744 OA
ENDBRANCH  86  90
ENDBRANCH  60  83
ENDBRANCH  34  35
ENDBRANCH  27  29
ENDBRANCH  26  27
ENDBRANCH  25  26
ENDBRANCH  24  25
ENDBRANCH  23  24
ENDBRANCH  22  23
ENDBRANCH   1  22
TORSDOF 26
ENDMDL
