MODEL 1
REMARK VINA RESULT:      -9.9      0.000      0.000
REMARK SMILES N#C/C(=C/c1cccc(OC2CCCC2)c1)C(=O)OCCOCCOCCOC(=O)c1ccc(-c2c3nc(c(-c4cc(S(=O)(=O)[O-])ccc4F)c4ccc([nH]4)c(-c4cc(S(=O)(=O)[O-])ccc4F)c4nc(c(-c5cc(S(=O)(=O)[O-])ccc5F)c5ccc2[nH]5)C=C4)C=C3)cc1
REMARK SMILES IDX 23 1 22 2 21 3 20 4 19 5 17 6 18 7 3 8 4 9 2 10 1 11 5 12
REMARK SMILES IDX 6 13 16 14 7 15 9 16 8 17 10 18 11 19 12 20 15 21 13 22
REMARK SMILES IDX 14 23 24 24 25 25 26 26 27 27 28 28 29 29 30 30 31 31 32 32
REMARK SMILES IDX 93 33 33 34 92 35 34 36 35 37 36 38 86 39 37 40 91 41 85 42
REMARK SMILES IDX 87 43 38 44 90 45 84 46 83 47 39 49 71 50 51 51 70 52 52 53
REMARK SMILES IDX 55 54 69 55 88 56 53 57 54 58 68 60 89 61 56 62 40 63 41 64
REMARK SMILES IDX 49 65 42 66 48 67 50 68 47 69 43 70 44 71 45 72 46 73 72 74
REMARK SMILES IDX 73 75 81 76 74 77 80 78 82 79 79 80 75 81 76 82 77 83 78 84
REMARK SMILES IDX 57 85 58 86 66 87 59 88 65 89 67 90 64 91 60 92 61 93 62 94
REMARK SMILES IDX 63 95
REMARK H PARENT 87 48 55 59
REMARK Flexibility Score: inf
ROOT
ATOM      1  C   UNL A   1      36.107  23.528  25.313  1.00  0.00     0.188 C 
ENDROOT
BRANCH   1   2
ATOM      2  O   UNL A   1      35.210  23.278  24.241  1.00  0.00    -0.376 OA
BRANCH   2   3
ATOM      3  C   UNL A   1      34.710  24.397  23.526  1.00  0.00     0.202 C 
BRANCH   3   4
ATOM      4  C   UNL A   1      34.098  25.542  24.336  1.00  0.00     0.261 C 
BRANCH   4   5
ATOM      5  O   UNL A   1      33.122  26.330  23.611  1.00  0.00    -0.459 OA
BRANCH   5   6
ATOM      6  C   UNL A   1      31.983  26.671  24.270  1.00  0.00     0.348 C 
ATOM      7  O   UNL A   1      31.945  27.303  25.316  1.00  0.00    -0.245 OA
BRANCH   6   8
ATOM      8  C   UNL A   1      30.737  26.291  23.513  1.00  0.00     0.137 C 
ATOM      9  C   UNL A   1      30.224  25.046  23.509  1.00  0.00     0.035 C 
BRANCH   8  10
ATOM     10  C   UNL A   1      29.918  27.513  23.133  1.00  0.00     0.107 C 
ATOM     11  N   UNL A   1      29.238  28.526  22.818  1.00  0.00    -0.192 NA
ENDBRANCH   8  10
BRANCH   9  12
ATOM     12  C   UNL A   1      30.836  23.854  24.133  1.00  0.00    -0.020 A 
ATOM     13  C   UNL A   1      30.722  23.684  25.516  1.00  0.00     0.008 A 
ATOM     14  C   UNL A   1      31.563  22.900  23.389  1.00  0.00     0.054 A 
ATOM     15  C   UNL A   1      31.261  22.553  26.129  1.00  0.00     0.004 A 
ATOM     16  C   UNL A   1      32.058  21.738  23.984  1.00  0.00     0.120 A 
ATOM     17  C   UNL A   1      31.909  21.582  25.364  1.00  0.00     0.046 A 
BRANCH  16  18
ATOM     18  O   UNL A   1      32.710  20.711  23.364  1.00  0.00    -0.490 OA
BRANCH  18  19
ATOM     19  C   UNL A   1      32.811  19.395  23.910  1.00  0.00     0.173 C 
ATOM     20  C   UNL A   1      32.463  18.242  22.984  1.00  0.00     0.045 C 
ATOM     21  C   UNL A   1      34.152  19.048  24.555  1.00  0.00     0.045 C 
ATOM     22  C   UNL A   1      33.158  17.037  23.594  1.00  0.00     0.004 C 
ATOM     23  C   UNL A   1      34.456  17.603  24.154  1.00  0.00     0.004 C 
ENDBRANCH  18  19
ENDBRANCH  16  18
ENDBRANCH   9  12
ENDBRANCH   6   8
ENDBRANCH   5   6
ENDBRANCH   4   5
ENDBRANCH   3   4
ENDBRANCH   2   3
ENDBRANCH   1   2
BRANCH   1  24
ATOM     24  C   UNL A   1      37.032  22.381  25.790  1.00  0.00     0.188 C 
BRANCH  24  25
ATOM     25  O   UNL A   1      37.484  21.515  24.765  1.00  0.00    -0.376 OA
BRANCH  25  26
ATOM     26  C   UNL A   1      38.376  20.499  25.200  1.00  0.00     0.202 C 
BRANCH  26  27
ATOM     27  C   UNL A   1      39.552  20.978  26.070  1.00  0.00     0.261 C 
BRANCH  27  28
ATOM     28  O   UNL A   1      40.484  19.968  26.509  1.00  0.00    -0.460 OA
BRANCH  28  29
ATOM     29  C   UNL A   1      41.761  20.016  26.053  1.00  0.00     0.338 C 
ATOM     30  O   UNL A   1      42.301  19.180  25.349  1.00  0.00    -0.246 OA
BRANCH  29  31
ATOM     31  C   UNL A   1      42.271  21.393  26.306  1.00  0.00     0.060 A 
ATOM     32  C   UNL A   1      42.569  21.789  27.623  1.00  0.00     0.016 A 
ATOM     33  C   UNL A   1      42.574  22.248  25.243  1.00  0.00     0.016 A 
ATOM     34  C   UNL A   1      43.155  23.036  27.876  1.00  0.00     0.010 A 
ATOM     35  C   UNL A   1      43.124  23.511  25.500  1.00  0.00     0.010 A 
ATOM     36  C   UNL A   1      43.391  23.925  26.818  1.00  0.00    -0.014 A 
BRANCH  36  37
ATOM     37  C   UNL A   1      43.629  25.369  27.093  1.00  0.00     0.031 A 
ATOM     38  C   UNL A   1      45.025  25.888  26.861  1.00  0.00     0.074 A 
ATOM     39  C   UNL A   1      42.670  26.203  27.540  1.00  0.00     0.049 A 
ATOM     40  N   UNL A   1      45.533  27.069  27.096  1.00  0.00    -0.248 NA
ATOM     41  C   UNL A   1      45.981  24.923  26.291  1.00  0.00     0.031 C 
ATOM     42  C   UNL A   1      41.268  25.853  27.752  1.00  0.00     0.029 A 
ATOM     43  N   UNL A   1      42.744  27.528  27.905  1.00  0.00    -0.354 N 
ATOM     44  C   UNL A   1      46.867  26.988  26.709  1.00  0.00     0.074 A 
ATOM     45  C   UNL A   1      47.096  25.632  26.263  1.00  0.00     0.031 C 
ATOM     46  C   UNL A   1      40.615  26.934  28.220  1.00  0.00     0.029 A 
ATOM     47  C   UNL A   1      41.558  28.042  28.379  1.00  0.00     0.049 A 
ATOM     48  H   UNL A   1      43.569  28.060  27.834  1.00  0.00     0.167 HD
ATOM     49  C   UNL A   1      47.815  27.956  26.719  1.00  0.00     0.034 A 
ATOM     50  C   UNL A   1      41.276  29.256  28.901  1.00  0.00     0.034 A 
ATOM     51  C   UNL A   1      47.585  29.299  27.188  1.00  0.00     0.049 A 
ATOM     52  C   UNL A   1      42.380  30.289  29.009  1.00  0.00     0.074 A 
ATOM     53  C   UNL A   1      48.471  30.360  27.229  1.00  0.00     0.029 A 
ATOM     54  N   UNL A   1      46.387  29.763  27.716  1.00  0.00    -0.354 N 
ATOM     55  N   UNL A   1      43.635  30.207  28.630  1.00  0.00    -0.248 NA
ATOM     56  C   UNL A   1      42.024  31.581  29.615  1.00  0.00     0.031 C 
ATOM     57  C   UNL A   1      47.837  31.437  27.857  1.00  0.00     0.029 A 
ATOM     58  C   UNL A   1      46.525  31.080  28.124  1.00  0.00     0.049 A 
ATOM     59  H   UNL A   1      45.560  29.233  27.790  1.00  0.00     0.167 HD
ATOM     60  C   UNL A   1      44.202  31.450  28.912  1.00  0.00     0.074 A 
ATOM     61  C   UNL A   1      43.154  32.263  29.488  1.00  0.00     0.031 C 
ATOM     62  C   UNL A   1      45.474  31.883  28.705  1.00  0.00     0.034 A 
BRANCH  49  63
ATOM     63  C   UNL A   1      49.202  27.564  26.270  1.00  0.00     0.023 A 
ATOM     64  C   UNL A   1      50.235  27.305  27.189  1.00  0.00     0.031 A 
ATOM     65  C   UNL A   1      49.509  27.498  24.900  1.00  0.00     0.131 A 
ATOM     66  C   UNL A   1      51.539  27.070  26.727  1.00  0.00     0.055 A 
ATOM     67  C   UNL A   1      50.790  27.179  24.446  1.00  0.00     0.041 A 
ATOM     68  F   UNL A   1      48.571  27.764  23.976  1.00  0.00    -0.206 F 
ATOM     69  C   UNL A   1      51.817  26.978  25.362  1.00  0.00     0.022 A 
BRANCH  66  70
ATOM     70  S   UNL A   1      52.894  27.046  27.934  1.00  0.00     0.124 S 
ATOM     71  O   UNL A   1      53.538  25.770  27.631  1.00  0.00    -0.237 OA
ATOM     72  O   UNL A   1      53.651  28.242  27.583  1.00  0.00    -0.237 OA
ATOM     73  O   UNL A   1      52.207  27.097  29.223  1.00  0.00    -0.744 OA
ENDBRANCH  66  70
ENDBRANCH  49  63
BRANCH  50  74
ATOM     74  C   UNL A   1      39.908  29.574  29.414  1.00  0.00     0.023 A 
ATOM     75  C   UNL A   1      39.636  29.614  30.793  1.00  0.00     0.031 A 
ATOM     76  C   UNL A   1      38.829  29.757  28.530  1.00  0.00     0.131 A 
ATOM     77  C   UNL A   1      38.316  29.781  31.246  1.00  0.00     0.055 A 
ATOM     78  C   UNL A   1      37.528  29.981  28.985  1.00  0.00     0.041 A 
ATOM     79  F   UNL A   1      39.024  29.712  27.202  1.00  0.00    -0.206 F 
ATOM     80  C   UNL A   1      37.263  29.981  30.351  1.00  0.00     0.022 A 
BRANCH  77  81
ATOM     81  S   UNL A   1      37.977  29.632  33.022  1.00  0.00     0.124 S 
ATOM     82  O   UNL A   1      39.307  29.804  33.595  1.00  0.00    -0.237 OA
ATOM     83  O   UNL A   1      37.035  30.724  33.247  1.00  0.00    -0.237 OA
ATOM     84  O   UNL A   1      37.412  28.289  33.150  1.00  0.00    -0.744 OA
ENDBRANCH  77  81
ENDBRANCH  50  74
BRANCH  62  85
ATOM     85  C   UNL A   1      45.786  33.321  29.048  1.00  0.00     0.023 A 
ATOM     86  C   UNL A   1      45.532  34.376  28.154  1.00  0.00     0.031 A 
ATOM     87  C   UNL A   1      46.346  33.640  30.299  1.00  0.00     0.131 A 
ATOM     88  C   UNL A   1      45.887  35.690  28.502  1.00  0.00     0.055 A 
ATOM     89  C   UNL A   1      46.638  34.955  30.665  1.00  0.00     0.041 A 
ATOM     90  F   UNL A   1      46.613  32.675  31.195  1.00  0.00    -0.206 F 
ATOM     91  C   UNL A   1      46.420  35.988  29.759  1.00  0.00     0.022 A 
BRANCH  88  92
ATOM     92  S   UNL A   1      45.726  36.999  27.256  1.00  0.00     0.124 S 
ATOM     93  O   UNL A   1      46.647  36.546  26.218  1.00  0.00    -0.237 OA
ATOM     94  O   UNL A   1      44.307  36.938  26.919  1.00  0.00    -0.237 OA
ATOM     95  O   UNL A   1      46.141  38.206  27.969  1.00  0.00    -0.744 OA
ENDBRANCH  88  92
ENDBRANCH  62  85
ENDBRANCH  36  37
ENDBRANCH  29  31
ENDBRANCH  28  29
ENDBRANCH  27  28
ENDBRANCH  26  27
ENDBRANCH  25  26
ENDBRANCH  24  25
ENDBRANCH   1  24
TORSDOF 24
ENDMDL
MODEL 2
REMARK VINA RESULT:      -9.9      2.720      8.539
REMARK SMILES N#C/C(=C/c1cccc(OC2CCCC2)c1)C(=O)OCCOCCOCCOC(=O)c1ccc(-c2c3nc(c(-c4cc(S(=O)(=O)[O-])ccc4F)c4ccc([nH]4)c(-c4cc(S(=O)(=O)[O-])ccc4F)c4nc(c(-c5cc(S(=O)(=O)[O-])ccc5F)c5ccc2[nH]5)C=C4)C=C3)cc1
REMARK SMILES IDX 23 1 22 2 21 3 20 4 19 5 17 6 18 7 3 8 4 9 2 10 1 11 5 12
REMARK SMILES IDX 6 13 16 14 7 15 9 16 8 17 10 18 11 19 12 20 15 21 13 22
REMARK SMILES IDX 14 23 24 24 25 25 26 26 27 27 28 28 29 29 30 30 31 31 32 32
REMARK SMILES IDX 93 33 33 34 92 35 34 36 35 37 36 38 86 39 37 40 91 41 85 42
REMARK SMILES IDX 87 43 38 44 90 45 84 46 83 47 39 49 71 50 51 51 70 52 52 53
REMARK SMILES IDX 55 54 69 55 88 56 53 57 54 58 68 60 89 61 56 62 40 63 41 64
REMARK SMILES IDX 49 65 42 66 48 67 50 68 47 69 43 70 44 71 45 72 46 73 72 74
REMARK SMILES IDX 73 75 81 76 74 77 80 78 82 79 79 80 75 81 76 82 77 83 78 84
REMARK SMILES IDX 57 85 58 86 66 87 59 88 65 89 67 90 64 91 60 92 61 93 62 94
REMARK SMILES IDX 63 95
REMARK H PARENT 87 48 55 59
REMARK Flexibility Score: inf
ROOT
ATOM      1  C   UNL A   1      35.134  24.079  25.676  1.00  0.00     0.188 C 
ENDROOT
BRANCH   1   2
ATOM      2  O   UNL A   1      34.094  25.042  25.579  1.00  0.00    -0.376 OA
BRANCH   2   3
ATOM      3  C   UNL A   1      32.924  24.827  26.352  1.00  0.00     0.202 C 
BRANCH   3   4
ATOM      4  C   UNL A   1      32.326  23.418  26.358  1.00  0.00     0.261 C 
BRANCH   4   5
ATOM      5  O   UNL A   1      31.051  23.308  25.679  1.00  0.00    -0.459 OA
BRANCH   5   6
ATOM      6  C   UNL A   1      30.639  24.378  24.949  1.00  0.00     0.348 C 
ATOM      7  O   UNL A   1      30.052  25.349  25.405  1.00  0.00    -0.245 OA
BRANCH   6   8
ATOM      8  C   UNL A   1      31.086  24.309  23.513  1.00  0.00     0.137 C 
ATOM      9  C   UNL A   1      31.340  25.398  22.762  1.00  0.00     0.035 C 
BRANCH   8  10
ATOM     10  C   UNL A   1      31.618  22.931  23.157  1.00  0.00     0.107 C 
ATOM     11  N   UNL A   1      32.060  21.788  22.862  1.00  0.00    -0.192 NA
ENDBRANCH   8  10
BRANCH   9  12
ATOM     12  C   UNL A   1      31.123  26.802  23.172  1.00  0.00    -0.020 A 
ATOM     13  C   UNL A   1      29.873  27.384  22.944  1.00  0.00     0.008 A 
ATOM     14  C   UNL A   1      32.142  27.587  23.752  1.00  0.00     0.054 A 
ATOM     15  C   UNL A   1      29.627  28.696  23.350  1.00  0.00     0.004 A 
ATOM     16  C   UNL A   1      31.891  28.880  24.211  1.00  0.00     0.120 A 
ATOM     17  C   UNL A   1      30.626  29.430  23.992  1.00  0.00     0.046 A 
BRANCH  16  18
ATOM     18  O   UNL A   1      32.767  29.710  24.851  1.00  0.00    -0.490 OA
BRANCH  18  19
ATOM     19  C   UNL A   1      33.224  29.498  26.188  1.00  0.00     0.173 C 
ATOM     20  C   UNL A   1      34.491  28.678  26.355  1.00  0.00     0.045 C 
ATOM     21  C   UNL A   1      33.404  30.760  27.032  1.00  0.00     0.045 C 
ATOM     22  C   UNL A   1      35.023  29.069  27.723  1.00  0.00     0.004 C 
ATOM     23  C   UNL A   1      34.685  30.548  27.843  1.00  0.00     0.004 C 
ENDBRANCH  18  19
ENDBRANCH  16  18
ENDBRANCH   9  12
ENDBRANCH   6   8
ENDBRANCH   5   6
ENDBRANCH   4   5
ENDBRANCH   3   4
ENDBRANCH   2   3
ENDBRANCH   1   2
BRANCH   1  24
ATOM     24  C   UNL A   1      35.603  23.361  24.386  1.00  0.00     0.188 C 
BRANCH  24  25
ATOM     25  O   UNL A   1      35.212  22.004  24.283  1.00  0.00    -0.376 OA
BRANCH  25  26
ATOM     26  C   UNL A   1      35.726  21.161  25.304  1.00  0.00     0.202 C 
BRANCH  26  27
ATOM     27  C   UNL A   1      37.196  20.736  25.134  1.00  0.00     0.261 C 
BRANCH  27  28
ATOM     28  O   UNL A   1      38.194  21.743  25.396  1.00  0.00    -0.460 OA
BRANCH  28  29
ATOM     29  C   UNL A   1      39.277  21.409  26.142  1.00  0.00     0.338 C 
ATOM     30  O   UNL A   1      39.831  20.324  26.155  1.00  0.00    -0.246 OA
BRANCH  29  31
ATOM     31  C   UNL A   1      39.842  22.674  26.694  1.00  0.00     0.060 A 
ATOM     32  C   UNL A   1      39.288  23.907  26.304  1.00  0.00     0.016 A 
ATOM     33  C   UNL A   1      40.826  22.642  27.686  1.00  0.00     0.016 A 
ATOM     34  C   UNL A   1      39.724  25.101  26.894  1.00  0.00     0.010 A 
ATOM     35  C   UNL A   1      41.289  23.839  28.247  1.00  0.00     0.010 A 
ATOM     36  C   UNL A   1      40.763  25.078  27.834  1.00  0.00    -0.014 A 
BRANCH  36  37
ATOM     37  C   UNL A   1      41.500  26.329  28.166  1.00  0.00     0.031 A 
ATOM     38  C   UNL A   1      40.735  27.398  28.903  1.00  0.00     0.074 A 
ATOM     39  C   UNL A   1      42.788  26.536  27.831  1.00  0.00     0.049 A 
ATOM     40  N   UNL A   1      41.096  28.608  29.241  1.00  0.00    -0.248 NA
ATOM     41  C   UNL A   1      39.361  27.045  29.300  1.00  0.00     0.031 C 
ATOM     42  C   UNL A   1      43.663  25.570  27.172  1.00  0.00     0.029 A 
ATOM     43  N   UNL A   1      43.582  27.648  27.999  1.00  0.00    -0.354 N 
ATOM     44  C   UNL A   1      39.994  29.162  29.885  1.00  0.00     0.074 A 
ATOM     45  C   UNL A   1      38.943  28.170  29.854  1.00  0.00     0.031 C 
ATOM     46  C   UNL A   1      44.871  26.136  26.982  1.00  0.00     0.029 A 
ATOM     47  C   UNL A   1      44.846  27.515  27.469  1.00  0.00     0.049 A 
ATOM     48  H   UNL A   1      43.275  28.464  28.457  1.00  0.00     0.167 HD
ATOM     49  C   UNL A   1      39.870  30.384  30.457  1.00  0.00     0.034 A 
ATOM     50  C   UNL A   1      45.852  28.412  27.369  1.00  0.00     0.034 A 
ATOM     51  C   UNL A   1      40.915  31.376  30.464  1.00  0.00     0.049 A 
ATOM     52  C   UNL A   1      45.652  29.812  27.914  1.00  0.00     0.074 A 
ATOM     53  C   UNL A   1      40.898  32.639  31.026  1.00  0.00     0.029 A 
ATOM     54  N   UNL A   1      42.159  31.225  29.864  1.00  0.00    -0.354 N 
ATOM     55  N   UNL A   1      44.611  30.323  28.532  1.00  0.00    -0.248 NA
ATOM     56  C   UNL A   1      46.768  30.755  27.748  1.00  0.00     0.031 C 
ATOM     57  C   UNL A   1      42.096  33.282  30.696  1.00  0.00     0.029 A 
ATOM     58  C   UNL A   1      42.899  32.388  30.006  1.00  0.00     0.049 A 
ATOM     59  H   UNL A   1      42.468  30.411  29.405  1.00  0.00     0.167 HD
ATOM     60  C   UNL A   1      44.967  31.630  28.864  1.00  0.00     0.074 A 
ATOM     61  C   UNL A   1      46.317  31.828  28.384  1.00  0.00     0.031 C 
ATOM     62  C   UNL A   1      44.245  32.579  29.517  1.00  0.00     0.034 A 
BRANCH  49  63
ATOM     63  C   UNL A   1      38.528  30.728  31.058  1.00  0.00     0.023 A 
ATOM     64  C   UNL A   1      37.630  31.602  30.418  1.00  0.00     0.031 A 
ATOM     65  C   UNL A   1      38.164  30.215  32.314  1.00  0.00     0.131 A 
ATOM     66  C   UNL A   1      36.452  31.994  31.071  1.00  0.00     0.055 A 
ATOM     67  C   UNL A   1      36.950  30.542  32.921  1.00  0.00     0.041 A 
ATOM     68  F   UNL A   1      38.994  29.400  32.987  1.00  0.00    -0.206 F 
ATOM     69  C   UNL A   1      36.093  31.449  32.306  1.00  0.00     0.022 A 
BRANCH  66  70
ATOM     70  S   UNL A   1      35.475  33.347  30.358  1.00  0.00     0.124 S 
ATOM     71  O   UNL A   1      34.127  32.785  30.382  1.00  0.00    -0.237 OA
ATOM     72  O   UNL A   1      35.727  34.442  31.287  1.00  0.00    -0.237 OA
ATOM     73  O   UNL A   1      36.047  33.516  29.023  1.00  0.00    -0.744 OA
ENDBRANCH  66  70
ENDBRANCH  49  63
BRANCH  50  74
ATOM     74  C   UNL A   1      47.135  28.055  26.689  1.00  0.00     0.023 A 
ATOM     75  C   UNL A   1      47.246  28.069  25.287  1.00  0.00     0.031 A 
ATOM     76  C   UNL A   1      48.246  27.610  27.428  1.00  0.00     0.131 A 
ATOM     77  C   UNL A   1      48.418  27.600  24.669  1.00  0.00     0.055 A 
ATOM     78  C   UNL A   1      49.430  27.201  26.812  1.00  0.00     0.041 A 
ATOM     79  F   UNL A   1      48.193  27.559  28.768  1.00  0.00    -0.206 F 
ATOM     80  C   UNL A   1      49.517  27.181  25.423  1.00  0.00     0.022 A 
BRANCH  77  81
ATOM     81  S   UNL A   1      48.452  27.448  22.861  1.00  0.00     0.124 S 
ATOM     82  O   UNL A   1      48.394  26.001  22.683  1.00  0.00    -0.237 OA
ATOM     83  O   UNL A   1      47.260  28.192  22.469  1.00  0.00    -0.237 OA
ATOM     84  O   UNL A   1      49.723  28.071  22.490  1.00  0.00    -0.744 OA
ENDBRANCH  77  81
ENDBRANCH  50  74
BRANCH  62  85
ATOM     85  C   UNL A   1      44.925  33.898  29.804  1.00  0.00     0.023 A 
ATOM     86  C   UNL A   1      44.828  34.995  28.929  1.00  0.00     0.031 A 
ATOM     87  C   UNL A   1      45.682  34.059  30.979  1.00  0.00     0.131 A 
ATOM     88  C   UNL A   1      45.520  36.184  29.217  1.00  0.00     0.055 A 
ATOM     89  C   UNL A   1      46.314  35.263  31.292  1.00  0.00     0.041 A 
ATOM     90  F   UNL A   1      45.812  33.046  31.852  1.00  0.00    -0.206 F 
ATOM     91  C   UNL A   1      46.246  36.331  30.401  1.00  0.00     0.022 A 
BRANCH  88  92
ATOM     92  S   UNL A   1      45.533  37.509  27.979  1.00  0.00     0.124 S 
ATOM     93  O   UNL A   1      45.862  38.678  28.789  1.00  0.00    -0.237 OA
ATOM     94  O   UNL A   1      46.569  37.064  27.053  1.00  0.00    -0.237 OA
ATOM     95  O   UNL A   1      44.174  37.491  27.441  1.00  0.00    -0.744 OA
ENDBRANCH  88  92
ENDBRANCH  62  85
ENDBRANCH  36  37
ENDBRANCH  29  31
ENDBRANCH  28  29
ENDBRANCH  27  28
ENDBRANCH  26  27
ENDBRANCH  25  26
ENDBRANCH  24  25
ENDBRANCH   1  24
TORSDOF 24
ENDMDL
MODEL 3
REMARK VINA RESULT:      -9.8      2.691      4.770
REMARK SMILES N#C/C(=C/c1cccc(OC2CCCC2)c1)C(=O)OCCOCCOCCOC(=O)c1ccc(-c2c3nc(c(-c4cc(S(=O)(=O)[O-])ccc4F)c4ccc([nH]4)c(-c4cc(S(=O)(=O)[O-])ccc4F)c4nc(c(-c5cc(S(=O)(=O)[O-])ccc5F)c5ccc2[nH]5)C=C4)C=C3)cc1
REMARK SMILES IDX 23 1 22 2 21 3 20 4 19 5 17 6 18 7 3 8 4 9 2 10 1 11 5 12
REMARK SMILES IDX 6 13 16 14 7 15 9 16 8 17 10 18 11 19 12 20 15 21 13 22
REMARK SMILES IDX 14 23 24 24 25 25 26 26 27 27 28 28 29 29 30 30 31 31 32 32
REMARK SMILES IDX 93 33 33 34 92 35 34 36 35 37 36 38 86 39 37 40 91 41 85 42
REMARK SMILES IDX 87 43 38 44 90 45 84 46 83 47 39 49 71 50 51 51 70 52 52 53
REMARK SMILES IDX 55 54 69 55 88 56 53 57 54 58 68 60 89 61 56 62 40 63 41 64
REMARK SMILES IDX 49 65 42 66 48 67 50 68 47 69 43 70 44 71 45 72 46 73 72 74
REMARK SMILES IDX 73 75 81 76 74 77 80 78 82 79 79 80 75 81 76 82 77 83 78 84
REMARK SMILES IDX 57 85 58 86 66 87 59 88 65 89 67 90 64 91 60 92 61 93 62 94
REMARK SMILES IDX 63 95
REMARK H PARENT 87 48 55 59
REMARK Flexibility Score: inf
ROOT
ATOM      1  C   UNL A   1      35.824  24.018  25.243  1.00  0.00     0.188 C 
ENDROOT
BRANCH   1   2
ATOM      2  O   UNL A   1      34.908  25.101  25.171  1.00  0.00    -0.376 OA
BRANCH   2   3
ATOM      3  C   UNL A   1      33.716  25.006  25.934  1.00  0.00     0.202 C 
BRANCH   3   4
ATOM      4  C   UNL A   1      33.297  23.620  26.429  1.00  0.00     0.261 C 
BRANCH   4   5
ATOM      5  O   UNL A   1      32.209  23.023  25.683  1.00  0.00    -0.459 OA
BRANCH   5   6
ATOM      6  C   UNL A   1      31.416  23.859  24.962  1.00  0.00     0.348 C 
ATOM      7  O   UNL A   1      30.744  24.765  25.435  1.00  0.00    -0.245 OA
BRANCH   6   8
ATOM      8  C   UNL A   1      31.532  23.635  23.477  1.00  0.00     0.137 C 
ATOM      9  C   UNL A   1      31.643  24.635  22.582  1.00  0.00     0.035 C 
BRANCH   8  10
ATOM     10  C   UNL A   1      31.936  22.205  23.156  1.00  0.00     0.107 C 
ATOM     11  N   UNL A   1      32.270  21.019  22.891  1.00  0.00    -0.192 NA
ENDBRANCH   8  10
BRANCH   9  12
ATOM     12  C   UNL A   1      31.560  26.080  22.884  1.00  0.00    -0.020 A 
ATOM     13  C   UNL A   1      32.728  26.762  23.238  1.00  0.00     0.008 A 
ATOM     14  C   UNL A   1      30.340  26.788  22.864  1.00  0.00     0.054 A 
ATOM     15  C   UNL A   1      32.687  28.133  23.496  1.00  0.00     0.004 A 
ATOM     16  C   UNL A   1      30.296  28.168  23.067  1.00  0.00     0.120 A 
ATOM     17  C   UNL A   1      31.481  28.830  23.395  1.00  0.00     0.046 A 
BRANCH  16  18
ATOM     18  O   UNL A   1      29.195  28.974  23.002  1.00  0.00    -0.490 OA
BRANCH  18  19
ATOM     19  C   UNL A   1      29.235  30.330  22.555  1.00  0.00     0.173 C 
ATOM     20  C   UNL A   1      28.372  30.679  21.354  1.00  0.00     0.045 C 
ATOM     21  C   UNL A   1      28.948  31.386  23.622  1.00  0.00     0.045 C 
ATOM     22  C   UNL A   1      28.175  32.182  21.447  1.00  0.00     0.004 C 
ATOM     23  C   UNL A   1      28.083  32.451  22.943  1.00  0.00     0.004 C 
ENDBRANCH  18  19
ENDBRANCH  16  18
ENDBRANCH   9  12
ENDBRANCH   6   8
ENDBRANCH   5   6
ENDBRANCH   4   5
ENDBRANCH   3   4
ENDBRANCH   2   3
ENDBRANCH   1   2
BRANCH   1  24
ATOM     24  C   UNL A   1      36.209  23.282  23.936  1.00  0.00     0.188 C 
BRANCH  24  25
ATOM     25  O   UNL A   1      36.075  21.873  23.983  1.00  0.00    -0.376 OA
BRANCH  25  26
ATOM     26  C   UNL A   1      36.348  21.295  25.252  1.00  0.00     0.202 C 
BRANCH  26  27
ATOM     27  C   UNL A   1      37.732  20.638  25.397  1.00  0.00     0.261 C 
BRANCH  27  28
ATOM     28  O   UNL A   1      38.866  21.528  25.456  1.00  0.00    -0.460 OA
BRANCH  28  29
ATOM     29  C   UNL A   1      39.734  21.410  26.492  1.00  0.00     0.338 C 
ATOM     30  O   UNL A   1      40.264  20.380  26.869  1.00  0.00    -0.246 OA
BRANCH  29  31
ATOM     31  C   UNL A   1      40.149  22.789  26.880  1.00  0.00     0.060 A 
ATOM     32  C   UNL A   1      39.522  23.895  26.278  1.00  0.00     0.016 A 
ATOM     33  C   UNL A   1      41.061  22.993  27.919  1.00  0.00     0.016 A 
ATOM     34  C   UNL A   1      39.814  25.197  26.705  1.00  0.00     0.010 A 
ATOM     35  C   UNL A   1      41.381  24.296  28.319  1.00  0.00     0.010 A 
ATOM     36  C   UNL A   1      40.783  25.408  27.696  1.00  0.00    -0.014 A 
BRANCH  36  37
ATOM     37  C   UNL A   1      41.387  26.757  27.877  1.00  0.00     0.031 A 
ATOM     38  C   UNL A   1      42.764  26.972  27.302  1.00  0.00     0.074 A 
ATOM     39  C   UNL A   1      40.769  27.760  28.529  1.00  0.00     0.049 A 
ATOM     40  N   UNL A   1      43.556  28.008  27.385  1.00  0.00    -0.248 NA
ATOM     41  C   UNL A   1      43.322  25.846  26.535  1.00  0.00     0.031 C 
ATOM     42  C   UNL A   1      39.418  27.711  29.082  1.00  0.00     0.029 A 
ATOM     43  N   UNL A   1      41.212  29.025  28.840  1.00  0.00    -0.354 N 
ATOM     44  C   UNL A   1      44.708  27.658  26.686  1.00  0.00     0.074 A 
ATOM     45  C   UNL A   1      44.523  26.301  26.222  1.00  0.00     0.031 C 
ATOM     46  C   UNL A   1      39.147  28.890  29.675  1.00  0.00     0.029 A 
ATOM     47  C   UNL A   1      40.316  29.764  29.579  1.00  0.00     0.049 A 
ATOM     48  H   UNL A   1      42.091  29.370  28.560  1.00  0.00     0.167 HD
ATOM     49  C   UNL A   1      45.816  28.399  26.447  1.00  0.00     0.034 A 
ATOM     50  C   UNL A   1      40.439  30.991  30.132  1.00  0.00     0.034 A 
ATOM     51  C   UNL A   1      46.001  29.743  26.932  1.00  0.00     0.049 A 
ATOM     52  C   UNL A   1      41.732  31.759  29.948  1.00  0.00     0.074 A 
ATOM     53  C   UNL A   1      47.079  30.587  26.736  1.00  0.00     0.029 A 
ATOM     54  N   UNL A   1      45.096  30.433  27.728  1.00  0.00    -0.354 N 
ATOM     55  N   UNL A   1      42.810  31.424  29.276  1.00  0.00    -0.248 NA
ATOM     56  C   UNL A   1      41.821  33.076  30.599  1.00  0.00     0.031 C 
ATOM     57  C   UNL A   1      46.863  31.753  27.480  1.00  0.00     0.029 A 
ATOM     58  C   UNL A   1      45.610  31.675  28.065  1.00  0.00     0.049 A 
ATOM     59  H   UNL A   1      44.217  30.090  28.010  1.00  0.00     0.167 HD
ATOM     60  C   UNL A   1      43.683  32.506  29.389  1.00  0.00     0.074 A 
ATOM     61  C   UNL A   1      43.006  33.505  30.187  1.00  0.00     0.031 C 
ATOM     62  C   UNL A   1      44.929  32.664  28.870  1.00  0.00     0.034 A 
BRANCH  49  63
ATOM     63  C   UNL A   1      46.934  27.735  25.681  1.00  0.00     0.023 A 
ATOM     64  C   UNL A   1      47.225  28.074  24.347  1.00  0.00     0.031 A 
ATOM     65  C   UNL A   1      47.689  26.711  26.279  1.00  0.00     0.131 A 
ATOM     66  C   UNL A   1      48.186  27.343  23.633  1.00  0.00     0.055 A 
ATOM     67  C   UNL A   1      48.705  26.046  25.589  1.00  0.00     0.041 A 
ATOM     68  F   UNL A   1      47.439  26.324  27.540  1.00  0.00    -0.206 F 
ATOM     69  C   UNL A   1      48.947  26.350  24.254  1.00  0.00     0.022 A 
BRANCH  66  70
ATOM     70  S   UNL A   1      48.317  27.600  21.842  1.00  0.00     0.124 S 
ATOM     71  O   UNL A   1      48.420  26.227  21.352  1.00  0.00    -0.237 OA
ATOM     72  O   UNL A   1      47.075  28.297  21.531  1.00  0.00    -0.237 OA
ATOM     73  O   UNL A   1      49.533  28.397  21.697  1.00  0.00    -0.744 OA
ENDBRANCH  66  70
ENDBRANCH  49  63
BRANCH  50  74
ATOM     74  C   UNL A   1      39.337  31.576  30.956  1.00  0.00     0.023 A 
ATOM     75  C   UNL A   1      39.375  31.533  32.361  1.00  0.00     0.031 A 
ATOM     76  C   UNL A   1      38.185  32.111  30.350  1.00  0.00     0.131 A 
ATOM     77  C   UNL A   1      38.267  31.968  33.109  1.00  0.00     0.055 A 
ATOM     78  C   UNL A   1      37.111  32.595  31.098  1.00  0.00     0.041 A 
ATOM     79  F   UNL A   1      38.085  32.163  29.012  1.00  0.00    -0.206 F 
ATOM     80  C   UNL A   1      37.142  32.513  32.487  1.00  0.00     0.022 A 
BRANCH  77  81
ATOM     81  S   UNL A   1      38.273  31.716  34.906  1.00  0.00     0.124 S 
ATOM     82  O   UNL A   1      38.498  30.278  35.004  1.00  0.00    -0.237 OA
ATOM     83  O   UNL A   1      39.377  32.569  35.331  1.00  0.00    -0.237 OA
ATOM     84  O   UNL A   1      36.945  32.168  35.318  1.00  0.00    -0.744 OA
ENDBRANCH  77  81
ENDBRANCH  50  74
BRANCH  62  85
ATOM     85  C   UNL A   1      45.619  33.989  29.100  1.00  0.00     0.023 A 
ATOM     86  C   UNL A   1      45.377  35.110  28.285  1.00  0.00     0.031 A 
ATOM     87  C   UNL A   1      46.534  34.131  30.160  1.00  0.00     0.131 A 
ATOM     88  C   UNL A   1      46.081  36.305  28.511  1.00  0.00     0.055 A 
ATOM     89  C   UNL A   1      47.182  35.340  30.419  1.00  0.00     0.041 A 
ATOM     90  F   UNL A   1      46.807  33.096  30.971  1.00  0.00    -0.206 F 
ATOM     91  C   UNL A   1      46.967  36.432  29.584  1.00  0.00     0.022 A 
BRANCH  88  92
ATOM     92  S   UNL A   1      45.892  37.668  27.329  1.00  0.00     0.124 S 
ATOM     93  O   UNL A   1      46.844  37.301  26.286  1.00  0.00    -0.237 OA
ATOM     94  O   UNL A   1      44.481  37.574  26.966  1.00  0.00    -0.237 OA
ATOM     95  O   UNL A   1      46.252  38.851  28.109  1.00  0.00    -0.744 OA
ENDBRANCH  88  92
ENDBRANCH  62  85
ENDBRANCH  36  37
ENDBRANCH  29  31
ENDBRANCH  28  29
ENDBRANCH  27  28
ENDBRANCH  26  27
ENDBRANCH  25  26
ENDBRANCH  24  25
ENDBRANCH   1  24
TORSDOF 24
ENDMDL
