MODEL 1
REMARK VINA RESULT:     -11.5      0.000      0.000
REMARK SMILES O=C(OCCOCCOCCOC(=O)c1ccc(-c2c3nc(c(-c4cc(S(=O)(=O)[O-])ccc4F)c4ccc([nH]4)c(-c4cc(S(=O)(=O)[O-])ccc4F)c4nc(c(-c5cc(S(=O)(=O)[O-])ccc5F)c5ccc2[nH]5)C=C4)C=C3)cc1)C1=Cc2cc(S(F)(F)(F)(F)F)ccc2O[C@@H]1C(F)(F)F
REMARK SMILES IDX 8 1 7 2 6 3 5 4 4 5 3 6 2 7 1 8 78 9 79 10 93 11 80 12 92 13
REMARK SMILES IDX 81 14 91 15 82 16 90 17 89 18 94 19 95 20 96 21 97 22 83 23
REMARK SMILES IDX 84 24 85 25 86 26 87 27 88 28 9 29 10 30 11 31 12 32 13 33
REMARK SMILES IDX 14 34 15 35 16 36 77 37 17 38 76 39 18 40 19 41 20 42 70 43
REMARK SMILES IDX 21 44 75 45 69 46 71 47 22 48 74 49 68 50 67 51 23 53 55 54
REMARK SMILES IDX 35 55 54 56 36 57 39 58 53 59 72 60 37 61 38 62 52 64 73 65
REMARK SMILES IDX 40 66 24 67 25 68 33 69 26 70 32 71 34 72 31 73 27 74 28 75
REMARK SMILES IDX 29 76 30 77 56 78 57 79 65 80 58 81 64 82 66 83 63 84 59 85
REMARK SMILES IDX 60 86 61 87 62 88 41 89 42 90 50 91 43 92 49 93 51 94 48 95
REMARK SMILES IDX 44 96 45 97 46 98 47 99
REMARK H PARENT 71 52 39 63
REMARK Flexibility Score: inf
ROOT
ATOM      1  C   UNL A   1      32.701  29.747  26.939  1.00  0.00     0.188 C 
ENDROOT
BRANCH   1   2
ATOM      2  C   UNL A   1      32.748  28.229  26.895  1.00  0.00     0.188 C 
BRANCH   2   3
ATOM      3  O   UNL A   1      32.823  27.797  25.544  1.00  0.00    -0.376 OA
BRANCH   3   4
ATOM      4  C   UNL A   1      33.922  26.910  25.391  1.00  0.00     0.202 C 
BRANCH   4   5
ATOM      5  C   UNL A   1      33.792  26.167  24.070  1.00  0.00     0.261 C 
BRANCH   5   6
ATOM      6  O   UNL A   1      34.060  24.788  24.275  1.00  0.00    -0.460 OA
BRANCH   6   7
ATOM      7  C   UNL A   1      33.191  23.807  23.729  1.00  0.00     0.338 C 
ATOM      8  O   UNL A   1      33.473  23.254  22.620  1.00  0.00    -0.246 OA
BRANCH   7   9
ATOM      9  C   UNL A   1      31.922  23.417  24.471  1.00  0.00     0.087 C 
ATOM     10  C   UNL A   1      31.766  22.147  24.930  1.00  0.00     0.027 C 
ATOM     11  C   UNL A   1      30.828  24.448  24.699  1.00  0.00     0.316 C 
ATOM     12  C   UNL A   1      32.861  21.116  24.702  1.00  0.00     0.019 A 
ATOM     13  O   UNL A   1      34.391  22.873  25.166  1.00  0.00    -0.475 OA
ATOM     14  C   UNL A   1      32.567  19.817  24.323  1.00  0.00     0.036 A 
ATOM     15  C   UNL A   1      34.109  21.500  24.937  1.00  0.00     0.128 A 
ATOM     16  C   UNL A   1      33.642  18.913  24.499  1.00  0.00     0.107 A 
ATOM     17  C   UNL A   1      35.131  20.582  24.961  1.00  0.00     0.048 A 
ATOM     18  C   UNL A   1      34.904  19.269  24.654  1.00  0.00     0.028 A 
BRANCH  11  19
ATOM     19  C   UNL A   1      30.599  24.622  26.191  1.00  0.00     0.430 C 
ATOM     20  F   UNL A   1      31.770  24.605  26.824  1.00  0.00    -0.167 F 
ATOM     21  F   UNL A   1      29.992  25.784  26.413  1.00  0.00    -0.167 F 
ATOM     22  F   UNL A   1      29.837  23.629  26.642  1.00  0.00    -0.167 F 
ENDBRANCH  11  19
BRANCH  16  23
ATOM     23  S   UNL A   1      33.259  17.143  24.515  1.00  0.00     0.310 S 
ATOM     24  F   UNL A   1      34.714  16.764  25.019  1.00  0.00    -0.094 F 
ATOM     25  F   UNL A   1      33.815  17.042  23.044  1.00  0.00    -0.094 F 
ATOM     26  F   UNL A   1      32.926  15.624  24.524  1.00  0.00    -0.094 F 
ATOM     27  F   UNL A   1      32.837  17.237  26.035  1.00  0.00    -0.094 F 
ATOM     28  F   UNL A   1      33.696  18.662  24.559  1.00  0.00    -0.094 F 
ENDBRANCH  16  23
ENDBRANCH   7   9
ENDBRANCH   6   7
ENDBRANCH   5   6
ENDBRANCH   4   5
ENDBRANCH   3   4
ENDBRANCH   2   3
ENDBRANCH   1   2
BRANCH   1  29
ATOM     29  O   UNL A   1      31.676  30.215  26.075  1.00  0.00    -0.376 OA
BRANCH  29  30
ATOM     30  C   UNL A   1      31.376  31.568  26.386  1.00  0.00     0.202 C 
BRANCH  30  31
ATOM     31  C   UNL A   1      32.535  32.180  27.156  1.00  0.00     0.261 C 
BRANCH  31  32
ATOM     32  O   UNL A   1      32.312  33.573  27.320  1.00  0.00    -0.460 OA
BRANCH  32  33
ATOM     33  C   UNL A   1      33.063  34.304  28.278  1.00  0.00     0.338 C 
ATOM     34  O   UNL A   1      32.760  35.510  28.537  1.00  0.00    -0.246 OA
BRANCH  33  35
ATOM     35  C   UNL A   1      34.229  33.643  28.994  1.00  0.00     0.060 A 
ATOM     36  C   UNL A   1      34.076  32.622  29.916  1.00  0.00     0.016 A 
ATOM     37  C   UNL A   1      35.434  34.066  28.629  1.00  0.00     0.016 A 
ATOM     38  C   UNL A   1      35.261  32.302  30.620  1.00  0.00     0.010 A 
ATOM     39  C   UNL A   1      36.560  33.609  29.270  1.00  0.00     0.010 A 
ATOM     40  C   UNL A   1      36.476  32.642  30.234  1.00  0.00    -0.014 A 
BRANCH  40  41
ATOM     41  C   UNL A   1      37.716  31.994  30.827  1.00  0.00     0.031 A 
ATOM     42  C   UNL A   1      38.307  31.020  30.019  1.00  0.00     0.074 A 
ATOM     43  C   UNL A   1      38.138  32.293  32.112  1.00  0.00     0.049 A 
ATOM     44  N   UNL A   1      39.360  30.254  30.306  1.00  0.00    -0.248 NA
ATOM     45  C   UNL A   1      37.840  30.677  28.668  1.00  0.00     0.031 C 
ATOM     46  C   UNL A   1      37.553  33.279  32.930  1.00  0.00     0.029 A 
ATOM     47  N   UNL A   1      39.166  31.712  32.821  1.00  0.00    -0.354 N 
ATOM     48  C   UNL A   1      39.643  29.454  29.276  1.00  0.00     0.074 A 
ATOM     49  C   UNL A   1      38.666  29.711  28.209  1.00  0.00     0.031 C 
ATOM     50  C   UNL A   1      38.212  33.286  34.119  1.00  0.00     0.029 A 
ATOM     51  C   UNL A   1      39.220  32.304  34.063  1.00  0.00     0.049 A 
ATOM     52  H   UNL A   1      39.760  30.997  32.496  1.00  0.00     0.167 HD
ATOM     53  C   UNL A   1      40.679  28.523  29.183  1.00  0.00     0.034 A 
ATOM     54  C   UNL A   1      40.089  32.016  35.104  1.00  0.00     0.034 A 
ATOM     55  C   UNL A   1      41.575  28.267  30.208  1.00  0.00     0.049 A 
ATOM     56  C   UNL A   1      41.089  31.044  35.032  1.00  0.00     0.074 A 
ATOM     57  C   UNL A   1      42.629  27.336  30.128  1.00  0.00     0.029 A 
ATOM     58  N   UNL A   1      41.614  28.841  31.459  1.00  0.00    -0.354 N 
ATOM     59  N   UNL A   1      41.396  30.273  33.987  1.00  0.00    -0.248 NA
ATOM     60  C   UNL A   1      41.994  30.708  36.138  1.00  0.00     0.031 C 
ATOM     61  C   UNL A   1      43.289  27.343  31.317  1.00  0.00     0.029 A 
ATOM     62  C   UNL A   1      42.656  28.277  32.160  1.00  0.00     0.049 A 
ATOM     63  H   UNL A   1      41.001  29.535  31.795  1.00  0.00     0.167 HD
ATOM     64  C   UNL A   1      42.424  29.477  34.291  1.00  0.00     0.074 A 
ATOM     65  C   UNL A   1      42.818  29.740  35.682  1.00  0.00     0.031 C 
ATOM     66  C   UNL A   1      43.050  28.545  33.461  1.00  0.00     0.034 A 
BRANCH  53  67
ATOM     67  C   UNL A   1      40.832  27.748  27.884  1.00  0.00     0.023 A 
ATOM     68  C   UNL A   1      40.384  26.439  27.809  1.00  0.00     0.031 A 
ATOM     69  C   UNL A   1      41.473  28.316  26.871  1.00  0.00     0.131 A 
ATOM     70  C   UNL A   1      40.920  25.712  26.720  1.00  0.00     0.055 A 
ATOM     71  C   UNL A   1      41.848  27.574  25.776  1.00  0.00     0.041 A 
ATOM     72  F   UNL A   1      41.757  29.615  26.915  1.00  0.00    -0.206 F 
ATOM     73  C   UNL A   1      41.491  26.260  25.663  1.00  0.00     0.022 A 
BRANCH  70  74
ATOM     74  S   UNL A   1      40.816  23.906  26.781  1.00  0.00     0.124 S 
ATOM     75  O   UNL A   1      39.374  23.468  26.511  1.00  0.00    -0.237 OA
ATOM     76  O   UNL A   1      41.738  23.306  25.717  1.00  0.00    -0.237 OA
ATOM     77  O   UNL A   1      41.298  23.359  28.327  1.00  0.00    -0.744 OA
ENDBRANCH  70  74
ENDBRANCH  53  67
BRANCH  54  78
ATOM     78  C   UNL A   1      39.946  32.804  36.396  1.00  0.00     0.023 A 
ATOM     79  C   UNL A   1      39.220  32.287  37.456  1.00  0.00     0.031 A 
ATOM     80  C   UNL A   1      40.606  33.951  36.507  1.00  0.00     0.131 A 
ATOM     81  C   UNL A   1      39.014  33.206  38.512  1.00  0.00     0.055 A 
ATOM     82  C   UNL A   1      40.463  34.734  37.627  1.00  0.00     0.041 A 
ATOM     83  F   UNL A   1      41.413  34.345  35.526  1.00  0.00    -0.206 F 
ATOM     84  C   UNL A   1      39.712  34.312  38.689  1.00  0.00     0.022 A 
BRANCH  81  85
ATOM     85  S   UNL A   1      37.701  32.839  39.702  1.00  0.00     0.124 S 
ATOM     86  O   UNL A   1      36.356  32.775  38.976  1.00  0.00    -0.237 OA
ATOM     87  O   UNL A   1      37.982  31.493  40.374  1.00  0.00    -0.237 OA
ATOM     88  O   UNL A   1      37.650  34.069  40.891  1.00  0.00    -0.744 OA
ENDBRANCH  81  85
ENDBRANCH  54  78
BRANCH  66  89
ATOM     89  C   UNL A   1      44.236  27.777  34.021  1.00  0.00     0.023 A 
ATOM     90  C   UNL A   1      44.126  26.491  34.523  1.00  0.00     0.031 A 
ATOM     91  C   UNL A   1      45.410  28.394  33.961  1.00  0.00     0.131 A 
ATOM     92  C   UNL A   1      45.280  26.042  35.209  1.00  0.00     0.055 A 
ATOM     93  C   UNL A   1      46.525  27.835  34.537  1.00  0.00     0.041 A 
ATOM     94  F   UNL A   1      45.508  29.566  33.339  1.00  0.00    -0.206 F 
ATOM     95  C   UNL A   1      46.476  26.591  35.103  1.00  0.00     0.022 A 
BRANCH  92  96
ATOM     96  S   UNL A   1      45.102  24.618  36.312  1.00  0.00     0.124 S 
ATOM     97  O   UNL A   1      44.774  23.372  35.488  1.00  0.00    -0.237 OA
ATOM     98  O   UNL A   1      46.412  24.395  37.073  1.00  0.00    -0.237 OA
ATOM     99  O   UNL A   1      43.839  24.913  37.426  1.00  0.00    -0.744 OA
ENDBRANCH  92  96
ENDBRANCH  66  89
ENDBRANCH  40  41
ENDBRANCH  33  35
ENDBRANCH  32  33
ENDBRANCH  31  32
ENDBRANCH  30  31
ENDBRANCH  29  30
ENDBRANCH   1  29
TORSDOF 22
ENDMDL
MODEL 2
REMARK VINA RESULT:     -11.4      1.554      2.075
REMARK SMILES O=C(OCCOCCOCCOC(=O)c1ccc(-c2c3nc(c(-c4cc(S(=O)(=O)[O-])ccc4F)c4ccc([nH]4)c(-c4cc(S(=O)(=O)[O-])ccc4F)c4nc(c(-c5cc(S(=O)(=O)[O-])ccc5F)c5ccc2[nH]5)C=C4)C=C3)cc1)C1=Cc2cc(S(F)(F)(F)(F)F)ccc2O[C@@H]1C(F)(F)F
REMARK SMILES IDX 8 1 7 2 6 3 5 4 4 5 3 6 2 7 1 8 78 9 79 10 93 11 80 12 92 13
REMARK SMILES IDX 81 14 91 15 82 16 90 17 89 18 94 19 95 20 96 21 97 22 83 23
REMARK SMILES IDX 84 24 85 25 86 26 87 27 88 28 9 29 10 30 11 31 12 32 13 33
REMARK SMILES IDX 14 34 15 35 16 36 77 37 17 38 76 39 18 40 19 41 20 42 70 43
REMARK SMILES IDX 21 44 75 45 69 46 71 47 22 48 74 49 68 50 67 51 23 53 55 54
REMARK SMILES IDX 35 55 54 56 36 57 39 58 53 59 72 60 37 61 38 62 52 64 73 65
REMARK SMILES IDX 40 66 24 67 25 68 33 69 26 70 32 71 34 72 31 73 27 74 28 75
REMARK SMILES IDX 29 76 30 77 56 78 57 79 65 80 58 81 64 82 66 83 63 84 59 85
REMARK SMILES IDX 60 86 61 87 62 88 41 89 42 90 50 91 43 92 49 93 51 94 48 95
REMARK SMILES IDX 44 96 45 97 46 98 47 99
REMARK H PARENT 71 52 39 63
REMARK Flexibility Score: inf
ROOT
ATOM      1  C   UNL A   1      33.265  29.146  25.402  1.00  0.00     0.188 C 
ENDROOT
BRANCH   1   2
ATOM      2  C   UNL A   1      33.516  27.967  24.477  1.00  0.00     0.188 C 
BRANCH   2   3
ATOM      3  O   UNL A   1      32.274  27.451  24.022  1.00  0.00    -0.376 OA
BRANCH   3   4
ATOM      4  C   UNL A   1      32.446  26.106  23.599  1.00  0.00     0.202 C 
BRANCH   4   5
ATOM      5  C   UNL A   1      32.815  25.242  24.795  1.00  0.00     0.261 C 
BRANCH   5   6
ATOM      6  O   UNL A   1      33.024  23.905  24.367  1.00  0.00    -0.460 OA
BRANCH   6   7
ATOM      7  C   UNL A   1      33.272  22.884  25.322  1.00  0.00     0.338 C 
ATOM      8  O   UNL A   1      32.310  22.395  25.994  1.00  0.00    -0.246 OA
BRANCH   7   9
ATOM      9  C   UNL A   1      34.688  22.375  25.541  1.00  0.00     0.087 C 
ATOM     10  C   UNL A   1      34.990  21.074  25.287  1.00  0.00     0.027 C 
ATOM     11  C   UNL A   1      35.766  23.321  26.043  1.00  0.00     0.316 C 
ATOM     12  C   UNL A   1      33.910  20.128  24.784  1.00  0.00     0.019 A 
ATOM     13  O   UNL A   1      33.158  21.947  23.454  1.00  0.00    -0.475 OA
ATOM     14  C   UNL A   1      33.793  18.836  25.270  1.00  0.00     0.036 A 
ATOM     15  C   UNL A   1      33.119  20.574  23.817  1.00  0.00     0.128 A 
ATOM     16  C   UNL A   1      32.993  17.991  24.464  1.00  0.00     0.107 A 
ATOM     17  C   UNL A   1      32.264  19.721  23.162  1.00  0.00     0.048 A 
ATOM     18  C   UNL A   1      32.139  18.416  23.551  1.00  0.00     0.028 A 
BRANCH  11  19
ATOM     19  C   UNL A   1      36.890  23.397  25.023  1.00  0.00     0.430 C 
ATOM     20  F   UNL A   1      37.505  22.219  24.953  1.00  0.00    -0.167 F 
ATOM     21  F   UNL A   1      36.387  23.706  23.832  1.00  0.00    -0.167 F 
ATOM     22  F   UNL A   1      37.762  24.331  25.392  1.00  0.00    -0.167 F 
ENDBRANCH  11  19
BRANCH  16  23
ATOM     23  S   UNL A   1      33.152  16.204  24.700  1.00  0.00     0.310 S 
ATOM     24  F   UNL A   1      34.471  16.367  25.566  1.00  0.00    -0.094 F 
ATOM     25  F   UNL A   1      34.077  16.149  23.426  1.00  0.00    -0.094 F 
ATOM     26  F   UNL A   1      33.285  14.667  24.898  1.00  0.00    -0.094 F 
ATOM     27  F   UNL A   1      32.340  16.299  26.053  1.00  0.00    -0.094 F 
ATOM     28  F   UNL A   1      33.101  17.779  24.576  1.00  0.00    -0.094 F 
ENDBRANCH  16  23
ENDBRANCH   7   9
ENDBRANCH   6   7
ENDBRANCH   5   6
ENDBRANCH   4   5
ENDBRANCH   3   4
ENDBRANCH   2   3
ENDBRANCH   1   2
BRANCH   1  29
ATOM     29  O   UNL A   1      31.879  29.229  25.700  1.00  0.00    -0.376 OA
BRANCH  29  30
ATOM     30  C   UNL A   1      31.515  30.590  25.880  1.00  0.00     0.202 C 
BRANCH  30  31
ATOM     31  C   UNL A   1      32.563  31.287  26.731  1.00  0.00     0.261 C 
BRANCH  31  32
ATOM     32  O   UNL A   1      32.162  32.628  26.973  1.00  0.00    -0.460 OA
BRANCH  32  33
ATOM     33  C   UNL A   1      32.965  33.474  27.783  1.00  0.00     0.338 C 
ATOM     34  O   UNL A   1      32.584  34.659  28.036  1.00  0.00    -0.246 OA
BRANCH  33  35
ATOM     35  C   UNL A   1      34.279  32.961  28.347  1.00  0.00     0.060 A 
ATOM     36  C   UNL A   1      35.509  33.522  28.043  1.00  0.00     0.016 A 
ATOM     37  C   UNL A   1      34.175  31.963  29.216  1.00  0.00     0.016 A 
ATOM     38  C   UNL A   1      36.614  32.763  28.496  1.00  0.00     0.010 A 
ATOM     39  C   UNL A   1      35.298  31.356  29.724  1.00  0.00     0.010 A 
ATOM     40  C   UNL A   1      36.547  31.821  29.418  1.00  0.00    -0.014 A 
BRANCH  40  41
ATOM     41  C   UNL A   1      37.792  31.283  30.105  1.00  0.00     0.031 A 
ATOM     42  C   UNL A   1      38.496  30.329  29.368  1.00  0.00     0.074 A 
ATOM     43  C   UNL A   1      38.114  31.653  31.400  1.00  0.00     0.049 A 
ATOM     44  N   UNL A   1      39.581  29.650  29.743  1.00  0.00    -0.248 NA
ATOM     45  C   UNL A   1      38.136  29.910  28.006  1.00  0.00     0.031 C 
ATOM     46  C   UNL A   1      37.414  32.621  32.147  1.00  0.00     0.029 A 
ATOM     47  N   UNL A   1      39.136  31.171  32.188  1.00  0.00    -0.354 N 
ATOM     48  C   UNL A   1      39.980  28.839  28.760  1.00  0.00     0.074 A 
ATOM     49  C   UNL A   1      39.053  28.991  27.631  1.00  0.00     0.031 C 
ATOM     50  C   UNL A   1      37.998  32.713  33.371  1.00  0.00     0.029 A 
ATOM     51  C   UNL A   1      39.073  31.805  33.409  1.00  0.00     0.049 A 
ATOM     52  H   UNL A   1      39.796  30.490  31.923  1.00  0.00     0.167 HD
ATOM     53  C   UNL A   1      41.082  27.983  28.761  1.00  0.00     0.034 A 
ATOM     54  C   UNL A   1      39.897  31.614  34.508  1.00  0.00     0.034 A 
ATOM     55  C   UNL A   1      41.931  27.825  29.845  1.00  0.00     0.049 A 
ATOM     56  C   UNL A   1      40.965  30.714  34.529  1.00  0.00     0.074 A 
ATOM     57  C   UNL A   1      43.050  26.970  29.859  1.00  0.00     0.029 A 
ATOM     58  N   UNL A   1      41.855  28.440  31.074  1.00  0.00    -0.354 N 
ATOM     59  N   UNL A   1      41.387  29.933  33.532  1.00  0.00    -0.248 NA
ATOM     60  C   UNL A   1      41.823  30.480  35.697  1.00  0.00     0.031 C 
ATOM     61  C   UNL A   1      43.635  27.062  31.083  1.00  0.00     0.029 A 
ATOM     62  C   UNL A   1      42.890  27.975  31.854  1.00  0.00     0.049 A 
ATOM     63  H   UNL A   1      41.176  29.099  31.349  1.00  0.00     0.167 HD
ATOM     64  C   UNL A   1      42.447  29.223  33.923  1.00  0.00     0.074 A 
ATOM     65  C   UNL A   1      42.739  29.559  35.324  1.00  0.00     0.031 C 
ATOM     66  C   UNL A   1      43.186  28.313  33.165  1.00  0.00     0.034 A 
BRANCH  53  67
ATOM     67  C   UNL A   1      41.366  27.179  27.503  1.00  0.00     0.023 A 
ATOM     68  C   UNL A   1      41.025  25.837  27.453  1.00  0.00     0.031 A 
ATOM     69  C   UNL A   1      42.018  27.761  26.504  1.00  0.00     0.131 A 
ATOM     70  C   UNL A   1      41.675  25.119  26.422  1.00  0.00     0.055 A 
ATOM     71  C   UNL A   1      42.508  27.015  25.459  1.00  0.00     0.041 A 
ATOM     72  F   UNL A   1      42.198  29.079  26.514  1.00  0.00    -0.206 F 
ATOM     73  C   UNL A   1      42.260  25.674  25.376  1.00  0.00     0.022 A 
BRANCH  70  74
ATOM     74  S   UNL A   1      41.707  23.313  26.545  1.00  0.00     0.124 S 
ATOM     75  O   UNL A   1      40.273  22.776  26.543  1.00  0.00    -0.237 OA
ATOM     76  O   UNL A   1      42.469  22.734  25.351  1.00  0.00    -0.237 OA
ATOM     77  O   UNL A   1      42.485  22.854  27.996  1.00  0.00    -0.744 OA
ENDBRANCH  70  74
ENDBRANCH  53  67
BRANCH  54  78
ATOM     78  C   UNL A   1      39.622  32.431  35.759  1.00  0.00     0.023 A 
ATOM     79  C   UNL A   1      38.933  31.873  36.823  1.00  0.00     0.031 A 
ATOM     80  C   UNL A   1      40.137  33.652  35.836  1.00  0.00     0.131 A 
ATOM     81  C   UNL A   1      38.587  32.803  37.832  1.00  0.00     0.055 A 
ATOM     82  C   UNL A   1      39.868  34.458  36.917  1.00  0.00     0.041 A 
ATOM     83  F   UNL A   1      40.919  34.101  34.858  1.00  0.00    -0.206 F 
ATOM     84  C   UNL A   1      39.142  33.992  37.977  1.00  0.00     0.022 A 
BRANCH  81  85
ATOM     85  S   UNL A   1      37.293  32.329  39.005  1.00  0.00     0.124 S 
ATOM     86  O   UNL A   1      35.945  32.876  38.529  1.00  0.00    -0.237 OA
ATOM     87  O   UNL A   1      37.220  30.802  39.096  1.00  0.00    -0.237 OA
ATOM     88  O   UNL A   1      37.657  32.974  40.547  1.00  0.00    -0.744 OA
ENDBRANCH  81  85
ENDBRANCH  54  78
BRANCH  66  89
ATOM     89  C   UNL A   1      44.387  27.650  33.820  1.00  0.00     0.023 A 
ATOM     90  C   UNL A   1      44.319  26.407  34.426  1.00  0.00     0.031 A 
ATOM     91  C   UNL A   1      45.534  28.314  33.738  1.00  0.00     0.131 A 
ATOM     92  C   UNL A   1      45.469  26.072  35.179  1.00  0.00     0.055 A 
ATOM     93  C   UNL A   1      46.655  27.857  34.388  1.00  0.00     0.041 A 
ATOM     94  F   UNL A   1      45.599  29.432  33.020  1.00  0.00    -0.206 F 
ATOM     95  C   UNL A   1      46.643  26.665  35.057  1.00  0.00     0.022 A 
BRANCH  92  96
ATOM     96  S   UNL A   1      45.321  24.739  36.395  1.00  0.00     0.124 S 
ATOM     97  O   UNL A   1      46.689  24.090  36.610  1.00  0.00    -0.237 OA
ATOM     98  O   UNL A   1      44.814  25.312  37.721  1.00  0.00    -0.237 OA
ATOM     99  O   UNL A   1      44.216  23.566  35.823  1.00  0.00    -0.744 OA
ENDBRANCH  92  96
ENDBRANCH  66  89
ENDBRANCH  40  41
ENDBRANCH  33  35
ENDBRANCH  32  33
ENDBRANCH  31  32
ENDBRANCH  30  31
ENDBRANCH  29  30
ENDBRANCH   1  29
TORSDOF 22
ENDMDL
MODEL 3
REMARK VINA RESULT:     -11.3      1.610      7.380
REMARK SMILES O=C(OCCOCCOCCOC(=O)c1ccc(-c2c3nc(c(-c4cc(S(=O)(=O)[O-])ccc4F)c4ccc([nH]4)c(-c4cc(S(=O)(=O)[O-])ccc4F)c4nc(c(-c5cc(S(=O)(=O)[O-])ccc5F)c5ccc2[nH]5)C=C4)C=C3)cc1)C1=Cc2cc(S(F)(F)(F)(F)F)ccc2O[C@@H]1C(F)(F)F
REMARK SMILES IDX 8 1 7 2 6 3 5 4 4 5 3 6 2 7 1 8 78 9 79 10 93 11 80 12 92 13
REMARK SMILES IDX 81 14 91 15 82 16 90 17 89 18 94 19 95 20 96 21 97 22 83 23
REMARK SMILES IDX 84 24 85 25 86 26 87 27 88 28 9 29 10 30 11 31 12 32 13 33
REMARK SMILES IDX 14 34 15 35 16 36 77 37 17 38 76 39 18 40 19 41 20 42 70 43
REMARK SMILES IDX 21 44 75 45 69 46 71 47 22 48 74 49 68 50 67 51 23 53 55 54
REMARK SMILES IDX 35 55 54 56 36 57 39 58 53 59 72 60 37 61 38 62 52 64 73 65
REMARK SMILES IDX 40 66 24 67 25 68 33 69 26 70 32 71 34 72 31 73 27 74 28 75
REMARK SMILES IDX 29 76 30 77 56 78 57 79 65 80 58 81 64 82 66 83 63 84 59 85
REMARK SMILES IDX 60 86 61 87 62 88 41 89 42 90 50 91 43 92 49 93 51 94 48 95
REMARK SMILES IDX 44 96 45 97 46 98 47 99
REMARK H PARENT 71 52 39 63
REMARK Flexibility Score: inf
ROOT
ATOM      1  C   UNL A   1      32.865  30.167  26.446  1.00  0.00     0.188 C 
ENDROOT
BRANCH   1   2
ATOM      2  C   UNL A   1      33.342  28.981  25.624  1.00  0.00     0.188 C 
BRANCH   2   3
ATOM      3  O   UNL A   1      32.974  29.170  24.265  1.00  0.00    -0.376 OA
BRANCH   3   4
ATOM      4  C   UNL A   1      34.037  28.747  23.423  1.00  0.00     0.202 C 
BRANCH   4   5
ATOM      5  C   UNL A   1      33.488  27.846  22.328  1.00  0.00     0.261 C 
BRANCH   5   6
ATOM      6  O   UNL A   1      33.815  26.495  22.618  1.00  0.00    -0.460 OA
BRANCH   6   7
ATOM      7  C   UNL A   1      32.936  25.451  22.224  1.00  0.00     0.338 C 
ATOM      8  O   UNL A   1      33.267  24.663  21.283  1.00  0.00    -0.246 OA
BRANCH   7   9
ATOM      9  C   UNL A   1      31.600  25.276  22.927  1.00  0.00     0.087 C 
ATOM     10  C   UNL A   1      31.349  24.144  23.637  1.00  0.00     0.027 C 
ATOM     11  C   UNL A   1      30.544  26.366  22.836  1.00  0.00     0.316 C 
ATOM     12  C   UNL A   1      32.405  23.054  23.728  1.00  0.00     0.019 A 
ATOM     13  O   UNL A   1      33.983  24.820  23.922  1.00  0.00    -0.475 OA
ATOM     14  C   UNL A   1      32.077  21.713  23.619  1.00  0.00     0.036 A 
ATOM     15  C   UNL A   1      33.651  23.439  23.975  1.00  0.00     0.128 A 
ATOM     16  C   UNL A   1      33.090  20.836  24.074  1.00  0.00     0.107 A 
ATOM     17  C   UNL A   1      34.622  22.517  24.281  1.00  0.00     0.048 A 
ATOM     18  C   UNL A   1      34.353  21.176  24.250  1.00  0.00     0.028 A 
BRANCH  11  19
ATOM     19  C   UNL A   1      30.217  26.872  24.231  1.00  0.00     0.430 C 
ATOM     20  F   UNL A   1      29.990  28.183  24.184  1.00  0.00    -0.167 F 
ATOM     21  F   UNL A   1      29.134  26.250  24.686  1.00  0.00    -0.167 F 
ATOM     22  F   UNL A   1      31.243  26.629  25.043  1.00  0.00    -0.167 F 
ENDBRANCH  11  19
BRANCH  16  23
ATOM     23  S   UNL A   1      32.620  19.127  24.443  1.00  0.00     0.310 S 
ATOM     24  F   UNL A   1      34.116  18.616  24.314  1.00  0.00    -0.094 F 
ATOM     25  F   UNL A   1      32.470  18.867  22.896  1.00  0.00    -0.094 F 
ATOM     26  F   UNL A   1      32.212  17.660  24.757  1.00  0.00    -0.094 F 
ATOM     27  F   UNL A   1      32.912  19.366  25.977  1.00  0.00    -0.094 F 
ATOM     28  F   UNL A   1      33.146  20.585  24.131  1.00  0.00    -0.094 F 
ENDBRANCH  16  23
ENDBRANCH   7   9
ENDBRANCH   6   7
ENDBRANCH   5   6
ENDBRANCH   4   5
ENDBRANCH   3   4
ENDBRANCH   2   3
ENDBRANCH   1   2
BRANCH   1  29
ATOM     29  O   UNL A   1      31.708  30.728  25.843  1.00  0.00    -0.376 OA
BRANCH  29  30
ATOM     30  C   UNL A   1      31.376  31.943  26.498  1.00  0.00     0.202 C 
BRANCH  30  31
ATOM     31  C   UNL A   1      32.594  32.470  27.239  1.00  0.00     0.261 C 
BRANCH  31  32
ATOM     32  O   UNL A   1      32.367  33.817  27.627  1.00  0.00    -0.460 OA
BRANCH  32  33
ATOM     33  C   UNL A   1      33.297  34.479  28.471  1.00  0.00     0.338 C 
ATOM     34  O   UNL A   1      33.219  35.735  28.642  1.00  0.00    -0.246 OA
BRANCH  33  35
ATOM     35  C   UNL A   1      34.388  33.684  29.170  1.00  0.00     0.060 A 
ATOM     36  C   UNL A   1      34.130  32.704  30.114  1.00  0.00     0.016 A 
ATOM     37  C   UNL A   1      35.627  33.944  28.769  1.00  0.00     0.016 A 
ATOM     38  C   UNL A   1      35.282  32.244  30.794  1.00  0.00     0.010 A 
ATOM     39  C   UNL A   1      36.702  33.354  29.390  1.00  0.00     0.010 A 
ATOM     40  C   UNL A   1      36.520  32.421  30.372  1.00  0.00    -0.014 A 
BRANCH  40  41
ATOM     41  C   UNL A   1      37.683  31.627  30.946  1.00  0.00     0.031 A 
ATOM     42  C   UNL A   1      38.086  32.027  32.222  1.00  0.00     0.074 A 
ATOM     43  C   UNL A   1      38.334  30.663  30.196  1.00  0.00     0.049 A 
ATOM     44  N   UNL A   1      39.106  31.553  32.938  1.00  0.00    -0.248 NA
ATOM     45  C   UNL A   1      37.416  33.074  33.007  1.00  0.00     0.031 C 
ATOM     46  C   UNL A   1      37.929  30.249  28.912  1.00  0.00     0.029 A 
ATOM     47  N   UNL A   1      39.461  29.947  30.534  1.00  0.00    -0.354 N 
ATOM     48  C   UNL A   1      39.166  32.171  34.120  1.00  0.00     0.074 A 
ATOM     49  C   UNL A   1      38.083  33.162  34.179  1.00  0.00     0.031 C 
ATOM     50  C   UNL A   1      38.805  29.304  28.478  1.00  0.00     0.029 A 
ATOM     51  C   UNL A   1      39.772  29.112  29.483  1.00  0.00     0.049 A 
ATOM     52  H   UNL A   1      39.958  30.019  31.381  1.00  0.00     0.167 HD
ATOM     53  C   UNL A   1      40.079  31.944  35.152  1.00  0.00     0.034 A 
ATOM     54  C   UNL A   1      40.835  28.229  29.387  1.00  0.00     0.034 A 
ATOM     55  C   UNL A   1      41.116  31.029  35.072  1.00  0.00     0.049 A 
ATOM     56  C   UNL A   1      41.784  28.044  30.396  1.00  0.00     0.074 A 
ATOM     57  C   UNL A   1      42.041  30.784  36.105  1.00  0.00     0.029 A 
ATOM     58  N   UNL A   1      41.442  30.212  34.012  1.00  0.00    -0.354 N 
ATOM     59  N   UNL A   1      41.819  28.633  31.593  1.00  0.00    -0.248 NA
ATOM     60  C   UNL A   1      42.932  27.135  30.293  1.00  0.00     0.031 C 
ATOM     61  C   UNL A   1      42.917  29.839  35.671  1.00  0.00     0.029 A 
ATOM     62  C   UNL A   1      42.555  29.479  34.359  1.00  0.00     0.049 A 
ATOM     63  H   UNL A   1      40.961  30.161  33.154  1.00  0.00     0.167 HD
ATOM     64  C   UNL A   1      42.865  28.189  32.292  1.00  0.00     0.074 A 
ATOM     65  C   UNL A   1      43.601  27.224  31.463  1.00  0.00     0.031 C 
ATOM     66  C   UNL A   1      43.233  28.547  33.591  1.00  0.00     0.034 A 
BRANCH  53  67
ATOM     67  C   UNL A   1      39.926  32.747  36.434  1.00  0.00     0.023 A 
ATOM     68  C   UNL A   1      39.218  32.215  37.498  1.00  0.00     0.031 A 
ATOM     69  C   UNL A   1      40.404  33.985  36.474  1.00  0.00     0.131 A 
ATOM     70  C   UNL A   1      38.813  33.175  38.455  1.00  0.00     0.055 A 
ATOM     71  C   UNL A   1      40.078  34.827  37.510  1.00  0.00     0.041 A 
ATOM     72  F   UNL A   1      41.206  34.414  35.503  1.00  0.00    -0.206 F 
ATOM     73  C   UNL A   1      39.331  34.386  38.566  1.00  0.00     0.022 A 
BRANCH  70  74
ATOM     74  S   UNL A   1      37.494  32.714  39.606  1.00  0.00     0.124 S 
ATOM     75  O   UNL A   1      37.776  31.321  40.173  1.00  0.00    -0.237 OA
ATOM     76  O   UNL A   1      37.439  33.729  40.750  1.00  0.00    -0.237 OA
ATOM     77  O   UNL A   1      35.997  32.702  38.782  1.00  0.00    -0.744 OA
ENDBRANCH  70  74
ENDBRANCH  53  67
BRANCH  54  78
ATOM     78  C   UNL A   1      40.977  27.414  28.112  1.00  0.00     0.023 A 
ATOM     79  C   UNL A   1      40.534  26.103  28.065  1.00  0.00     0.031 A 
ATOM     80  C   UNL A   1      41.453  28.021  27.030  1.00  0.00     0.131 A 
ATOM     81  C   UNL A   1      40.904  25.416  26.884  1.00  0.00     0.055 A 
ATOM     82  C   UNL A   1      41.662  27.316  25.869  1.00  0.00     0.041 A 
ATOM     83  F   UNL A   1      41.730  29.321  27.072  1.00  0.00    -0.206 F 
ATOM     84  C   UNL A   1      41.302  26.001  25.770  1.00  0.00     0.022 A 
BRANCH  81  85
ATOM     85  S   UNL A   1      40.825  23.608  26.904  1.00  0.00     0.124 S 
ATOM     86  O   UNL A   1      41.663  23.047  25.753  1.00  0.00    -0.237 OA
ATOM     87  O   UNL A   1      41.374  23.087  28.235  1.00  0.00    -0.237 OA
ATOM     88  O   UNL A   1      39.199  23.106  26.723  1.00  0.00    -0.744 OA
ENDBRANCH  81  85
ENDBRANCH  54  78
BRANCH  66  89
ATOM     89  C   UNL A   1      44.452  27.872  34.198  1.00  0.00     0.023 A 
ATOM     90  C   UNL A   1      45.721  28.423  34.137  1.00  0.00     0.031 A 
ATOM     91  C   UNL A   1      44.227  26.731  34.839  1.00  0.00     0.131 A 
ATOM     92  C   UNL A   1      46.750  27.541  34.544  1.00  0.00     0.055 A 
ATOM     93  C   UNL A   1      45.272  25.986  35.330  1.00  0.00     0.041 A 
ATOM     94  F   UNL A   1      42.979  26.305  35.009  1.00  0.00    -0.206 F 
ATOM     95  C   UNL A   1      46.559  26.443  35.252  1.00  0.00     0.022 A 
BRANCH  92  96
ATOM     96  S   UNL A   1      48.446  27.946  34.058  1.00  0.00     0.124 S 
ATOM     97  O   UNL A   1      48.455  29.267  33.287  1.00  0.00    -0.237 OA
ATOM     98  O   UNL A   1      49.317  28.079  35.309  1.00  0.00    -0.237 OA
ATOM     99  O   UNL A   1      49.066  26.701  33.063  1.00  0.00    -0.744 OA
ENDBRANCH  92  96
ENDBRANCH  66  89
ENDBRANCH  40  41
ENDBRANCH  33  35
ENDBRANCH  32  33
ENDBRANCH  31  32
ENDBRANCH  30  31
ENDBRANCH  29  30
ENDBRANCH   1  29
TORSDOF 22
ENDMDL
