MODEL 1
REMARK VINA RESULT:      -9.5      0.000      0.000
REMARK SMILES CCOc1cc(NC(=O)c2c(C(=O)OCCOCCOCCOC(=O)c3ccc(-c4c5nc(c(-c6cc(S(=O)(=O)[O-])ccc6F)c6ccc([nH]6)c(-c6cc(S(=O)(=O)[O-])ccc6F)c6nc(c(-c7cc(S(=O)(=O)[O-])ccc7F)c7ccc4[nH]7)C=C6)C=C5)cc3)cnn2C)ccc1OC(F)F
REMARK SMILES IDX 18 1 17 2 16 3 15 4 14 5 12 6 13 7 11 8 10 9 91 10 89 11
REMARK SMILES IDX 90 12 92 13 8 14 7 15 9 17 6 18 4 19 5 20 95 21 94 22 93 23
REMARK SMILES IDX 3 24 2 25 1 26 96 27 97 28 98 29 99 30 19 31 20 32 21 33
REMARK SMILES IDX 22 34 23 35 24 36 25 37 26 38 27 39 88 40 28 41 87 42 29 43
REMARK SMILES IDX 30 44 31 45 81 46 32 47 86 48 80 49 82 50 33 51 85 52 79 53
REMARK SMILES IDX 78 54 34 56 66 57 46 58 65 59 47 60 50 61 64 62 83 63 48 64
REMARK SMILES IDX 49 65 63 67 84 68 51 69 35 70 36 71 44 72 37 73 43 74 45 75
REMARK SMILES IDX 42 76 38 77 39 78 40 79 41 80 67 81 68 82 76 83 69 84 75 85
REMARK SMILES IDX 77 86 74 87 70 88 71 89 72 90 73 91 52 92 53 93 61 94 54 95
REMARK SMILES IDX 60 96 62 97 59 98 55 99 56 100 57 101 58 102
REMARK H PARENT 7 16 82 55 50 66
REMARK Flexibility Score: inf
ROOT
ATOM      1  C   UNL A   1      35.392  31.683  28.062  1.00  0.00     0.188 C 
ENDROOT
BRANCH   1   2
ATOM      2  O   UNL A   1      33.992  31.588  27.813  1.00  0.00    -0.376 OA
BRANCH   2   3
ATOM      3  C   UNL A   1      33.472  30.496  27.073  1.00  0.00     0.202 C 
BRANCH   3   4
ATOM      4  C   UNL A   1      34.231  29.169  27.153  1.00  0.00     0.261 C 
BRANCH   4   5
ATOM      5  O   UNL A   1      34.212  28.425  25.925  1.00  0.00    -0.460 OA
BRANCH   5   6
ATOM      6  C   UNL A   1      33.070  28.545  25.184  1.00  0.00     0.342 C 
ATOM      7  O   UNL A   1      32.918  29.349  24.282  1.00  0.00    -0.246 OA
BRANCH   6   8
ATOM      8  C   UNL A   1      32.056  27.545  25.489  1.00  0.00     0.111 A 
ATOM      9  C   UNL A   1      31.481  26.544  24.701  1.00  0.00     0.140 A 
ATOM     10  N   UNL A   1      30.780  25.773  25.600  1.00  0.00    -0.262 N 
ATOM     11  C   UNL A   1      31.449  27.396  26.754  1.00  0.00     0.151 A 
ATOM     12  N   UNL A   1      30.613  26.360  26.797  1.00  0.00    -0.180 NA
ATOM     13  C   UNL A   1      30.340  24.403  25.468  1.00  0.00     0.174 C 
BRANCH   9  14
ATOM     14  C   UNL A   1      31.767  26.210  23.334  1.00  0.00     0.274 C 
ATOM     15  N   UNL A   1      32.539  25.136  22.961  1.00  0.00    -0.321 N 
ATOM     16  H   UNL A   1      32.757  25.170  22.002  1.00  0.00     0.170 HD
ATOM     17  O   UNL A   1      31.370  26.923  22.409  1.00  0.00    -0.267 OA
BRANCH  15  18
ATOM     18  C   UNL A   1      33.106  24.000  23.572  1.00  0.00     0.045 A 
ATOM     19  C   UNL A   1      34.498  22.751  25.146  1.00  0.00     0.163 A 
ATOM     20  C   UNL A   1      34.007  23.979  24.638  1.00  0.00     0.076 A 
ATOM     21  C   UNL A   1      34.017  21.534  24.652  1.00  0.00     0.168 A 
ATOM     22  C   UNL A   1      33.102  21.561  23.598  1.00  0.00     0.053 A 
ATOM     23  C   UNL A   1      32.668  22.772  23.057  1.00  0.00     0.030 A 
BRANCH  19  24
ATOM     24  O   UNL A   1      35.358  22.754  26.211  1.00  0.00    -0.490 OA
BRANCH  24  25
ATOM     25  C   UNL A   1      36.713  22.435  25.862  1.00  0.00     0.226 C 
ATOM     26  C   UNL A   1      37.398  23.698  25.362  1.00  0.00     0.049 C 
ENDBRANCH  24  25
ENDBRANCH  19  24
BRANCH  21  27
ATOM     27  O   UNL A   1      34.260  20.268  25.102  1.00  0.00    -0.431 OA
BRANCH  27  28
ATOM     28  C   UNL A   1      33.612  19.164  24.487  1.00  0.00     0.542 C 
ATOM     29  F   UNL A   1      34.440  18.094  24.455  1.00  0.00    -0.167 F 
ATOM     30  F   UNL A   1      32.473  18.852  25.136  1.00  0.00    -0.167 F 
ENDBRANCH  27  28
ENDBRANCH  21  27
ENDBRANCH  15  18
ENDBRANCH   9  14
ENDBRANCH   6   8
ENDBRANCH   5   6
ENDBRANCH   4   5
ENDBRANCH   3   4
ENDBRANCH   2   3
ENDBRANCH   1   2
BRANCH   1  31
ATOM     31  C   UNL A   1      36.058  33.052  28.310  1.00  0.00     0.188 C 
BRANCH  31  32
ATOM     32  O   UNL A   1      35.418  33.851  29.294  1.00  0.00    -0.376 OA
BRANCH  32  33
ATOM     33  C   UNL A   1      34.532  34.846  28.802  1.00  0.00     0.202 C 
BRANCH  33  34
ATOM     34  C   UNL A   1      33.216  34.932  29.581  1.00  0.00     0.261 C 
BRANCH  34  35
ATOM     35  O   UNL A   1      33.173  35.961  30.581  1.00  0.00    -0.460 OA
BRANCH  35  36
ATOM     36  C   UNL A   1      32.850  35.575  31.839  1.00  0.00     0.338 C 
ATOM     37  O   UNL A   1      31.759  35.660  32.370  1.00  0.00    -0.246 OA
BRANCH  36  38
ATOM     38  C   UNL A   1      34.022  34.878  32.407  1.00  0.00     0.060 A 
ATOM     39  C   UNL A   1      35.277  35.495  32.356  1.00  0.00     0.016 A 
ATOM     40  C   UNL A   1      33.874  33.618  32.996  1.00  0.00     0.016 A 
ATOM     41  C   UNL A   1      36.395  34.839  32.879  1.00  0.00     0.010 A 
ATOM     42  C   UNL A   1      34.995  32.958  33.503  1.00  0.00     0.010 A 
ATOM     43  C   UNL A   1      36.266  33.554  33.427  1.00  0.00    -0.014 A 
BRANCH  43  44
ATOM     44  C   UNL A   1      37.471  32.756  33.766  1.00  0.00     0.031 A 
ATOM     45  C   UNL A   1      38.243  33.116  35.006  1.00  0.00     0.074 A 
ATOM     46  C   UNL A   1      37.885  31.743  32.983  1.00  0.00     0.049 A 
ATOM     47  N   UNL A   1      39.350  32.603  35.477  1.00  0.00    -0.248 NA
ATOM     48  C   UNL A   1      37.689  34.211  35.819  1.00  0.00     0.031 C 
ATOM     49  C   UNL A   1      37.212  31.283  31.770  1.00  0.00     0.029 A 
ATOM     50  N   UNL A   1      38.984  30.927  33.089  1.00  0.00    -0.354 N 
ATOM     51  C   UNL A   1      39.624  33.306  36.646  1.00  0.00     0.074 A 
ATOM     52  C   UNL A   1      38.588  34.307  36.787  1.00  0.00     0.031 C 
ATOM     53  C   UNL A   1      37.921  30.271  31.237  1.00  0.00     0.029 A 
ATOM     54  C   UNL A   1      39.113  30.033  32.050  1.00  0.00     0.049 A 
ATOM     55  H   UNL A   1      39.621  30.976  33.838  1.00  0.00     0.167 HD
ATOM     56  C   UNL A   1      40.642  33.130  37.524  1.00  0.00     0.034 A 
ATOM     57  C   UNL A   1      40.090  29.145  31.779  1.00  0.00     0.034 A 
ATOM     58  C   UNL A   1      41.686  32.149  37.359  1.00  0.00     0.049 A 
ATOM     59  C   UNL A   1      41.264  29.026  32.725  1.00  0.00     0.074 A 
ATOM     60  C   UNL A   1      42.756  31.879  38.195  1.00  0.00     0.029 A 
ATOM     61  N   UNL A   1      41.805  31.289  36.275  1.00  0.00    -0.354 N 
ATOM     62  N   UNL A   1      41.501  29.682  33.837  1.00  0.00    -0.248 NA
ATOM     63  C   UNL A   1      42.299  28.042  32.376  1.00  0.00     0.031 C 
ATOM     64  C   UNL A   1      43.555  30.904  37.586  1.00  0.00     0.029 A 
ATOM     65  C   UNL A   1      42.947  30.513  36.404  1.00  0.00     0.049 A 
ATOM     66  H   UNL A   1      41.170  31.238  35.524  1.00  0.00     0.167 HD
ATOM     67  C   UNL A   1      42.696  29.167  34.336  1.00  0.00     0.074 A 
ATOM     68  C   UNL A   1      43.126  28.141  33.408  1.00  0.00     0.031 C 
ATOM     69  C   UNL A   1      43.371  29.503  35.465  1.00  0.00     0.034 A 
BRANCH  56  70
ATOM     70  C   UNL A   1      40.693  34.061  38.710  1.00  0.00     0.023 A 
ATOM     71  C   UNL A   1      41.329  35.313  38.638  1.00  0.00     0.031 A 
ATOM     72  C   UNL A   1      40.137  33.671  39.941  1.00  0.00     0.131 A 
ATOM     73  C   UNL A   1      41.453  36.101  39.792  1.00  0.00     0.055 A 
ATOM     74  C   UNL A   1      40.200  34.492  41.068  1.00  0.00     0.041 A 
ATOM     75  F   UNL A   1      39.539  32.477  40.074  1.00  0.00    -0.206 F 
ATOM     76  C   UNL A   1      40.873  35.709  41.002  1.00  0.00     0.022 A 
BRANCH  73  77
ATOM     77  S   UNL A   1      42.501  37.580  39.727  1.00  0.00     0.124 S 
ATOM     78  O   UNL A   1      42.960  37.557  38.340  1.00  0.00    -0.237 OA
ATOM     79  O   UNL A   1      41.565  38.645  40.072  1.00  0.00    -0.237 OA
ATOM     80  O   UNL A   1      43.536  37.313  40.723  1.00  0.00    -0.744 OA
ENDBRANCH  73  77
ENDBRANCH  56  70
BRANCH  57  81
ATOM     81  C   UNL A   1      40.040  28.318  30.539  1.00  0.00     0.023 A 
ATOM     82  C   UNL A   1      40.770  28.678  29.394  1.00  0.00     0.031 A 
ATOM     83  C   UNL A   1      39.204  27.189  30.460  1.00  0.00     0.131 A 
ATOM     84  C   UNL A   1      40.618  27.942  28.208  1.00  0.00     0.055 A 
ATOM     85  C   UNL A   1      39.094  26.432  29.293  1.00  0.00     0.041 A 
ATOM     86  F   UNL A   1      38.481  26.807  31.524  1.00  0.00    -0.206 F 
ATOM     87  C   UNL A   1      39.794  26.815  28.153  1.00  0.00     0.022 A 
BRANCH  84  88
ATOM     88  S   UNL A   1      41.452  28.528  26.707  1.00  0.00     0.124 S 
ATOM     89  O   UNL A   1      42.429  29.462  27.254  1.00  0.00    -0.237 OA
ATOM     90  O   UNL A   1      41.989  27.289  26.154  1.00  0.00    -0.237 OA
ATOM     91  O   UNL A   1      40.372  29.137  25.931  1.00  0.00    -0.744 OA
ENDBRANCH  84  88
ENDBRANCH  57  81
BRANCH  69  92
ATOM     92  C   UNL A   1      44.622  28.716  35.779  1.00  0.00     0.023 A 
ATOM     93  C   UNL A   1      44.582  27.525  36.525  1.00  0.00     0.031 A 
ATOM     94  C   UNL A   1      45.872  29.173  35.326  1.00  0.00     0.131 A 
ATOM     95  C   UNL A   1      45.777  26.855  36.835  1.00  0.00     0.055 A 
ATOM     96  C   UNL A   1      47.051  28.474  35.593  1.00  0.00     0.041 A 
ATOM     97  F   UNL A   1      45.968  30.304  34.611  1.00  0.00    -0.206 F 
ATOM     98  C   UNL A   1      47.009  27.315  36.361  1.00  0.00     0.022 A 
BRANCH  95  99
ATOM     99  S   UNL A   1      45.711  25.413  37.934  1.00  0.00     0.124 S 
ATOM    100  O   UNL A   1      44.279  25.142  37.997  1.00  0.00    -0.237 OA
ATOM    101  O   UNL A   1      46.515  24.433  37.211  1.00  0.00    -0.237 OA
ATOM    102  O   UNL A   1      46.304  25.902  39.179  1.00  0.00    -0.744 OA
ENDBRANCH  95  99
ENDBRANCH  69  92
ENDBRANCH  43  44
ENDBRANCH  36  38
ENDBRANCH  35  36
ENDBRANCH  34  35
ENDBRANCH  33  34
ENDBRANCH  32  33
ENDBRANCH  31  32
ENDBRANCH   1  31
TORSDOF 26
ENDMDL
MODEL 2
REMARK VINA RESULT:      -8.6      2.511      2.851
REMARK SMILES CCOc1cc(NC(=O)c2c(C(=O)OCCOCCOCCOC(=O)c3ccc(-c4c5nc(c(-c6cc(S(=O)(=O)[O-])ccc6F)c6ccc([nH]6)c(-c6cc(S(=O)(=O)[O-])ccc6F)c6nc(c(-c7cc(S(=O)(=O)[O-])ccc7F)c7ccc4[nH]7)C=C6)C=C5)cc3)cnn2C)ccc1OC(F)F
REMARK SMILES IDX 18 1 17 2 16 3 15 4 14 5 12 6 13 7 11 8 10 9 91 10 89 11
REMARK SMILES IDX 90 12 92 13 8 14 7 15 9 17 6 18 4 19 5 20 95 21 94 22 93 23
REMARK SMILES IDX 3 24 2 25 1 26 96 27 97 28 98 29 99 30 19 31 20 32 21 33
REMARK SMILES IDX 22 34 23 35 24 36 25 37 26 38 27 39 88 40 28 41 87 42 29 43
REMARK SMILES IDX 30 44 31 45 81 46 32 47 86 48 80 49 82 50 33 51 85 52 79 53
REMARK SMILES IDX 78 54 34 56 66 57 46 58 65 59 47 60 50 61 64 62 83 63 48 64
REMARK SMILES IDX 49 65 63 67 84 68 51 69 35 70 36 71 44 72 37 73 43 74 45 75
REMARK SMILES IDX 42 76 38 77 39 78 40 79 41 80 67 81 68 82 76 83 69 84 75 85
REMARK SMILES IDX 77 86 74 87 70 88 71 89 72 90 73 91 52 92 53 93 61 94 54 95
REMARK SMILES IDX 60 96 62 97 59 98 55 99 56 100 57 101 58 102
REMARK H PARENT 7 16 82 55 50 66
REMARK Flexibility Score: inf
ROOT
ATOM      1  C   UNL A   1      34.915  30.832  27.927  1.00  0.00     0.188 C 
ENDROOT
BRANCH   1   2
ATOM      2  O   UNL A   1      33.635  30.911  27.306  1.00  0.00    -0.376 OA
BRANCH   2   3
ATOM      3  C   UNL A   1      33.162  29.839  26.508  1.00  0.00     0.202 C 
BRANCH   3   4
ATOM      4  C   UNL A   1      33.401  28.419  27.027  1.00  0.00     0.261 C 
BRANCH   4   5
ATOM      5  O   UNL A   1      33.883  27.516  26.020  1.00  0.00    -0.460 OA
BRANCH   5   6
ATOM      6  C   UNL A   1      33.479  27.791  24.744  1.00  0.00     0.342 C 
ATOM      7  O   UNL A   1      34.089  28.506  23.970  1.00  0.00    -0.246 OA
BRANCH   6   8
ATOM      8  C   UNL A   1      32.289  27.063  24.328  1.00  0.00     0.111 A 
ATOM      9  C   UNL A   1      32.088  26.125  23.311  1.00  0.00     0.140 A 
ATOM     10  N   UNL A   1      30.835  25.618  23.566  1.00  0.00    -0.262 N 
ATOM     11  C   UNL A   1      31.031  27.179  24.958  1.00  0.00     0.151 A 
ATOM     12  N   UNL A   1      30.126  26.351  24.440  1.00  0.00    -0.180 NA
ATOM     13  C   UNL A   1      30.260  24.364  23.135  1.00  0.00     0.174 C 
BRANCH   9  14
ATOM     14  C   UNL A   1      33.049  25.596  22.384  1.00  0.00     0.274 C 
ATOM     15  N   UNL A   1      33.582  24.333  22.485  1.00  0.00    -0.321 N 
ATOM     16  H   UNL A   1      34.338  24.216  21.864  1.00  0.00     0.170 HD
ATOM     17  O   UNL A   1      33.494  26.287  21.464  1.00  0.00    -0.267 OA
BRANCH  15  18
ATOM     18  C   UNL A   1      33.348  23.161  23.230  1.00  0.00     0.045 A 
ATOM     19  C   UNL A   1      33.422  21.677  25.171  1.00  0.00     0.163 A 
ATOM     20  C   UNL A   1      33.724  22.914  24.552  1.00  0.00     0.076 A 
ATOM     21  C   UNL A   1      32.659  20.714  24.501  1.00  0.00     0.168 A 
ATOM     22  C   UNL A   1      32.271  20.973  23.186  1.00  0.00     0.053 A 
ATOM     23  C   UNL A   1      32.624  22.167  22.556  1.00  0.00     0.030 A 
BRANCH  19  24
ATOM     24  O   UNL A   1      33.775  21.469  26.477  1.00  0.00    -0.490 OA
BRANCH  24  25
ATOM     25  C   UNL A   1      34.619  22.494  27.020  1.00  0.00     0.226 C 
ATOM     26  C   UNL A   1      36.056  22.213  26.604  1.00  0.00     0.049 C 
ENDBRANCH  24  25
ENDBRANCH  19  24
BRANCH  21  27
ATOM     27  O   UNL A   1      32.155  19.537  24.975  1.00  0.00    -0.431 OA
BRANCH  27  28
ATOM     28  C   UNL A   1      32.946  18.359  24.923  1.00  0.00     0.542 C 
ATOM     29  F   UNL A   1      34.227  18.668  24.618  1.00  0.00    -0.167 F 
ATOM     30  F   UNL A   1      32.894  17.693  26.094  1.00  0.00    -0.167 F 
ENDBRANCH  27  28
ENDBRANCH  21  27
ENDBRANCH  15  18
ENDBRANCH   9  14
ENDBRANCH   6   8
ENDBRANCH   5   6
ENDBRANCH   4   5
ENDBRANCH   3   4
ENDBRANCH   2   3
ENDBRANCH   1   2
BRANCH   1  31
ATOM     31  C   UNL A   1      35.857  32.052  27.951  1.00  0.00     0.188 C 
BRANCH  31  32
ATOM     32  O   UNL A   1      35.480  33.073  28.865  1.00  0.00    -0.376 OA
BRANCH  32  33
ATOM     33  C   UNL A   1      34.792  34.182  28.304  1.00  0.00     0.202 C 
BRANCH  33  34
ATOM     34  C   UNL A   1      33.446  34.470  28.975  1.00  0.00     0.261 C 
BRANCH  34  35
ATOM     35  O   UNL A   1      33.458  35.560  29.908  1.00  0.00    -0.460 OA
BRANCH  35  36
ATOM     36  C   UNL A   1      33.156  35.265  31.195  1.00  0.00     0.338 C 
ATOM     37  O   UNL A   1      32.066  35.355  31.726  1.00  0.00    -0.246 OA
BRANCH  36  38
ATOM     38  C   UNL A   1      34.354  34.655  31.807  1.00  0.00     0.060 A 
ATOM     39  C   UNL A   1      35.514  35.424  31.951  1.00  0.00     0.016 A 
ATOM     40  C   UNL A   1      34.323  33.327  32.243  1.00  0.00     0.016 A 
ATOM     41  C   UNL A   1      36.659  34.855  32.518  1.00  0.00     0.010 A 
ATOM     42  C   UNL A   1      35.473  32.756  32.793  1.00  0.00     0.010 A 
ATOM     43  C   UNL A   1      36.654  33.508  32.912  1.00  0.00    -0.014 A 
BRANCH  43  44
ATOM     44  C   UNL A   1      37.919  32.830  33.291  1.00  0.00     0.031 A 
ATOM     45  C   UNL A   1      38.449  33.029  34.685  1.00  0.00     0.074 A 
ATOM     46  C   UNL A   1      38.597  32.068  32.413  1.00  0.00     0.049 A 
ATOM     47  N   UNL A   1      39.554  32.586  35.228  1.00  0.00    -0.248 NA
ATOM     48  C   UNL A   1      37.618  33.845  35.584  1.00  0.00     0.031 C 
ATOM     49  C   UNL A   1      38.177  31.781  31.043  1.00  0.00     0.029 A 
ATOM     50  N   UNL A   1      39.793  31.406  32.544  1.00  0.00    -0.354 N 
ATOM     51  C   UNL A   1      39.549  33.063  36.534  1.00  0.00     0.074 A 
ATOM     52  C   UNL A   1      38.352  33.862  36.686  1.00  0.00     0.031 C 
ATOM     53  C   UNL A   1      39.109  31.008  30.456  1.00  0.00     0.029 A 
ATOM     54  C   UNL A   1      40.205  30.774  31.394  1.00  0.00     0.049 A 
ATOM     55  H   UNL A   1      40.308  31.387  33.384  1.00  0.00     0.167 HD
ATOM     56  C   UNL A   1      40.457  32.851  37.519  1.00  0.00     0.034 A 
ATOM     57  C   UNL A   1      41.344  30.103  31.127  1.00  0.00     0.034 A 
ATOM     58  C   UNL A   1      41.663  32.078  37.349  1.00  0.00     0.049 A 
ATOM     59  C   UNL A   1      42.386  29.953  32.213  1.00  0.00     0.074 A 
ATOM     60  C   UNL A   1      42.642  31.790  38.284  1.00  0.00     0.029 A 
ATOM     61  N   UNL A   1      42.066  31.485  36.160  1.00  0.00    -0.354 N 
ATOM     62  N   UNL A   1      42.360  30.391  33.451  1.00  0.00    -0.248 NA
ATOM     63  C   UNL A   1      43.607  29.214  31.863  1.00  0.00     0.031 C 
ATOM     64  C   UNL A   1      43.666  31.081  37.645  1.00  0.00     0.029 A 
ATOM     65  C   UNL A   1      43.294  30.863  36.328  1.00  0.00     0.049 A 
ATOM     66  H   UNL A   1      41.554  31.504  35.318  1.00  0.00     0.167 HD
ATOM     67  C   UNL A   1      43.547  29.953  34.034  1.00  0.00     0.074 A 
ATOM     68  C   UNL A   1      44.262  29.210  33.016  1.00  0.00     0.031 C 
ATOM     69  C   UNL A   1      44.002  30.138  35.300  1.00  0.00     0.034 A 
BRANCH  56  70
ATOM     70  C   UNL A   1      40.194  33.514  38.848  1.00  0.00     0.023 A 
ATOM     71  C   UNL A   1      39.194  33.049  39.720  1.00  0.00     0.031 A 
ATOM     72  C   UNL A   1      40.927  34.652  39.229  1.00  0.00     0.131 A 
ATOM     73  C   UNL A   1      38.905  33.759  40.895  1.00  0.00     0.055 A 
ATOM     74  C   UNL A   1      40.685  35.311  40.435  1.00  0.00     0.041 A 
ATOM     75  F   UNL A   1      41.878  35.154  38.426  1.00  0.00    -0.206 F 
ATOM     76  C   UNL A   1      39.659  34.875  41.270  1.00  0.00     0.022 A 
BRANCH  73  77
ATOM     77  S   UNL A   1      37.443  33.287  41.860  1.00  0.00     0.124 S 
ATOM     78  O   UNL A   1      37.998  32.285  42.766  1.00  0.00    -0.237 OA
ATOM     79  O   UNL A   1      37.046  34.551  42.469  1.00  0.00    -0.237 OA
ATOM     80  O   UNL A   1      36.522  32.764  40.853  1.00  0.00    -0.744 OA
ENDBRANCH  73  77
ENDBRANCH  56  70
BRANCH  57  81
ATOM     81  C   UNL A   1      41.598  29.552  29.765  1.00  0.00     0.023 A 
ATOM     82  C   UNL A   1      41.111  28.290  29.387  1.00  0.00     0.031 A 
ATOM     83  C   UNL A   1      42.391  30.257  28.841  1.00  0.00     0.131 A 
ATOM     84  C   UNL A   1      41.457  27.752  28.137  1.00  0.00     0.055 A 
ATOM     85  C   UNL A   1      42.691  29.739  27.580  1.00  0.00     0.041 A 
ATOM     86  F   UNL A   1      42.885  31.464  29.154  1.00  0.00    -0.206 F 
ATOM     87  C   UNL A   1      42.234  28.473  27.227  1.00  0.00     0.022 A 
BRANCH  84  88
ATOM     88  S   UNL A   1      40.945  26.056  27.747  1.00  0.00     0.124 S 
ATOM     89  O   UNL A   1      39.594  26.262  27.238  1.00  0.00    -0.237 OA
ATOM     90  O   UNL A   1      41.946  25.654  26.765  1.00  0.00    -0.237 OA
ATOM     91  O   UNL A   1      41.028  25.369  29.035  1.00  0.00    -0.744 OA
ENDBRANCH  84  88
ENDBRANCH  57  81
BRANCH  69  92
ATOM     92  C   UNL A   1      45.313  29.482  35.665  1.00  0.00     0.023 A 
ATOM     93  C   UNL A   1      46.541  30.151  35.525  1.00  0.00     0.031 A 
ATOM     94  C   UNL A   1      45.328  28.165  36.155  1.00  0.00     0.131 A 
ATOM     95  C   UNL A   1      47.739  29.483  35.829  1.00  0.00     0.055 A 
ATOM     96  C   UNL A   1      46.517  27.524  36.506  1.00  0.00     0.041 A 
ATOM     97  F   UNL A   1      44.184  27.480  36.308  1.00  0.00    -0.206 F 
ATOM     98  C   UNL A   1      47.732  28.179  36.333  1.00  0.00     0.022 A 
BRANCH  95  99
ATOM     99  S   UNL A   1      49.315  30.312  35.485  1.00  0.00     0.124 S 
ATOM    100  O   UNL A   1      49.011  31.052  34.265  1.00  0.00    -0.237 OA
ATOM    101  O   UNL A   1      49.513  31.116  36.687  1.00  0.00    -0.237 OA
ATOM    102  O   UNL A   1      50.257  29.206  35.320  1.00  0.00    -0.744 OA
ENDBRANCH  95  99
ENDBRANCH  69  92
ENDBRANCH  43  44
ENDBRANCH  36  38
ENDBRANCH  35  36
ENDBRANCH  34  35
ENDBRANCH  33  34
ENDBRANCH  32  33
ENDBRANCH  31  32
ENDBRANCH   1  31
TORSDOF 26
ENDMDL
MODEL 3
REMARK VINA RESULT:      -8.5      3.621      5.255
REMARK SMILES CCOc1cc(NC(=O)c2c(C(=O)OCCOCCOCCOC(=O)c3ccc(-c4c5nc(c(-c6cc(S(=O)(=O)[O-])ccc6F)c6ccc([nH]6)c(-c6cc(S(=O)(=O)[O-])ccc6F)c6nc(c(-c7cc(S(=O)(=O)[O-])ccc7F)c7ccc4[nH]7)C=C6)C=C5)cc3)cnn2C)ccc1OC(F)F
REMARK SMILES IDX 18 1 17 2 16 3 15 4 14 5 12 6 13 7 11 8 10 9 91 10 89 11
REMARK SMILES IDX 90 12 92 13 8 14 7 15 9 17 6 18 4 19 5 20 95 21 94 22 93 23
REMARK SMILES IDX 3 24 2 25 1 26 96 27 97 28 98 29 99 30 19 31 20 32 21 33
REMARK SMILES IDX 22 34 23 35 24 36 25 37 26 38 27 39 88 40 28 41 87 42 29 43
REMARK SMILES IDX 30 44 31 45 81 46 32 47 86 48 80 49 82 50 33 51 85 52 79 53
REMARK SMILES IDX 78 54 34 56 66 57 46 58 65 59 47 60 50 61 64 62 83 63 48 64
REMARK SMILES IDX 49 65 63 67 84 68 51 69 35 70 36 71 44 72 37 73 43 74 45 75
REMARK SMILES IDX 42 76 38 77 39 78 40 79 41 80 67 81 68 82 76 83 69 84 75 85
REMARK SMILES IDX 77 86 74 87 70 88 71 89 72 90 73 91 52 92 53 93 61 94 54 95
REMARK SMILES IDX 60 96 62 97 59 98 55 99 56 100 57 101 58 102
REMARK H PARENT 7 16 82 55 50 66
REMARK Flexibility Score: inf
ROOT
ATOM      1  C   UNL A   1      34.544  31.958  27.951  1.00  0.00     0.188 C 
ENDROOT
BRANCH   1   2
ATOM      2  O   UNL A   1      33.566  30.926  27.855  1.00  0.00    -0.376 OA
BRANCH   2   3
ATOM      3  C   UNL A   1      33.432  30.181  26.656  1.00  0.00     0.202 C 
BRANCH   3   4
ATOM      4  C   UNL A   1      32.881  28.758  26.770  1.00  0.00     0.261 C 
BRANCH   4   5
ATOM      5  O   UNL A   1      31.561  28.611  26.224  1.00  0.00    -0.460 OA
BRANCH   5   6
ATOM      6  C   UNL A   1      31.409  29.039  24.936  1.00  0.00     0.342 C 
ATOM      7  O   UNL A   1      30.861  30.079  24.618  1.00  0.00    -0.246 OA
BRANCH   6   8
ATOM      8  C   UNL A   1      32.059  28.191  23.947  1.00  0.00     0.111 A 
ATOM      9  C   UNL A   1      31.695  26.954  23.408  1.00  0.00     0.140 A 
ATOM     10  N   UNL A   1      32.564  26.777  22.357  1.00  0.00    -0.262 N 
ATOM     11  C   UNL A   1      33.266  28.522  23.294  1.00  0.00     0.151 A 
ATOM     12  N   UNL A   1      33.611  27.619  22.379  1.00  0.00    -0.180 NA
ATOM     13  C   UNL A   1      32.424  25.926  21.198  1.00  0.00     0.174 C 
BRANCH   9  14
ATOM     14  C   UNL A   1      30.522  26.172  23.684  1.00  0.00     0.274 C 
ATOM     15  N   UNL A   1      30.548  24.812  23.883  1.00  0.00    -0.321 N 
ATOM     16  H   UNL A   1      29.638  24.436  23.890  1.00  0.00     0.170 HD
ATOM     17  O   UNL A   1      29.402  26.688  23.698  1.00  0.00    -0.267 OA
BRANCH  15  18
ATOM     18  C   UNL A   1      31.515  23.807  24.079  1.00  0.00     0.045 A 
ATOM     19  C   UNL A   1      33.389  22.669  25.161  1.00  0.00     0.163 A 
ATOM     20  C   UNL A   1      32.473  23.747  25.094  1.00  0.00     0.076 A 
ATOM     21  C   UNL A   1      33.291  21.596  24.267  1.00  0.00     0.168 A 
ATOM     22  C   UNL A   1      32.321  21.653  23.266  1.00  0.00     0.053 A 
ATOM     23  C   UNL A   1      31.460  22.747  23.164  1.00  0.00     0.030 A 
BRANCH  19  24
ATOM     24  O   UNL A   1      34.300  22.617  26.181  1.00  0.00    -0.490 OA
BRANCH  24  25
ATOM     25  C   UNL A   1      35.528  23.302  25.898  1.00  0.00     0.226 C 
ATOM     26  C   UNL A   1      36.636  22.273  25.740  1.00  0.00     0.049 C 
ENDBRANCH  24  25
ENDBRANCH  19  24
BRANCH  21  27
ATOM     27  O   UNL A   1      33.982  20.419  24.262  1.00  0.00    -0.431 OA
BRANCH  27  28
ATOM     28  C   UNL A   1      33.509  19.320  25.027  1.00  0.00     0.542 C 
ATOM     29  F   UNL A   1      32.231  19.535  25.415  1.00  0.00    -0.167 F 
ATOM     30  F   UNL A   1      33.594  18.172  24.324  1.00  0.00    -0.167 F 
ENDBRANCH  27  28
ENDBRANCH  21  27
ENDBRANCH  15  18
ENDBRANCH   9  14
ENDBRANCH   6   8
ENDBRANCH   5   6
ENDBRANCH   4   5
ENDBRANCH   3   4
ENDBRANCH   2   3
ENDBRANCH   1   2
BRANCH   1  31
ATOM     31  C   UNL A   1      34.325  33.167  28.884  1.00  0.00     0.188 C 
BRANCH  31  32
ATOM     32  O   UNL A   1      35.264  33.272  29.945  1.00  0.00    -0.376 OA
BRANCH  32  33
ATOM     33  C   UNL A   1      35.328  32.161  30.827  1.00  0.00     0.202 C 
BRANCH  33  34
ATOM     34  C   UNL A   1      34.950  32.504  32.272  1.00  0.00     0.261 C 
BRANCH  34  35
ATOM     35  O   UNL A   1      35.888  32.056  33.263  1.00  0.00    -0.460 OA
BRANCH  35  36
ATOM     36  C   UNL A   1      36.998  32.812  33.437  1.00  0.00     0.338 C 
ATOM     37  O   UNL A   1      37.047  33.942  33.885  1.00  0.00    -0.246 OA
BRANCH  36  38
ATOM     38  C   UNL A   1      38.168  31.963  33.137  1.00  0.00     0.060 A 
ATOM     39  C   UNL A   1      38.157  30.619  33.528  1.00  0.00     0.016 A 
ATOM     40  C   UNL A   1      39.271  32.497  32.463  1.00  0.00     0.016 A 
ATOM     41  C   UNL A   1      39.265  29.809  33.260  1.00  0.00     0.010 A 
ATOM     42  C   UNL A   1      40.383  31.690  32.212  1.00  0.00     0.010 A 
ATOM     43  C   UNL A   1      40.396  30.348  32.629  1.00  0.00    -0.014 A 
BRANCH  43  44
ATOM     44  C   UNL A   1      41.658  29.570  32.554  1.00  0.00     0.031 A 
ATOM     45  C   UNL A   1      42.617  29.645  33.712  1.00  0.00     0.074 A 
ATOM     46  C   UNL A   1      41.960  28.825  31.475  1.00  0.00     0.049 A 
ATOM     47  N   UNL A   1      43.797  29.100  33.853  1.00  0.00    -0.248 NA
ATOM     48  C   UNL A   1      42.180  30.453  34.862  1.00  0.00     0.031 C 
ATOM     49  C   UNL A   1      41.106  28.653  30.301  1.00  0.00     0.029 A 
ATOM     50  N   UNL A   1      43.079  28.082  31.189  1.00  0.00    -0.354 N 
ATOM     51  C   UNL A   1      44.244  29.492  35.111  1.00  0.00     0.074 A 
ATOM     52  C   UNL A   1      43.224  30.353  35.671  1.00  0.00     0.031 C 
ATOM     53  C   UNL A   1      41.739  27.862  29.416  1.00  0.00     0.029 A 
ATOM     54  C   UNL A   1      43.054  27.499  29.943  1.00  0.00     0.049 A 
ATOM     55  H   UNL A   1      43.830  27.976  31.818  1.00  0.00     0.167 HD
ATOM     56  C   UNL A   1      45.397  29.161  35.743  1.00  0.00     0.034 A 
ATOM     57  C   UNL A   1      43.993  26.777  29.298  1.00  0.00     0.034 A 
ATOM     58  C   UNL A   1      46.421  28.326  35.164  1.00  0.00     0.049 A 
ATOM     59  C   UNL A   1      45.309  26.493  29.986  1.00  0.00     0.074 A 
ATOM     60  C   UNL A   1      47.620  27.918  35.724  1.00  0.00     0.029 A 
ATOM     61  N   UNL A   1      46.379  27.787  33.886  1.00  0.00    -0.354 N 
ATOM     62  N   UNL A   1      45.712  26.852  31.184  1.00  0.00    -0.248 NA
ATOM     63  C   UNL A   1      46.293  25.703  29.233  1.00  0.00     0.031 C 
ATOM     64  C   UNL A   1      48.328  27.189  34.762  1.00  0.00     0.029 A 
ATOM     65  C   UNL A   1      47.542  27.079  33.626  1.00  0.00     0.049 A 
ATOM     66  H   UNL A   1      45.629  27.891  33.254  1.00  0.00     0.167 HD
ATOM     67  C   UNL A   1      46.983  26.303  31.337  1.00  0.00     0.074 A 
ATOM     68  C   UNL A   1      47.277  25.584  30.114  1.00  0.00     0.031 C 
ATOM     69  C   UNL A   1      47.828  26.378  32.397  1.00  0.00     0.034 A 
BRANCH  56  70
ATOM     70  C   UNL A   1      45.623  29.752  37.112  1.00  0.00     0.023 A 
ATOM     71  C   UNL A   1      46.205  31.021  37.280  1.00  0.00     0.031 A 
ATOM     72  C   UNL A   1      45.292  29.018  38.264  1.00  0.00     0.131 A 
ATOM     73  C   UNL A   1      46.501  31.489  38.569  1.00  0.00     0.055 A 
ATOM     74  C   UNL A   1      45.522  29.521  39.546  1.00  0.00     0.041 A 
ATOM     75  F   UNL A   1      44.756  27.792  38.165  1.00  0.00    -0.206 F 
ATOM     76  C   UNL A   1      46.143  30.757  39.705  1.00  0.00     0.022 A 
BRANCH  73  77
ATOM     77  S   UNL A   1      47.484  33.004  38.740  1.00  0.00     0.124 S 
ATOM     78  O   UNL A   1      48.477  32.833  37.684  1.00  0.00    -0.237 OA
ATOM     79  O   UNL A   1      46.492  34.050  38.522  1.00  0.00    -0.237 OA
ATOM     80  O   UNL A   1      48.011  32.920  40.101  1.00  0.00    -0.744 OA
ENDBRANCH  73  77
ENDBRANCH  56  70
BRANCH  57  81
ATOM     81  C   UNL A   1      43.756  26.300  27.905  1.00  0.00     0.023 A 
ATOM     82  C   UNL A   1      43.280  25.004  27.650  1.00  0.00     0.031 A 
ATOM     83  C   UNL A   1      44.070  27.116  26.803  1.00  0.00     0.131 A 
ATOM     84  C   UNL A   1      43.171  24.547  26.327  1.00  0.00     0.055 A 
ATOM     85  C   UNL A   1      43.914  26.673  25.489  1.00  0.00     0.041 A 
ATOM     86  F   UNL A   1      44.535  28.361  26.992  1.00  0.00    -0.206 F 
ATOM     87  C   UNL A   1      43.473  25.376  25.245  1.00  0.00     0.022 A 
BRANCH  84  88
ATOM     88  S   UNL A   1      42.704  22.816  26.040  1.00  0.00     0.124 S 
ATOM     89  O   UNL A   1      43.022  22.653  24.626  1.00  0.00    -0.237 OA
ATOM     90  O   UNL A   1      43.570  22.109  26.977  1.00  0.00    -0.237 OA
ATOM     91  O   UNL A   1      41.280  22.788  26.367  1.00  0.00    -0.744 OA
ENDBRANCH  84  88
ENDBRANCH  57  81
BRANCH  69  92
ATOM     92  C   UNL A   1      49.131  25.619  32.295  1.00  0.00     0.023 A 
ATOM     93  C   UNL A   1      49.331  24.395  32.957  1.00  0.00     0.031 A 
ATOM     94  C   UNL A   1      50.186  26.137  31.525  1.00  0.00     0.131 A 
ATOM     95  C   UNL A   1      50.576  23.752  32.872  1.00  0.00     0.055 A 
ATOM     96  C   UNL A   1      51.405  25.466  31.402  1.00  0.00     0.041 A 
ATOM     97  F   UNL A   1      50.049  27.301  30.872  1.00  0.00    -0.206 F 
ATOM     98  C   UNL A   1      51.609  24.273  32.087  1.00  0.00     0.022 A 
BRANCH  95  99
ATOM     99  S   UNL A   1      50.860  22.261  33.866  1.00  0.00     0.124 S 
ATOM    100  O   UNL A   1      49.831  22.379  34.894  1.00  0.00    -0.237 OA
ATOM    101  O   UNL A   1      50.667  21.193  32.890  1.00  0.00    -0.237 OA
ATOM    102  O   UNL A   1      52.233  22.421  34.343  1.00  0.00    -0.744 OA
ENDBRANCH  95  99
ENDBRANCH  69  92
ENDBRANCH  43  44
ENDBRANCH  36  38
ENDBRANCH  35  36
ENDBRANCH  34  35
ENDBRANCH  33  34
ENDBRANCH  32  33
ENDBRANCH  31  32
ENDBRANCH   1  31
TORSDOF 26
ENDMDL
