MODEL 1
REMARK VINA RESULT:     -10.0      0.000      0.000
REMARK SMILES Cc1noc(C)c1CNc1ccc(Cl)c(C(=O)OCCOCCOCCOC(=O)c2ccc(-c3c4nc(c(-c5cc(S(=O)(=O)[O-])ccc5F)c5ccc([nH]5)c(-c5cc(S(=O)(=O)[O-])ccc5F)c5nc(c(-c6cc(S(=O)(=O)[O-])ccc6F)c6ccc3[nH]6)C=C5)C=C4)cc2)n1
REMARK SMILES IDX 22 1 21 2 20 3 19 4 18 5 16 6 17 7 15 8 10 9 11 10 93 11
REMARK SMILES IDX 12 12 13 13 14 14 9 15 8 17 7 18 1 19 2 20 3 21 4 22 5 23
REMARK SMILES IDX 6 24 23 25 24 26 25 27 26 28 27 29 28 30 29 31 30 32 31 33
REMARK SMILES IDX 92 34 32 35 91 36 33 37 34 38 35 39 85 40 36 41 90 42 84 43
REMARK SMILES IDX 86 44 37 45 89 46 83 47 82 48 38 50 70 51 50 52 69 53 51 54
REMARK SMILES IDX 54 55 68 56 87 57 52 58 53 59 67 61 88 62 55 63 39 64 40 65
REMARK SMILES IDX 48 66 41 67 47 68 49 69 46 70 42 71 43 72 44 73 45 74 71 75
REMARK SMILES IDX 72 76 80 77 73 78 79 79 81 80 78 81 74 82 75 83 76 84 77 85
REMARK SMILES IDX 56 86 57 87 65 88 58 89 64 90 66 91 63 92 59 93 60 94 61 95
REMARK SMILES IDX 62 96
REMARK H PARENT 9 16 86 49 54 60
REMARK Flexibility Score: inf
ROOT
ATOM      1  C   UNL A   1      34.065  23.232  26.667  1.00  0.00     0.188 C 
ENDROOT
BRANCH   1   2
ATOM      2  O   UNL A   1      32.808  23.181  26.003  1.00  0.00    -0.376 OA
BRANCH   2   3
ATOM      3  C   UNL A   1      31.615  23.406  26.746  1.00  0.00     0.202 C 
BRANCH   3   4
ATOM      4  C   UNL A   1      30.380  24.020  26.070  1.00  0.00     0.261 C 
BRANCH   4   5
ATOM      5  O   UNL A   1      30.664  25.213  25.324  1.00  0.00    -0.458 OA
BRANCH   5   6
ATOM      6  C   UNL A   1      30.839  25.049  23.987  1.00  0.00     0.358 C 
ATOM      7  O   UNL A   1      30.267  24.239  23.274  1.00  0.00    -0.244 OA
BRANCH   6   8
ATOM      8  C   UNL A   1      31.723  26.119  23.458  1.00  0.00     0.169 A 
ATOM      9  C   UNL A   1      31.869  28.401  23.023  1.00  0.00     0.127 A 
ATOM     10  C   UNL A   1      33.107  28.218  22.424  1.00  0.00     0.048 A 
ATOM     11  N   UNL A   1      31.192  27.375  23.558  1.00  0.00    -0.222 NA
ATOM     12  C   UNL A   1      33.667  26.939  22.375  1.00  0.00     0.027 A 
ATOM     13  C   UNL A   1      32.961  25.855  22.894  1.00  0.00     0.074 A 
ATOM     14  Cl  UNL A   1      33.649  24.283  22.770  1.00  0.00    -0.082 Cl
BRANCH   9  15
ATOM     15  N   UNL A   1      31.251  29.629  23.099  1.00  0.00    -0.366 N 
ATOM     16  H   UNL A   1      31.519  30.276  23.792  1.00  0.00     0.162 HD
BRANCH  15  17
ATOM     17  C   UNL A   1      30.198  29.967  22.148  1.00  0.00     0.156 C 
BRANCH  17  18
ATOM     18  C   UNL A   1      28.893  30.375  22.747  1.00  0.00     0.037 A 
ATOM     19  C   UNL A   1      29.071  32.998  22.786  1.00  0.00     0.071 C 
ATOM     20  C   UNL A   1      28.421  31.690  23.038  1.00  0.00     0.086 A 
ATOM     21  N   UNL A   1      27.218  31.661  23.619  1.00  0.00    -0.085 NA
ATOM     22  O   UNL A   1      26.862  30.332  23.688  1.00  0.00    -0.361 OA
ATOM     23  C   UNL A   1      27.856  29.565  23.171  1.00  0.00     0.138 A 
ATOM     24  C   UNL A   1      27.617  28.110  23.187  1.00  0.00     0.091 C 
ENDBRANCH  17  18
ENDBRANCH  15  17
ENDBRANCH   9  15
ENDBRANCH   6   8
ENDBRANCH   5   6
ENDBRANCH   4   5
ENDBRANCH   3   4
ENDBRANCH   2   3
ENDBRANCH   1   2
BRANCH   1  25
ATOM     25  C   UNL A   1      35.026  22.029  26.549  1.00  0.00     0.188 C 
BRANCH  25  26
ATOM     26  O   UNL A   1      35.119  21.452  25.268  1.00  0.00    -0.376 OA
BRANCH  26  27
ATOM     27  C   UNL A   1      36.375  21.374  24.616  1.00  0.00     0.202 C 
BRANCH  27  28
ATOM     28  C   UNL A   1      37.754  21.248  25.300  1.00  0.00     0.261 C 
BRANCH  28  29
ATOM     29  O   UNL A   1      38.387  22.426  25.804  1.00  0.00    -0.460 OA
BRANCH  29  30
ATOM     30  C   UNL A   1      39.534  22.242  26.498  1.00  0.00     0.338 C 
ATOM     31  O   UNL A   1      40.136  21.187  26.656  1.00  0.00    -0.246 OA
BRANCH  30  32
ATOM     32  C   UNL A   1      40.056  23.563  26.893  1.00  0.00     0.060 A 
ATOM     33  C   UNL A   1      40.746  23.685  28.106  1.00  0.00     0.016 A 
ATOM     34  C   UNL A   1      39.861  24.676  26.073  1.00  0.00     0.016 A 
ATOM     35  C   UNL A   1      41.234  24.928  28.510  1.00  0.00     0.010 A 
ATOM     36  C   UNL A   1      40.332  25.925  26.491  1.00  0.00     0.010 A 
ATOM     37  C   UNL A   1      41.003  26.062  27.721  1.00  0.00    -0.014 A 
BRANCH  37  38
ATOM     38  C   UNL A   1      41.330  27.412  28.247  1.00  0.00     0.031 A 
ATOM     39  C   UNL A   1      42.778  27.793  28.403  1.00  0.00     0.074 A 
ATOM     40  C   UNL A   1      40.358  28.285  28.576  1.00  0.00     0.049 A 
ATOM     41  N   UNL A   1      43.302  28.878  28.908  1.00  0.00    -0.248 NA
ATOM     42  C   UNL A   1      43.767  26.813  27.923  1.00  0.00     0.031 C 
ATOM     43  C   UNL A   1      38.923  28.045  28.427  1.00  0.00     0.029 A 
ATOM     44  N   UNL A   1      40.434  29.544  29.121  1.00  0.00    -0.354 N 
ATOM     45  C   UNL A   1      44.680  28.707  28.828  1.00  0.00     0.074 A 
ATOM     46  C   UNL A   1      44.909  27.406  28.238  1.00  0.00     0.031 C 
ATOM     47  C   UNL A   1      38.253  29.113  28.892  1.00  0.00     0.029 A 
ATOM     48  C   UNL A   1      39.205  30.092  29.416  1.00  0.00     0.049 A 
ATOM     49  H   UNL A   1      41.285  30.009  29.285  1.00  0.00     0.167 HD
ATOM     50  C   UNL A   1      45.660  29.559  29.214  1.00  0.00     0.034 A 
ATOM     51  C   UNL A   1      38.889  31.230  30.070  1.00  0.00     0.034 A 
ATOM     52  C   UNL A   1      45.413  30.853  29.801  1.00  0.00     0.049 A 
ATOM     53  C   UNL A   1      40.006  32.127  30.560  1.00  0.00     0.074 A 
ATOM     54  C   UNL A   1      46.335  31.812  30.182  1.00  0.00     0.029 A 
ATOM     55  N   UNL A   1      44.160  31.362  30.115  1.00  0.00    -0.354 N 
ATOM     56  N   UNL A   1      41.307  31.971  30.443  1.00  0.00    -0.248 NA
ATOM     57  C   UNL A   1      39.614  33.355  31.266  1.00  0.00     0.031 C 
ATOM     58  C   UNL A   1      45.648  32.858  30.805  1.00  0.00     0.029 A 
ATOM     59  C   UNL A   1      44.289  32.599  30.726  1.00  0.00     0.049 A 
ATOM     60  H   UNL A   1      43.305  30.910  29.929  1.00  0.00     0.167 HD
ATOM     61  C   UNL A   1      41.879  33.099  31.027  1.00  0.00     0.074 A 
ATOM     62  C   UNL A   1      40.787  33.933  31.479  1.00  0.00     0.031 C 
ATOM     63  C   UNL A   1      43.191  33.421  31.175  1.00  0.00     0.034 A 
BRANCH  50  64
ATOM     64  C   UNL A   1      47.090  29.099  29.073  1.00  0.00     0.023 A 
ATOM     65  C   UNL A   1      47.797  29.207  27.863  1.00  0.00     0.031 A 
ATOM     66  C   UNL A   1      47.761  28.556  30.184  1.00  0.00     0.131 A 
ATOM     67  C   UNL A   1      49.118  28.738  27.783  1.00  0.00     0.055 A 
ATOM     68  C   UNL A   1      49.097  28.159  30.117  1.00  0.00     0.041 A 
ATOM     69  F   UNL A   1      47.127  28.407  31.358  1.00  0.00    -0.206 F 
ATOM     70  C   UNL A   1      49.781  28.241  28.908  1.00  0.00     0.022 A 
BRANCH  67  71
ATOM     71  S   UNL A   1      49.928  28.691  26.161  1.00  0.00     0.124 S 
ATOM     72  O   UNL A   1      48.806  28.380  25.278  1.00  0.00    -0.237 OA
ATOM     73  O   UNL A   1      50.479  30.036  26.043  1.00  0.00    -0.237 OA
ATOM     74  O   UNL A   1      50.915  27.623  26.302  1.00  0.00    -0.744 OA
ENDBRANCH  67  71
ENDBRANCH  50  64
BRANCH  51  75
ATOM     75  C   UNL A   1      37.465  31.568  30.374  1.00  0.00     0.023 A 
ATOM     76  C   UNL A   1      36.661  32.256  29.450  1.00  0.00     0.031 A 
ATOM     77  C   UNL A   1      36.918  31.296  31.642  1.00  0.00     0.131 A 
ATOM     78  C   UNL A   1      35.387  32.710  29.830  1.00  0.00     0.055 A 
ATOM     79  C   UNL A   1      35.622  31.683  31.989  1.00  0.00     0.041 A 
ATOM     80  F   UNL A   1      37.644  30.657  32.573  1.00  0.00    -0.206 F 
ATOM     81  C   UNL A   1      34.855  32.411  31.086  1.00  0.00     0.022 A 
BRANCH  78  82
ATOM     82  S   UNL A   1      34.496  33.831  28.714  1.00  0.00     0.124 S 
ATOM     83  O   UNL A   1      35.475  34.897  28.526  1.00  0.00    -0.237 OA
ATOM     84  O   UNL A   1      34.247  32.981  27.556  1.00  0.00    -0.237 OA
ATOM     85  O   UNL A   1      33.309  34.204  29.481  1.00  0.00    -0.744 OA
ENDBRANCH  78  82
ENDBRANCH  51  75
BRANCH  63  86
ATOM     86  C   UNL A   1      43.511  34.759  31.802  1.00  0.00     0.023 A 
ATOM     87  C   UNL A   1      43.624  35.934  31.038  1.00  0.00     0.031 A 
ATOM     88  C   UNL A   1      43.706  34.856  33.192  1.00  0.00     0.131 A 
ATOM     89  C   UNL A   1      43.982  37.141  31.659  1.00  0.00     0.055 A 
ATOM     90  C   UNL A   1      43.993  36.073  33.813  1.00  0.00     0.041 A 
ATOM     91  F   UNL A   1      43.613  33.769  33.974  1.00  0.00    -0.206 F 
ATOM     92  C   UNL A   1      44.147  37.221  33.044  1.00  0.00     0.022 A 
BRANCH  89  93
ATOM     93  S   UNL A   1      44.322  38.589  30.621  1.00  0.00     0.124 S 
ATOM     94  O   UNL A   1      45.773  38.528  30.482  1.00  0.00    -0.237 OA
ATOM     95  O   UNL A   1      43.553  38.298  29.416  1.00  0.00    -0.237 OA
ATOM     96  O   UNL A   1      43.822  39.708  31.419  1.00  0.00    -0.744 OA
ENDBRANCH  89  93
ENDBRANCH  63  86
ENDBRANCH  37  38
ENDBRANCH  30  32
ENDBRANCH  29  30
ENDBRANCH  28  29
ENDBRANCH  27  28
ENDBRANCH  26  27
ENDBRANCH  25  26
ENDBRANCH   1  25
TORSDOF 23
ENDMDL
MODEL 2
REMARK VINA RESULT:     -10.0      2.983      8.209
REMARK SMILES Cc1noc(C)c1CNc1ccc(Cl)c(C(=O)OCCOCCOCCOC(=O)c2ccc(-c3c4nc(c(-c5cc(S(=O)(=O)[O-])ccc5F)c5ccc([nH]5)c(-c5cc(S(=O)(=O)[O-])ccc5F)c5nc(c(-c6cc(S(=O)(=O)[O-])ccc6F)c6ccc3[nH]6)C=C5)C=C4)cc2)n1
REMARK SMILES IDX 22 1 21 2 20 3 19 4 18 5 16 6 17 7 15 8 10 9 11 10 93 11
REMARK SMILES IDX 12 12 13 13 14 14 9 15 8 17 7 18 1 19 2 20 3 21 4 22 5 23
REMARK SMILES IDX 6 24 23 25 24 26 25 27 26 28 27 29 28 30 29 31 30 32 31 33
REMARK SMILES IDX 92 34 32 35 91 36 33 37 34 38 35 39 85 40 36 41 90 42 84 43
REMARK SMILES IDX 86 44 37 45 89 46 83 47 82 48 38 50 70 51 50 52 69 53 51 54
REMARK SMILES IDX 54 55 68 56 87 57 52 58 53 59 67 61 88 62 55 63 39 64 40 65
REMARK SMILES IDX 48 66 41 67 47 68 49 69 46 70 42 71 43 72 44 73 45 74 71 75
REMARK SMILES IDX 72 76 80 77 73 78 79 79 81 80 78 81 74 82 75 83 76 84 77 85
REMARK SMILES IDX 56 86 57 87 65 88 58 89 64 90 66 91 63 92 59 93 60 94 61 95
REMARK SMILES IDX 62 96
REMARK H PARENT 9 16 86 49 54 60
REMARK Flexibility Score: inf
ROOT
ATOM      1  C   UNL A   1      33.778  22.710  27.414  1.00  0.00     0.188 C 
ENDROOT
BRANCH   1   2
ATOM      2  O   UNL A   1      33.035  23.560  26.548  1.00  0.00    -0.376 OA
BRANCH   2   3
ATOM      3  C   UNL A   1      31.680  23.863  26.859  1.00  0.00     0.202 C 
BRANCH   3   4
ATOM      4  C   UNL A   1      30.693  24.252  25.748  1.00  0.00     0.261 C 
BRANCH   4   5
ATOM      5  O   UNL A   1      30.208  25.599  25.852  1.00  0.00    -0.458 OA
BRANCH   5   6
ATOM      6  C   UNL A   1      30.197  26.316  24.698  1.00  0.00     0.358 C 
ATOM      7  O   UNL A   1      29.291  26.363  23.881  1.00  0.00    -0.244 OA
BRANCH   6   8
ATOM      8  C   UNL A   1      31.399  27.185  24.633  1.00  0.00     0.169 A 
ATOM      9  C   UNL A   1      32.304  29.208  25.348  1.00  0.00     0.127 A 
ATOM     10  C   UNL A   1      33.427  28.996  24.560  1.00  0.00     0.048 A 
ATOM     11  N   UNL A   1      31.312  28.309  25.408  1.00  0.00    -0.222 NA
ATOM     12  C   UNL A   1      33.533  27.819  23.813  1.00  0.00     0.027 A 
ATOM     13  C   UNL A   1      32.494  26.890  23.836  1.00  0.00     0.074 A 
ATOM     14  Cl  UNL A   1      32.626  25.477  22.864  1.00  0.00    -0.082 Cl
BRANCH   9  15
ATOM     15  N   UNL A   1      32.126  30.347  26.102  1.00  0.00    -0.366 N 
ATOM     16  H   UNL A   1      31.622  31.108  25.735  1.00  0.00     0.162 HD
BRANCH  15  17
ATOM     17  C   UNL A   1      32.689  30.417  27.445  1.00  0.00     0.156 C 
BRANCH  17  18
ATOM     18  C   UNL A   1      33.900  31.278  27.595  1.00  0.00     0.037 A 
ATOM     19  C   UNL A   1      32.871  33.685  27.834  1.00  0.00     0.071 C 
ATOM     20  C   UNL A   1      33.970  32.695  27.742  1.00  0.00     0.086 A 
ATOM     21  N   UNL A   1      35.235  33.119  27.800  1.00  0.00    -0.085 NA
ATOM     22  O   UNL A   1      36.018  31.988  27.726  1.00  0.00    -0.361 OA
ATOM     23  C   UNL A   1      35.227  30.891  27.604  1.00  0.00     0.138 A 
ATOM     24  C   UNL A   1      35.932  29.600  27.505  1.00  0.00     0.091 C 
ENDBRANCH  17  18
ENDBRANCH  15  17
ENDBRANCH   9  15
ENDBRANCH   6   8
ENDBRANCH   5   6
ENDBRANCH   4   5
ENDBRANCH   3   4
ENDBRANCH   2   3
ENDBRANCH   1   2
BRANCH   1  25
ATOM     25  C   UNL A   1      34.427  21.434  26.837  1.00  0.00     0.188 C 
BRANCH  25  26
ATOM     26  O   UNL A   1      34.313  21.273  25.443  1.00  0.00    -0.376 OA
BRANCH  26  27
ATOM     27  C   UNL A   1      35.445  21.466  24.612  1.00  0.00     0.202 C 
BRANCH  27  28
ATOM     28  C   UNL A   1      36.909  21.131  24.971  1.00  0.00     0.261 C 
BRANCH  28  29
ATOM     29  O   UNL A   1      37.699  22.112  25.648  1.00  0.00    -0.460 OA
BRANCH  29  30
ATOM     30  C   UNL A   1      38.886  21.691  26.143  1.00  0.00     0.338 C 
ATOM     31  O   UNL A   1      39.357  20.563  26.062  1.00  0.00    -0.246 OA
BRANCH  30  32
ATOM     32  C   UNL A   1      39.621  22.864  26.648  1.00  0.00     0.060 A 
ATOM     33  C   UNL A   1      39.260  24.140  26.192  1.00  0.00     0.016 A 
ATOM     34  C   UNL A   1      40.667  22.707  27.560  1.00  0.00     0.016 A 
ATOM     35  C   UNL A   1      39.953  25.264  26.641  1.00  0.00     0.010 A 
ATOM     36  C   UNL A   1      41.374  23.834  27.990  1.00  0.00     0.010 A 
ATOM     37  C   UNL A   1      41.035  25.117  27.518  1.00  0.00    -0.014 A 
BRANCH  37  38
ATOM     38  C   UNL A   1      41.905  26.280  27.827  1.00  0.00     0.031 A 
ATOM     39  C   UNL A   1      41.333  27.412  28.637  1.00  0.00     0.074 A 
ATOM     40  C   UNL A   1      43.181  26.328  27.399  1.00  0.00     0.049 A 
ATOM     41  N   UNL A   1      41.873  28.557  28.964  1.00  0.00    -0.248 NA
ATOM     42  C   UNL A   1      39.964  27.226  29.146  1.00  0.00     0.031 C 
ATOM     43  C   UNL A   1      43.859  25.273  26.645  1.00  0.00     0.029 A 
ATOM     44  N   UNL A   1      44.130  27.314  27.522  1.00  0.00    -0.354 N 
ATOM     45  C   UNL A   1      40.907  29.236  29.698  1.00  0.00     0.074 A 
ATOM     46  C   UNL A   1      39.741  28.381  29.755  1.00  0.00     0.031 C 
ATOM     47  C   UNL A   1      45.106  25.679  26.353  1.00  0.00     0.029 A 
ATOM     48  C   UNL A   1      45.303  27.039  26.855  1.00  0.00     0.049 A 
ATOM     49  H   UNL A   1      43.985  28.139  28.039  1.00  0.00     0.167 HD
ATOM     50  C   UNL A   1      40.988  30.463  30.268  1.00  0.00     0.034 A 
ATOM     51  C   UNL A   1      46.389  27.811  26.640  1.00  0.00     0.034 A 
ATOM     52  C   UNL A   1      42.159  31.303  30.200  1.00  0.00     0.049 A 
ATOM     53  C   UNL A   1      46.422  29.208  27.222  1.00  0.00     0.074 A 
ATOM     54  C   UNL A   1      42.360  32.541  30.785  1.00  0.00     0.029 A 
ATOM     55  N   UNL A   1      43.315  31.007  29.491  1.00  0.00    -0.354 N 
ATOM     56  N   UNL A   1      45.515  29.824  27.949  1.00  0.00    -0.248 NA
ATOM     57  C   UNL A   1      47.625  30.011  26.963  1.00  0.00     0.031 C 
ATOM     58  C   UNL A   1      43.597  33.032  30.358  1.00  0.00     0.029 A 
ATOM     59  C   UNL A   1      44.212  32.059  29.585  1.00  0.00     0.049 A 
ATOM     60  H   UNL A   1      43.473  30.172  28.994  1.00  0.00     0.167 HD
ATOM     61  C   UNL A   1      46.059  31.069  28.259  1.00  0.00     0.074 A 
ATOM     62  C   UNL A   1      47.375  31.110  27.659  1.00  0.00     0.031 C 
ATOM     63  C   UNL A   1      45.522  32.089  28.979  1.00  0.00     0.034 A 
BRANCH  50  64
ATOM     64  C   UNL A   1      39.761  31.000  30.962  1.00  0.00     0.023 A 
ATOM     65  C   UNL A   1      39.668  31.082  32.362  1.00  0.00     0.031 A 
ATOM     66  C   UNL A   1      38.670  31.455  30.200  1.00  0.00     0.131 A 
ATOM     67  C   UNL A   1      38.491  31.568  32.955  1.00  0.00     0.055 A 
ATOM     68  C   UNL A   1      37.533  32.002  30.793  1.00  0.00     0.041 A 
ATOM     69  F   UNL A   1      38.695  31.377  28.859  1.00  0.00    -0.206 F 
ATOM     70  C   UNL A   1      37.435  32.053  32.180  1.00  0.00     0.022 A 
BRANCH  67  71
ATOM     71  S   UNL A   1      38.316  31.459  34.757  1.00  0.00     0.124 S 
ATOM     72  O   UNL A   1      39.506  32.172  35.215  1.00  0.00    -0.237 OA
ATOM     73  O   UNL A   1      37.042  32.129  34.993  1.00  0.00    -0.237 OA
ATOM     74  O   UNL A   1      38.321  30.021  35.016  1.00  0.00    -0.744 OA
ENDBRANCH  67  71
ENDBRANCH  50  64
BRANCH  51  75
ATOM     75  C   UNL A   1      47.512  27.329  25.778  1.00  0.00     0.023 A 
ATOM     76  C   UNL A   1      48.647  26.712  26.330  1.00  0.00     0.031 A 
ATOM     77  C   UNL A   1      47.510  27.575  24.392  1.00  0.00     0.131 A 
ATOM     78  C   UNL A   1      49.757  26.429  25.516  1.00  0.00     0.055 A 
ATOM     79  C   UNL A   1      48.585  27.222  23.575  1.00  0.00     0.041 A 
ATOM     80  F   UNL A   1      46.461  28.177  23.810  1.00  0.00    -0.206 F 
ATOM     81  C   UNL A   1      49.726  26.662  24.139  1.00  0.00     0.022 A 
BRANCH  78  82
ATOM     82  S   UNL A   1      51.301  25.896  26.309  1.00  0.00     0.124 S 
ATOM     83  O   UNL A   1      51.684  27.097  27.042  1.00  0.00    -0.237 OA
ATOM     84  O   UNL A   1      50.859  24.767  27.119  1.00  0.00    -0.237 OA
ATOM     85  O   UNL A   1      52.163  25.553  25.180  1.00  0.00    -0.744 OA
ENDBRANCH  78  82
ENDBRANCH  51  75
BRANCH  63  86
ATOM     86  C   UNL A   1      46.385  33.310  29.203  1.00  0.00     0.023 A 
ATOM     87  C   UNL A   1      46.556  34.295  28.215  1.00  0.00     0.031 A 
ATOM     88  C   UNL A   1      47.048  33.486  30.432  1.00  0.00     0.131 A 
ATOM     89  C   UNL A   1      47.414  35.381  28.451  1.00  0.00     0.055 A 
ATOM     90  C   UNL A   1      47.846  34.603  30.685  1.00  0.00     0.041 A 
ATOM     91  F   UNL A   1      46.925  32.578  31.413  1.00  0.00    -0.206 F 
ATOM     92  C   UNL A   1      48.044  35.551  29.686  1.00  0.00     0.022 A 
BRANCH  89  93
ATOM     93  S   UNL A   1      47.775  36.521  27.087  1.00  0.00     0.124 S 
ATOM     94  O   UNL A   1      47.634  37.821  27.733  1.00  0.00    -0.237 OA
ATOM     95  O   UNL A   1      49.132  36.140  26.711  1.00  0.00    -0.237 OA
ATOM     96  O   UNL A   1      46.747  36.206  26.096  1.00  0.00    -0.744 OA
ENDBRANCH  89  93
ENDBRANCH  63  86
ENDBRANCH  37  38
ENDBRANCH  30  32
ENDBRANCH  29  30
ENDBRANCH  28  29
ENDBRANCH  27  28
ENDBRANCH  26  27
ENDBRANCH  25  26
ENDBRANCH   1  25
TORSDOF 23
ENDMDL
MODEL 3
REMARK VINA RESULT:      -9.5      2.903      8.215
REMARK SMILES Cc1noc(C)c1CNc1ccc(Cl)c(C(=O)OCCOCCOCCOC(=O)c2ccc(-c3c4nc(c(-c5cc(S(=O)(=O)[O-])ccc5F)c5ccc([nH]5)c(-c5cc(S(=O)(=O)[O-])ccc5F)c5nc(c(-c6cc(S(=O)(=O)[O-])ccc6F)c6ccc3[nH]6)C=C5)C=C4)cc2)n1
REMARK SMILES IDX 22 1 21 2 20 3 19 4 18 5 16 6 17 7 15 8 10 9 11 10 93 11
REMARK SMILES IDX 12 12 13 13 14 14 9 15 8 17 7 18 1 19 2 20 3 21 4 22 5 23
REMARK SMILES IDX 6 24 23 25 24 26 25 27 26 28 27 29 28 30 29 31 30 32 31 33
REMARK SMILES IDX 92 34 32 35 91 36 33 37 34 38 35 39 85 40 36 41 90 42 84 43
REMARK SMILES IDX 86 44 37 45 89 46 83 47 82 48 38 50 70 51 50 52 69 53 51 54
REMARK SMILES IDX 54 55 68 56 87 57 52 58 53 59 67 61 88 62 55 63 39 64 40 65
REMARK SMILES IDX 48 66 41 67 47 68 49 69 46 70 42 71 43 72 44 73 45 74 71 75
REMARK SMILES IDX 72 76 80 77 73 78 79 79 81 80 78 81 74 82 75 83 76 84 77 85
REMARK SMILES IDX 56 86 57 87 65 88 58 89 64 90 66 91 63 92 59 93 60 94 61 95
REMARK SMILES IDX 62 96
REMARK H PARENT 9 16 86 49 54 60
REMARK Flexibility Score: inf
ROOT
ATOM      1  C   UNL A   1      33.584  22.770  27.450  1.00  0.00     0.188 C 
ENDROOT
BRANCH   1   2
ATOM      2  O   UNL A   1      32.880  23.583  26.520  1.00  0.00    -0.376 OA
BRANCH   2   3
ATOM      3  C   UNL A   1      31.659  24.199  26.913  1.00  0.00     0.202 C 
BRANCH   3   4
ATOM      4  C   UNL A   1      30.555  24.471  25.880  1.00  0.00     0.261 C 
BRANCH   4   5
ATOM      5  O   UNL A   1      30.039  25.810  25.927  1.00  0.00    -0.458 OA
BRANCH   5   6
ATOM      6  C   UNL A   1      29.969  26.460  24.736  1.00  0.00     0.358 C 
ATOM      7  O   UNL A   1      29.023  26.462  23.964  1.00  0.00    -0.244 OA
BRANCH   6   8
ATOM      8  C   UNL A   1      31.166  27.322  24.560  1.00  0.00     0.169 A 
ATOM      9  C   UNL A   1      32.118  29.367  25.136  1.00  0.00     0.127 A 
ATOM     10  C   UNL A   1      33.188  29.120  24.288  1.00  0.00     0.048 A 
ATOM     11  N   UNL A   1      31.130  28.474  25.295  1.00  0.00    -0.222 NA
ATOM     12  C   UNL A   1      33.244  27.915  23.582  1.00  0.00     0.027 A 
ATOM     13  C   UNL A   1      32.208  26.991  23.707  1.00  0.00     0.074 A 
ATOM     14  Cl  UNL A   1      32.275  25.541  22.784  1.00  0.00    -0.082 Cl
BRANCH   9  15
ATOM     15  N   UNL A   1      31.990  30.535  25.855  1.00  0.00    -0.366 N 
ATOM     16  H   UNL A   1      31.599  31.334  25.434  1.00  0.00     0.162 HD
BRANCH  15  17
ATOM     17  C   UNL A   1      32.436  30.580  27.243  1.00  0.00     0.156 C 
BRANCH  17  18
ATOM     18  C   UNL A   1      33.747  31.254  27.478  1.00  0.00     0.037 A 
ATOM     19  C   UNL A   1      33.051  33.768  27.804  1.00  0.00     0.071 C 
ATOM     20  C   UNL A   1      34.006  32.639  27.701  1.00  0.00     0.086 A 
ATOM     21  N   UNL A   1      35.314  32.879  27.824  1.00  0.00    -0.085 NA
ATOM     22  O   UNL A   1      35.936  31.655  27.721  1.00  0.00    -0.361 OA
ATOM     23  C   UNL A   1      35.006  30.686  27.515  1.00  0.00     0.138 A 
ATOM     24  C   UNL A   1      35.530  29.314  27.375  1.00  0.00     0.091 C 
ENDBRANCH  17  18
ENDBRANCH  15  17
ENDBRANCH   9  15
ENDBRANCH   6   8
ENDBRANCH   5   6
ENDBRANCH   4   5
ENDBRANCH   3   4
ENDBRANCH   2   3
ENDBRANCH   1   2
BRANCH   1  25
ATOM     25  C   UNL A   1      34.334  21.521  26.939  1.00  0.00     0.188 C 
BRANCH  25  26
ATOM     26  O   UNL A   1      34.160  21.227  25.573  1.00  0.00    -0.376 OA
BRANCH  26  27
ATOM     27  C   UNL A   1      35.203  21.495  24.651  1.00  0.00     0.202 C 
BRANCH  27  28
ATOM     28  C   UNL A   1      36.700  21.166  24.844  1.00  0.00     0.261 C 
BRANCH  28  29
ATOM     29  O   UNL A   1      37.533  22.104  25.529  1.00  0.00    -0.460 OA
BRANCH  29  30
ATOM     30  C   UNL A   1      38.737  21.647  25.944  1.00  0.00     0.338 C 
ATOM     31  O   UNL A   1      39.217  20.541  25.729  1.00  0.00    -0.246 OA
BRANCH  30  32
ATOM     32  C   UNL A   1      39.475  22.768  26.554  1.00  0.00     0.060 A 
ATOM     33  C   UNL A   1      39.195  24.075  26.132  1.00  0.00     0.016 A 
ATOM     34  C   UNL A   1      40.443  22.531  27.532  1.00  0.00     0.016 A 
ATOM     35  C   UNL A   1      39.893  25.150  26.681  1.00  0.00     0.010 A 
ATOM     36  C   UNL A   1      41.156  23.610  28.064  1.00  0.00     0.010 A 
ATOM     37  C   UNL A   1      40.901  24.924  27.627  1.00  0.00    -0.014 A 
BRANCH  37  38
ATOM     38  C   UNL A   1      41.786  26.037  28.051  1.00  0.00     0.031 A 
ATOM     39  C   UNL A   1      41.233  27.083  28.983  1.00  0.00     0.074 A 
ATOM     40  C   UNL A   1      43.060  26.117  27.620  1.00  0.00     0.049 A 
ATOM     41  N   UNL A   1      41.789  28.180  29.425  1.00  0.00    -0.248 NA
ATOM     42  C   UNL A   1      39.865  26.858  29.480  1.00  0.00     0.031 C 
ATOM     43  C   UNL A   1      43.719  25.141  26.752  1.00  0.00     0.029 A 
ATOM     44  N   UNL A   1      44.021  27.074  27.840  1.00  0.00    -0.354 N 
ATOM     45  C   UNL A   1      40.836  28.787  30.236  1.00  0.00     0.074 A 
ATOM     46  C   UNL A   1      39.661  27.944  30.211  1.00  0.00     0.031 C 
ATOM     47  C   UNL A   1      44.969  25.563  26.495  1.00  0.00     0.029 A 
ATOM     48  C   UNL A   1      45.186  26.858  27.137  1.00  0.00     0.049 A 
ATOM     49  H   UNL A   1      43.889  27.840  28.443  1.00  0.00     0.167 HD
ATOM     50  C   UNL A   1      40.936  29.945  30.934  1.00  0.00     0.034 A 
ATOM     51  C   UNL A   1      46.279  27.637  26.997  1.00  0.00     0.034 A 
ATOM     52  C   UNL A   1      42.116  30.774  30.946  1.00  0.00     0.049 A 
ATOM     53  C   UNL A   1      46.333  28.963  27.725  1.00  0.00     0.074 A 
ATOM     54  C   UNL A   1      42.336  31.940  31.658  1.00  0.00     0.029 A 
ATOM     55  N   UNL A   1      43.264  30.544  30.199  1.00  0.00    -0.354 N 
ATOM     56  N   UNL A   1      45.439  29.508  28.521  1.00  0.00    -0.248 NA
ATOM     57  C   UNL A   1      47.543  29.776  27.543  1.00  0.00     0.031 C 
ATOM     58  C   UNL A   1      43.576  32.460  31.276  1.00  0.00     0.029 A 
ATOM     59  C   UNL A   1      44.174  31.569  30.398  1.00  0.00     0.049 A 
ATOM     60  H   UNL A   1      43.409  29.765  29.615  1.00  0.00     0.167 HD
ATOM     61  C   UNL A   1      46.000  30.707  28.959  1.00  0.00     0.074 A 
ATOM     62  C   UNL A   1      47.311  30.797  28.355  1.00  0.00     0.031 C 
ATOM     63  C   UNL A   1      45.480  31.649  29.788  1.00  0.00     0.034 A 
BRANCH  50  64
ATOM     64  C   UNL A   1      39.721  30.418  31.692  1.00  0.00     0.023 A 
ATOM     65  C   UNL A   1      38.869  31.419  31.193  1.00  0.00     0.031 A 
ATOM     66  C   UNL A   1      39.403  29.839  32.933  1.00  0.00     0.131 A 
ATOM     67  C   UNL A   1      37.766  31.838  31.954  1.00  0.00     0.055 A 
ATOM     68  C   UNL A   1      38.266  30.209  33.651  1.00  0.00     0.041 A 
ATOM     69  F   UNL A   1      40.195  28.896  33.469  1.00  0.00    -0.206 F 
ATOM     70  C   UNL A   1      37.443  31.221  33.165  1.00  0.00     0.022 A 
BRANCH  67  71
ATOM     71  S   UNL A   1      36.814  33.275  31.388  1.00  0.00     0.124 S 
ATOM     72  O   UNL A   1      36.827  34.126  32.576  1.00  0.00    -0.237 OA
ATOM     73  O   UNL A   1      37.601  33.749  30.255  1.00  0.00    -0.237 OA
ATOM     74  O   UNL A   1      35.510  32.710  31.048  1.00  0.00    -0.744 OA
ENDBRANCH  67  71
ENDBRANCH  50  64
BRANCH  51  75
ATOM     75  C   UNL A   1      47.390  27.238  26.079  1.00  0.00     0.023 A 
ATOM     76  C   UNL A   1      48.562  26.634  26.566  1.00  0.00     0.031 A 
ATOM     77  C   UNL A   1      47.337  27.553  24.708  1.00  0.00     0.131 A 
ATOM     78  C   UNL A   1      49.654  26.431  25.706  1.00  0.00     0.055 A 
ATOM     79  C   UNL A   1      48.397  27.278  23.843  1.00  0.00     0.041 A 
ATOM     80  F   UNL A   1      46.251  28.146  24.188  1.00  0.00    -0.206 F 
ATOM     81  C   UNL A   1      49.573  26.730  24.345  1.00  0.00     0.022 A 
BRANCH  78  82
ATOM     82  S   UNL A   1      51.240  25.913  26.425  1.00  0.00     0.124 S 
ATOM     83  O   UNL A   1      50.846  24.727  27.179  1.00  0.00    -0.237 OA
ATOM     84  O   UNL A   1      52.054  25.674  25.238  1.00  0.00    -0.237 OA
ATOM     85  O   UNL A   1      51.639  27.062  27.234  1.00  0.00    -0.744 OA
ENDBRANCH  78  82
ENDBRANCH  51  75
BRANCH  63  86
ATOM     86  C   UNL A   1      46.359  32.830  30.134  1.00  0.00     0.023 A 
ATOM     87  C   UNL A   1      47.492  32.701  30.957  1.00  0.00     0.031 A 
ATOM     88  C   UNL A   1      46.052  34.107  29.631  1.00  0.00     0.131 A 
ATOM     89  C   UNL A   1      48.242  33.837  31.298  1.00  0.00     0.055 A 
ATOM     90  C   UNL A   1      46.841  35.222  29.918  1.00  0.00     0.041 A 
ATOM     91  F   UNL A   1      44.981  34.293  28.842  1.00  0.00    -0.206 F 
ATOM     92  C   UNL A   1      47.935  35.093  30.767  1.00  0.00     0.022 A 
BRANCH  89  93
ATOM     93  S   UNL A   1      49.570  33.672  32.522  1.00  0.00     0.124 S 
ATOM     94  O   UNL A   1      50.472  32.732  31.866  1.00  0.00    -0.237 OA
ATOM     95  O   UNL A   1      50.056  35.042  32.643  1.00  0.00    -0.237 OA
ATOM     96  O   UNL A   1      48.884  33.151  33.704  1.00  0.00    -0.744 OA
ENDBRANCH  89  93
ENDBRANCH  63  86
ENDBRANCH  37  38
ENDBRANCH  30  32
ENDBRANCH  29  30
ENDBRANCH  28  29
ENDBRANCH  27  28
ENDBRANCH  26  27
ENDBRANCH  25  26
ENDBRANCH   1  25
TORSDOF 23
ENDMDL
