MODEL 1
REMARK VINA RESULT:     -11.1      0.000      0.000
REMARK SMILES O=C(OCCOCCOCCOC(=O)[C@@H]1CCCN(c2ccc3cc(S(=O)(=O)N4CCCCC4)ccc3n2)C1)c1ccc(-c2c3nc(c(-c4cc(S(=O)(=O)[O-])ccc4F)c4ccc([nH]4)c(-c4cc(S(=O)(=O)[O-])ccc4F)c4nc(c(-c5cc(S(=O)(=O)[O-])ccc5F)c5ccc2[nH]5)C=C4)C=C3)cc1
REMARK SMILES IDX 7 1 6 2 5 3 4 4 3 5 2 6 1 7 40 8 41 9 102 10 42 11 101 12
REMARK SMILES IDX 43 13 44 14 45 15 95 16 46 17 100 18 94 19 96 20 47 21 99 22
REMARK SMILES IDX 93 23 92 24 48 26 80 27 60 28 79 29 61 30 64 31 78 32 97 33
REMARK SMILES IDX 62 34 63 35 77 37 98 38 65 39 49 40 50 41 58 42 51 43 57 44
REMARK SMILES IDX 59 45 56 46 52 47 53 48 54 49 55 50 81 51 82 52 90 53 83 54
REMARK SMILES IDX 89 55 91 56 88 57 84 58 85 59 86 60 87 61 66 62 67 63 75 64
REMARK SMILES IDX 68 65 74 66 76 67 73 68 69 69 70 70 71 71 72 72 8 73 9 74
REMARK SMILES IDX 10 75 11 76 12 77 13 78 14 79 15 80 16 81 39 82 17 83 19 84
REMARK SMILES IDX 18 85 20 86 21 87 38 88 22 89 37 90 23 91 36 92 24 93 35 94
REMARK SMILES IDX 25 95 26 96 27 97 28 98 29 99 30 100 34 101 31 102 33 103
REMARK SMILES IDX 32 104
REMARK H PARENT 96 25 64 36
REMARK Flexibility Score: inf
ROOT
ATOM      1  C   UNL A   1      35.147  24.303  24.173  1.00  0.00     0.188 C 
ENDROOT
BRANCH   1   2
ATOM      2  O   UNL A   1      35.348  23.007  23.598  1.00  0.00    -0.376 OA
BRANCH   2   3
ATOM      3  C   UNL A   1      36.688  22.526  23.743  1.00  0.00     0.202 C 
BRANCH   3   4
ATOM      4  C   UNL A   1      36.971  21.879  25.105  1.00  0.00     0.261 C 
BRANCH   4   5
ATOM      5  O   UNL A   1      38.271  21.257  25.129  1.00  0.00    -0.460 OA
BRANCH   5   6
ATOM      6  C   UNL A   1      39.291  21.407  26.010  1.00  0.00     0.338 C 
ATOM      7  O   UNL A   1      39.927  20.399  26.322  1.00  0.00    -0.246 OA
BRANCH   6   8
ATOM      8  C   UNL A   1      39.710  22.705  26.635  1.00  0.00     0.060 A 
ATOM      9  C   UNL A   1      39.154  23.949  26.362  1.00  0.00     0.016 A 
ATOM     10  C   UNL A   1      40.715  22.652  27.626  1.00  0.00     0.016 A 
ATOM     11  C   UNL A   1      39.653  25.101  26.970  1.00  0.00     0.010 A 
ATOM     12  C   UNL A   1      41.190  23.810  28.269  1.00  0.00     0.010 A 
ATOM     13  C   UNL A   1      40.678  25.056  27.914  1.00  0.00    -0.014 A 
BRANCH  13  14
ATOM     14  C   UNL A   1      41.252  26.350  28.363  1.00  0.00     0.031 A 
ATOM     15  C   UNL A   1      42.601  26.745  27.845  1.00  0.00     0.074 A 
ATOM     16  C   UNL A   1      40.520  27.225  29.078  1.00  0.00     0.049 A 
ATOM     17  N   UNL A   1      43.261  27.859  28.012  1.00  0.00    -0.248 NA
ATOM     18  C   UNL A   1      43.302  25.739  27.036  1.00  0.00     0.031 C 
ATOM     19  C   UNL A   1      39.183  26.952  29.589  1.00  0.00     0.029 A 
ATOM     20  N   UNL A   1      40.758  28.526  29.450  1.00  0.00    -0.354 N 
ATOM     21  C   UNL A   1      44.487  27.665  27.388  1.00  0.00     0.074 A 
ATOM     22  C   UNL A   1      44.456  26.341  26.803  1.00  0.00     0.031 C 
ATOM     23  C   UNL A   1      38.677  28.077  30.115  1.00  0.00     0.029 A 
ATOM     24  C   UNL A   1      39.668  29.144  30.027  1.00  0.00     0.049 A 
ATOM     25  H   UNL A   1      41.625  28.974  29.318  1.00  0.00     0.167 HD
ATOM     26  C   UNL A   1      45.552  28.502  27.352  1.00  0.00     0.034 A 
ATOM     27  C   UNL A   1      39.496  30.424  30.429  1.00  0.00     0.034 A 
ATOM     28  C   UNL A   1      45.563  29.806  27.966  1.00  0.00     0.049 A 
ATOM     29  C   UNL A   1      40.690  31.349  30.347  1.00  0.00     0.074 A 
ATOM     30  C   UNL A   1      46.606  30.709  28.066  1.00  0.00     0.029 A 
ATOM     31  N   UNL A   1      44.472  30.390  28.602  1.00  0.00    -0.354 N 
ATOM     32  N   UNL A   1      41.872  31.132  29.811  1.00  0.00    -0.248 NA
ATOM     33  C   UNL A   1      40.547  32.674  30.967  1.00  0.00     0.031 C 
ATOM     34  C   UNL A   1      46.164  31.810  28.809  1.00  0.00     0.029 A 
ATOM     35  C   UNL A   1      44.824  31.631  29.111  1.00  0.00     0.049 A 
ATOM     36  H   UNL A   1      43.580  29.982  28.679  1.00  0.00     0.167 HD
ATOM     37  C   UNL A   1      42.619  32.279  30.063  1.00  0.00     0.074 A 
ATOM     38  C   UNL A   1      41.734  33.213  30.728  1.00  0.00     0.031 C 
ATOM     39  C   UNL A   1      43.928  32.530  29.802  1.00  0.00     0.034 A 
BRANCH  26  40
ATOM     40  C   UNL A   1      46.811  27.956  26.726  1.00  0.00     0.023 A 
ATOM     41  C   UNL A   1      47.100  28.149  25.367  1.00  0.00     0.031 A 
ATOM     42  C   UNL A   1      47.676  27.138  27.471  1.00  0.00     0.131 A 
ATOM     43  C   UNL A   1      48.175  27.472  24.774  1.00  0.00     0.055 A 
ATOM     44  C   UNL A   1      48.788  26.524  26.893  1.00  0.00     0.041 A 
ATOM     45  F   UNL A   1      47.432  26.889  28.768  1.00  0.00    -0.206 F 
ATOM     46  C   UNL A   1      49.034  26.675  25.531  1.00  0.00     0.022 A 
BRANCH  43  47
ATOM     47  S   UNL A   1      48.319  27.514  22.968  1.00  0.00     0.124 S 
ATOM     48  O   UNL A   1      49.582  28.228  22.800  1.00  0.00    -0.237 OA
ATOM     49  O   UNL A   1      48.340  26.096  22.628  1.00  0.00    -0.237 OA
ATOM     50  O   UNL A   1      47.128  28.245  22.545  1.00  0.00    -0.744 OA
ENDBRANCH  43  47
ENDBRANCH  26  40
BRANCH  27  51
ATOM     51  C   UNL A   1      38.193  30.913  30.990  1.00  0.00     0.023 A 
ATOM     52  C   UNL A   1      37.221  31.507  30.161  1.00  0.00     0.031 A 
ATOM     53  C   UNL A   1      37.923  30.872  32.370  1.00  0.00     0.131 A 
ATOM     54  C   UNL A   1      36.058  32.067  30.720  1.00  0.00     0.055 A 
ATOM     55  C   UNL A   1      36.730  31.360  32.912  1.00  0.00     0.041 A 
ATOM     56  F   UNL A   1      38.818  30.354  33.224  1.00  0.00    -0.206 F 
ATOM     57  C   UNL A   1      35.795  31.974  32.087  1.00  0.00     0.022 A 
BRANCH  54  58
ATOM     58  S   UNL A   1      34.944  33.030  29.657  1.00  0.00     0.124 S 
ATOM     59  O   UNL A   1      34.388  31.994  28.793  1.00  0.00    -0.237 OA
ATOM     60  O   UNL A   1      34.028  33.617  30.628  1.00  0.00    -0.237 OA
ATOM     61  O   UNL A   1      35.839  33.978  28.995  1.00  0.00    -0.744 OA
ENDBRANCH  54  58
ENDBRANCH  27  51
BRANCH  39  62
ATOM     62  C   UNL A   1      44.467  33.863  30.260  1.00  0.00     0.023 A 
ATOM     63  C   UNL A   1      44.418  34.997  29.428  1.00  0.00     0.031 A 
ATOM     64  C   UNL A   1      45.045  34.001  31.534  1.00  0.00     0.131 A 
ATOM     65  C   UNL A   1      44.988  36.205  29.857  1.00  0.00     0.055 A 
ATOM     66  C   UNL A   1      45.558  35.220  31.978  1.00  0.00     0.041 A 
ATOM     67  F   UNL A   1      45.117  32.951  32.368  1.00  0.00    -0.206 F 
ATOM     68  C   UNL A   1      45.543  36.327  31.133  1.00  0.00     0.022 A 
BRANCH  65  69
ATOM     69  S   UNL A   1      45.070  37.592  28.691  1.00  0.00     0.124 S 
ATOM     70  O   UNL A   1      43.902  38.379  29.073  1.00  0.00    -0.237 OA
ATOM     71  O   UNL A   1      46.367  38.184  29.000  1.00  0.00    -0.237 OA
ATOM     72  O   UNL A   1      44.981  36.945  27.383  1.00  0.00    -0.744 OA
ENDBRANCH  65  69
ENDBRANCH  39  62
ENDBRANCH  13  14
ENDBRANCH   6   8
ENDBRANCH   5   6
ENDBRANCH   4   5
ENDBRANCH   3   4
ENDBRANCH   2   3
ENDBRANCH   1   2
BRANCH   1  73
ATOM     73  C   UNL A   1      34.478  25.261  23.187  1.00  0.00     0.188 C 
BRANCH  73  74
ATOM     74  O   UNL A   1      33.953  24.628  22.019  1.00  0.00    -0.376 OA
BRANCH  74  75
ATOM     75  C   UNL A   1      32.950  25.363  21.306  1.00  0.00     0.202 C 
BRANCH  75  76
ATOM     76  C   UNL A   1      32.738  26.794  21.816  1.00  0.00     0.261 C 
BRANCH  76  77
ATOM     77  O   UNL A   1      31.582  26.832  22.667  1.00  0.00    -0.463 OA
BRANCH  77  78
ATOM     78  C   UNL A   1      31.248  27.992  23.280  1.00  0.00     0.310 C 
ATOM     79  O   UNL A   1      31.362  29.102  22.773  1.00  0.00    -0.252 OA
BRANCH  78  80
ATOM     80  C   UNL A   1      30.622  27.765  24.650  1.00  0.00     0.118 C 
ATOM     81  C   UNL A   1      31.403  28.496  25.746  1.00  0.00     0.019 C 
ATOM     82  C   UNL A   1      30.428  26.287  25.006  1.00  0.00     0.133 C 
ATOM     83  C   UNL A   1      32.689  27.757  26.125  1.00  0.00     0.022 C 
ATOM     84  N   UNL A   1      31.700  25.673  25.388  1.00  0.00    -0.356 N 
ATOM     85  C   UNL A   1      32.431  26.290  26.486  1.00  0.00     0.118 C 
BRANCH  84  86
ATOM     86  C   UNL A   1      31.775  24.289  25.256  1.00  0.00     0.129 A 
ATOM     87  C   UNL A   1      31.914  23.536  26.417  1.00  0.00     0.047 A 
ATOM     88  N   UNL A   1      31.733  23.694  24.045  1.00  0.00    -0.231 NA
ATOM     89  C   UNL A   1      32.018  22.160  26.353  1.00  0.00     0.014 A 
ATOM     90  C   UNL A   1      31.894  22.351  23.960  1.00  0.00     0.073 A 
ATOM     91  C   UNL A   1      32.033  21.548  25.110  1.00  0.00     0.002 A 
ATOM     92  C   UNL A   1      32.018  21.709  22.728  1.00  0.00     0.030 A 
ATOM     93  C   UNL A   1      32.224  20.168  25.023  1.00  0.00     0.032 A 
ATOM     94  C   UNL A   1      32.257  20.325  22.623  1.00  0.00     0.024 A 
ATOM     95  C   UNL A   1      32.337  19.549  23.777  1.00  0.00     0.083 A 
BRANCH  95  96
ATOM     96  S   UNL A   1      32.540  17.777  23.835  1.00  0.00     0.243 S 
ATOM     97  O   UNL A   1      31.613  17.311  24.845  1.00  0.00    -0.207 OA
ATOM     98  O   UNL A   1      32.398  17.339  22.460  1.00  0.00    -0.207 OA
BRANCH  96  99
ATOM     99  N   UNL A   1      34.128  17.430  24.311  1.00  0.00    -0.198 NA
ATOM    100  C   UNL A   1      34.977  18.596  24.644  1.00  0.00     0.102 C 
ATOM    101  C   UNL A   1      34.331  16.180  25.092  1.00  0.00     0.102 C 
ATOM    102  C   UNL A   1      36.436  18.213  24.834  1.00  0.00     0.017 C 
ATOM    103  C   UNL A   1      35.811  15.863  25.273  1.00  0.00     0.017 C 
ATOM    104  C   UNL A   1      36.572  17.061  25.816  1.00  0.00     0.003 C 
ENDBRANCH  96  99
ENDBRANCH  95  96
ENDBRANCH  84  86
ENDBRANCH  78  80
ENDBRANCH  77  78
ENDBRANCH  76  77
ENDBRANCH  75  76
ENDBRANCH  74  75
ENDBRANCH  73  74
ENDBRANCH   1  73
TORSDOF 23
ENDMDL
MODEL 2
REMARK VINA RESULT:     -10.8      3.614     10.086
REMARK SMILES O=C(OCCOCCOCCOC(=O)[C@@H]1CCCN(c2ccc3cc(S(=O)(=O)N4CCCCC4)ccc3n2)C1)c1ccc(-c2c3nc(c(-c4cc(S(=O)(=O)[O-])ccc4F)c4ccc([nH]4)c(-c4cc(S(=O)(=O)[O-])ccc4F)c4nc(c(-c5cc(S(=O)(=O)[O-])ccc5F)c5ccc2[nH]5)C=C4)C=C3)cc1
REMARK SMILES IDX 7 1 6 2 5 3 4 4 3 5 2 6 1 7 40 8 41 9 102 10 42 11 101 12
REMARK SMILES IDX 43 13 44 14 45 15 95 16 46 17 100 18 94 19 96 20 47 21 99 22
REMARK SMILES IDX 93 23 92 24 48 26 80 27 60 28 79 29 61 30 64 31 78 32 97 33
REMARK SMILES IDX 62 34 63 35 77 37 98 38 65 39 49 40 50 41 58 42 51 43 57 44
REMARK SMILES IDX 59 45 56 46 52 47 53 48 54 49 55 50 81 51 82 52 90 53 83 54
REMARK SMILES IDX 89 55 91 56 88 57 84 58 85 59 86 60 87 61 66 62 67 63 75 64
REMARK SMILES IDX 68 65 74 66 76 67 73 68 69 69 70 70 71 71 72 72 8 73 9 74
REMARK SMILES IDX 10 75 11 76 12 77 13 78 14 79 15 80 16 81 39 82 17 83 19 84
REMARK SMILES IDX 18 85 20 86 21 87 38 88 22 89 37 90 23 91 36 92 24 93 35 94
REMARK SMILES IDX 25 95 26 96 27 97 28 98 29 99 30 100 34 101 31 102 33 103
REMARK SMILES IDX 32 104
REMARK H PARENT 96 25 64 36
REMARK Flexibility Score: inf
ROOT
ATOM      1  C   UNL A   1      40.211  22.606  27.166  1.00  0.00     0.188 C 
ENDROOT
BRANCH   1   2
ATOM      2  O   UNL A   1      40.542  21.694  26.112  1.00  0.00    -0.376 OA
BRANCH   2   3
ATOM      3  C   UNL A   1      40.363  20.322  26.476  1.00  0.00     0.202 C 
BRANCH   3   4
ATOM      4  C   UNL A   1      41.676  19.537  26.600  1.00  0.00     0.261 C 
BRANCH   4   5
ATOM      5  O   UNL A   1      42.454  19.623  25.390  1.00  0.00    -0.460 OA
BRANCH   5   6
ATOM      6  C   UNL A   1      43.747  19.992  25.210  1.00  0.00     0.338 C 
ATOM      7  O   UNL A   1      44.549  19.117  24.884  1.00  0.00    -0.246 OA
BRANCH   6   8
ATOM      8  C   UNL A   1      44.279  21.385  25.375  1.00  0.00     0.060 A 
ATOM      9  C   UNL A   1      45.279  21.768  26.261  1.00  0.00     0.016 A 
ATOM     10  C   UNL A   1      43.762  22.382  24.517  1.00  0.00     0.016 A 
ATOM     11  C   UNL A   1      45.666  23.104  26.363  1.00  0.00     0.010 A 
ATOM     12  C   UNL A   1      44.184  23.722  24.592  1.00  0.00     0.010 A 
ATOM     13  C   UNL A   1      45.124  24.097  25.550  1.00  0.00    -0.014 A 
BRANCH  13  14
ATOM     14  C   UNL A   1      45.476  25.506  25.863  1.00  0.00     0.031 A 
ATOM     15  C   UNL A   1      44.495  26.325  26.644  1.00  0.00     0.074 A 
ATOM     16  C   UNL A   1      46.705  25.989  25.603  1.00  0.00     0.049 A 
ATOM     17  N   UNL A   1      44.616  27.535  27.119  1.00  0.00    -0.248 NA
ATOM     18  C   UNL A   1      43.197  25.692  26.916  1.00  0.00     0.031 C 
ATOM     19  C   UNL A   1      47.742  25.256  24.890  1.00  0.00     0.029 A 
ATOM     20  N   UNL A   1      47.314  27.171  25.952  1.00  0.00    -0.354 N 
ATOM     21  C   UNL A   1      43.385  27.838  27.687  1.00  0.00     0.074 A 
ATOM     22  C   UNL A   1      42.550  26.666  27.534  1.00  0.00     0.031 C 
ATOM     23  C   UNL A   1      48.887  25.954  24.942  1.00  0.00     0.029 A 
ATOM     24  C   UNL A   1      48.659  27.210  25.648  1.00  0.00     0.049 A 
ATOM     25  H   UNL A   1      46.835  27.919  26.376  1.00  0.00     0.167 HD
ATOM     26  C   UNL A   1      42.983  29.007  28.243  1.00  0.00     0.034 A 
ATOM     27  C   UNL A   1      49.593  28.151  25.918  1.00  0.00     0.034 A 
ATOM     28  C   UNL A   1      43.830  30.168  28.360  1.00  0.00     0.049 A 
ATOM     29  C   UNL A   1      49.125  29.433  26.570  1.00  0.00     0.074 A 
ATOM     30  C   UNL A   1      43.511  31.430  28.829  1.00  0.00     0.029 A 
ATOM     31  N   UNL A   1      45.170  30.211  27.989  1.00  0.00    -0.354 N 
ATOM     32  N   UNL A   1      47.937  29.735  27.046  1.00  0.00    -0.248 NA
ATOM     33  C   UNL A   1      50.108  30.520  26.676  1.00  0.00     0.031 C 
ATOM     34  C   UNL A   1      44.639  32.248  28.688  1.00  0.00     0.029 A 
ATOM     35  C   UNL A   1      45.684  31.481  28.201  1.00  0.00     0.049 A 
ATOM     36  H   UNL A   1      45.678  29.449  27.628  1.00  0.00     0.167 HD
ATOM     37  C   UNL A   1      48.025  31.057  27.474  1.00  0.00     0.074 A 
ATOM     38  C   UNL A   1      49.399  31.468  27.271  1.00  0.00     0.031 C 
ATOM     39  C   UNL A   1      47.053  31.873  27.958  1.00  0.00     0.034 A 
BRANCH  26  40
ATOM     40  C   UNL A   1      41.531  29.094  28.642  1.00  0.00     0.023 A 
ATOM     41  C   UNL A   1      41.127  28.963  29.980  1.00  0.00     0.031 A 
ATOM     42  C   UNL A   1      40.531  29.196  27.661  1.00  0.00     0.131 A 
ATOM     43  C   UNL A   1      39.765  28.856  30.294  1.00  0.00     0.055 A 
ATOM     44  C   UNL A   1      39.174  29.163  27.987  1.00  0.00     0.041 A 
ATOM     45  F   UNL A   1      40.856  29.288  26.362  1.00  0.00    -0.206 F 
ATOM     46  C   UNL A   1      38.783  28.975  29.310  1.00  0.00     0.022 A 
BRANCH  43  47
ATOM     47  S   UNL A   1      39.314  28.386  31.985  1.00  0.00     0.124 S 
ATOM     48  O   UNL A   1      40.629  28.189  32.588  1.00  0.00    -0.237 OA
ATOM     49  O   UNL A   1      38.573  29.556  32.442  1.00  0.00    -0.237 OA
ATOM     50  O   UNL A   1      38.522  27.172  31.805  1.00  0.00    -0.744 OA
ENDBRANCH  43  47
ENDBRANCH  26  40
BRANCH  27  51
ATOM     51  C   UNL A   1      51.034  27.971  25.542  1.00  0.00     0.023 A 
ATOM     52  C   UNL A   1      51.456  28.075  24.202  1.00  0.00     0.031 A 
ATOM     53  C   UNL A   1      52.006  27.616  26.496  1.00  0.00     0.131 A 
ATOM     54  C   UNL A   1      52.788  27.786  23.853  1.00  0.00     0.055 A 
ATOM     55  C   UNL A   1      53.345  27.407  26.155  1.00  0.00     0.041 A 
ATOM     56  F   UNL A   1      51.670  27.463  27.786  1.00  0.00    -0.206 F 
ATOM     57  C   UNL A   1      53.741  27.478  24.824  1.00  0.00     0.022 A 
BRANCH  54  58
ATOM     58  S   UNL A   1      53.239  27.697  22.095  1.00  0.00     0.124 S 
ATOM     59  O   UNL A   1      54.276  26.672  22.107  1.00  0.00    -0.237 OA
ATOM     60  O   UNL A   1      51.973  27.324  21.475  1.00  0.00    -0.237 OA
ATOM     61  O   UNL A   1      53.704  29.050  21.794  1.00  0.00    -0.744 OA
ENDBRANCH  54  58
ENDBRANCH  27  51
BRANCH  39  62
ATOM     62  C   UNL A   1      47.457  33.292  28.279  1.00  0.00     0.023 A 
ATOM     63  C   UNL A   1      47.917  33.649  29.559  1.00  0.00     0.031 A 
ATOM     64  C   UNL A   1      47.372  34.298  27.301  1.00  0.00     0.131 A 
ATOM     65  C   UNL A   1      48.221  34.988  29.845  1.00  0.00     0.055 A 
ATOM     66  C   UNL A   1      47.731  35.618  27.574  1.00  0.00     0.041 A 
ATOM     67  F   UNL A   1      46.939  34.011  26.062  1.00  0.00    -0.206 F 
ATOM     68  C   UNL A   1      48.145  35.972  28.856  1.00  0.00     0.022 A 
BRANCH  65  69
ATOM     69  S   UNL A   1      48.635  35.444  31.552  1.00  0.00     0.124 S 
ATOM     70  O   UNL A   1      47.314  35.603  32.152  1.00  0.00    -0.237 OA
ATOM     71  O   UNL A   1      49.407  34.292  32.004  1.00  0.00    -0.237 OA
ATOM     72  O   UNL A   1      49.400  36.680  31.400  1.00  0.00    -0.744 OA
ENDBRANCH  65  69
ENDBRANCH  39  62
ENDBRANCH  13  14
ENDBRANCH   6   8
ENDBRANCH   5   6
ENDBRANCH   4   5
ENDBRANCH   3   4
ENDBRANCH   2   3
ENDBRANCH   1   2
BRANCH   1  73
ATOM     73  C   UNL A   1      39.197  23.654  26.708  1.00  0.00     0.188 C 
BRANCH  73  74
ATOM     74  O   UNL A   1      38.065  23.116  26.023  1.00  0.00    -0.376 OA
BRANCH  74  75
ATOM     75  C   UNL A   1      36.973  24.020  25.810  1.00  0.00     0.202 C 
BRANCH  75  76
ATOM     76  C   UNL A   1      35.601  23.339  25.729  1.00  0.00     0.261 C 
BRANCH  76  77
ATOM     77  O   UNL A   1      34.619  24.293  25.294  1.00  0.00    -0.463 OA
BRANCH  77  78
ATOM     78  C   UNL A   1      34.205  24.276  24.005  1.00  0.00     0.310 C 
ATOM     79  O   UNL A   1      34.879  23.871  23.064  1.00  0.00    -0.252 OA
BRANCH  78  80
ATOM     80  C   UNL A   1      32.761  24.736  23.854  1.00  0.00     0.118 C 
ATOM     81  C   UNL A   1      32.420  25.027  22.389  1.00  0.00     0.019 C 
ATOM     82  C   UNL A   1      32.390  25.922  24.750  1.00  0.00     0.133 C 
ATOM     83  C   UNL A   1      32.979  26.376  21.927  1.00  0.00     0.022 C 
ATOM     84  N   UNL A   1      32.935  27.170  24.214  1.00  0.00    -0.356 N 
ATOM     85  C   UNL A   1      32.563  27.524  22.852  1.00  0.00     0.118 C 
BRANCH  84  86
ATOM     86  C   UNL A   1      33.109  28.204  25.129  1.00  0.00     0.129 A 
ATOM     87  C   UNL A   1      32.187  29.246  25.110  1.00  0.00     0.047 A 
ATOM     88  N   UNL A   1      34.144  28.212  25.996  1.00  0.00    -0.231 NA
ATOM     89  C   UNL A   1      32.317  30.315  25.975  1.00  0.00     0.014 A 
ATOM     90  C   UNL A   1      34.320  29.280  26.810  1.00  0.00     0.073 A 
ATOM     91  C   UNL A   1      33.409  30.356  26.827  1.00  0.00     0.002 A 
ATOM     92  C   UNL A   1      35.458  29.410  27.606  1.00  0.00     0.030 A 
ATOM     93  C   UNL A   1      33.603  31.469  27.648  1.00  0.00     0.032 A 
ATOM     94  C   UNL A   1      35.691  30.547  28.405  1.00  0.00     0.024 A 
ATOM     95  C   UNL A   1      34.745  31.569  28.441  1.00  0.00     0.083 A 
BRANCH  95  96
ATOM     96  S   UNL A   1      34.825  33.033  29.460  1.00  0.00     0.243 S 
ATOM     97  O   UNL A   1      34.434  34.129  28.599  1.00  0.00    -0.207 OA
ATOM     98  O   UNL A   1      34.038  32.714  30.636  1.00  0.00    -0.207 OA
BRANCH  96  99
ATOM     99  N   UNL A   1      36.426  33.250  29.970  1.00  0.00    -0.198 NA
ATOM    100  C   UNL A   1      36.822  32.521  31.197  1.00  0.00     0.102 C 
ATOM    101  C   UNL A   1      37.449  33.416  28.903  1.00  0.00     0.102 C 
ATOM    102  C   UNL A   1      38.189  32.950  31.707  1.00  0.00     0.017 C 
ATOM    103  C   UNL A   1      38.802  33.818  29.477  1.00  0.00     0.017 C 
ATOM    104  C   UNL A   1      39.227  32.887  30.600  1.00  0.00     0.003 C 
ENDBRANCH  96  99
ENDBRANCH  95  96
ENDBRANCH  84  86
ENDBRANCH  78  80
ENDBRANCH  77  78
ENDBRANCH  76  77
ENDBRANCH  75  76
ENDBRANCH  74  75
ENDBRANCH  73  74
ENDBRANCH   1  73
TORSDOF 23
ENDMDL
MODEL 3
REMARK VINA RESULT:     -10.6      1.455      1.681
REMARK SMILES O=C(OCCOCCOCCOC(=O)[C@@H]1CCCN(c2ccc3cc(S(=O)(=O)N4CCCCC4)ccc3n2)C1)c1ccc(-c2c3nc(c(-c4cc(S(=O)(=O)[O-])ccc4F)c4ccc([nH]4)c(-c4cc(S(=O)(=O)[O-])ccc4F)c4nc(c(-c5cc(S(=O)(=O)[O-])ccc5F)c5ccc2[nH]5)C=C4)C=C3)cc1
REMARK SMILES IDX 7 1 6 2 5 3 4 4 3 5 2 6 1 7 40 8 41 9 102 10 42 11 101 12
REMARK SMILES IDX 43 13 44 14 45 15 95 16 46 17 100 18 94 19 96 20 47 21 99 22
REMARK SMILES IDX 93 23 92 24 48 26 80 27 60 28 79 29 61 30 64 31 78 32 97 33
REMARK SMILES IDX 62 34 63 35 77 37 98 38 65 39 49 40 50 41 58 42 51 43 57 44
REMARK SMILES IDX 59 45 56 46 52 47 53 48 54 49 55 50 81 51 82 52 90 53 83 54
REMARK SMILES IDX 89 55 91 56 88 57 84 58 85 59 86 60 87 61 66 62 67 63 75 64
REMARK SMILES IDX 68 65 74 66 76 67 73 68 69 69 70 70 71 71 72 72 8 73 9 74
REMARK SMILES IDX 10 75 11 76 12 77 13 78 14 79 15 80 16 81 39 82 17 83 19 84
REMARK SMILES IDX 18 85 20 86 21 87 38 88 22 89 37 90 23 91 36 92 24 93 35 94
REMARK SMILES IDX 25 95 26 96 27 97 28 98 29 99 30 100 34 101 31 102 33 103
REMARK SMILES IDX 32 104
REMARK H PARENT 96 25 64 36
REMARK Flexibility Score: inf
ROOT
ATOM      1  C   UNL A   1      35.041  23.964  24.532  1.00  0.00     0.188 C 
ENDROOT
BRANCH   1   2
ATOM      2  O   UNL A   1      35.189  22.612  24.085  1.00  0.00    -0.376 OA
BRANCH   2   3
ATOM      3  C   UNL A   1      36.547  22.163  24.085  1.00  0.00     0.202 C 
BRANCH   3   4
ATOM      4  C   UNL A   1      37.031  21.649  25.447  1.00  0.00     0.261 C 
BRANCH   4   5
ATOM      5  O   UNL A   1      38.360  21.100  25.358  1.00  0.00    -0.460 OA
BRANCH   5   6
ATOM      6  C   UNL A   1      39.423  21.252  26.186  1.00  0.00     0.338 C 
ATOM      7  O   UNL A   1      40.006  20.234  26.559  1.00  0.00    -0.246 OA
BRANCH   6   8
ATOM      8  C   UNL A   1      39.950  22.566  26.683  1.00  0.00     0.060 A 
ATOM      9  C   UNL A   1      39.512  23.820  26.272  1.00  0.00     0.016 A 
ATOM     10  C   UNL A   1      40.933  22.528  27.697  1.00  0.00     0.016 A 
ATOM     11  C   UNL A   1      40.105  24.980  26.769  1.00  0.00     0.010 A 
ATOM     12  C   UNL A   1      41.502  23.700  28.228  1.00  0.00     0.010 A 
ATOM     13  C   UNL A   1      41.109  24.943  27.735  1.00  0.00    -0.014 A 
BRANCH  13  14
ATOM     14  C   UNL A   1      41.792  26.221  28.062  1.00  0.00     0.031 A 
ATOM     15  C   UNL A   1      43.115  26.503  27.418  1.00  0.00     0.074 A 
ATOM     16  C   UNL A   1      41.172  27.176  28.780  1.00  0.00     0.049 A 
ATOM     17  N   UNL A   1      43.849  27.581  27.468  1.00  0.00    -0.248 NA
ATOM     18  C   UNL A   1      43.688  25.413  26.616  1.00  0.00     0.031 C 
ATOM     19  C   UNL A   1      39.868  27.015  29.409  1.00  0.00     0.029 A 
ATOM     20  N   UNL A   1      41.514  28.478  29.055  1.00  0.00    -0.354 N 
ATOM     21  C   UNL A   1      45.007  27.277  26.762  1.00  0.00     0.074 A 
ATOM     22  C   UNL A   1      44.851  25.929  26.259  1.00  0.00     0.031 C 
ATOM     23  C   UNL A   1      39.473  28.197  29.906  1.00  0.00     0.029 A 
ATOM     24  C   UNL A   1      40.513  29.194  29.679  1.00  0.00     0.049 A 
ATOM     25  H   UNL A   1      42.392  28.864  28.830  1.00  0.00     0.167 HD
ATOM     26  C   UNL A   1      46.112  28.044  26.594  1.00  0.00     0.034 A 
ATOM     27  C   UNL A   1      40.448  30.501  30.017  1.00  0.00     0.034 A 
ATOM     28  C   UNL A   1      46.248  29.375  27.128  1.00  0.00     0.049 A 
ATOM     29  C   UNL A   1      41.683  31.344  29.788  1.00  0.00     0.074 A 
ATOM     30  C   UNL A   1      47.347  30.216  27.093  1.00  0.00     0.029 A 
ATOM     31  N   UNL A   1      45.249  30.060  27.813  1.00  0.00    -0.354 N 
ATOM     32  N   UNL A   1      42.803  31.026  29.175  1.00  0.00    -0.248 NA
ATOM     33  C   UNL A   1      41.668  32.707  30.339  1.00  0.00     0.031 C 
ATOM     34  C   UNL A   1      47.031  31.381  27.803  1.00  0.00     0.029 A 
ATOM     35  C   UNL A   1      45.712  31.302  28.219  1.00  0.00     0.049 A 
ATOM     36  H   UNL A   1      44.344  29.712  27.983  1.00  0.00     0.167 HD
ATOM     37  C   UNL A   1      43.634  32.136  29.301  1.00  0.00     0.074 A 
ATOM     38  C   UNL A   1      42.860  33.157  29.977  1.00  0.00     0.031 C 
ATOM     39  C   UNL A   1      44.929  32.290  28.924  1.00  0.00     0.034 A 
BRANCH  26  40
ATOM     40  C   UNL A   1      47.282  27.388  25.905  1.00  0.00     0.023 A 
ATOM     41  C   UNL A   1      48.238  26.650  26.620  1.00  0.00     0.031 A 
ATOM     42  C   UNL A   1      47.505  27.596  24.534  1.00  0.00     0.131 A 
ATOM     43  C   UNL A   1      49.410  26.217  25.985  1.00  0.00     0.055 A 
ATOM     44  C   UNL A   1      48.639  27.099  23.889  1.00  0.00     0.041 A 
ATOM     45  F   UNL A   1      46.644  28.323  23.805  1.00  0.00    -0.206 F 
ATOM     46  C   UNL A   1      49.609  26.417  24.618  1.00  0.00     0.022 A 
BRANCH  43  47
ATOM     47  S   UNL A   1      50.740  25.542  27.014  1.00  0.00     0.124 S 
ATOM     48  O   UNL A   1      50.975  26.648  27.938  1.00  0.00    -0.237 OA
ATOM     49  O   UNL A   1      50.112  24.357  27.588  1.00  0.00    -0.237 OA
ATOM     50  O   UNL A   1      51.815  25.284  26.061  1.00  0.00    -0.744 OA
ENDBRANCH  43  47
ENDBRANCH  26  40
BRANCH  27  51
ATOM     51  C   UNL A   1      39.226  31.100  30.649  1.00  0.00     0.023 A 
ATOM     52  C   UNL A   1      38.136  31.525  29.865  1.00  0.00     0.031 A 
ATOM     53  C   UNL A   1      39.151  31.333  32.034  1.00  0.00     0.131 A 
ATOM     54  C   UNL A   1      37.050  32.193  30.461  1.00  0.00     0.055 A 
ATOM     55  C   UNL A   1      38.035  31.925  32.632  1.00  0.00     0.041 A 
ATOM     56  F   UNL A   1      40.167  30.987  32.839  1.00  0.00    -0.206 F 
ATOM     57  C   UNL A   1      36.982  32.372  31.843  1.00  0.00     0.022 A 
BRANCH  54  58
ATOM     58  S   UNL A   1      35.780  32.936  29.397  1.00  0.00     0.124 S 
ATOM     59  O   UNL A   1      35.174  33.913  30.295  1.00  0.00    -0.237 OA
ATOM     60  O   UNL A   1      36.578  33.476  28.302  1.00  0.00    -0.237 OA
ATOM     61  O   UNL A   1      34.926  31.803  29.043  1.00  0.00    -0.744 OA
ENDBRANCH  54  58
ENDBRANCH  27  51
BRANCH  39  62
ATOM     62  C   UNL A   1      45.580  33.610  29.260  1.00  0.00     0.023 A 
ATOM     63  C   UNL A   1      45.538  34.694  28.365  1.00  0.00     0.031 A 
ATOM     64  C   UNL A   1      46.256  33.784  30.479  1.00  0.00     0.131 A 
ATOM     65  C   UNL A   1      46.210  35.886  28.677  1.00  0.00     0.055 A 
ATOM     66  C   UNL A   1      46.873  34.991  30.810  1.00  0.00     0.041 A 
ATOM     67  F   UNL A   1      46.325  32.781  31.370  1.00  0.00    -0.206 F 
ATOM     68  C   UNL A   1      46.864  36.046  29.901  1.00  0.00     0.022 A 
BRANCH  65  69
ATOM     69  S   UNL A   1      46.290  37.196  27.424  1.00  0.00     0.124 S 
ATOM     70  O   UNL A   1      44.951  37.770  27.499  1.00  0.00    -0.237 OA
ATOM     71  O   UNL A   1      47.374  38.037  27.921  1.00  0.00    -0.237 OA
ATOM     72  O   UNL A   1      46.587  36.470  26.190  1.00  0.00    -0.744 OA
ENDBRANCH  65  69
ENDBRANCH  39  62
ENDBRANCH  13  14
ENDBRANCH   6   8
ENDBRANCH   5   6
ENDBRANCH   4   5
ENDBRANCH   3   4
ENDBRANCH   2   3
ENDBRANCH   1   2
BRANCH   1  73
ATOM     73  C   UNL A   1      34.827  24.925  23.362  1.00  0.00     0.188 C 
BRANCH  73  74
ATOM     74  O   UNL A   1      34.239  24.324  22.208  1.00  0.00    -0.376 OA
BRANCH  74  75
ATOM     75  C   UNL A   1      33.123  25.020  21.638  1.00  0.00     0.202 C 
BRANCH  75  76
ATOM     76  C   UNL A   1      33.066  26.512  21.994  1.00  0.00     0.261 C 
BRANCH  76  77
ATOM     77  O   UNL A   1      31.751  26.839  22.470  1.00  0.00    -0.463 OA
BRANCH  77  78
ATOM     78  C   UNL A   1      31.563  27.988  23.162  1.00  0.00     0.310 C 
ATOM     79  O   UNL A   1      31.953  29.090  22.794  1.00  0.00    -0.252 OA
BRANCH  78  80
ATOM     80  C   UNL A   1      30.727  27.778  24.417  1.00  0.00     0.118 C 
ATOM     81  C   UNL A   1      31.338  28.506  25.620  1.00  0.00     0.019 C 
ATOM     82  C   UNL A   1      30.458  26.306  24.745  1.00  0.00     0.133 C 
ATOM     83  C   UNL A   1      32.538  27.751  26.199  1.00  0.00     0.022 C 
ATOM     84  N   UNL A   1      31.645  25.676  25.325  1.00  0.00    -0.356 N 
ATOM     85  C   UNL A   1      32.204  26.290  26.521  1.00  0.00     0.118 C 
BRANCH  84  86
ATOM     86  C   UNL A   1      31.719  24.291  25.212  1.00  0.00     0.129 A 
ATOM     87  C   UNL A   1      31.849  23.553  26.384  1.00  0.00     0.047 A 
ATOM     88  N   UNL A   1      31.683  23.679  24.009  1.00  0.00    -0.231 NA
ATOM     89  C   UNL A   1      31.953  22.176  26.340  1.00  0.00     0.014 A 
ATOM     90  C   UNL A   1      31.842  22.335  23.944  1.00  0.00     0.073 A 
ATOM     91  C   UNL A   1      31.974  21.548  25.106  1.00  0.00     0.002 A 
ATOM     92  C   UNL A   1      31.974  21.676  22.721  1.00  0.00     0.030 A 
ATOM     93  C   UNL A   1      32.164  20.166  25.038  1.00  0.00     0.032 A 
ATOM     94  C   UNL A   1      32.211  20.290  22.637  1.00  0.00     0.024 A 
ATOM     95  C   UNL A   1      32.283  19.530  23.802  1.00  0.00     0.083 A 
BRANCH  95  96
ATOM     96  S   UNL A   1      32.483  17.758  23.885  1.00  0.00     0.243 S 
ATOM     97  O   UNL A   1      31.578  17.312  24.924  1.00  0.00    -0.207 OA
ATOM     98  O   UNL A   1      32.309  17.298  22.521  1.00  0.00    -0.207 OA
BRANCH  96  99
ATOM     99  N   UNL A   1      34.081  17.415  24.332  1.00  0.00    -0.198 NA
ATOM    100  C   UNL A   1      34.935  18.584  24.642  1.00  0.00     0.102 C 
ATOM    101  C   UNL A   1      34.300  16.170  25.115  1.00  0.00     0.102 C 
ATOM    102  C   UNL A   1      36.398  18.203  24.805  1.00  0.00     0.017 C 
ATOM    103  C   UNL A   1      35.784  15.855  25.268  1.00  0.00     0.017 C 
ATOM    104  C   UNL A   1      36.554  17.056  25.789  1.00  0.00     0.003 C 
ENDBRANCH  96  99
ENDBRANCH  95  96
ENDBRANCH  84  86
ENDBRANCH  78  80
ENDBRANCH  77  78
ENDBRANCH  76  77
ENDBRANCH  75  76
ENDBRANCH  74  75
ENDBRANCH  73  74
ENDBRANCH   1  73
TORSDOF 23
ENDMDL
