MODEL 1
REMARK VINA RESULT:      -9.9      0.000      0.000
REMARK SMILES C=Cc1cncc(-c2ccc([C@@H](C)C(=O)OCCOCCOCCOC(=O)c3ccc(-c4c5nc(c(-c6cc(S(=O)(=O)[O-])ccc6F)c6ccc([nH]6)c(-c6cc(S(=O)(=O)[O-])ccc6F)c6nc(c(-c7cc(S(=O)(=O)[O-])ccc7F)c7ccc4[nH]7)C=C6)C=C5)cc3)cc2)c1
REMARK SMILES IDX 20 1 19 2 18 3 17 4 16 5 14 6 15 7 12 8 13 9 11 10 8 11 9 12
REMARK SMILES IDX 92 13 10 14 91 15 7 16 3 17 4 18 93 19 5 20 6 21 2 22 1 23
REMARK SMILES IDX 21 24 22 25 23 26 24 27 25 28 26 29 27 30 28 31 29 32 90 33
REMARK SMILES IDX 30 34 89 35 31 36 32 37 33 38 83 39 34 40 88 41 82 42 84 43
REMARK SMILES IDX 35 44 87 45 81 46 80 47 36 49 68 50 48 51 67 52 49 53 52 54
REMARK SMILES IDX 66 55 85 56 50 57 51 58 65 60 86 61 53 62 37 63 38 64 46 65
REMARK SMILES IDX 39 66 45 67 47 68 44 69 40 70 41 71 42 72 43 73 69 74 70 75
REMARK SMILES IDX 78 76 71 77 77 78 79 79 76 80 72 81 73 82 74 83 75 84 54 85
REMARK SMILES IDX 55 86 63 87 56 88 62 89 64 90 61 91 57 92 58 93 59 94 60 95
REMARK H PARENT 84 48 52 59
REMARK Flexibility Score: inf
ROOT
ATOM      1  C   UNL A   1      36.289  23.576  24.283  1.00  0.00     0.188 C 
ENDROOT
BRANCH   1   2
ATOM      2  O   UNL A   1      34.865  23.571  24.306  1.00  0.00    -0.376 OA
BRANCH   2   3
ATOM      3  C   UNL A   1      34.150  24.240  23.277  1.00  0.00     0.202 C 
BRANCH   3   4
ATOM      4  C   UNL A   1      33.667  25.677  23.537  1.00  0.00     0.261 C 
BRANCH   4   5
ATOM      5  O   UNL A   1      32.286  25.809  23.946  1.00  0.00    -0.463 OA
BRANCH   5   6
ATOM      6  C   UNL A   1      32.064  26.001  25.272  1.00  0.00     0.313 C 
ATOM      7  O   UNL A   1      32.358  25.165  26.125  1.00  0.00    -0.252 OA
BRANCH   6   8
ATOM      8  C   UNL A   1      31.425  27.336  25.673  1.00  0.00     0.126 C 
ATOM      9  C   UNL A   1      30.596  27.843  24.494  1.00  0.00     0.025 C 
BRANCH   8  10
ATOM     10  C   UNL A   1      32.258  28.478  26.258  1.00  0.00    -0.034 A 
ATOM     11  C   UNL A   1      33.722  30.692  27.342  1.00  0.00    -0.017 A 
ATOM     12  C   UNL A   1      34.353  29.479  27.007  1.00  0.00     0.009 A 
ATOM     13  C   UNL A   1      32.342  30.779  27.125  1.00  0.00     0.009 A 
ATOM     14  C   UNL A   1      33.639  28.395  26.465  1.00  0.00     0.005 A 
ATOM     15  C   UNL A   1      31.625  29.697  26.586  1.00  0.00     0.005 A 
BRANCH  11  16
ATOM     16  C   UNL A   1      34.502  31.845  27.831  1.00  0.00     0.001 A 
ATOM     17  C   UNL A   1      36.541  32.905  28.654  1.00  0.00    -0.007 A 
ATOM     18  C   UNL A   1      35.816  34.090  28.748  1.00  0.00     0.119 A 
ATOM     19  C   UNL A   1      35.857  31.766  28.196  1.00  0.00     0.020 A 
ATOM     20  N   UNL A   1      34.515  34.222  28.409  1.00  0.00    -0.263 NA
ATOM     21  C   UNL A   1      33.900  33.099  27.967  1.00  0.00     0.119 A 
BRANCH  17  22
ATOM     22  C   UNL A   1      37.944  32.896  29.081  1.00  0.00     0.002 C 
ATOM     23  C   UNL A   1      38.355  33.160  30.328  1.00  0.00     0.009 C 
ENDBRANCH  17  22
ENDBRANCH  11  16
ENDBRANCH   8  10
ENDBRANCH   6   8
ENDBRANCH   5   6
ENDBRANCH   4   5
ENDBRANCH   3   4
ENDBRANCH   2   3
ENDBRANCH   1   2
BRANCH   1  24
ATOM     24  C   UNL A   1      37.066  23.565  25.607  1.00  0.00     0.188 C 
BRANCH  24  25
ATOM     25  O   UNL A   1      37.486  22.285  26.036  1.00  0.00    -0.376 OA
BRANCH  25  26
ATOM     26  C   UNL A   1      38.883  22.080  26.112  1.00  0.00     0.202 C 
BRANCH  26  27
ATOM     27  C   UNL A   1      39.314  20.624  25.890  1.00  0.00     0.261 C 
BRANCH  27  28
ATOM     28  O   UNL A   1      40.253  20.099  26.850  1.00  0.00    -0.460 OA
BRANCH  28  29
ATOM     29  C   UNL A   1      41.502  19.841  26.399  1.00  0.00     0.338 C 
ATOM     30  O   UNL A   1      41.862  18.834  25.802  1.00  0.00    -0.246 OA
BRANCH  29  31
ATOM     31  C   UNL A   1      42.315  21.073  26.532  1.00  0.00     0.060 A 
ATOM     32  C   UNL A   1      42.711  21.487  27.811  1.00  0.00     0.016 A 
ATOM     33  C   UNL A   1      42.680  21.822  25.410  1.00  0.00     0.016 A 
ATOM     34  C   UNL A   1      43.424  22.677  27.976  1.00  0.00     0.010 A 
ATOM     35  C   UNL A   1      43.382  23.023  25.579  1.00  0.00     0.010 A 
ATOM     36  C   UNL A   1      43.722  23.480  26.865  1.00  0.00    -0.014 A 
BRANCH  36  37
ATOM     37  C   UNL A   1      44.206  24.872  27.078  1.00  0.00     0.031 A 
ATOM     38  C   UNL A   1      43.251  25.885  27.660  1.00  0.00     0.074 A 
ATOM     39  C   UNL A   1      45.479  25.224  26.819  1.00  0.00     0.049 A 
ATOM     40  N   UNL A   1      43.446  27.147  27.946  1.00  0.00    -0.248 NA
ATOM     41  C   UNL A   1      41.893  25.404  27.954  1.00  0.00     0.031 C 
ATOM     42  C   UNL A   1      46.511  24.334  26.292  1.00  0.00     0.029 A 
ATOM     43  N   UNL A   1      46.120  26.430  26.968  1.00  0.00    -0.354 N 
ATOM     44  C   UNL A   1      42.236  27.611  28.454  1.00  0.00     0.074 A 
ATOM     45  C   UNL A   1      41.304  26.507  28.389  1.00  0.00     0.031 C 
ATOM     46  C   UNL A   1      47.659  25.023  26.166  1.00  0.00     0.029 A 
ATOM     47  C   UNL A   1      47.437  26.413  26.568  1.00  0.00     0.049 A 
ATOM     48  H   UNL A   1      45.680  27.234  27.328  1.00  0.00     0.167 HD
ATOM     49  C   UNL A   1      41.932  28.840  28.944  1.00  0.00     0.034 A 
ATOM     50  C   UNL A   1      48.352  27.403  26.515  1.00  0.00     0.034 A 
ATOM     51  C   UNL A   1      42.864  29.941  28.990  1.00  0.00     0.049 A 
ATOM     52  C   UNL A   1      47.966  28.787  26.987  1.00  0.00     0.074 A 
ATOM     53  C   UNL A   1      42.661  31.224  29.472  1.00  0.00     0.029 A 
ATOM     54  N   UNL A   1      44.173  29.900  28.525  1.00  0.00    -0.354 N 
ATOM     55  N   UNL A   1      46.822  29.209  27.478  1.00  0.00    -0.248 NA
ATOM     56  C   UNL A   1      49.005  29.824  26.911  1.00  0.00     0.031 C 
ATOM     57  C   UNL A   1      43.814  31.976  29.224  1.00  0.00     0.029 A 
ATOM     58  C   UNL A   1      44.775  31.141  28.678  1.00  0.00     0.049 A 
ATOM     59  H   UNL A   1      44.611  29.104  28.143  1.00  0.00     0.167 HD
ATOM     60  C   UNL A   1      47.020  30.551  27.805  1.00  0.00     0.074 A 
ATOM     61  C   UNL A   1      48.397  30.857  27.474  1.00  0.00     0.031 C 
ATOM     62  C   UNL A   1      46.145  31.446  28.333  1.00  0.00     0.034 A 
BRANCH  49  63
ATOM     63  C   UNL A   1      40.514  29.067  29.418  1.00  0.00     0.023 A 
ATOM     64  C   UNL A   1      40.203  29.227  30.781  1.00  0.00     0.031 A 
ATOM     65  C   UNL A   1      39.454  29.095  28.495  1.00  0.00     0.131 A 
ATOM     66  C   UNL A   1      38.864  29.331  31.186  1.00  0.00     0.055 A 
ATOM     67  C   UNL A   1      38.130  29.287  28.897  1.00  0.00     0.041 A 
ATOM     68  F   UNL A   1      39.683  28.921  27.184  1.00  0.00    -0.206 F 
ATOM     69  C   UNL A   1      37.827  29.392  30.251  1.00  0.00     0.022 A 
BRANCH  66  70
ATOM     70  S   UNL A   1      38.482  29.233  32.957  1.00  0.00     0.124 S 
ATOM     71  O   UNL A   1      39.723  28.680  33.496  1.00  0.00    -0.237 OA
ATOM     72  O   UNL A   1      38.202  30.623  33.297  1.00  0.00    -0.237 OA
ATOM     73  O   UNL A   1      37.332  28.332  33.011  1.00  0.00    -0.744 OA
ENDBRANCH  66  70
ENDBRANCH  49  63
BRANCH  50  74
ATOM     74  C   UNL A   1      49.719  27.150  25.969  1.00  0.00     0.023 A 
ATOM     75  C   UNL A   1      50.027  27.392  24.620  1.00  0.00     0.031 A 
ATOM     76  C   UNL A   1      50.724  26.589  26.780  1.00  0.00     0.131 A 
ATOM     77  C   UNL A   1      51.284  27.028  24.110  1.00  0.00     0.055 A 
ATOM     78  C   UNL A   1      51.992  26.286  26.282  1.00  0.00     0.041 A 
ATOM     79  F   UNL A   1      50.484  26.328  28.075  1.00  0.00    -0.206 F 
ATOM     80  C   UNL A   1      52.274  26.492  24.936  1.00  0.00     0.022 A 
BRANCH  77  81
ATOM     81  S   UNL A   1      51.573  27.173  22.324  1.00  0.00     0.124 S 
ATOM     82  O   UNL A   1      51.830  28.601  22.180  1.00  0.00    -0.237 OA
ATOM     83  O   UNL A   1      52.721  26.292  22.132  1.00  0.00    -0.237 OA
ATOM     84  O   UNL A   1      50.322  26.699  21.737  1.00  0.00    -0.744 OA
ENDBRANCH  77  81
ENDBRANCH  50  74
BRANCH  62  85
ATOM     85  C   UNL A   1      46.675  32.832  28.636  1.00  0.00     0.023 A 
ATOM     86  C   UNL A   1      46.634  33.870  27.687  1.00  0.00     0.031 A 
ATOM     87  C   UNL A   1      47.270  33.106  29.881  1.00  0.00     0.131 A 
ATOM     88  C   UNL A   1      47.252  35.099  27.965  1.00  0.00     0.055 A 
ATOM     89  C   UNL A   1      47.813  34.358  30.181  1.00  0.00     0.041 A 
ATOM     90  F   UNL A   1      47.344  32.158  30.829  1.00  0.00    -0.206 F 
ATOM     91  C   UNL A   1      47.825  35.357  29.212  1.00  0.00     0.022 A 
BRANCH  88  92
ATOM     92  S   UNL A   1      47.427  36.307  26.622  1.00  0.00     0.124 S 
ATOM     93  O   UNL A   1      48.343  35.622  25.716  1.00  0.00    -0.237 OA
ATOM     94  O   UNL A   1      46.053  36.449  26.151  1.00  0.00    -0.237 OA
ATOM     95  O   UNL A   1      47.980  37.485  27.290  1.00  0.00    -0.744 OA
ENDBRANCH  88  92
ENDBRANCH  62  85
ENDBRANCH  36  37
ENDBRANCH  29  31
ENDBRANCH  28  29
ENDBRANCH  27  28
ENDBRANCH  26  27
ENDBRANCH  25  26
ENDBRANCH  24  25
ENDBRANCH   1  24
TORSDOF 23
ENDMDL
MODEL 2
REMARK VINA RESULT:      -9.7      2.564      5.274
REMARK SMILES C=Cc1cncc(-c2ccc([C@@H](C)C(=O)OCCOCCOCCOC(=O)c3ccc(-c4c5nc(c(-c6cc(S(=O)(=O)[O-])ccc6F)c6ccc([nH]6)c(-c6cc(S(=O)(=O)[O-])ccc6F)c6nc(c(-c7cc(S(=O)(=O)[O-])ccc7F)c7ccc4[nH]7)C=C6)C=C5)cc3)cc2)c1
REMARK SMILES IDX 20 1 19 2 18 3 17 4 16 5 14 6 15 7 12 8 13 9 11 10 8 11 9 12
REMARK SMILES IDX 92 13 10 14 91 15 7 16 3 17 4 18 93 19 5 20 6 21 2 22 1 23
REMARK SMILES IDX 21 24 22 25 23 26 24 27 25 28 26 29 27 30 28 31 29 32 90 33
REMARK SMILES IDX 30 34 89 35 31 36 32 37 33 38 83 39 34 40 88 41 82 42 84 43
REMARK SMILES IDX 35 44 87 45 81 46 80 47 36 49 68 50 48 51 67 52 49 53 52 54
REMARK SMILES IDX 66 55 85 56 50 57 51 58 65 60 86 61 53 62 37 63 38 64 46 65
REMARK SMILES IDX 39 66 45 67 47 68 44 69 40 70 41 71 42 72 43 73 69 74 70 75
REMARK SMILES IDX 78 76 71 77 77 78 79 79 76 80 72 81 73 82 74 83 75 84 54 85
REMARK SMILES IDX 55 86 63 87 56 88 62 89 64 90 61 91 57 92 58 93 59 94 60 95
REMARK H PARENT 84 48 52 59
REMARK Flexibility Score: inf
ROOT
ATOM      1  C   UNL A   1      36.586  23.882  24.890  1.00  0.00     0.188 C 
ENDROOT
BRANCH   1   2
ATOM      2  O   UNL A   1      35.187  23.849  25.154  1.00  0.00    -0.376 OA
BRANCH   2   3
ATOM      3  C   UNL A   1      34.370  24.925  24.713  1.00  0.00     0.202 C 
BRANCH   3   4
ATOM      4  C   UNL A   1      33.996  26.022  25.723  1.00  0.00     0.261 C 
BRANCH   4   5
ATOM      5  O   UNL A   1      32.609  26.049  26.132  1.00  0.00    -0.463 OA
BRANCH   5   6
ATOM      6  C   UNL A   1      31.687  26.131  25.138  1.00  0.00     0.313 C 
ATOM      7  O   UNL A   1      31.615  27.091  24.373  1.00  0.00    -0.252 OA
BRANCH   6   8
ATOM      8  C   UNL A   1      30.722  24.948  25.000  1.00  0.00     0.126 C 
ATOM      9  C   UNL A   1      29.876  24.869  26.270  1.00  0.00     0.025 C 
BRANCH   8  10
ATOM     10  C   UNL A   1      31.216  23.553  24.612  1.00  0.00    -0.034 A 
ATOM     11  C   UNL A   1      32.156  20.913  24.004  1.00  0.00    -0.017 A 
ATOM     12  C   UNL A   1      31.971  21.883  23.001  1.00  0.00     0.009 A 
ATOM     13  C   UNL A   1      31.862  21.288  25.321  1.00  0.00     0.009 A 
ATOM     14  C   UNL A   1      31.520  23.182  23.298  1.00  0.00     0.005 A 
ATOM     15  C   UNL A   1      31.409  22.584  25.621  1.00  0.00     0.005 A 
BRANCH  11  16
ATOM     16  C   UNL A   1      32.709  19.584  23.683  1.00  0.00     0.001 A 
ATOM     17  C   UNL A   1      34.226  17.708  24.053  1.00  0.00    -0.007 A 
ATOM     18  C   UNL A   1      33.649  17.098  22.942  1.00  0.00     0.119 A 
ATOM     19  C   UNL A   1      33.746  18.979  24.413  1.00  0.00     0.020 A 
ATOM     20  N   UNL A   1      32.648  17.634  22.207  1.00  0.00    -0.263 NA
ATOM     21  C   UNL A   1      32.215  18.857  22.596  1.00  0.00     0.119 A 
BRANCH  17  22
ATOM     22  C   UNL A   1      35.324  17.024  24.745  1.00  0.00     0.002 C 
ATOM     23  C   UNL A   1      35.175  15.924  25.494  1.00  0.00     0.009 C 
ENDBRANCH  17  22
ENDBRANCH  11  16
ENDBRANCH   8  10
ENDBRANCH   6   8
ENDBRANCH   5   6
ENDBRANCH   4   5
ENDBRANCH   3   4
ENDBRANCH   2   3
ENDBRANCH   1   2
BRANCH   1  24
ATOM     24  C   UNL A   1      37.578  23.746  26.055  1.00  0.00     0.188 C 
BRANCH  24  25
ATOM     25  O   UNL A   1      37.958  22.418  26.355  1.00  0.00    -0.376 OA
BRANCH  25  26
ATOM     26  C   UNL A   1      39.348  22.163  26.398  1.00  0.00     0.202 C 
BRANCH  26  27
ATOM     27  C   UNL A   1      39.735  20.738  25.979  1.00  0.00     0.261 C 
BRANCH  27  28
ATOM     28  O   UNL A   1      40.827  20.147  26.713  1.00  0.00    -0.460 OA
BRANCH  28  29
ATOM     29  C   UNL A   1      42.017  20.073  26.075  1.00  0.00     0.338 C 
ATOM     30  O   UNL A   1      42.364  19.199  25.290  1.00  0.00    -0.246 OA
BRANCH  29  31
ATOM     31  C   UNL A   1      42.749  21.343  26.293  1.00  0.00     0.060 A 
ATOM     32  C   UNL A   1      43.045  21.737  27.605  1.00  0.00     0.016 A 
ATOM     33  C   UNL A   1      43.135  22.147  25.217  1.00  0.00     0.016 A 
ATOM     34  C   UNL A   1      43.676  22.959  27.847  1.00  0.00     0.010 A 
ATOM     35  C   UNL A   1      43.756  23.380  25.463  1.00  0.00     0.010 A 
ATOM     36  C   UNL A   1      43.992  23.813  26.780  1.00  0.00    -0.014 A 
BRANCH  36  37
ATOM     37  C   UNL A   1      44.383  25.222  27.062  1.00  0.00     0.031 A 
ATOM     38  C   UNL A   1      43.337  26.162  27.609  1.00  0.00     0.074 A 
ATOM     39  C   UNL A   1      45.647  25.651  26.896  1.00  0.00     0.049 A 
ATOM     40  N   UNL A   1      43.441  27.423  27.942  1.00  0.00    -0.248 NA
ATOM     41  C   UNL A   1      41.993  25.599  27.801  1.00  0.00     0.031 C 
ATOM     42  C   UNL A   1      46.760  24.836  26.413  1.00  0.00     0.029 A 
ATOM     43  N   UNL A   1      46.209  26.886  27.120  1.00  0.00    -0.354 N 
ATOM     44  C   UNL A   1      42.177  27.805  28.383  1.00  0.00     0.074 A 
ATOM     45  C   UNL A   1      41.315  26.653  28.227  1.00  0.00     0.031 C 
ATOM     46  C   UNL A   1      47.872  25.590  26.381  1.00  0.00     0.029 A 
ATOM     47  C   UNL A   1      47.547  26.952  26.806  1.00  0.00     0.049 A 
ATOM     48  H   UNL A   1      45.702  27.652  27.473  1.00  0.00     0.167 HD
ATOM     49  C   UNL A   1      41.773  28.999  28.886  1.00  0.00     0.034 A 
ATOM     50  C   UNL A   1      48.405  27.993  26.840  1.00  0.00     0.034 A 
ATOM     51  C   UNL A   1      42.637  30.148  29.023  1.00  0.00     0.049 A 
ATOM     52  C   UNL A   1      47.912  29.338  27.324  1.00  0.00     0.074 A 
ATOM     53  C   UNL A   1      42.331  31.401  29.526  1.00  0.00     0.029 A 
ATOM     54  N   UNL A   1      43.973  30.192  28.643  1.00  0.00    -0.354 N 
ATOM     55  N   UNL A   1      46.718  29.681  27.752  1.00  0.00    -0.248 NA
ATOM     56  C   UNL A   1      48.893  30.433  27.345  1.00  0.00     0.031 C 
ATOM     57  C   UNL A   1      43.453  32.223  29.374  1.00  0.00     0.029 A 
ATOM     58  C   UNL A   1      44.493  31.459  28.869  1.00  0.00     0.049 A 
ATOM     59  H   UNL A   1      44.478  29.434  28.269  1.00  0.00     0.167 HD
ATOM     60  C   UNL A   1      46.818  31.021  28.127  1.00  0.00     0.074 A 
ATOM     61  C   UNL A   1      48.193  31.412  27.895  1.00  0.00     0.031 C 
ATOM     62  C   UNL A   1      45.862  31.850  28.623  1.00  0.00     0.034 A 
BRANCH  49  63
ATOM     63  C   UNL A   1      40.318  29.133  29.273  1.00  0.00     0.023 A 
ATOM     64  C   UNL A   1      39.903  29.131  30.618  1.00  0.00     0.031 A 
ATOM     65  C   UNL A   1      39.327  29.234  28.281  1.00  0.00     0.131 A 
ATOM     66  C   UNL A   1      38.536  29.154  30.929  1.00  0.00     0.055 A 
ATOM     67  C   UNL A   1      37.971  29.344  28.600  1.00  0.00     0.041 A 
ATOM     68  F   UNL A   1      39.656  29.213  26.980  1.00  0.00    -0.206 F 
ATOM     69  C   UNL A   1      37.568  29.289  29.930  1.00  0.00     0.022 A 
BRANCH  66  70
ATOM     70  S   UNL A   1      38.031  28.849  32.645  1.00  0.00     0.124 S 
ATOM     71  O   UNL A   1      39.210  29.295  33.384  1.00  0.00    -0.237 OA
ATOM     72  O   UNL A   1      36.841  29.682  32.776  1.00  0.00    -0.237 OA
ATOM     73  O   UNL A   1      37.791  27.407  32.682  1.00  0.00    -0.744 OA
ENDBRANCH  66  70
ENDBRANCH  49  63
BRANCH  50  74
ATOM     74  C   UNL A   1      49.817  27.832  26.378  1.00  0.00     0.023 A 
ATOM     75  C   UNL A   1      50.199  28.155  25.065  1.00  0.00     0.031 A 
ATOM     76  C   UNL A   1      50.793  27.281  27.229  1.00  0.00     0.131 A 
ATOM     77  C   UNL A   1      51.504  27.877  24.626  1.00  0.00     0.055 A 
ATOM     78  C   UNL A   1      52.105  27.064  26.805  1.00  0.00     0.041 A 
ATOM     79  F   UNL A   1      50.483  26.945  28.491  1.00  0.00    -0.206 F 
ATOM     80  C   UNL A   1      52.464  27.349  25.491  1.00  0.00     0.022 A 
BRANCH  77  81
ATOM     81  S   UNL A   1      51.903  28.122  22.872  1.00  0.00     0.124 S 
ATOM     82  O   UNL A   1      53.001  29.079  22.949  1.00  0.00    -0.237 OA
ATOM     83  O   UNL A   1      52.257  26.771  22.450  1.00  0.00    -0.237 OA
ATOM     84  O   UNL A   1      50.658  28.642  22.310  1.00  0.00    -0.744 OA
ENDBRANCH  77  81
ENDBRANCH  50  74
BRANCH  62  85
ATOM     85  C   UNL A   1      46.292  33.252  28.997  1.00  0.00     0.023 A 
ATOM     86  C   UNL A   1      46.214  34.324  28.089  1.00  0.00     0.031 A 
ATOM     87  C   UNL A   1      46.830  33.512  30.271  1.00  0.00     0.131 A 
ATOM     88  C   UNL A   1      46.743  35.578  28.436  1.00  0.00     0.055 A 
ATOM     89  C   UNL A   1      47.282  34.781  30.638  1.00  0.00     0.041 A 
ATOM     90  F   UNL A   1      46.935  32.532  31.183  1.00  0.00    -0.206 F 
ATOM     91  C   UNL A   1      47.259  35.818  29.711  1.00  0.00     0.022 A 
BRANCH  88  92
ATOM     92  S   UNL A   1      46.881  36.849  27.148  1.00  0.00     0.124 S 
ATOM     93  O   UNL A   1      48.271  37.271  27.289  1.00  0.00    -0.237 OA
ATOM     94  O   UNL A   1      46.562  36.101  25.937  1.00  0.00    -0.237 OA
ATOM     95  O   UNL A   1      45.887  37.846  27.543  1.00  0.00    -0.744 OA
ENDBRANCH  88  92
ENDBRANCH  62  85
ENDBRANCH  36  37
ENDBRANCH  29  31
ENDBRANCH  28  29
ENDBRANCH  27  28
ENDBRANCH  26  27
ENDBRANCH  25  26
ENDBRANCH  24  25
ENDBRANCH   1  24
TORSDOF 23
ENDMDL
MODEL 3
REMARK VINA RESULT:      -9.2      2.911      4.508
REMARK SMILES C=Cc1cncc(-c2ccc([C@@H](C)C(=O)OCCOCCOCCOC(=O)c3ccc(-c4c5nc(c(-c6cc(S(=O)(=O)[O-])ccc6F)c6ccc([nH]6)c(-c6cc(S(=O)(=O)[O-])ccc6F)c6nc(c(-c7cc(S(=O)(=O)[O-])ccc7F)c7ccc4[nH]7)C=C6)C=C5)cc3)cc2)c1
REMARK SMILES IDX 20 1 19 2 18 3 17 4 16 5 14 6 15 7 12 8 13 9 11 10 8 11 9 12
REMARK SMILES IDX 92 13 10 14 91 15 7 16 3 17 4 18 93 19 5 20 6 21 2 22 1 23
REMARK SMILES IDX 21 24 22 25 23 26 24 27 25 28 26 29 27 30 28 31 29 32 90 33
REMARK SMILES IDX 30 34 89 35 31 36 32 37 33 38 83 39 34 40 88 41 82 42 84 43
REMARK SMILES IDX 35 44 87 45 81 46 80 47 36 49 68 50 48 51 67 52 49 53 52 54
REMARK SMILES IDX 66 55 85 56 50 57 51 58 65 60 86 61 53 62 37 63 38 64 46 65
REMARK SMILES IDX 39 66 45 67 47 68 44 69 40 70 41 71 42 72 43 73 69 74 70 75
REMARK SMILES IDX 78 76 71 77 77 78 79 79 76 80 72 81 73 82 74 83 75 84 54 85
REMARK SMILES IDX 55 86 63 87 56 88 62 89 64 90 61 91 57 92 58 93 59 94 60 95
REMARK H PARENT 84 48 52 59
REMARK Flexibility Score: inf
ROOT
ATOM      1  C   UNL A   1      38.939  22.371  26.135  1.00  0.00     0.188 C 
ENDROOT
BRANCH   1   2
ATOM      2  O   UNL A   1      38.379  21.286  25.402  1.00  0.00    -0.376 OA
BRANCH   2   3
ATOM      3  C   UNL A   1      37.194  21.496  24.645  1.00  0.00     0.202 C 
BRANCH   3   4
ATOM      4  C   UNL A   1      35.856  21.599  25.394  1.00  0.00     0.261 C 
BRANCH   4   5
ATOM      5  O   UNL A   1      34.706  21.063  24.699  1.00  0.00    -0.463 OA
BRANCH   5   6
ATOM      6  C   UNL A   1      33.552  20.985  25.410  1.00  0.00     0.313 C 
ATOM      7  O   UNL A   1      33.517  20.624  26.586  1.00  0.00    -0.252 OA
BRANCH   6   8
ATOM      8  C   UNL A   1      32.266  21.380  24.675  1.00  0.00     0.126 C 
ATOM      9  C   UNL A   1      32.277  20.715  23.300  1.00  0.00     0.025 C 
BRANCH   8  10
ATOM     10  C   UNL A   1      31.836  22.843  24.546  1.00  0.00    -0.034 A 
ATOM     11  C   UNL A   1      30.988  25.559  24.192  1.00  0.00    -0.017 A 
ATOM     12  C   UNL A   1      31.777  25.166  25.289  1.00  0.00     0.009 A 
ATOM     13  C   UNL A   1      30.628  24.567  23.272  1.00  0.00     0.009 A 
ATOM     14  C   UNL A   1      32.204  23.837  25.460  1.00  0.00     0.005 A 
ATOM     15  C   UNL A   1      31.051  23.237  23.441  1.00  0.00     0.005 A 
BRANCH  11  16
ATOM     16  C   UNL A   1      30.621  26.973  23.987  1.00  0.00     0.001 A 
ATOM     17  C   UNL A   1      29.119  28.749  23.248  1.00  0.00    -0.007 A 
ATOM     18  C   UNL A   1      30.093  29.660  23.650  1.00  0.00     0.119 A 
ATOM     19  C   UNL A   1      29.405  27.384  23.414  1.00  0.00     0.020 A 
ATOM     20  N   UNL A   1      31.276  29.320  24.208  1.00  0.00    -0.263 NA
ATOM     21  C   UNL A   1      31.504  27.993  24.354  1.00  0.00     0.119 A 
BRANCH  17  22
ATOM     22  C   UNL A   1      27.887  29.256  22.632  1.00  0.00     0.002 C 
ATOM     23  C   UNL A   1      27.681  30.536  22.300  1.00  0.00     0.009 C 
ENDBRANCH  17  22
ENDBRANCH  11  16
ENDBRANCH   8  10
ENDBRANCH   6   8
ENDBRANCH   5   6
ENDBRANCH   4   5
ENDBRANCH   3   4
ENDBRANCH   2   3
ENDBRANCH   1   2
BRANCH   1  24
ATOM     24  C   UNL A   1      40.129  22.114  27.071  1.00  0.00     0.188 C 
BRANCH  24  25
ATOM     25  O   UNL A   1      40.573  20.773  27.109  1.00  0.00    -0.376 OA
BRANCH  25  26
ATOM     26  C   UNL A   1      41.972  20.581  27.191  1.00  0.00     0.202 C 
BRANCH  26  27
ATOM     27  C   UNL A   1      42.536  19.630  26.127  1.00  0.00     0.261 C 
BRANCH  27  28
ATOM     28  O   UNL A   1      43.134  20.264  24.978  1.00  0.00    -0.460 OA
BRANCH  28  29
ATOM     29  C   UNL A   1      44.475  20.145  24.849  1.00  0.00     0.338 C 
ATOM     30  O   UNL A   1      45.078  19.165  24.430  1.00  0.00    -0.246 OA
BRANCH  29  31
ATOM     31  C   UNL A   1      45.089  21.475  25.074  1.00  0.00     0.060 A 
ATOM     32  C   UNL A   1      45.477  21.830  26.373  1.00  0.00     0.016 A 
ATOM     33  C   UNL A   1      45.276  22.372  24.019  1.00  0.00     0.016 A 
ATOM     34  C   UNL A   1      46.000  23.100  26.630  1.00  0.00     0.010 A 
ATOM     35  C   UNL A   1      45.787  23.651  24.280  1.00  0.00     0.010 A 
ATOM     36  C   UNL A   1      46.113  24.038  25.593  1.00  0.00    -0.014 A 
BRANCH  36  37
ATOM     37  C   UNL A   1      46.381  25.465  25.924  1.00  0.00     0.031 A 
ATOM     38  C   UNL A   1      45.230  26.327  26.378  1.00  0.00     0.074 A 
ATOM     39  C   UNL A   1      47.625  25.977  25.882  1.00  0.00     0.049 A 
ATOM     40  N   UNL A   1      45.219  27.587  26.731  1.00  0.00    -0.248 NA
ATOM     41  C   UNL A   1      43.913  25.675  26.437  1.00  0.00     0.031 C 
ATOM     42  C   UNL A   1      48.829  25.243  25.498  1.00  0.00     0.029 A 
ATOM     43  N   UNL A   1      48.080  27.242  26.169  1.00  0.00    -0.354 N 
ATOM     44  C   UNL A   1      43.897  27.879  27.055  1.00  0.00     0.074 A 
ATOM     45  C   UNL A   1      43.131  26.676  26.808  1.00  0.00     0.031 C 
ATOM     46  C   UNL A   1      49.887  26.068  25.578  1.00  0.00     0.029 A 
ATOM     47  C   UNL A   1      49.435  27.400  25.983  1.00  0.00     0.049 A 
ATOM     48  H   UNL A   1      47.493  27.968  26.480  1.00  0.00     0.167 HD
ATOM     49  C   UNL A   1      43.370  29.036  27.528  1.00  0.00     0.034 A 
ATOM     50  C   UNL A   1      50.216  28.493  26.108  1.00  0.00     0.034 A 
ATOM     51  C   UNL A   1      44.140  30.236  27.757  1.00  0.00     0.049 A 
ATOM     52  C   UNL A   1      49.592  29.796  26.556  1.00  0.00     0.074 A 
ATOM     53  C   UNL A   1      43.706  31.459  28.241  1.00  0.00     0.029 A 
ATOM     54  N   UNL A   1      45.500  30.373  27.506  1.00  0.00    -0.354 N 
ATOM     55  N   UNL A   1      48.343  30.054  26.872  1.00  0.00    -0.248 NA
ATOM     56  C   UNL A   1      50.493  30.951  26.679  1.00  0.00     0.031 C 
ATOM     57  C   UNL A   1      44.781  32.354  28.203  1.00  0.00     0.029 A 
ATOM     58  C   UNL A   1      45.911  31.667  27.791  1.00  0.00     0.049 A 
ATOM     59  H   UNL A   1      46.086  29.655  27.173  1.00  0.00     0.167 HD
ATOM     60  C   UNL A   1      48.320  31.391  27.268  1.00  0.00     0.074 A 
ATOM     61  C   UNL A   1      49.682  31.875  27.171  1.00  0.00     0.031 C 
ATOM     62  C   UNL A   1      47.269  32.150  27.679  1.00  0.00     0.034 A 
BRANCH  49  63
ATOM     63  C   UNL A   1      41.879  29.070  27.778  1.00  0.00     0.023 A 
ATOM     64  C   UNL A   1      41.342  29.027  29.078  1.00  0.00     0.031 A 
ATOM     65  C   UNL A   1      40.980  29.116  26.698  1.00  0.00     0.131 A 
ATOM     66  C   UNL A   1      39.953  28.955  29.260  1.00  0.00     0.055 A 
ATOM     67  C   UNL A   1      39.597  29.133  26.889  1.00  0.00     0.041 A 
ATOM     68  F   UNL A   1      41.430  29.131  25.433  1.00  0.00    -0.206 F 
ATOM     69  C   UNL A   1      39.075  29.037  28.175  1.00  0.00     0.022 A 
BRANCH  66  70
ATOM     70  S   UNL A   1      39.311  28.599  30.920  1.00  0.00     0.124 S 
ATOM     71  O   UNL A   1      38.632  27.323  30.706  1.00  0.00    -0.237 OA
ATOM     72  O   UNL A   1      40.527  28.550  31.723  1.00  0.00    -0.237 OA
ATOM     73  O   UNL A   1      38.425  29.729  31.195  1.00  0.00    -0.744 OA
ENDBRANCH  66  70
ENDBRANCH  49  63
BRANCH  50  74
ATOM     74  C   UNL A   1      51.672  28.431  25.779  1.00  0.00     0.023 A 
ATOM     75  C   UNL A   1      52.633  28.142  26.762  1.00  0.00     0.031 A 
ATOM     76  C   UNL A   1      52.130  28.732  24.483  1.00  0.00     0.131 A 
ATOM     77  C   UNL A   1      54.000  28.212  26.449  1.00  0.00     0.055 A 
ATOM     78  C   UNL A   1      53.488  28.740  24.163  1.00  0.00     0.041 A 
ATOM     79  F   UNL A   1      51.258  29.025  23.505  1.00  0.00    -0.206 F 
ATOM     80  C   UNL A   1      54.434  28.493  25.152  1.00  0.00     0.022 A 
BRANCH  77  81
ATOM     81  S   UNL A   1      55.211  28.028  27.789  1.00  0.00     0.124 S 
ATOM     82  O   UNL A   1      56.472  28.189  27.074  1.00  0.00    -0.237 OA
ATOM     83  O   UNL A   1      54.838  29.117  28.685  1.00  0.00    -0.237 OA
ATOM     84  O   UNL A   1      54.949  26.685  28.302  1.00  0.00    -0.744 OA
ENDBRANCH  77  81
ENDBRANCH  50  74
BRANCH  62  85
ATOM     85  C   UNL A   1      47.569  33.571  28.105  1.00  0.00     0.023 A 
ATOM     86  C   UNL A   1      47.552  34.642  27.194  1.00  0.00     0.031 A 
ATOM     87  C   UNL A   1      47.920  33.851  29.439  1.00  0.00     0.131 A 
ATOM     88  C   UNL A   1      47.962  35.920  27.606  1.00  0.00     0.055 A 
ATOM     89  C   UNL A   1      48.249  35.141  29.861  1.00  0.00     0.041 A 
ATOM     90  F   UNL A   1      47.958  32.872  30.357  1.00  0.00    -0.206 F 
ATOM     91  C   UNL A   1      48.293  36.181  28.938  1.00  0.00     0.022 A 
BRANCH  88  92
ATOM     92  S   UNL A   1      48.198  37.206  26.347  1.00  0.00     0.124 S 
ATOM     93  O   UNL A   1      49.005  38.187  27.065  1.00  0.00    -0.237 OA
ATOM     94  O   UNL A   1      48.880  36.476  25.283  1.00  0.00    -0.237 OA
ATOM     95  O   UNL A   1      46.836  37.633  26.033  1.00  0.00    -0.744 OA
ENDBRANCH  88  92
ENDBRANCH  62  85
ENDBRANCH  36  37
ENDBRANCH  29  31
ENDBRANCH  28  29
ENDBRANCH  27  28
ENDBRANCH  26  27
ENDBRANCH  25  26
ENDBRANCH  24  25
ENDBRANCH   1  24
TORSDOF 23
ENDMDL
