MODEL 1
REMARK VINA RESULT:     -11.0      0.000      0.000
REMARK SMILES O=C(OCCOCCOCCOC(=O)c1ccc(-c2c3nc(c(-c4cc(S(=O)(=O)[O-])ccc4F)c4ccc([nH]4)c(-c4cc(S(=O)(=O)[O-])ccc4F)c4nc(c(-c5cc(S(=O)(=O)[O-])ccc5F)c5ccc2[nH]5)C=C4)C=C3)cc1)C1=Cc2c(ccc(Cl)c2-c2ccccc2)O[C@H]1C(F)(F)F
REMARK SMILES IDX 8 1 7 2 6 3 5 4 4 5 3 6 2 7 1 8 78 9 79 10 94 11 80 12 93 13
REMARK SMILES IDX 81 14 86 15 82 16 84 17 83 18 85 19 95 20 96 21 97 22 98 23
REMARK SMILES IDX 87 24 88 25 92 26 89 27 91 28 90 29 9 30 10 31 11 32 12 33
REMARK SMILES IDX 13 34 14 35 15 36 16 37 77 38 17 39 76 40 18 41 19 42 20 43
REMARK SMILES IDX 70 44 21 45 75 46 69 47 71 48 22 49 74 50 68 51 67 52 23 54
REMARK SMILES IDX 55 55 35 56 54 57 36 58 39 59 53 60 72 61 37 62 38 63 52 65
REMARK SMILES IDX 73 66 40 67 24 68 25 69 33 70 26 71 32 72 34 73 31 74 27 75
REMARK SMILES IDX 28 76 29 77 30 78 56 79 57 80 65 81 58 82 64 83 66 84 63 85
REMARK SMILES IDX 59 86 60 87 61 88 62 89 41 90 42 91 50 92 43 93 49 94 51 95
REMARK SMILES IDX 48 96 44 97 45 98 46 99 47 100
REMARK H PARENT 71 53 39 64
REMARK Flexibility Score: inf
ROOT
ATOM      1  C   UNL A   1      46.951  42.455  28.773  1.00  0.00     0.188 C 
ENDROOT
BRANCH   1   2
ATOM      2  C   UNL A   1      45.769  43.207  27.851  1.00  0.00     0.188 C 
BRANCH   2   3
ATOM      3  O   UNL A   1      45.826  43.229  26.433  1.00  0.00    -0.376 OA
BRANCH   3   4
ATOM      4  C   UNL A   1      44.704  43.640  25.674  1.00  0.00     0.202 C 
BRANCH   4   5
ATOM      5  C   UNL A   1      44.860  44.767  24.649  1.00  0.00     0.261 C 
BRANCH   5   6
ATOM      6  O   UNL A   1      46.130  44.712  23.980  1.00  0.00    -0.460 OA
BRANCH   6   7
ATOM      7  C   UNL A   1      46.379  45.094  22.714  1.00  0.00     0.338 C 
ATOM      8  O   UNL A   1      46.831  46.216  22.501  1.00  0.00    -0.246 OA
BRANCH   7   9
ATOM      9  C   UNL A   1      46.135  44.201  21.560  1.00  0.00     0.087 C 
ATOM     10  C   UNL A   1      45.967  44.525  20.263  1.00  0.00     0.028 C 
ATOM     11  C   UNL A   1      45.847  42.773  21.944  1.00  0.00     0.316 C 
ATOM     12  C   UNL A   1      44.583  44.291  19.816  1.00  0.00     0.027 A 
ATOM     13  O   UNL A   1      44.756  42.216  21.142  1.00  0.00    -0.475 OA
ATOM     14  C   UNL A   1      44.021  43.110  20.385  1.00  0.00     0.128 A 
ATOM     15  C   UNL A   1      43.871  45.150  18.920  1.00  0.00     0.011 A 
ATOM     16  C   UNL A   1      42.702  42.782  20.157  1.00  0.00     0.049 A 
ATOM     17  C   UNL A   1      42.536  44.721  18.676  1.00  0.00     0.049 A 
ATOM     18  C   UNL A   1      41.960  43.598  19.317  1.00  0.00     0.025 A 
ATOM     19  Cl  UNL A   1      41.488  45.442  17.493  1.00  0.00    -0.084 Cl
BRANCH  11  20
ATOM     20  C   UNL A   1      47.152  41.946  21.868  1.00  0.00     0.430 C 
ATOM     21  F   UNL A   1      47.601  41.813  20.593  1.00  0.00    -0.167 F 
ATOM     22  F   UNL A   1      48.149  42.517  22.581  1.00  0.00    -0.167 F 
ATOM     23  F   UNL A   1      46.984  40.690  22.347  1.00  0.00    -0.167 F 
ENDBRANCH  11  20
BRANCH  15  24
ATOM     24  C   UNL A   1      44.441  46.426  18.278  1.00  0.00    -0.016 A 
ATOM     25  C   UNL A   1      43.567  47.993  18.522  1.00  0.00     0.009 A 
ATOM     26  C   UNL A   1      45.923  46.456  17.234  1.00  0.00     0.009 A 
ATOM     27  C   UNL A   1      44.043  49.508  17.681  1.00  0.00     0.001 A 
ATOM     28  C   UNL A   1      46.436  48.011  16.377  1.00  0.00     0.001 A 
ATOM     29  C   UNL A   1      45.485  49.530  16.612  1.00  0.00     0.000 A 
ENDBRANCH  15  24
ENDBRANCH   7   9
ENDBRANCH   6   7
ENDBRANCH   5   6
ENDBRANCH   4   5
ENDBRANCH   3   4
ENDBRANCH   2   3
ENDBRANCH   1   2
BRANCH   1  30
ATOM     30  O   UNL A   1      46.896  41.075  30.209  1.00  0.00    -0.376 OA
BRANCH  30  31
ATOM     31  C   UNL A   1      47.447  39.792  30.868  1.00  0.00     0.202 C 
BRANCH  31  32
ATOM     32  C   UNL A   1      46.734  38.388  31.142  1.00  0.00     0.261 C 
BRANCH  32  33
ATOM     33  O   UNL A   1      47.563  37.181  31.095  1.00  0.00    -0.460 OA
BRANCH  33  34
ATOM     34  C   UNL A   1      47.530  36.484  29.917  1.00  0.00     0.338 C 
ATOM     35  O   UNL A   1      48.349  36.574  29.021  1.00  0.00    -0.246 OA
BRANCH  34  36
ATOM     36  C   UNL A   1      46.467  35.432  29.881  1.00  0.00     0.060 A 
ATOM     37  C   UNL A   1      46.592  34.298  30.699  1.00  0.00     0.016 A 
ATOM     38  C   UNL A   1      45.503  35.422  28.873  1.00  0.00     0.016 A 
ATOM     39  C   UNL A   1      45.791  33.162  30.507  1.00  0.00     0.010 A 
ATOM     40  C   UNL A   1      44.708  34.272  28.666  1.00  0.00     0.010 A 
ATOM     41  C   UNL A   1      44.874  33.116  29.454  1.00  0.00    -0.014 A 
BRANCH  41  42
ATOM     42  C   UNL A   1      44.276  31.803  29.055  1.00  0.00     0.031 A 
ATOM     43  C   UNL A   1      42.908  31.436  29.585  1.00  0.00     0.074 A 
ATOM     44  C   UNL A   1      44.885  30.966  28.190  1.00  0.00     0.049 A 
ATOM     45  N   UNL A   1      42.212  30.337  29.427  1.00  0.00    -0.248 NA
ATOM     46  C   UNL A   1      42.234  32.458  30.401  1.00  0.00     0.031 C 
ATOM     47  C   UNL A   1      46.164  31.216  27.532  1.00  0.00     0.029 A 
ATOM     48  N   UNL A   1      44.506  29.726  27.722  1.00  0.00    -0.354 N 
ATOM     49  C   UNL A   1      41.021  30.533  30.121  1.00  0.00     0.074 A 
ATOM     50  C   UNL A   1      41.109  31.843  30.732  1.00  0.00     0.031 C 
ATOM     51  C   UNL A   1      46.477  30.155  26.767  1.00  0.00     0.029 A 
ATOM     52  C   UNL A   1      45.441  29.130  26.904  1.00  0.00     0.049 A 
ATOM     53  H   UNL A   1      43.646  29.306  27.951  1.00  0.00     0.167 HD
ATOM     54  C   UNL A   1      39.949  29.707  30.237  1.00  0.00     0.034 A 
ATOM     55  C   UNL A   1      45.477  27.895  26.356  1.00  0.00     0.034 A 
ATOM     56  C   UNL A   1      39.872  28.390  29.648  1.00  0.00     0.049 A 
ATOM     57  C   UNL A   1      44.318  26.947  26.586  1.00  0.00     0.074 A 
ATOM     58  C   UNL A   1      38.843  27.466  29.731  1.00  0.00     0.029 A 
ATOM     59  N   UNL A   1      40.862  27.803  28.872  1.00  0.00    -0.354 N 
ATOM     60  N   UNL A   1      43.211  27.138  27.267  1.00  0.00    -0.248 NA
ATOM     61  C   UNL A   1      44.412  25.621  25.960  1.00  0.00     0.031 C 
ATOM     62  C   UNL A   1      39.241  26.298  29.069  1.00  0.00     0.029 A 
ATOM     63  C   UNL A   1      40.481  26.521  28.495  1.00  0.00     0.049 A 
ATOM     64  H   UNL A   1      41.713  28.233  28.625  1.00  0.00     0.167 HD
ATOM     65  C   UNL A   1      42.468  25.965  27.125  1.00  0.00     0.074 A 
ATOM     66  C   UNL A   1      43.239  25.089  26.269  1.00  0.00     0.031 C 
ATOM     67  C   UNL A   1      41.260  25.641  27.656  1.00  0.00     0.034 A 
BRANCH  54  68
ATOM     68  C   UNL A   1      38.789  30.189  31.080  1.00  0.00     0.023 A 
ATOM     69  C   UNL A   1      37.753  30.971  30.538  1.00  0.00     0.031 A 
ATOM     70  C   UNL A   1      38.726  29.876  32.451  1.00  0.00     0.131 A 
ATOM     71  C   UNL A   1      36.737  31.464  31.372  1.00  0.00     0.055 A 
ATOM     72  C   UNL A   1      37.671  30.304  33.258  1.00  0.00     0.041 A 
ATOM     73  F   UNL A   1      39.696  29.153  33.031  1.00  0.00    -0.206 F 
ATOM     74  C   UNL A   1      36.675  31.115  32.722  1.00  0.00     0.022 A 
BRANCH  71  75
ATOM     75  S   UNL A   1      35.570  32.678  30.696  1.00  0.00     0.124 S 
ATOM     76  O   UNL A   1      36.270  33.935  30.951  1.00  0.00    -0.237 OA
ATOM     77  O   UNL A   1      35.468  32.276  29.298  1.00  0.00    -0.237 OA
ATOM     78  O   UNL A   1      34.362  32.474  31.494  1.00  0.00    -0.744 OA
ENDBRANCH  71  75
ENDBRANCH  54  68
BRANCH  55  79
ATOM     79  C   UNL A   1      46.676  27.434  25.586  1.00  0.00     0.023 A 
ATOM     80  C   UNL A   1      46.977  27.940  24.310  1.00  0.00     0.031 A 
ATOM     81  C   UNL A   1      47.493  26.404  26.090  1.00  0.00     0.131 A 
ATOM     82  C   UNL A   1      48.028  27.382  23.562  1.00  0.00     0.055 A 
ATOM     83  C   UNL A   1      48.576  25.897  25.369  1.00  0.00     0.041 A 
ATOM     84  F   UNL A   1      47.245  25.868  27.295  1.00  0.00    -0.206 F 
ATOM     85  C   UNL A   1      48.840  26.376  24.091  1.00  0.00     0.022 A 
BRANCH  82  86
ATOM     86  S   UNL A   1      48.253  27.909  21.838  1.00  0.00     0.124 S 
ATOM     87  O   UNL A   1      47.998  26.670  21.112  1.00  0.00    -0.237 OA
ATOM     88  O   UNL A   1      47.239  28.950  21.705  1.00  0.00    -0.237 OA
ATOM     89  O   UNL A   1      49.637  28.379  21.803  1.00  0.00    -0.744 OA
ENDBRANCH  82  86
ENDBRANCH  55  79
BRANCH  67  90
ATOM     90  C   UNL A   1      40.685  24.289  27.287  1.00  0.00     0.023 A 
ATOM     91  C   UNL A   1      39.547  24.166  26.467  1.00  0.00     0.031 A 
ATOM     92  C   UNL A   1      41.252  23.108  27.800  1.00  0.00     0.131 A 
ATOM     93  C   UNL A   1      38.965  22.906  26.258  1.00  0.00     0.055 A 
ATOM     94  C   UNL A   1      40.712  21.849  27.525  1.00  0.00     0.041 A 
ATOM     95  F   UNL A   1      42.337  23.157  28.589  1.00  0.00    -0.206 F 
ATOM     96  C   UNL A   1      39.550  21.745  26.766  1.00  0.00     0.022 A 
BRANCH  93  97
ATOM     97  S   UNL A   1      37.353  22.819  25.428  1.00  0.00     0.124 S 
ATOM     98  O   UNL A   1      36.479  23.476  26.394  1.00  0.00    -0.237 OA
ATOM     99  O   UNL A   1      37.600  23.552  24.190  1.00  0.00    -0.237 OA
ATOM    100  O   UNL A   1      37.128  21.384  25.263  1.00  0.00    -0.744 OA
ENDBRANCH  93  97
ENDBRANCH  67  90
ENDBRANCH  41  42
ENDBRANCH  34  36
ENDBRANCH  33  34
ENDBRANCH  32  33
ENDBRANCH  31  32
ENDBRANCH  30  31
ENDBRANCH   1  30
TORSDOF 22
ENDMDL
MODEL 2
REMARK VINA RESULT:     -10.8      7.451     13.282
REMARK SMILES O=C(OCCOCCOCCOC(=O)c1ccc(-c2c3nc(c(-c4cc(S(=O)(=O)[O-])ccc4F)c4ccc([nH]4)c(-c4cc(S(=O)(=O)[O-])ccc4F)c4nc(c(-c5cc(S(=O)(=O)[O-])ccc5F)c5ccc2[nH]5)C=C4)C=C3)cc1)C1=Cc2c(ccc(Cl)c2-c2ccccc2)O[C@H]1C(F)(F)F
REMARK SMILES IDX 8 1 7 2 6 3 5 4 4 5 3 6 2 7 1 8 78 9 79 10 94 11 80 12 93 13
REMARK SMILES IDX 81 14 86 15 82 16 84 17 83 18 85 19 95 20 96 21 97 22 98 23
REMARK SMILES IDX 87 24 88 25 92 26 89 27 91 28 90 29 9 30 10 31 11 32 12 33
REMARK SMILES IDX 13 34 14 35 15 36 16 37 77 38 17 39 76 40 18 41 19 42 20 43
REMARK SMILES IDX 70 44 21 45 75 46 69 47 71 48 22 49 74 50 68 51 67 52 23 54
REMARK SMILES IDX 55 55 35 56 54 57 36 58 39 59 53 60 72 61 37 62 38 63 52 65
REMARK SMILES IDX 73 66 40 67 24 68 25 69 33 70 26 71 32 72 34 73 31 74 27 75
REMARK SMILES IDX 28 76 29 77 30 78 56 79 57 80 65 81 58 82 64 83 66 84 63 85
REMARK SMILES IDX 59 86 60 87 61 88 62 89 41 90 42 91 50 92 43 93 49 94 51 95
REMARK SMILES IDX 48 96 44 97 45 98 46 99 47 100
REMARK H PARENT 71 53 39 64
REMARK Flexibility Score: inf
ROOT
ATOM      1  C   UNL A   1      37.294  31.213  40.999  1.00  0.00     0.188 C 
ENDROOT
BRANCH   1   2
ATOM      2  C   UNL A   1      36.509  30.899  39.550  1.00  0.00     0.188 C 
BRANCH   2   3
ATOM      3  O   UNL A   1      37.098  31.210  38.296  1.00  0.00    -0.376 OA
BRANCH   3   4
ATOM      4  C   UNL A   1      37.891  30.255  37.617  1.00  0.00     0.202 C 
BRANCH   4   5
ATOM      5  C   UNL A   1      38.352  30.541  36.185  1.00  0.00     0.261 C 
BRANCH   5   6
ATOM      6  O   UNL A   1      39.460  29.710  35.802  1.00  0.00    -0.460 OA
BRANCH   6   7
ATOM      7  C   UNL A   1      39.922  29.529  34.551  1.00  0.00     0.338 C 
ATOM      8  O   UNL A   1      40.645  28.565  34.310  1.00  0.00    -0.246 OA
BRANCH   7   9
ATOM      9  C   UNL A   1      39.582  30.450  33.445  1.00  0.00     0.087 C 
ATOM     10  C   UNL A   1      39.500  31.794  33.462  1.00  0.00     0.028 C 
ATOM     11  C   UNL A   1      39.075  29.756  32.208  1.00  0.00     0.316 C 
ATOM     12  C   UNL A   1      38.110  32.260  33.317  1.00  0.00     0.027 A 
ATOM     13  O   UNL A   1      37.936  30.470  31.627  1.00  0.00    -0.475 OA
ATOM     14  C   UNL A   1      37.364  31.463  32.399  1.00  0.00     0.128 A 
ATOM     15  C   UNL A   1      37.558  33.378  34.020  1.00  0.00     0.011 A 
ATOM     16  C   UNL A   1      36.018  31.689  32.209  1.00  0.00     0.049 A 
ATOM     17  C   UNL A   1      36.183  33.598  33.731  1.00  0.00     0.049 A 
ATOM     18  C   UNL A   1      35.429  32.745  32.888  1.00  0.00     0.025 A 
ATOM     19  Cl  UNL A   1      35.286  34.982  34.276  1.00  0.00    -0.084 Cl
BRANCH  11  20
ATOM     20  C   UNL A   1      40.245  29.550  31.217  1.00  0.00     0.430 C 
ATOM     21  F   UNL A   1      40.552  30.688  30.543  1.00  0.00    -0.167 F 
ATOM     22  F   UNL A   1      41.370  29.146  31.848  1.00  0.00    -0.167 F 
ATOM     23  F   UNL A   1      39.954  28.618  30.278  1.00  0.00    -0.167 F 
ENDBRANCH  11  20
BRANCH  15  24
ATOM     24  C   UNL A   1      38.330  34.268  35.010  1.00  0.00    -0.016 A 
ATOM     25  C   UNL A   1      39.656  35.328  34.381  1.00  0.00     0.009 A 
ATOM     26  C   UNL A   1      38.029  34.286  36.798  1.00  0.00     0.009 A 
ATOM     27  C   UNL A   1      40.734  36.274  35.464  1.00  0.00     0.001 A 
ATOM     28  C   UNL A   1      39.116  35.270  37.922  1.00  0.00     0.001 A 
ATOM     29  C   UNL A   1      40.465  36.260  37.239  1.00  0.00     0.000 A 
ENDBRANCH  15  24
ENDBRANCH   7   9
ENDBRANCH   6   7
ENDBRANCH   5   6
ENDBRANCH   4   5
ENDBRANCH   3   4
ENDBRANCH   2   3
ENDBRANCH   1   2
BRANCH   1  30
ATOM     30  O   UNL A   1      39.204  31.152  41.563  1.00  0.00    -0.376 OA
BRANCH  30  31
ATOM     31  C   UNL A   1      40.332  31.525  42.549  1.00  0.00     0.202 C 
BRANCH  31  32
ATOM     32  C   UNL A   1      41.715  32.285  42.292  1.00  0.00     0.261 C 
BRANCH  32  33
ATOM     33  O   UNL A   1      42.275  32.241  40.940  1.00  0.00    -0.460 OA
BRANCH  33  34
ATOM     34  C   UNL A   1      42.134  33.385  40.201  1.00  0.00     0.338 C 
ATOM     35  O   UNL A   1      41.963  34.502  40.654  1.00  0.00    -0.246 OA
BRANCH  34  36
ATOM     36  C   UNL A   1      42.389  33.181  38.741  1.00  0.00     0.060 A 
ATOM     37  C   UNL A   1      41.345  32.737  37.914  1.00  0.00     0.016 A 
ATOM     38  C   UNL A   1      43.690  33.164  38.236  1.00  0.00     0.016 A 
ATOM     39  C   UNL A   1      41.586  32.262  36.616  1.00  0.00     0.010 A 
ATOM     40  C   UNL A   1      43.937  32.668  36.935  1.00  0.00     0.010 A 
ATOM     41  C   UNL A   1      42.892  32.173  36.130  1.00  0.00    -0.014 A 
BRANCH  41  42
ATOM     42  C   UNL A   1      43.167  31.367  34.899  1.00  0.00     0.031 A 
ATOM     43  C   UNL A   1      43.098  32.050  33.552  1.00  0.00     0.074 A 
ATOM     44  C   UNL A   1      43.536  30.070  34.954  1.00  0.00     0.049 A 
ATOM     45  N   UNL A   1      43.239  31.551  32.348  1.00  0.00    -0.248 NA
ATOM     46  C   UNL A   1      42.839  33.498  33.573  1.00  0.00     0.031 C 
ATOM     47  C   UNL A   1      43.726  29.298  36.178  1.00  0.00     0.029 A 
ATOM     48  N   UNL A   1      43.810  29.172  33.946  1.00  0.00    -0.354 N 
ATOM     49  C   UNL A   1      43.087  32.621  31.469  1.00  0.00     0.074 A 
ATOM     50  C   UNL A   1      42.805  33.787  32.280  1.00  0.00     0.031 C 
ATOM     51  C   UNL A   1      44.060  28.036  35.851  1.00  0.00     0.029 A 
ATOM     52  C   UNL A   1      44.074  27.896  34.394  1.00  0.00     0.049 A 
ATOM     53  H   UNL A   1      43.818  29.419  32.993  1.00  0.00     0.167 HD
ATOM     54  C   UNL A   1      43.180  32.638  30.114  1.00  0.00     0.034 A 
ATOM     55  C   UNL A   1      44.273  26.744  33.715  1.00  0.00     0.034 A 
ATOM     56  C   UNL A   1      43.437  31.470  29.304  1.00  0.00     0.049 A 
ATOM     57  C   UNL A   1      44.265  26.764  32.201  1.00  0.00     0.074 A 
ATOM     58  C   UNL A   1      43.521  31.377  27.923  1.00  0.00     0.029 A 
ATOM     59  N   UNL A   1      43.645  30.187  29.794  1.00  0.00    -0.354 N 
ATOM     60  N   UNL A   1      44.094  27.778  31.384  1.00  0.00    -0.248 NA
ATOM     61  C   UNL A   1      44.492  25.481  31.519  1.00  0.00     0.031 C 
ATOM     62  C   UNL A   1      43.707  30.034  27.579  1.00  0.00     0.029 A 
ATOM     63  C   UNL A   1      43.828  29.296  28.745  1.00  0.00     0.049 A 
ATOM     64  H   UNL A   1      43.660  29.944  30.748  1.00  0.00     0.167 HD
ATOM     65  C   UNL A   1      44.220  27.257  30.096  1.00  0.00     0.074 A 
ATOM     66  C   UNL A   1      44.514  25.849  30.247  1.00  0.00     0.031 C 
ATOM     67  C   UNL A   1      44.103  27.886  28.897  1.00  0.00     0.034 A 
BRANCH  54  68
ATOM     68  C   UNL A   1      42.948  33.961  29.419  1.00  0.00     0.023 A 
ATOM     69  C   UNL A   1      44.013  34.737  28.927  1.00  0.00     0.031 A 
ATOM     70  C   UNL A   1      41.643  34.463  29.260  1.00  0.00     0.131 A 
ATOM     71  C   UNL A   1      43.761  35.996  28.360  1.00  0.00     0.055 A 
ATOM     72  C   UNL A   1      41.393  35.680  28.624  1.00  0.00     0.041 A 
ATOM     73  F   UNL A   1      40.587  33.780  29.728  1.00  0.00    -0.206 F 
ATOM     74  C   UNL A   1      42.456  36.461  28.182  1.00  0.00     0.022 A 
BRANCH  71  75
ATOM     75  S   UNL A   1      45.167  37.077  27.978  1.00  0.00     0.124 S 
ATOM     76  O   UNL A   1      45.813  36.347  26.890  1.00  0.00    -0.237 OA
ATOM     77  O   UNL A   1      44.515  38.328  27.609  1.00  0.00    -0.237 OA
ATOM     78  O   UNL A   1      45.922  37.113  29.229  1.00  0.00    -0.744 OA
ENDBRANCH  71  75
ENDBRANCH  54  68
BRANCH  55  79
ATOM     79  C   UNL A   1      44.429  25.444  34.443  1.00  0.00     0.023 A 
ATOM     80  C   UNL A   1      45.693  24.888  34.704  1.00  0.00     0.031 A 
ATOM     81  C   UNL A   1      43.296  24.693  34.811  1.00  0.00     0.131 A 
ATOM     82  C   UNL A   1      45.794  23.602  35.262  1.00  0.00     0.055 A 
ATOM     83  C   UNL A   1      43.402  23.443  35.425  1.00  0.00     0.041 A 
ATOM     84  F   UNL A   1      42.062  25.163  34.572  1.00  0.00    -0.206 F 
ATOM     85  C   UNL A   1      44.657  22.884  35.641  1.00  0.00     0.022 A 
BRANCH  82  86
ATOM     86  S   UNL A   1      47.432  22.827  35.386  1.00  0.00     0.124 S 
ATOM     87  O   UNL A   1      48.130  23.424  34.252  1.00  0.00    -0.237 OA
ATOM     88  O   UNL A   1      47.872  23.258  36.708  1.00  0.00    -0.237 OA
ATOM     89  O   UNL A   1      47.144  21.399  35.260  1.00  0.00    -0.744 OA
ENDBRANCH  82  86
ENDBRANCH  55  79
BRANCH  67  90
ATOM     90  C   UNL A   1      44.333  27.050  27.654  1.00  0.00     0.023 A 
ATOM     91  C   UNL A   1      45.570  27.046  26.982  1.00  0.00     0.031 A 
ATOM     92  C   UNL A   1      43.288  26.284  27.106  1.00  0.00     0.131 A 
ATOM     93  C   UNL A   1      45.704  26.366  25.761  1.00  0.00     0.055 A 
ATOM     94  C   UNL A   1      43.451  25.547  25.930  1.00  0.00     0.041 A 
ATOM     95  F   UNL A   1      42.084  26.246  27.698  1.00  0.00    -0.206 F 
ATOM     96  C   UNL A   1      44.658  25.602  25.240  1.00  0.00     0.022 A 
BRANCH  93  97
ATOM     97  S   UNL A   1      47.219  26.609  24.791  1.00  0.00     0.124 S 
ATOM     98  O   UNL A   1      46.810  27.639  23.843  1.00  0.00    -0.237 OA
ATOM     99  O   UNL A   1      48.177  27.024  25.811  1.00  0.00    -0.237 OA
ATOM    100  O   UNL A   1      47.468  25.292  24.208  1.00  0.00    -0.744 OA
ENDBRANCH  93  97
ENDBRANCH  67  90
ENDBRANCH  41  42
ENDBRANCH  34  36
ENDBRANCH  33  34
ENDBRANCH  32  33
ENDBRANCH  31  32
ENDBRANCH  30  31
ENDBRANCH   1  30
TORSDOF 22
ENDMDL
MODEL 3
REMARK VINA RESULT:     -10.7      6.275     14.885
REMARK SMILES O=C(OCCOCCOCCOC(=O)c1ccc(-c2c3nc(c(-c4cc(S(=O)(=O)[O-])ccc4F)c4ccc([nH]4)c(-c4cc(S(=O)(=O)[O-])ccc4F)c4nc(c(-c5cc(S(=O)(=O)[O-])ccc5F)c5ccc2[nH]5)C=C4)C=C3)cc1)C1=Cc2c(ccc(Cl)c2-c2ccccc2)O[C@H]1C(F)(F)F
REMARK SMILES IDX 8 1 7 2 6 3 5 4 4 5 3 6 2 7 1 8 78 9 79 10 94 11 80 12 93 13
REMARK SMILES IDX 81 14 86 15 82 16 84 17 83 18 85 19 95 20 96 21 97 22 98 23
REMARK SMILES IDX 87 24 88 25 92 26 89 27 91 28 90 29 9 30 10 31 11 32 12 33
REMARK SMILES IDX 13 34 14 35 15 36 16 37 77 38 17 39 76 40 18 41 19 42 20 43
REMARK SMILES IDX 70 44 21 45 75 46 69 47 71 48 22 49 74 50 68 51 67 52 23 54
REMARK SMILES IDX 55 55 35 56 54 57 36 58 39 59 53 60 72 61 37 62 38 63 52 65
REMARK SMILES IDX 73 66 40 67 24 68 25 69 33 70 26 71 32 72 34 73 31 74 27 75
REMARK SMILES IDX 28 76 29 77 30 78 56 79 57 80 65 81 58 82 64 83 66 84 63 85
REMARK SMILES IDX 59 86 60 87 61 88 62 89 41 90 42 91 50 92 43 93 49 94 51 95
REMARK SMILES IDX 48 96 44 97 45 98 46 99 47 100
REMARK H PARENT 71 53 39 64
REMARK Flexibility Score: inf
ROOT
ATOM      1  C   UNL A   1      38.883  27.445  30.158  1.00  0.00     0.188 C 
ENDROOT
BRANCH   1   2
ATOM      2  C   UNL A   1      39.331  26.887  28.641  1.00  0.00     0.188 C 
BRANCH   2   3
ATOM      3  O   UNL A   1      39.600  25.514  28.397  1.00  0.00    -0.376 OA
BRANCH   3   4
ATOM      4  C   UNL A   1      39.856  25.054  27.084  1.00  0.00     0.202 C 
BRANCH   4   5
ATOM      5  C   UNL A   1      39.963  23.548  26.821  1.00  0.00     0.261 C 
BRANCH   5   6
ATOM      6  O   UNL A   1      40.827  22.898  27.766  1.00  0.00    -0.460 OA
BRANCH   6   7
ATOM      7  C   UNL A   1      42.077  22.458  27.529  1.00  0.00     0.338 C 
ATOM      8  O   UNL A   1      42.380  21.308  27.837  1.00  0.00    -0.246 OA
BRANCH   7   9
ATOM      9  C   UNL A   1      43.105  23.314  26.898  1.00  0.00     0.087 C 
ATOM     10  C   UNL A   1      43.851  24.287  27.455  1.00  0.00     0.028 C 
ATOM     11  C   UNL A   1      43.162  23.193  25.397  1.00  0.00     0.316 C 
ATOM     12  C   UNL A   1      43.471  25.621  26.959  1.00  0.00     0.027 A 
ATOM     13  O   UNL A   1      43.326  24.502  24.764  1.00  0.00    -0.475 OA
ATOM     14  C   UNL A   1      43.146  25.611  25.570  1.00  0.00     0.128 A 
ATOM     15  C   UNL A   1      43.419  26.797  27.772  1.00  0.00     0.011 A 
ATOM     16  C   UNL A   1      42.674  26.749  24.953  1.00  0.00     0.049 A 
ATOM     17  C   UNL A   1      42.986  27.951  27.060  1.00  0.00     0.049 A 
ATOM     18  C   UNL A   1      42.580  27.911  25.705  1.00  0.00     0.025 A 
ATOM     19  Cl  UNL A   1      43.002  29.559  27.718  1.00  0.00    -0.084 Cl
BRANCH  11  20
ATOM     20  C   UNL A   1      44.260  22.176  25.004  1.00  0.00     0.430 C 
ATOM     21  F   UNL A   1      44.697  22.360  23.731  1.00  0.00    -0.167 F 
ATOM     22  F   UNL A   1      45.340  22.270  25.811  1.00  0.00    -0.167 F 
ATOM     23  F   UNL A   1      43.815  20.899  25.074  1.00  0.00    -0.167 F 
ENDBRANCH  11  20
BRANCH  15  24
ATOM     24  C   UNL A   1      43.768  26.854  29.269  1.00  0.00    -0.016 A 
ATOM     25  C   UNL A   1      42.526  27.470  30.434  1.00  0.00     0.009 A 
ATOM     26  C   UNL A   1      45.383  26.387  29.948  1.00  0.00     0.009 A 
ATOM     27  C   UNL A   1      42.882  27.741  32.174  1.00  0.00     0.001 A 
ATOM     28  C   UNL A   1      45.758  26.642  31.739  1.00  0.00     0.001 A 
ATOM     29  C   UNL A   1      44.494  27.320  32.840  1.00  0.00     0.000 A 
ENDBRANCH  15  24
ENDBRANCH   7   9
ENDBRANCH   6   7
ENDBRANCH   5   6
ENDBRANCH   4   5
ENDBRANCH   3   4
ENDBRANCH   2   3
ENDBRANCH   1   2
BRANCH   1  30
ATOM     30  O   UNL A   1      37.405  28.614  30.806  1.00  0.00    -0.376 OA
BRANCH  30  31
ATOM     31  C   UNL A   1      36.477  29.836  30.632  1.00  0.00     0.202 C 
BRANCH  31  32
ATOM     32  C   UNL A   1      36.215  31.075  31.607  1.00  0.00     0.261 C 
BRANCH  32  33
ATOM     33  O   UNL A   1      37.357  31.924  31.952  1.00  0.00    -0.460 OA
BRANCH  33  34
ATOM     34  C   UNL A   1      38.283  31.362  32.789  1.00  0.00     0.338 C 
ATOM     35  O   UNL A   1      38.036  30.805  33.843  1.00  0.00    -0.246 OA
BRANCH  34  36
ATOM     36  C   UNL A   1      39.662  31.327  32.209  1.00  0.00     0.060 A 
ATOM     37  C   UNL A   1      40.744  31.787  32.975  1.00  0.00     0.016 A 
ATOM     38  C   UNL A   1      39.860  31.102  30.846  1.00  0.00     0.016 A 
ATOM     39  C   UNL A   1      41.997  32.043  32.399  1.00  0.00     0.010 A 
ATOM     40  C   UNL A   1      41.117  31.376  30.260  1.00  0.00     0.010 A 
ATOM     41  C   UNL A   1      42.184  31.890  31.023  1.00  0.00    -0.014 A 
BRANCH  41  42
ATOM     42  C   UNL A   1      43.400  32.475  30.375  1.00  0.00     0.031 A 
ATOM     43  C   UNL A   1      43.368  33.925  29.946  1.00  0.00     0.074 A 
ATOM     44  C   UNL A   1      44.542  31.774  30.218  1.00  0.00     0.049 A 
ATOM     45  N   UNL A   1      44.272  34.635  29.316  1.00  0.00    -0.248 NA
ATOM     46  C   UNL A   1      42.148  34.673  30.283  1.00  0.00     0.031 C 
ATOM     47  C   UNL A   1      44.754  30.396  30.653  1.00  0.00     0.029 A 
ATOM     48  N   UNL A   1      45.741  32.129  29.638  1.00  0.00    -0.354 N 
ATOM     49  C   UNL A   1      43.732  35.912  29.182  1.00  0.00     0.074 A 
ATOM     50  C   UNL A   1      42.406  35.863  29.763  1.00  0.00     0.031 C 
ATOM     51  C   UNL A   1      45.996  30.013  30.304  1.00  0.00     0.029 A 
ATOM     52  C   UNL A   1      46.660  31.103  29.587  1.00  0.00     0.049 A 
ATOM     53  H   UNL A   1      45.924  33.033  29.293  1.00  0.00     0.167 HD
ATOM     54  C   UNL A   1      44.285  37.024  28.634  1.00  0.00     0.034 A 
ATOM     55  C   UNL A   1      47.878  31.036  29.006  1.00  0.00     0.034 A 
ATOM     56  C   UNL A   1      45.599  37.065  28.033  1.00  0.00     0.049 A 
ATOM     57  C   UNL A   1      48.434  32.258  28.304  1.00  0.00     0.074 A 
ATOM     58  C   UNL A   1      46.237  38.135  27.425  1.00  0.00     0.029 A 
ATOM     59  N   UNL A   1      46.475  35.991  27.954  1.00  0.00    -0.354 N 
ATOM     60  N   UNL A   1      47.899  33.450  28.162  1.00  0.00    -0.248 NA
ATOM     61  C   UNL A   1      49.765  32.126  27.696  1.00  0.00     0.031 C 
ATOM     62  C   UNL A   1      47.463  37.690  26.918  1.00  0.00     0.029 A 
ATOM     63  C   UNL A   1      47.633  36.365  27.284  1.00  0.00     0.049 A 
ATOM     64  H   UNL A   1      46.300  35.094  28.318  1.00  0.00     0.167 HD
ATOM     65  C   UNL A   1      48.843  34.212  27.473  1.00  0.00     0.074 A 
ATOM     66  C   UNL A   1      49.990  33.356  27.259  1.00  0.00     0.031 C 
ATOM     67  C   UNL A   1      48.769  35.503  27.054  1.00  0.00     0.034 A 
BRANCH  54  68
ATOM     68  C   UNL A   1      43.443  38.280  28.614  1.00  0.00     0.023 A 
ATOM     69  C   UNL A   1      43.499  39.228  29.652  1.00  0.00     0.031 A 
ATOM     70  C   UNL A   1      42.558  38.528  27.548  1.00  0.00     0.131 A 
ATOM     71  C   UNL A   1      42.643  40.340  29.635  1.00  0.00     0.055 A 
ATOM     72  C   UNL A   1      41.766  39.676  27.497  1.00  0.00     0.041 A 
ATOM     73  F   UNL A   1      42.442  37.651  26.539  1.00  0.00    -0.206 F 
ATOM     74  C   UNL A   1      41.795  40.584  28.552  1.00  0.00     0.022 A 
BRANCH  71  75
ATOM     75  S   UNL A   1      42.555  41.395  31.108  1.00  0.00     0.124 S 
ATOM     76  O   UNL A   1      43.492  40.725  32.007  1.00  0.00    -0.237 OA
ATOM     77  O   UNL A   1      42.980  42.692  30.595  1.00  0.00    -0.237 OA
ATOM     78  O   UNL A   1      41.152  41.311  31.508  1.00  0.00    -0.744 OA
ENDBRANCH  71  75
ENDBRANCH  54  68
BRANCH  55  79
ATOM     79  C   UNL A   1      48.648  29.752  28.989  1.00  0.00     0.023 A 
ATOM     80  C   UNL A   1      48.337  28.713  28.096  1.00  0.00     0.031 A 
ATOM     81  C   UNL A   1      49.659  29.515  29.940  1.00  0.00     0.131 A 
ATOM     82  C   UNL A   1      48.989  27.472  28.205  1.00  0.00     0.055 A 
ATOM     83  C   UNL A   1      50.349  28.302  30.002  1.00  0.00     0.041 A 
ATOM     84  F   UNL A   1      49.990  30.462  30.831  1.00  0.00    -0.206 F 
ATOM     85  C   UNL A   1      50.005  27.267  29.141  1.00  0.00     0.022 A 
BRANCH  82  86
ATOM     86  S   UNL A   1      48.414  26.087  27.180  1.00  0.00     0.124 S 
ATOM     87  O   UNL A   1      48.455  24.978  28.128  1.00  0.00    -0.237 OA
ATOM     88  O   UNL A   1      47.086  26.538  26.779  1.00  0.00    -0.237 OA
ATOM     89  O   UNL A   1      49.401  26.025  26.104  1.00  0.00    -0.744 OA
ENDBRANCH  82  86
ENDBRANCH  55  79
BRANCH  67  90
ATOM     90  C   UNL A   1      49.986  36.072  26.354  1.00  0.00     0.023 A 
ATOM     91  C   UNL A   1      50.938  36.851  27.038  1.00  0.00     0.031 A 
ATOM     92  C   UNL A   1      50.172  35.874  24.974  1.00  0.00     0.131 A 
ATOM     93  C   UNL A   1      51.978  37.472  26.328  1.00  0.00     0.055 A 
ATOM     94  C   UNL A   1      51.253  36.432  24.286  1.00  0.00     0.041 A 
ATOM     95  F   UNL A   1      49.299  35.142  24.263  1.00  0.00    -0.206 F 
ATOM     96  C   UNL A   1      52.152  37.253  24.960  1.00  0.00     0.022 A 
BRANCH  93  97
ATOM     97  S   UNL A   1      53.019  38.684  27.191  1.00  0.00     0.124 S 
ATOM     98  O   UNL A   1      53.704  39.338  26.082  1.00  0.00    -0.237 OA
ATOM     99  O   UNL A   1      52.032  39.494  27.898  1.00  0.00    -0.237 OA
ATOM    100  O   UNL A   1      53.869  37.859  28.046  1.00  0.00    -0.744 OA
ENDBRANCH  93  97
ENDBRANCH  67  90
ENDBRANCH  41  42
ENDBRANCH  34  36
ENDBRANCH  33  34
ENDBRANCH  32  33
ENDBRANCH  31  32
ENDBRANCH  30  31
ENDBRANCH   1  30
TORSDOF 22
ENDMDL
