MODEL 1
REMARK VINA RESULT:     -12.8      0.000      0.000
REMARK SMILES Cc1ccc(C[C@H](C(=O)OCCOCCOCCOC(=O)c2ccc(-c3c4nc(c(-c5cc(S(=O)(=O)[O-])ccc5F)c5ccc([nH]5)c(-c5cc(S(=O)(=O)[O-])ccc5F)c5nc(c(-c6cc(S(=O)(=O)[O-])ccc6F)c6ccc3[nH]6)C=C5)C=C4)cc2)[C@@H]2CCCC[C@@H]2O)cc1
REMARK SMILES IDX 15 1 14 2 13 3 12 4 11 5 10 6 8 7 9 8 7 9 6 10 5 11 1 12
REMARK SMILES IDX 2 13 3 14 93 15 4 16 92 17 85 18 86 19 90 20 87 21 89 22
REMARK SMILES IDX 88 23 91 24 16 26 17 27 18 28 19 29 20 30 21 31 22 32 23 33
REMARK SMILES IDX 84 34 24 35 83 36 25 37 26 38 27 39 77 40 28 41 82 42 76 43
REMARK SMILES IDX 78 44 29 45 81 46 75 47 74 48 30 50 62 51 42 52 61 53 43 54
REMARK SMILES IDX 46 55 60 56 79 57 44 58 45 59 59 61 80 62 47 63 31 64 32 65
REMARK SMILES IDX 40 66 33 67 39 68 41 69 38 70 34 71 35 72 36 73 37 74 63 75
REMARK SMILES IDX 64 76 72 77 65 78 71 79 73 80 70 81 66 82 67 83 68 84 69 85
REMARK SMILES IDX 48 86 49 87 57 88 50 89 56 90 58 91 55 92 51 93 52 94 53 95
REMARK SMILES IDX 54 96
REMARK H PARENT 91 25 78 49 46 60
REMARK Flexibility Score: inf
ROOT
ATOM      1  C   UNL A   1      43.843  39.844  27.144  1.00  0.00     0.188 C 
ENDROOT
BRANCH   1   2
ATOM      2  C   UNL A   1      44.710  40.444  26.036  1.00  0.00     0.188 C 
BRANCH   2   3
ATOM      3  O   UNL A   1      43.921  41.098  25.074  1.00  0.00    -0.376 OA
BRANCH   3   4
ATOM      4  C   UNL A   1      43.874  42.493  25.213  1.00  0.00     0.202 C 
BRANCH   4   5
ATOM      5  C   UNL A   1      43.447  43.515  24.145  1.00  0.00     0.261 C 
BRANCH   5   6
ATOM      6  O   UNL A   1      43.369  43.448  22.674  1.00  0.00    -0.463 OA
BRANCH   6   7
ATOM      7  C   UNL A   1      43.241  42.786  21.495  1.00  0.00     0.309 C 
ATOM      8  O   UNL A   1      42.824  41.645  21.347  1.00  0.00    -0.252 OA
BRANCH   7   9
ATOM      9  C   UNL A   1      44.203  43.423  20.292  1.00  0.00     0.109 C 
BRANCH   9  10
ATOM     10  C   UNL A   1      42.835  43.717  18.993  1.00  0.00     0.051 C 
BRANCH  10  11
ATOM     11  C   UNL A   1      42.740  44.838  17.976  1.00  0.00    -0.047 A 
ATOM     12  C   UNL A   1      41.649  48.436  15.961  1.00  0.00     0.044 C 
ATOM     13  C   UNL A   1      42.180  47.137  16.484  1.00  0.00    -0.051 A 
ATOM     14  C   UNL A   1      43.104  47.178  17.531  1.00  0.00     0.004 A 
ATOM     15  C   UNL A   1      41.639  45.907  16.092  1.00  0.00     0.004 A 
ATOM     16  C   UNL A   1      43.380  46.039  18.267  1.00  0.00     0.004 A 
ATOM     17  C   UNL A   1      41.915  44.756  16.837  1.00  0.00     0.004 A 
ENDBRANCH  10  11
ENDBRANCH   9  10
BRANCH   9  18
ATOM     18  C   UNL A   1      46.261  44.236  20.162  1.00  0.00     0.032 C 
ATOM     19  C   UNL A   1      47.831  43.255  20.140  1.00  0.00     0.007 C 
ATOM     20  C   UNL A   1      47.140  45.636  20.736  1.00  0.00     0.118 C 
ATOM     21  C   UNL A   1      48.662  43.170  21.420  1.00  0.00     0.001 C 
ATOM     22  C   UNL A   1      47.931  45.495  22.051  1.00  0.00     0.032 C 
ATOM     23  C   UNL A   1      49.103  44.530  21.904  1.00  0.00     0.003 C 
BRANCH  20  24
ATOM     24  O   UNL A   1      46.613  46.943  20.536  1.00  0.00    -0.393 OA
ATOM     25  H   UNL A   1      46.727  47.465  21.346  1.00  0.00     0.210 HD
ENDBRANCH  20  24
ENDBRANCH   9  18
ENDBRANCH   7   9
ENDBRANCH   6   7
ENDBRANCH   5   6
ENDBRANCH   4   5
ENDBRANCH   3   4
ENDBRANCH   2   3
ENDBRANCH   1   2
BRANCH   1  26
ATOM     26  O   UNL A   1      42.762  39.096  26.575  1.00  0.00    -0.376 OA
BRANCH  26  27
ATOM     27  C   UNL A   1      42.767  37.721  26.881  1.00  0.00     0.202 C 
BRANCH  27  28
ATOM     28  C   UNL A   1      42.596  37.461  28.392  1.00  0.00     0.261 C 
BRANCH  28  29
ATOM     29  O   UNL A   1      43.587  36.498  28.852  1.00  0.00    -0.460 OA
BRANCH  29  30
ATOM     30  C   UNL A   1      44.356  36.699  29.968  1.00  0.00     0.338 C 
ATOM     31  O   UNL A   1      45.096  37.632  30.186  1.00  0.00    -0.246 OA
BRANCH  30  32
ATOM     32  C   UNL A   1      44.179  35.479  30.820  1.00  0.00     0.060 A 
ATOM     33  C   UNL A   1      44.852  33.810  30.686  1.00  0.00     0.016 A 
ATOM     34  C   UNL A   1      42.902  35.745  32.006  1.00  0.00     0.016 A 
ATOM     35  C   UNL A   1      44.101  32.421  31.709  1.00  0.00     0.010 A 
ATOM     36  C   UNL A   1      42.171  34.449  32.889  1.00  0.00     0.010 A 
ATOM     37  C   UNL A   1      42.652  32.761  32.750  1.00  0.00    -0.014 A 
BRANCH  37  38
ATOM     38  C   UNL A   1      41.118  32.123  32.658  1.00  0.00     0.031 A 
ATOM     39  C   UNL A   1      41.051  31.326  31.431  1.00  0.00     0.074 A 
ATOM     40  C   UNL A   1      40.103  31.891  33.604  1.00  0.00     0.049 A 
ATOM     41  N   UNL A   1      40.352  31.659  30.393  1.00  0.00    -0.248 NA
ATOM     42  C   UNL A   1      42.005  30.227  31.209  1.00  0.00     0.031 C 
ATOM     43  C   UNL A   1      39.181  30.720  33.606  1.00  0.00     0.029 A 
ATOM     44  N   UNL A   1      39.729  32.446  34.843  1.00  0.00    -0.354 N 
ATOM     45  C   UNL A   1      40.559  30.589  29.553  1.00  0.00     0.074 A 
ATOM     46  C   UNL A   1      41.894  30.132  29.890  1.00  0.00     0.031 C 
ATOM     47  C   UNL A   1      38.364  30.712  34.689  1.00  0.00     0.029 A 
ATOM     48  C   UNL A   1      38.600  31.911  35.476  1.00  0.00     0.049 A 
ATOM     49  H   UNL A   1      40.242  33.181  35.249  1.00  0.00     0.167 HD
ATOM     50  C   UNL A   1      39.571  29.660  29.343  1.00  0.00     0.034 A 
ATOM     51  C   UNL A   1      37.631  32.699  36.043  1.00  0.00     0.034 A 
ATOM     52  C   UNL A   1      38.392  29.825  30.231  1.00  0.00     0.049 A 
ATOM     53  C   UNL A   1      36.695  33.033  34.867  1.00  0.00     0.074 A 
ATOM     54  C   UNL A   1      37.694  28.989  31.096  1.00  0.00     0.029 A 
ATOM     55  N   UNL A   1      37.882  31.098  30.504  1.00  0.00    -0.354 N 
ATOM     56  N   UNL A   1      36.752  32.349  33.753  1.00  0.00    -0.248 NA
ATOM     57  C   UNL A   1      35.680  34.072  34.775  1.00  0.00     0.031 C 
ATOM     58  C   UNL A   1      36.694  29.753  31.775  1.00  0.00     0.029 A 
ATOM     59  C   UNL A   1      36.787  31.066  31.350  1.00  0.00     0.049 A 
ATOM     60  H   UNL A   1      38.262  31.927  30.134  1.00  0.00     0.167 HD
ATOM     61  C   UNL A   1      35.945  32.845  32.788  1.00  0.00     0.074 A 
ATOM     62  C   UNL A   1      35.275  33.940  33.492  1.00  0.00     0.031 C 
ATOM     63  C   UNL A   1      35.968  32.273  31.535  1.00  0.00     0.034 A 
BRANCH  50  64
ATOM     64  C   UNL A   1      39.911  28.388  28.572  1.00  0.00     0.023 A 
ATOM     65  C   UNL A   1      40.791  28.449  27.489  1.00  0.00     0.031 A 
ATOM     66  C   UNL A   1      39.451  27.082  28.895  1.00  0.00     0.131 A 
ATOM     67  C   UNL A   1      41.119  27.303  26.744  1.00  0.00     0.055 A 
ATOM     68  C   UNL A   1      39.695  25.957  28.096  1.00  0.00     0.041 A 
ATOM     69  F   UNL A   1      38.783  26.824  30.032  1.00  0.00    -0.206 F 
ATOM     70  C   UNL A   1      40.544  26.063  27.012  1.00  0.00     0.022 A 
BRANCH  67  71
ATOM     71  S   UNL A   1      42.425  27.445  25.502  1.00  0.00     0.124 S 
ATOM     72  O   UNL A   1      41.997  28.621  24.752  1.00  0.00    -0.237 OA
ATOM     73  O   UNL A   1      43.616  27.603  26.329  1.00  0.00    -0.237 OA
ATOM     74  O   UNL A   1      42.340  26.178  24.780  1.00  0.00    -0.744 OA
ENDBRANCH  67  71
ENDBRANCH  50  64
BRANCH  51  75
ATOM     75  C   UNL A   1      38.124  33.628  37.140  1.00  0.00     0.023 A 
ATOM     76  C   UNL A   1      38.153  33.218  38.518  1.00  0.00     0.031 A 
ATOM     77  C   UNL A   1      38.866  34.768  36.820  1.00  0.00     0.131 A 
ATOM     78  C   UNL A   1      39.041  33.828  39.446  1.00  0.00     0.055 A 
ATOM     79  C   UNL A   1      39.742  35.356  37.741  1.00  0.00     0.041 A 
ATOM     80  F   UNL A   1      38.871  35.251  35.570  1.00  0.00    -0.206 F 
ATOM     81  C   UNL A   1      39.893  34.840  39.024  1.00  0.00     0.022 A 
BRANCH  78  82
ATOM     82  S   UNL A   1      39.263  33.305  41.201  1.00  0.00     0.124 S 
ATOM     83  O   UNL A   1      37.898  33.318  41.717  1.00  0.00    -0.237 OA
ATOM     84  O   UNL A   1      39.867  31.981  41.106  1.00  0.00    -0.237 OA
ATOM     85  O   UNL A   1      40.130  34.353  41.744  1.00  0.00    -0.744 OA
ENDBRANCH  78  82
ENDBRANCH  51  75
BRANCH  63  86
ATOM     86  C   UNL A   1      35.196  32.750  30.329  1.00  0.00     0.023 A 
ATOM     87  C   UNL A   1      34.662  34.028  30.266  1.00  0.00     0.031 A 
ATOM     88  C   UNL A   1      34.944  31.936  29.191  1.00  0.00     0.131 A 
ATOM     89  C   UNL A   1      34.017  34.500  29.118  1.00  0.00     0.055 A 
ATOM     90  C   UNL A   1      34.288  32.395  28.050  1.00  0.00     0.041 A 
ATOM     91  F   UNL A   1      35.311  30.651  29.112  1.00  0.00    -0.206 F 
ATOM     92  C   UNL A   1      33.831  33.697  28.000  1.00  0.00     0.022 A 
BRANCH  89  93
ATOM     93  S   UNL A   1      33.457  36.211  29.162  1.00  0.00     0.124 S 
ATOM     94  O   UNL A   1      33.662  36.566  30.563  1.00  0.00    -0.237 OA
ATOM     95  O   UNL A   1      34.367  36.846  28.212  1.00  0.00    -0.237 OA
ATOM     96  O   UNL A   1      32.064  36.124  28.734  1.00  0.00    -0.744 OA
ENDBRANCH  89  93
ENDBRANCH  63  86
ENDBRANCH  37  38
ENDBRANCH  30  32
ENDBRANCH  29  30
ENDBRANCH  28  29
ENDBRANCH  27  28
ENDBRANCH  26  27
ENDBRANCH   1  26
TORSDOF 24
ENDMDL
MODEL 2
REMARK VINA RESULT:     -12.2      9.437     14.567
REMARK SMILES Cc1ccc(C[C@H](C(=O)OCCOCCOCCOC(=O)c2ccc(-c3c4nc(c(-c5cc(S(=O)(=O)[O-])ccc5F)c5ccc([nH]5)c(-c5cc(S(=O)(=O)[O-])ccc5F)c5nc(c(-c6cc(S(=O)(=O)[O-])ccc6F)c6ccc3[nH]6)C=C5)C=C4)cc2)[C@@H]2CCCC[C@@H]2O)cc1
REMARK SMILES IDX 15 1 14 2 13 3 12 4 11 5 10 6 8 7 9 8 7 9 6 10 5 11 1 12
REMARK SMILES IDX 2 13 3 14 93 15 4 16 92 17 85 18 86 19 90 20 87 21 89 22
REMARK SMILES IDX 88 23 91 24 16 26 17 27 18 28 19 29 20 30 21 31 22 32 23 33
REMARK SMILES IDX 84 34 24 35 83 36 25 37 26 38 27 39 77 40 28 41 82 42 76 43
REMARK SMILES IDX 78 44 29 45 81 46 75 47 74 48 30 50 62 51 42 52 61 53 43 54
REMARK SMILES IDX 46 55 60 56 79 57 44 58 45 59 59 61 80 62 47 63 31 64 32 65
REMARK SMILES IDX 40 66 33 67 39 68 41 69 38 70 34 71 35 72 36 73 37 74 63 75
REMARK SMILES IDX 64 76 72 77 65 78 71 79 73 80 70 81 66 82 67 83 68 84 69 85
REMARK SMILES IDX 48 86 49 87 57 88 50 89 56 90 58 91 55 92 51 93 52 94 53 95
REMARK SMILES IDX 54 96
REMARK H PARENT 91 25 78 49 46 60
REMARK Flexibility Score: inf
ROOT
ATOM      1  C   UNL A   1      34.856  32.023  28.042  1.00  0.00     0.188 C 
ENDROOT
BRANCH   1   2
ATOM      2  C   UNL A   1      34.028  30.850  27.512  1.00  0.00     0.188 C 
BRANCH   2   3
ATOM      3  O   UNL A   1      32.682  31.218  27.343  1.00  0.00    -0.376 OA
BRANCH   3   4
ATOM      4  C   UNL A   1      31.861  30.195  26.843  1.00  0.00     0.202 C 
BRANCH   4   5
ATOM      5  C   UNL A   1      31.800  28.738  27.331  1.00  0.00     0.261 C 
BRANCH   5   6
ATOM      6  O   UNL A   1      32.510  27.515  26.914  1.00  0.00    -0.463 OA
BRANCH   6   7
ATOM      7  C   UNL A   1      33.389  26.827  26.140  1.00  0.00     0.309 C 
ATOM      8  O   UNL A   1      34.327  27.300  25.514  1.00  0.00    -0.252 OA
BRANCH   7   9
ATOM      9  C   UNL A   1      32.793  25.350  25.647  1.00  0.00     0.109 C 
BRANCH   9  10
ATOM     10  C   UNL A   1      31.904  25.943  24.065  1.00  0.00     0.051 C 
BRANCH  10  11
ATOM     11  C   UNL A   1      30.785  26.960  23.949  1.00  0.00    -0.047 A 
ATOM     12  C   UNL A   1      27.613  29.381  22.443  1.00  0.00     0.044 C 
ATOM     13  C   UNL A   1      28.687  28.642  23.181  1.00  0.00    -0.051 A 
ATOM     14  C   UNL A   1      28.435  27.321  23.558  1.00  0.00     0.004 A 
ATOM     15  C   UNL A   1      29.977  29.164  23.323  1.00  0.00     0.004 A 
ATOM     16  C   UNL A   1      29.475  26.491  23.939  1.00  0.00     0.004 A 
ATOM     17  C   UNL A   1      31.029  28.326  23.705  1.00  0.00     0.004 A 
ENDBRANCH  10  11
ENDBRANCH   9  10
BRANCH   9  18
ATOM     18  C   UNL A   1      33.178  23.228  26.158  1.00  0.00     0.032 C 
ATOM     19  C   UNL A   1      34.831  22.454  26.469  1.00  0.00     0.007 C 
ATOM     20  C   UNL A   1      32.515  21.658  25.759  1.00  0.00     0.118 C 
ATOM     21  C   UNL A   1      35.466  21.609  25.365  1.00  0.00     0.001 C 
ATOM     22  C   UNL A   1      33.180  20.870  24.613  1.00  0.00     0.032 C 
ATOM     23  C   UNL A   1      34.597  20.438  24.974  1.00  0.00     0.003 C 
BRANCH  20  24
ATOM     24  O   UNL A   1      31.114  21.426  25.861  1.00  0.00    -0.393 OA
ATOM     25  H   UNL A   1      30.637  22.100  25.352  1.00  0.00     0.210 HD
ENDBRANCH  20  24
ENDBRANCH   9  18
ENDBRANCH   7   9
ENDBRANCH   6   7
ENDBRANCH   5   6
ENDBRANCH   4   5
ENDBRANCH   3   4
ENDBRANCH   2   3
ENDBRANCH   1   2
BRANCH   1  26
ATOM     26  O   UNL A   1      34.592  32.224  29.436  1.00  0.00    -0.376 OA
BRANCH  26  27
ATOM     27  C   UNL A   1      34.779  33.544  29.888  1.00  0.00     0.202 C 
BRANCH  27  28
ATOM     28  C   UNL A   1      35.970  33.663  30.860  1.00  0.00     0.261 C 
BRANCH  28  29
ATOM     29  O   UNL A   1      36.960  32.634  30.571  1.00  0.00    -0.460 OA
BRANCH  29  30
ATOM     30  C   UNL A   1      37.689  32.009  31.549  1.00  0.00     0.338 C 
ATOM     31  O   UNL A   1      37.913  32.419  32.667  1.00  0.00    -0.246 OA
BRANCH  30  32
ATOM     32  C   UNL A   1      38.243  30.766  30.924  1.00  0.00     0.060 A 
ATOM     33  C   UNL A   1      37.784  29.028  31.090  1.00  0.00     0.016 A 
ATOM     34  C   UNL A   1      39.741  31.130  30.068  1.00  0.00     0.016 A 
ATOM     35  C   UNL A   1      38.955  27.695  30.463  1.00  0.00     0.010 A 
ATOM     36  C   UNL A   1      40.843  29.898  29.560  1.00  0.00     0.010 A 
ATOM     37  C   UNL A   1      40.569  28.172  29.781  1.00  0.00    -0.014 A 
BRANCH  37  38
ATOM     38  C   UNL A   1      42.095  27.796  30.329  1.00  0.00     0.031 A 
ATOM     39  C   UNL A   1      42.630  26.759  29.445  1.00  0.00     0.074 A 
ATOM     40  C   UNL A   1      43.032  28.468  31.135  1.00  0.00     0.049 A 
ATOM     41  N   UNL A   1      42.824  25.531  29.810  1.00  0.00    -0.248 NA
ATOM     42  C   UNL A   1      42.722  26.995  27.995  1.00  0.00     0.031 C 
ATOM     43  C   UNL A   1      44.509  28.438  30.943  1.00  0.00     0.029 A 
ATOM     44  N   UNL A   1      42.979  29.445  32.148  1.00  0.00    -0.354 N 
ATOM     45  C   UNL A   1      43.383  24.981  28.679  1.00  0.00     0.074 A 
ATOM     46  C   UNL A   1      42.787  25.733  27.592  1.00  0.00     0.031 C 
ATOM     47  C   UNL A   1      45.157  29.252  31.814  1.00  0.00     0.029 A 
ATOM     48  C   UNL A   1      44.191  29.845  32.724  1.00  0.00     0.049 A 
ATOM     49  H   UNL A   1      42.123  29.833  32.439  1.00  0.00     0.167 HD
ATOM     50  C   UNL A   1      44.723  24.689  28.631  1.00  0.00     0.034 A 
ATOM     51  C   UNL A   1      44.351  29.987  34.079  1.00  0.00     0.034 A 
ATOM     52  C   UNL A   1      45.491  25.192  29.798  1.00  0.00     0.049 A 
ATOM     53  C   UNL A   1      44.702  28.565  34.557  1.00  0.00     0.074 A 
ATOM     54  C   UNL A   1      46.627  25.978  29.956  1.00  0.00     0.029 A 
ATOM     55  N   UNL A   1      44.967  25.088  31.090  1.00  0.00    -0.354 N 
ATOM     56  N   UNL A   1      45.077  27.647  33.704  1.00  0.00    -0.248 NA
ATOM     57  C   UNL A   1      44.676  28.025  35.909  1.00  0.00     0.031 C 
ATOM     58  C   UNL A   1      46.832  26.222  31.351  1.00  0.00     0.029 A 
ATOM     59  C   UNL A   1      45.812  25.608  32.054  1.00  0.00     0.049 A 
ATOM     60  H   UNL A   1      44.090  24.689  31.291  1.00  0.00     0.167 HD
ATOM     61  C   UNL A   1      45.235  26.431  34.275  1.00  0.00     0.074 A 
ATOM     62  C   UNL A   1      44.976  26.726  35.685  1.00  0.00     0.031 C 
ATOM     63  C   UNL A   1      45.547  25.352  33.478  1.00  0.00     0.034 A 
BRANCH  50  64
ATOM     64  C   UNL A   1      45.336  24.275  27.296  1.00  0.00     0.023 A 
ATOM     65  C   UNL A   1      45.136  22.979  26.814  1.00  0.00     0.031 A 
ATOM     66  C   UNL A   1      46.071  25.128  26.428  1.00  0.00     0.131 A 
ATOM     67  C   UNL A   1      45.695  22.555  25.596  1.00  0.00     0.055 A 
ATOM     68  C   UNL A   1      46.713  24.681  25.266  1.00  0.00     0.041 A 
ATOM     69  F   UNL A   1      46.159  26.452  26.639  1.00  0.00    -0.206 F 
ATOM     70  C   UNL A   1      46.519  23.382  24.837  1.00  0.00     0.022 A 
BRANCH  67  71
ATOM     71  S   UNL A   1      45.204  20.936  24.958  1.00  0.00     0.124 S 
ATOM     72  O   UNL A   1      44.852  21.254  23.578  1.00  0.00    -0.237 OA
ATOM     73  O   UNL A   1      46.418  20.151  25.151  1.00  0.00    -0.237 OA
ATOM     74  O   UNL A   1      44.084  20.562  25.819  1.00  0.00    -0.744 OA
ENDBRANCH  67  71
ENDBRANCH  50  64
BRANCH  51  75
ATOM     75  C   UNL A   1      43.415  30.989  34.732  1.00  0.00     0.023 A 
ATOM     76  C   UNL A   1      43.680  32.403  34.697  1.00  0.00     0.031 A 
ATOM     77  C   UNL A   1      42.116  30.615  35.089  1.00  0.00     0.131 A 
ATOM     78  C   UNL A   1      42.628  33.350  34.830  1.00  0.00     0.055 A 
ATOM     79  C   UNL A   1      41.088  31.557  35.211  1.00  0.00     0.041 A 
ATOM     80  F   UNL A   1      41.781  29.321  35.187  1.00  0.00    -0.206 F 
ATOM     81  C   UNL A   1      41.322  32.913  35.001  1.00  0.00     0.022 A 
BRANCH  78  82
ATOM     82  S   UNL A   1      42.823  35.178  34.674  1.00  0.00     0.124 S 
ATOM     83  O   UNL A   1      43.322  35.563  35.991  1.00  0.00    -0.237 OA
ATOM     84  O   UNL A   1      43.780  35.344  33.586  1.00  0.00    -0.237 OA
ATOM     85  O   UNL A   1      41.459  35.625  34.384  1.00  0.00    -0.744 OA
ENDBRANCH  78  82
ENDBRANCH  51  75
BRANCH  63  86
ATOM     86  C   UNL A   1      45.679  23.920  33.937  1.00  0.00     0.023 A 
ATOM     87  C   UNL A   1      46.909  23.375  34.276  1.00  0.00     0.031 A 
ATOM     88  C   UNL A   1      44.577  23.028  34.039  1.00  0.00     0.131 A 
ATOM     89  C   UNL A   1      47.023  22.075  34.779  1.00  0.00     0.055 A 
ATOM     90  C   UNL A   1      44.687  21.726  34.524  1.00  0.00     0.041 A 
ATOM     91  F   UNL A   1      43.332  23.357  33.674  1.00  0.00    -0.206 F 
ATOM     92  C   UNL A   1      45.920  21.243  34.916  1.00  0.00     0.022 A 
BRANCH  89  93
ATOM     93  S   UNL A   1      48.677  21.545  35.254  1.00  0.00     0.124 S 
ATOM     94  O   UNL A   1      49.250  21.138  33.975  1.00  0.00    -0.237 OA
ATOM     95  O   UNL A   1      49.228  22.770  35.829  1.00  0.00    -0.237 OA
ATOM     96  O   UNL A   1      48.429  20.463  36.203  1.00  0.00    -0.744 OA
ENDBRANCH  89  93
ENDBRANCH  63  86
ENDBRANCH  37  38
ENDBRANCH  30  32
ENDBRANCH  29  30
ENDBRANCH  28  29
ENDBRANCH  27  28
ENDBRANCH  26  27
ENDBRANCH   1  26
TORSDOF 24
ENDMDL
MODEL 3
REMARK VINA RESULT:     -11.9      9.258     14.088
REMARK SMILES Cc1ccc(C[C@H](C(=O)OCCOCCOCCOC(=O)c2ccc(-c3c4nc(c(-c5cc(S(=O)(=O)[O-])ccc5F)c5ccc([nH]5)c(-c5cc(S(=O)(=O)[O-])ccc5F)c5nc(c(-c6cc(S(=O)(=O)[O-])ccc6F)c6ccc3[nH]6)C=C5)C=C4)cc2)[C@@H]2CCCC[C@@H]2O)cc1
REMARK SMILES IDX 15 1 14 2 13 3 12 4 11 5 10 6 8 7 9 8 7 9 6 10 5 11 1 12
REMARK SMILES IDX 2 13 3 14 93 15 4 16 92 17 85 18 86 19 90 20 87 21 89 22
REMARK SMILES IDX 88 23 91 24 16 26 17 27 18 28 19 29 20 30 21 31 22 32 23 33
REMARK SMILES IDX 84 34 24 35 83 36 25 37 26 38 27 39 77 40 28 41 82 42 76 43
REMARK SMILES IDX 78 44 29 45 81 46 75 47 74 48 30 50 62 51 42 52 61 53 43 54
REMARK SMILES IDX 46 55 60 56 79 57 44 58 45 59 59 61 80 62 47 63 31 64 32 65
REMARK SMILES IDX 40 66 33 67 39 68 41 69 38 70 34 71 35 72 36 73 37 74 63 75
REMARK SMILES IDX 64 76 72 77 65 78 71 79 73 80 70 81 66 82 67 83 68 84 69 85
REMARK SMILES IDX 48 86 49 87 57 88 50 89 56 90 58 91 55 92 51 93 52 94 53 95
REMARK SMILES IDX 54 96
REMARK H PARENT 91 25 78 49 46 60
REMARK Flexibility Score: inf
ROOT
ATOM      1  C   UNL A   1      34.387  31.274  27.610  1.00  0.00     0.188 C 
ENDROOT
BRANCH   1   2
ATOM      2  C   UNL A   1      33.224  30.314  27.349  1.00  0.00     0.188 C 
BRANCH   2   3
ATOM      3  O   UNL A   1      32.514  30.684  26.194  1.00  0.00    -0.376 OA
BRANCH   3   4
ATOM      4  C   UNL A   1      32.429  29.677  25.220  1.00  0.00     0.202 C 
BRANCH   4   5
ATOM      5  C   UNL A   1      33.323  28.431  25.099  1.00  0.00     0.261 C 
BRANCH   5   6
ATOM      6  O   UNL A   1      34.002  27.797  23.953  1.00  0.00    -0.463 OA
BRANCH   6   7
ATOM      7  C   UNL A   1      34.030  27.254  22.709  1.00  0.00     0.309 C 
ATOM      8  O   UNL A   1      34.185  27.860  21.658  1.00  0.00    -0.252 OA
BRANCH   7   9
ATOM      9  C   UNL A   1      33.293  25.760  22.642  1.00  0.00     0.109 C 
BRANCH   9  10
ATOM     10  C   UNL A   1      31.617  26.327  21.926  1.00  0.00     0.051 C 
BRANCH  10  11
ATOM     11  C   UNL A   1      30.662  27.360  22.493  1.00  0.00    -0.047 A 
ATOM     12  C   UNL A   1      27.275  29.876  23.117  1.00  0.00     0.044 C 
ATOM     13  C   UNL A   1      28.553  29.095  23.096  1.00  0.00    -0.051 A 
ATOM     14  C   UNL A   1      28.514  27.762  23.510  1.00  0.00     0.004 A 
ATOM     15  C   UNL A   1      29.715  29.598  22.500  1.00  0.00     0.004 A 
ATOM     16  C   UNL A   1      29.560  26.905  23.212  1.00  0.00     0.004 A 
ATOM     17  C   UNL A   1      30.771  28.733  22.195  1.00  0.00     0.004 A 
ENDBRANCH  10  11
ENDBRANCH   9  10
BRANCH   9  18
ATOM     18  C   UNL A   1      33.960  23.650  22.773  1.00  0.00     0.032 C 
ATOM     19  C   UNL A   1      32.959  22.217  23.384  1.00  0.00     0.007 C 
ATOM     20  C   UNL A   1      35.434  22.776  23.127  1.00  0.00     0.118 C 
ATOM     21  C   UNL A   1      33.219  21.688  24.794  1.00  0.00     0.001 C 
ATOM     22  C   UNL A   1      35.652  22.298  24.576  1.00  0.00     0.032 C 
ATOM     23  C   UNL A   1      34.644  21.224  24.974  1.00  0.00     0.003 C 
BRANCH  20  24
ATOM     24  O   UNL A   1      36.645  23.114  22.460  1.00  0.00    -0.393 OA
ATOM     25  H   UNL A   1      36.444  23.655  21.681  1.00  0.00     0.210 HD
ENDBRANCH  20  24
ENDBRANCH   9  18
ENDBRANCH   7   9
ENDBRANCH   6   7
ENDBRANCH   5   6
ENDBRANCH   4   5
ENDBRANCH   3   4
ENDBRANCH   2   3
ENDBRANCH   1   2
BRANCH   1  26
ATOM     26  O   UNL A   1      34.172  31.989  28.833  1.00  0.00    -0.376 OA
BRANCH  26  27
ATOM     27  C   UNL A   1      34.499  33.358  28.783  1.00  0.00     0.202 C 
BRANCH  27  28
ATOM     28  C   UNL A   1      35.722  33.697  29.659  1.00  0.00     0.261 C 
BRANCH  28  29
ATOM     29  O   UNL A   1      36.682  32.602  29.629  1.00  0.00    -0.460 OA
BRANCH  29  30
ATOM     30  C   UNL A   1      37.157  31.999  30.763  1.00  0.00     0.338 C 
ATOM     31  O   UNL A   1      37.143  32.447  31.889  1.00  0.00    -0.246 OA
BRANCH  30  32
ATOM     32  C   UNL A   1      37.794  30.718  30.318  1.00  0.00     0.060 A 
ATOM     33  C   UNL A   1      37.376  28.992  30.637  1.00  0.00     0.016 A 
ATOM     34  C   UNL A   1      39.341  31.046  29.539  1.00  0.00     0.016 A 
ATOM     35  C   UNL A   1      38.630  27.645  30.245  1.00  0.00     0.010 A 
ATOM     36  C   UNL A   1      40.514  29.810  29.248  1.00  0.00     0.010 A 
ATOM     37  C   UNL A   1      40.276  28.108  29.634  1.00  0.00    -0.014 A 
BRANCH  37  38
ATOM     38  C   UNL A   1      41.767  27.850  30.328  1.00  0.00     0.031 A 
ATOM     39  C   UNL A   1      42.509  26.951  29.441  1.00  0.00     0.074 A 
ATOM     40  C   UNL A   1      42.529  28.547  31.283  1.00  0.00     0.049 A 
ATOM     41  N   UNL A   1      42.799  25.724  29.739  1.00  0.00    -0.248 NA
ATOM     42  C   UNL A   1      42.730  27.316  28.032  1.00  0.00     0.031 C 
ATOM     43  C   UNL A   1      44.012  28.688  31.263  1.00  0.00     0.029 A 
ATOM     44  N   UNL A   1      42.256  29.426  32.349  1.00  0.00    -0.354 N 
ATOM     45  C   UNL A   1      43.537  25.332  28.645  1.00  0.00     0.074 A 
ATOM     46  C   UNL A   1      42.980  26.105  27.551  1.00  0.00     0.031 C 
ATOM     47  C   UNL A   1      44.465  29.490  32.259  1.00  0.00     0.029 A 
ATOM     48  C   UNL A   1      43.346  29.900  33.090  1.00  0.00     0.049 A 
ATOM     49  H   UNL A   1      41.335  29.696  32.565  1.00  0.00     0.167 HD
ATOM     50  C   UNL A   1      44.898  25.186  28.732  1.00  0.00     0.034 A 
ATOM     51  C   UNL A   1      43.341  29.945  34.460  1.00  0.00     0.034 A 
ATOM     52  C   UNL A   1      45.474  25.669  30.014  1.00  0.00     0.049 A 
ATOM     53  C   UNL A   1      43.796  28.534  34.875  1.00  0.00     0.074 A 
ATOM     54  C   UNL A   1      46.489  26.554  30.359  1.00  0.00     0.029 A 
ATOM     55  N   UNL A   1      44.828  25.404  31.225  1.00  0.00    -0.354 N 
ATOM     56  N   UNL A   1      44.364  27.734  34.009  1.00  0.00    -0.248 NA
ATOM     57  C   UNL A   1      43.687  27.884  36.173  1.00  0.00     0.031 C 
ATOM     58  C   UNL A   1      46.514  26.701  31.781  1.00  0.00     0.029 A 
ATOM     59  C   UNL A   1      45.500  25.928  32.316  1.00  0.00     0.049 A 
ATOM     60  H   UNL A   1      43.986  24.899  31.294  1.00  0.00     0.167 HD
ATOM     61  C   UNL A   1      44.596  26.498  34.507  1.00  0.00     0.074 A 
ATOM     62  C   UNL A   1      44.154  26.646  35.894  1.00  0.00     0.031 C 
ATOM     63  C   UNL A   1      45.113  25.528  33.677  1.00  0.00     0.034 A 
BRANCH  50  64
ATOM     64  C   UNL A   1      45.696  24.952  27.452  1.00  0.00     0.023 A 
ATOM     65  C   UNL A   1      46.499  25.974  26.940  1.00  0.00     0.031 A 
ATOM     66  C   UNL A   1      45.755  23.729  26.731  1.00  0.00     0.131 A 
ATOM     67  C   UNL A   1      47.238  25.804  25.757  1.00  0.00     0.055 A 
ATOM     68  C   UNL A   1      46.407  23.588  25.500  1.00  0.00     0.041 A 
ATOM     69  F   UNL A   1      45.221  22.593  27.212  1.00  0.00    -0.206 F 
ATOM     70  C   UNL A   1      47.166  24.632  25.007  1.00  0.00     0.022 A 
BRANCH  67  71
ATOM     71  S   UNL A   1      48.407  27.103  25.295  1.00  0.00     0.124 S 
ATOM     72  O   UNL A   1      49.091  26.498  24.157  1.00  0.00    -0.237 OA
ATOM     73  O   UNL A   1      47.518  28.220  24.996  1.00  0.00    -0.237 OA
ATOM     74  O   UNL A   1      49.220  27.266  26.498  1.00  0.00    -0.744 OA
ENDBRANCH  67  71
ENDBRANCH  50  64
BRANCH  51  75
ATOM     75  C   UNL A   1      42.232  30.787  35.069  1.00  0.00     0.023 A 
ATOM     76  C   UNL A   1      42.317  32.222  35.124  1.00  0.00     0.031 A 
ATOM     77  C   UNL A   1      40.966  30.237  35.288  1.00  0.00     0.131 A 
ATOM     78  C   UNL A   1      41.145  33.024  35.202  1.00  0.00     0.055 A 
ATOM     79  C   UNL A   1      39.819  31.037  35.356  1.00  0.00     0.041 A 
ATOM     80  F   UNL A   1      40.791  28.907  35.294  1.00  0.00    -0.206 F 
ATOM     81  C   UNL A   1      39.896  32.420  35.231  1.00  0.00     0.022 A 
BRANCH  78  82
ATOM     82  S   UNL A   1      41.119  34.868  35.149  1.00  0.00     0.124 S 
ATOM     83  O   UNL A   1      41.313  35.152  33.730  1.00  0.00    -0.237 OA
ATOM     84  O   UNL A   1      39.802  35.221  35.668  1.00  0.00    -0.237 OA
ATOM     85  O   UNL A   1      42.249  35.232  36.005  1.00  0.00    -0.744 OA
ENDBRANCH  78  82
ENDBRANCH  51  75
BRANCH  63  86
ATOM     86  C   UNL A   1      45.356  24.084  34.046  1.00  0.00     0.023 A 
ATOM     87  C   UNL A   1      46.638  23.585  34.224  1.00  0.00     0.031 A 
ATOM     88  C   UNL A   1      44.312  23.136  34.220  1.00  0.00     0.131 A 
ATOM     89  C   UNL A   1      46.863  22.270  34.645  1.00  0.00     0.055 A 
ATOM     90  C   UNL A   1      44.530  21.820  34.623  1.00  0.00     0.041 A 
ATOM     91  F   UNL A   1      43.021  23.420  34.006  1.00  0.00    -0.206 F 
ATOM     92  C   UNL A   1      45.818  21.380  34.856  1.00  0.00     0.022 A 
BRANCH  89  93
ATOM     93  S   UNL A   1      48.580  21.800  34.915  1.00  0.00     0.124 S 
ATOM     94  O   UNL A   1      48.622  20.454  34.351  1.00  0.00    -0.237 OA
ATOM     95  O   UNL A   1      49.291  22.824  34.153  1.00  0.00    -0.237 OA
ATOM     96  O   UNL A   1      48.731  21.878  36.365  1.00  0.00    -0.744 OA
ENDBRANCH  89  93
ENDBRANCH  63  86
ENDBRANCH  37  38
ENDBRANCH  30  32
ENDBRANCH  29  30
ENDBRANCH  28  29
ENDBRANCH  27  28
ENDBRANCH  26  27
ENDBRANCH   1  26
TORSDOF 24
ENDMDL
