MODEL 1
REMARK VINA RESULT:      -8.2      0.000      0.000
REMARK SMILES C#CCN(CC(=O)OCCOCCOCCOC(=O)c1ccc(-c2c3nc(c(-c4cc(S(=O)(=O)[O-])ccc4F)c4ccc([nH]4)c(-c4cc(S(=O)(=O)[O-])ccc4F)c4nc(c(-c5cc(S(=O)(=O)[O-])ccc5F)c5ccc2[nH]5)C=C4)C=C3)cc1)C(=O)C(C)(C)[NH2+]CC
REMARK SMILES IDX 12 1 11 2 10 3 9 4 8 5 6 6 7 7 5 8 4 9 3 10 2 11 1 12 83 13
REMARK SMILES IDX 84 14 85 15 86 16 87 17 88 18 89 21 90 22 13 23 14 24 15 25
REMARK SMILES IDX 16 26 17 27 18 28 19 29 20 30 21 31 82 32 22 33 81 34 23 35
REMARK SMILES IDX 24 36 25 37 75 38 26 39 80 40 74 41 76 42 27 43 79 44 73 45
REMARK SMILES IDX 72 46 28 48 60 49 40 50 59 51 41 52 44 53 58 54 77 55 42 56
REMARK SMILES IDX 43 57 57 59 78 60 45 61 29 62 30 63 38 64 31 65 37 66 39 67
REMARK SMILES IDX 36 68 32 69 33 70 34 71 35 72 61 73 62 74 70 75 63 76 69 77
REMARK SMILES IDX 71 78 68 79 64 80 65 81 66 82 67 83 46 84 47 85 55 86 48 87
REMARK SMILES IDX 54 88 56 89 53 90 49 91 50 92 51 93 52 94
REMARK H PARENT 88 19 88 20 76 47 44 58
REMARK Flexibility Score: inf
ROOT
ATOM      1  C   UNL A   1      35.802  19.143  24.655  1.00  0.00     0.188 C 
ENDROOT
BRANCH   1   2
ATOM      2  O   UNL A   1      34.546  19.754  24.938  1.00  0.00    -0.376 OA
BRANCH   2   3
ATOM      3  C   UNL A   1      33.398  19.103  24.397  1.00  0.00     0.202 C 
BRANCH   3   4
ATOM      4  C   UNL A   1      32.275  20.052  23.959  1.00  0.00     0.261 C 
BRANCH   4   5
ATOM      5  O   UNL A   1      32.276  21.297  24.706  1.00  0.00    -0.462 OA
BRANCH   5   6
ATOM      6  C   UNL A   1      32.351  22.418  23.937  1.00  0.00     0.325 C 
ATOM      7  O   UNL A   1      33.263  22.632  23.143  1.00  0.00    -0.250 OA
BRANCH   6   8
ATOM      8  C   UNL A   1      31.202  23.432  24.133  1.00  0.00     0.243 C 
BRANCH   8   9
ATOM      9  N   UNL A   1      31.353  24.566  25.062  1.00  0.00    -0.315 N 
BRANCH   9  10
ATOM     10  C   UNL A   1      31.445  24.256  26.467  1.00  0.00     0.210 C 
BRANCH  10  11
ATOM     11  C   UNL A   1      30.277  23.366  26.858  1.00  0.00    -0.085 C 
ATOM     12  C   UNL A   1      29.275  22.602  27.193  1.00  0.00     0.006 C 
ENDBRANCH  10  11
ENDBRANCH   9  10
BRANCH   9  13
ATOM     13  C   UNL A   1      31.466  25.918  24.784  1.00  0.00     0.284 C 
ATOM     14  O   UNL A   1      30.479  26.654  24.942  1.00  0.00    -0.268 OA
BRANCH  13  15
ATOM     15  C   UNL A   1      32.826  26.543  24.351  1.00  0.00     0.170 C 
ATOM     16  C   UNL A   1      34.033  25.814  24.949  1.00  0.00     0.090 C 
ATOM     17  C   UNL A   1      32.915  26.526  22.828  1.00  0.00     0.090 C 
BRANCH  15  18
ATOM     18  N   UNL A   1      32.813  27.996  24.737  1.00  0.00    -0.334 N 
ATOM     19  H   UNL A   1      31.870  28.224  25.052  1.00  0.00     0.347 HD
ATOM     20  H   UNL A   1      33.116  28.499  23.904  1.00  0.00     0.347 HD
BRANCH  18  21
ATOM     21  C   UNL A   1      33.749  28.402  25.798  1.00  0.00     0.257 C 
ATOM     22  C   UNL A   1      33.069  28.482  27.156  1.00  0.00     0.071 C 
ENDBRANCH  18  21
ENDBRANCH  15  18
ENDBRANCH  13  15
ENDBRANCH   9  13
ENDBRANCH   8   9
ENDBRANCH   6   8
ENDBRANCH   5   6
ENDBRANCH   4   5
ENDBRANCH   3   4
ENDBRANCH   2   3
ENDBRANCH   1   2
BRANCH   1  23
ATOM     23  C   UNL A   1      37.046  20.011  24.908  1.00  0.00     0.188 C 
BRANCH  23  24
ATOM     24  O   UNL A   1      37.195  21.121  24.029  1.00  0.00    -0.376 OA
BRANCH  24  25
ATOM     25  C   UNL A   1      37.206  22.402  24.652  1.00  0.00     0.202 C 
BRANCH  25  26
ATOM     26  C   UNL A   1      37.934  22.431  25.999  1.00  0.00     0.261 C 
BRANCH  26  27
ATOM     27  O   UNL A   1      39.344  22.165  25.850  1.00  0.00    -0.460 OA
BRANCH  27  28
ATOM     28  C   UNL A   1      40.091  22.560  26.916  1.00  0.00     0.338 C 
ATOM     29  O   UNL A   1      40.810  21.814  27.583  1.00  0.00    -0.246 OA
BRANCH  28  30
ATOM     30  C   UNL A   1      39.998  24.023  27.171  1.00  0.00     0.060 A 
ATOM     31  C   UNL A   1      40.376  24.951  26.214  1.00  0.00     0.016 A 
ATOM     32  C   UNL A   1      39.642  24.498  28.434  1.00  0.00     0.016 A 
ATOM     33  C   UNL A   1      40.562  26.300  26.562  1.00  0.00     0.010 A 
ATOM     34  C   UNL A   1      39.707  25.875  28.731  1.00  0.00     0.010 A 
ATOM     35  C   UNL A   1      40.239  26.809  27.821  1.00  0.00    -0.014 A 
BRANCH  35  36
ATOM     36  C   UNL A   1      40.527  28.243  28.224  1.00  0.00     0.031 A 
ATOM     37  C   UNL A   1      41.955  28.756  28.146  1.00  0.00     0.074 A 
ATOM     38  C   UNL A   1      39.593  29.142  28.621  1.00  0.00     0.049 A 
ATOM     39  N   UNL A   1      42.537  29.722  28.812  1.00  0.00    -0.248 NA
ATOM     40  C   UNL A   1      42.847  28.063  27.204  1.00  0.00     0.031 C 
ATOM     41  C   UNL A   1      38.143  28.950  28.633  1.00  0.00     0.029 A 
ATOM     42  N   UNL A   1      39.739  30.433  29.101  1.00  0.00    -0.354 N 
ATOM     43  C   UNL A   1      43.887  29.667  28.464  1.00  0.00     0.074 A 
ATOM     44  C   UNL A   1      44.025  28.590  27.506  1.00  0.00     0.031 C 
ATOM     45  C   UNL A   1      37.540  30.081  29.027  1.00  0.00     0.029 A 
ATOM     46  C   UNL A   1      38.552  31.026  29.479  1.00  0.00     0.049 A 
ATOM     47  H   UNL A   1      40.611  30.887  29.166  1.00  0.00     0.167 HD
ATOM     48  C   UNL A   1      44.913  30.430  28.923  1.00  0.00     0.034 A 
ATOM     49  C   UNL A   1      38.284  32.139  30.200  1.00  0.00     0.034 A 
ATOM     50  C   UNL A   1      44.743  31.574  29.790  1.00  0.00     0.049 A 
ATOM     51  C   UNL A   1      39.428  32.936  30.775  1.00  0.00     0.074 A 
ATOM     52  C   UNL A   1      45.714  32.401  30.332  1.00  0.00     0.029 A 
ATOM     53  N   UNL A   1      43.520  32.078  30.208  1.00  0.00    -0.354 N 
ATOM     54  N   UNL A   1      40.719  32.753  30.630  1.00  0.00    -0.248 NA
ATOM     55  C   UNL A   1      39.076  34.066  31.648  1.00  0.00     0.031 C 
ATOM     56  C   UNL A   1      45.080  33.369  31.120  1.00  0.00     0.029 A 
ATOM     57  C   UNL A   1      43.712  33.192  31.011  1.00  0.00     0.049 A 
ATOM     58  H   UNL A   1      42.643  31.699  29.970  1.00  0.00     0.167 HD
ATOM     59  C   UNL A   1      41.330  33.751  31.385  1.00  0.00     0.074 A 
ATOM     60  C   UNL A   1      40.269  34.548  31.963  1.00  0.00     0.031 C 
ATOM     61  C   UNL A   1      42.651  33.982  31.590  1.00  0.00     0.034 A 
BRANCH  48  62
ATOM     62  C   UNL A   1      46.319  29.993  28.578  1.00  0.00     0.023 A 
ATOM     63  C   UNL A   1      47.034  29.047  29.331  1.00  0.00     0.031 A 
ATOM     64  C   UNL A   1      46.967  30.573  27.468  1.00  0.00     0.131 A 
ATOM     65  C   UNL A   1      48.373  28.766  29.010  1.00  0.00     0.055 A 
ATOM     66  C   UNL A   1      48.269  30.227  27.105  1.00  0.00     0.041 A 
ATOM     67  F   UNL A   1      46.344  31.498  26.721  1.00  0.00    -0.206 F 
ATOM     68  C   UNL A   1      48.986  29.330  27.888  1.00  0.00     0.022 A 
BRANCH  65  69
ATOM     69  S   UNL A   1      49.351  27.762  30.162  1.00  0.00     0.124 S 
ATOM     70  O   UNL A   1      49.577  28.705  31.256  1.00  0.00    -0.237 OA
ATOM     71  O   UNL A   1      48.453  26.651  30.454  1.00  0.00    -0.237 OA
ATOM     72  O   UNL A   1      50.543  27.416  29.391  1.00  0.00    -0.744 OA
ENDBRANCH  65  69
ENDBRANCH  48  62
BRANCH  49  73
ATOM     73  C   UNL A   1      36.872  32.494  30.561  1.00  0.00     0.023 A 
ATOM     74  C   UNL A   1      36.012  33.112  29.638  1.00  0.00     0.031 A 
ATOM     75  C   UNL A   1      36.386  32.282  31.866  1.00  0.00     0.131 A 
ATOM     76  C   UNL A   1      34.729  33.520  30.041  1.00  0.00     0.055 A 
ATOM     77  C   UNL A   1      35.085  32.623  32.240  1.00  0.00     0.041 A 
ATOM     78  F   UNL A   1      37.168  31.720  32.801  1.00  0.00    -0.206 F 
ATOM     79  C   UNL A   1      34.252  33.258  31.328  1.00  0.00     0.022 A 
BRANCH  76  80
ATOM     80  S   UNL A   1      33.717  34.491  28.888  1.00  0.00     0.124 S 
ATOM     81  O   UNL A   1      34.664  35.507  28.446  1.00  0.00    -0.237 OA
ATOM     82  O   UNL A   1      33.340  33.489  27.897  1.00  0.00    -0.237 OA
ATOM     83  O   UNL A   1      32.622  34.980  29.724  1.00  0.00    -0.744 OA
ENDBRANCH  76  80
ENDBRANCH  49  73
BRANCH  61  84
ATOM     84  C   UNL A   1      43.018  35.180  32.430  1.00  0.00     0.023 A 
ATOM     85  C   UNL A   1      43.413  36.399  31.851  1.00  0.00     0.031 A 
ATOM     86  C   UNL A   1      42.997  35.090  33.833  1.00  0.00     0.131 A 
ATOM     87  C   UNL A   1      43.823  37.462  32.672  1.00  0.00     0.055 A 
ATOM     88  C   UNL A   1      43.351  36.168  34.644  1.00  0.00     0.041 A 
ATOM     89  F   UNL A   1      42.631  33.948  34.439  1.00  0.00    -0.206 F 
ATOM     90  C   UNL A   1      43.780  37.359  34.065  1.00  0.00     0.022 A 
BRANCH  87  91
ATOM     91  S   UNL A   1      44.500  38.956  31.894  1.00  0.00     0.124 S 
ATOM     92  O   UNL A   1      45.874  38.554  31.611  1.00  0.00    -0.237 OA
ATOM     93  O   UNL A   1      43.633  39.124  30.733  1.00  0.00    -0.237 OA
ATOM     94  O   UNL A   1      44.353  39.978  32.930  1.00  0.00    -0.744 OA
ENDBRANCH  87  91
ENDBRANCH  61  84
ENDBRANCH  35  36
ENDBRANCH  28  30
ENDBRANCH  27  28
ENDBRANCH  26  27
ENDBRANCH  25  26
ENDBRANCH  24  25
ENDBRANCH  23  24
ENDBRANCH   1  23
TORSDOF 27
ENDMDL
MODEL 2
REMARK VINA RESULT:      -8.1      4.271      6.488
REMARK SMILES C#CCN(CC(=O)OCCOCCOCCOC(=O)c1ccc(-c2c3nc(c(-c4cc(S(=O)(=O)[O-])ccc4F)c4ccc([nH]4)c(-c4cc(S(=O)(=O)[O-])ccc4F)c4nc(c(-c5cc(S(=O)(=O)[O-])ccc5F)c5ccc2[nH]5)C=C4)C=C3)cc1)C(=O)C(C)(C)[NH2+]CC
REMARK SMILES IDX 12 1 11 2 10 3 9 4 8 5 6 6 7 7 5 8 4 9 3 10 2 11 1 12 83 13
REMARK SMILES IDX 84 14 85 15 86 16 87 17 88 18 89 21 90 22 13 23 14 24 15 25
REMARK SMILES IDX 16 26 17 27 18 28 19 29 20 30 21 31 82 32 22 33 81 34 23 35
REMARK SMILES IDX 24 36 25 37 75 38 26 39 80 40 74 41 76 42 27 43 79 44 73 45
REMARK SMILES IDX 72 46 28 48 60 49 40 50 59 51 41 52 44 53 58 54 77 55 42 56
REMARK SMILES IDX 43 57 57 59 78 60 45 61 29 62 30 63 38 64 31 65 37 66 39 67
REMARK SMILES IDX 36 68 32 69 33 70 34 71 35 72 61 73 62 74 70 75 63 76 69 77
REMARK SMILES IDX 71 78 68 79 64 80 65 81 66 82 67 83 46 84 47 85 55 86 48 87
REMARK SMILES IDX 54 88 56 89 53 90 49 91 50 92 51 93 52 94
REMARK H PARENT 88 19 88 20 76 47 44 58
REMARK Flexibility Score: inf
ROOT
ATOM      1  C   UNL A   1      41.502  21.583  26.304  1.00  0.00     0.188 C 
ENDROOT
BRANCH   1   2
ATOM      2  O   UNL A   1      40.457  22.008  27.173  1.00  0.00    -0.376 OA
BRANCH   2   3
ATOM      3  C   UNL A   1      39.686  23.122  26.725  1.00  0.00     0.202 C 
BRANCH   3   4
ATOM      4  C   UNL A   1      38.395  22.747  25.985  1.00  0.00     0.261 C 
BRANCH   4   5
ATOM      5  O   UNL A   1      37.522  23.888  25.776  1.00  0.00    -0.462 OA
BRANCH   5   6
ATOM      6  C   UNL A   1      36.338  23.594  25.172  1.00  0.00     0.325 C 
ATOM      7  O   UNL A   1      36.112  22.520  24.618  1.00  0.00    -0.250 OA
BRANCH   6   8
ATOM      8  C   UNL A   1      35.276  24.714  25.216  1.00  0.00     0.243 C 
BRANCH   8   9
ATOM      9  N   UNL A   1      33.961  24.526  24.579  1.00  0.00    -0.315 N 
BRANCH   9  10
ATOM     10  C   UNL A   1      33.920  24.544  23.138  1.00  0.00     0.210 C 
BRANCH  10  11
ATOM     11  C   UNL A   1      33.614  25.956  22.666  1.00  0.00    -0.085 C 
ATOM     12  C   UNL A   1      33.351  27.168  22.262  1.00  0.00     0.006 C 
ENDBRANCH  10  11
ENDBRANCH   9  10
BRANCH   9  13
ATOM     13  C   UNL A   1      32.729  24.286  25.165  1.00  0.00     0.284 C 
ATOM     14  O   UNL A   1      32.307  25.068  26.031  1.00  0.00    -0.268 OA
BRANCH  13  15
ATOM     15  C   UNL A   1      31.833  23.097  24.704  1.00  0.00     0.170 C 
ATOM     16  C   UNL A   1      30.841  23.491  23.606  1.00  0.00     0.090 C 
ATOM     17  C   UNL A   1      32.730  21.966  24.209  1.00  0.00     0.090 C 
BRANCH  15  18
ATOM     18  N   UNL A   1      31.128  22.551  25.915  1.00  0.00    -0.334 N 
ATOM     19  H   UNL A   1      31.809  22.496  26.671  1.00  0.00     0.347 HD
ATOM     20  H   UNL A   1      30.746  21.652  25.621  1.00  0.00     0.347 HD
BRANCH  18  21
ATOM     21  C   UNL A   1      29.975  23.321  26.407  1.00  0.00     0.257 C 
ATOM     22  C   UNL A   1      29.197  22.564  27.472  1.00  0.00     0.071 C 
ENDBRANCH  18  21
ENDBRANCH  15  18
ENDBRANCH  13  15
ENDBRANCH   9  13
ENDBRANCH   8   9
ENDBRANCH   6   8
ENDBRANCH   5   6
ENDBRANCH   4   5
ENDBRANCH   3   4
ENDBRANCH   2   3
ENDBRANCH   1   2
BRANCH   1  23
ATOM     23  C   UNL A   1      41.605  20.067  26.063  1.00  0.00     0.188 C 
BRANCH  23  24
ATOM     24  O   UNL A   1      42.445  19.368  26.978  1.00  0.00    -0.376 OA
BRANCH  24  25
ATOM     25  C   UNL A   1      42.879  18.080  26.552  1.00  0.00     0.202 C 
BRANCH  25  26
ATOM     26  C   UNL A   1      44.275  18.073  25.923  1.00  0.00     0.261 C 
BRANCH  26  27
ATOM     27  O   UNL A   1      44.235  18.431  24.526  1.00  0.00    -0.460 OA
BRANCH  27  28
ATOM     28  C   UNL A   1      45.238  19.269  24.147  1.00  0.00     0.338 C 
ATOM     29  O   UNL A   1      46.209  18.936  23.465  1.00  0.00    -0.246 OA
BRANCH  28  30
ATOM     30  C   UNL A   1      45.017  20.670  24.598  1.00  0.00     0.060 A 
ATOM     31  C   UNL A   1      44.419  21.610  23.774  1.00  0.00     0.016 A 
ATOM     32  C   UNL A   1      45.521  21.104  25.824  1.00  0.00     0.016 A 
ATOM     33  C   UNL A   1      44.482  22.978  24.091  1.00  0.00     0.010 A 
ATOM     34  C   UNL A   1      45.457  22.465  26.189  1.00  0.00     0.010 A 
ATOM     35  C   UNL A   1      44.998  23.454  25.297  1.00  0.00    -0.014 A 
BRANCH  35  36
ATOM     36  C   UNL A   1      45.151  24.933  25.598  1.00  0.00     0.031 A 
ATOM     37  C   UNL A   1      46.484  25.606  25.322  1.00  0.00     0.074 A 
ATOM     38  C   UNL A   1      44.164  25.738  26.064  1.00  0.00     0.049 A 
ATOM     39  N   UNL A   1      47.015  26.672  25.867  1.00  0.00    -0.248 NA
ATOM     40  C   UNL A   1      47.341  24.969  24.311  1.00  0.00     0.031 C 
ATOM     41  C   UNL A   1      42.761  25.376  26.262  1.00  0.00     0.029 A 
ATOM     42  N   UNL A   1      44.203  27.064  26.464  1.00  0.00    -0.354 N 
ATOM     43  C   UNL A   1      48.311  26.757  25.360  1.00  0.00     0.074 A 
ATOM     44  C   UNL A   1      48.471  25.648  24.442  1.00  0.00     0.031 C 
ATOM     45  C   UNL A   1      42.071  26.450  26.675  1.00  0.00     0.029 A 
ATOM     46  C   UNL A   1      43.002  27.533  26.957  1.00  0.00     0.049 A 
ATOM     47  H   UNL A   1      45.013  27.620  26.401  1.00  0.00     0.167 HD
ATOM     48  C   UNL A   1      49.281  27.661  25.655  1.00  0.00     0.034 A 
ATOM     49  C   UNL A   1      42.684  28.647  27.654  1.00  0.00     0.034 A 
ATOM     50  C   UNL A   1      49.072  28.827  26.484  1.00  0.00     0.049 A 
ATOM     51  C   UNL A   1      43.778  29.607  28.048  1.00  0.00     0.074 A 
ATOM     52  C   UNL A   1      49.988  29.794  26.866  1.00  0.00     0.029 A 
ATOM     53  N   UNL A   1      47.851  29.207  27.026  1.00  0.00    -0.354 N 
ATOM     54  N   UNL A   1      45.056  29.570  27.755  1.00  0.00    -0.248 NA
ATOM     55  C   UNL A   1      43.392  30.738  28.906  1.00  0.00     0.031 C 
ATOM     56  C   UNL A   1      49.334  30.726  27.680  1.00  0.00     0.029 A 
ATOM     57  C   UNL A   1      47.995  30.382  27.748  1.00  0.00     0.049 A 
ATOM     58  H   UNL A   1      47.007  28.713  26.913  1.00  0.00     0.167 HD
ATOM     59  C   UNL A   1      45.622  30.677  28.384  1.00  0.00     0.074 A 
ATOM     60  C   UNL A   1      44.543  31.376  29.051  1.00  0.00     0.031 C 
ATOM     61  C   UNL A   1      46.919  31.074  28.415  1.00  0.00     0.034 A 
BRANCH  48  62
ATOM     62  C   UNL A   1      50.681  27.374  25.161  1.00  0.00     0.023 A 
ATOM     63  C   UNL A   1      51.141  27.765  23.893  1.00  0.00     0.031 A 
ATOM     64  C   UNL A   1      51.568  26.655  25.988  1.00  0.00     0.131 A 
ATOM     65  C   UNL A   1      52.420  27.374  23.463  1.00  0.00     0.055 A 
ATOM     66  C   UNL A   1      52.868  26.342  25.586  1.00  0.00     0.041 A 
ATOM     67  F   UNL A   1      51.181  26.236  27.203  1.00  0.00    -0.206 F 
ATOM     68  C   UNL A   1      53.295  26.688  24.309  1.00  0.00     0.022 A 
BRANCH  65  69
ATOM     69  S   UNL A   1      52.875  27.648  21.727  1.00  0.00     0.124 S 
ATOM     70  O   UNL A   1      51.765  28.475  21.258  1.00  0.00    -0.237 OA
ATOM     71  O   UNL A   1      54.166  28.316  21.841  1.00  0.00    -0.237 OA
ATOM     72  O   UNL A   1      52.918  26.299  21.167  1.00  0.00    -0.744 OA
ENDBRANCH  65  69
ENDBRANCH  48  62
BRANCH  49  73
ATOM     73  C   UNL A   1      41.290  28.854  28.168  1.00  0.00     0.023 A 
ATOM     74  C   UNL A   1      40.983  28.721  29.532  1.00  0.00     0.031 A 
ATOM     75  C   UNL A   1      40.226  29.121  27.283  1.00  0.00     0.131 A 
ATOM     76  C   UNL A   1      39.649  28.825  29.964  1.00  0.00     0.055 A 
ATOM     77  C   UNL A   1      38.915  29.295  27.727  1.00  0.00     0.041 A 
ATOM     78  F   UNL A   1      40.450  29.234  25.964  1.00  0.00    -0.206 F 
ATOM     79  C   UNL A   1      38.618  29.134  29.074  1.00  0.00     0.022 A 
BRANCH  76  80
ATOM     80  S   UNL A   1      39.259  28.451  31.697  1.00  0.00     0.124 S 
ATOM     81  O   UNL A   1      40.590  28.321  32.279  1.00  0.00    -0.237 OA
ATOM     82  O   UNL A   1      38.495  29.628  32.097  1.00  0.00    -0.237 OA
ATOM     83  O   UNL A   1      38.490  27.211  31.614  1.00  0.00    -0.744 OA
ENDBRANCH  76  80
ENDBRANCH  49  73
BRANCH  61  84
ATOM     84  C   UNL A   1      47.228  32.355  29.149  1.00  0.00     0.023 A 
ATOM     85  C   UNL A   1      47.179  33.606  28.510  1.00  0.00     0.031 A 
ATOM     86  C   UNL A   1      47.604  32.318  30.504  1.00  0.00     0.131 A 
ATOM     87  C   UNL A   1      47.552  34.764  29.211  1.00  0.00     0.055 A 
ATOM     88  C   UNL A   1      47.920  33.479  31.211  1.00  0.00     0.041 A 
ATOM     89  F   UNL A   1      47.672  31.150  31.162  1.00  0.00    -0.206 F 
ATOM     90  C   UNL A   1      47.908  34.709  30.562  1.00  0.00     0.022 A 
BRANCH  87  91
ATOM     91  S   UNL A   1      47.654  36.337  28.310  1.00  0.00     0.124 S 
ATOM     92  O   UNL A   1      47.486  35.905  26.926  1.00  0.00    -0.237 OA
ATOM     93  O   UNL A   1      46.547  37.097  28.880  1.00  0.00    -0.237 OA
ATOM     94  O   UNL A   1      48.987  36.838  28.645  1.00  0.00    -0.744 OA
ENDBRANCH  87  91
ENDBRANCH  61  84
ENDBRANCH  35  36
ENDBRANCH  28  30
ENDBRANCH  27  28
ENDBRANCH  26  27
ENDBRANCH  25  26
ENDBRANCH  24  25
ENDBRANCH  23  24
ENDBRANCH   1  23
TORSDOF 27
ENDMDL
MODEL 3
REMARK VINA RESULT:      -7.9      2.897      8.257
REMARK SMILES C#CCN(CC(=O)OCCOCCOCCOC(=O)c1ccc(-c2c3nc(c(-c4cc(S(=O)(=O)[O-])ccc4F)c4ccc([nH]4)c(-c4cc(S(=O)(=O)[O-])ccc4F)c4nc(c(-c5cc(S(=O)(=O)[O-])ccc5F)c5ccc2[nH]5)C=C4)C=C3)cc1)C(=O)C(C)(C)[NH2+]CC
REMARK SMILES IDX 12 1 11 2 10 3 9 4 8 5 6 6 7 7 5 8 4 9 3 10 2 11 1 12 83 13
REMARK SMILES IDX 84 14 85 15 86 16 87 17 88 18 89 21 90 22 13 23 14 24 15 25
REMARK SMILES IDX 16 26 17 27 18 28 19 29 20 30 21 31 82 32 22 33 81 34 23 35
REMARK SMILES IDX 24 36 25 37 75 38 26 39 80 40 74 41 76 42 27 43 79 44 73 45
REMARK SMILES IDX 72 46 28 48 60 49 40 50 59 51 41 52 44 53 58 54 77 55 42 56
REMARK SMILES IDX 43 57 57 59 78 60 45 61 29 62 30 63 38 64 31 65 37 66 39 67
REMARK SMILES IDX 36 68 32 69 33 70 34 71 35 72 61 73 62 74 70 75 63 76 69 77
REMARK SMILES IDX 71 78 68 79 64 80 65 81 66 82 67 83 46 84 47 85 55 86 48 87
REMARK SMILES IDX 54 88 56 89 53 90 49 91 50 92 51 93 52 94
REMARK H PARENT 88 19 88 20 76 47 44 58
REMARK Flexibility Score: inf
ROOT
ATOM      1  C   UNL A   1      40.693  21.164  26.190  1.00  0.00     0.188 C 
ENDROOT
BRANCH   1   2
ATOM      2  O   UNL A   1      39.307  21.303  25.888  1.00  0.00    -0.376 OA
BRANCH   2   3
ATOM      3  C   UNL A   1      38.690  22.512  26.327  1.00  0.00     0.202 C 
BRANCH   3   4
ATOM      4  C   UNL A   1      37.486  22.955  25.486  1.00  0.00     0.261 C 
BRANCH   4   5
ATOM      5  O   UNL A   1      36.447  23.576  26.287  1.00  0.00    -0.462 OA
BRANCH   5   6
ATOM      6  C   UNL A   1      35.214  23.015  26.150  1.00  0.00     0.325 C 
ATOM      7  O   UNL A   1      34.908  21.930  26.638  1.00  0.00    -0.250 OA
BRANCH   6   8
ATOM      8  C   UNL A   1      34.202  23.836  25.320  1.00  0.00     0.243 C 
BRANCH   8   9
ATOM      9  N   UNL A   1      32.752  23.659  25.517  1.00  0.00    -0.315 N 
BRANCH   9  10
ATOM     10  C   UNL A   1      32.153  22.474  24.956  1.00  0.00     0.210 C 
BRANCH  10  11
ATOM     11  C   UNL A   1      32.351  22.481  23.449  1.00  0.00    -0.085 C 
ATOM     12  C   UNL A   1      32.521  22.488  22.156  1.00  0.00     0.006 C 
ENDBRANCH  10  11
ENDBRANCH   9  10
BRANCH   9  13
ATOM     13  C   UNL A   1      31.858  24.456  26.213  1.00  0.00     0.284 C 
ATOM     14  O   UNL A   1      31.496  24.110  27.348  1.00  0.00    -0.268 OA
BRANCH  13  15
ATOM     15  C   UNL A   1      31.360  25.812  25.629  1.00  0.00     0.170 C 
ATOM     16  C   UNL A   1      29.841  25.857  25.443  1.00  0.00     0.090 C 
ATOM     17  C   UNL A   1      31.801  26.940  26.557  1.00  0.00     0.090 C 
BRANCH  15  18
ATOM     18  N   UNL A   1      32.081  26.052  24.332  1.00  0.00    -0.334 N 
ATOM     19  H   UNL A   1      32.311  25.142  23.933  1.00  0.00     0.347 HD
ATOM     20  H   UNL A   1      32.889  26.625  24.575  1.00  0.00     0.347 HD
BRANCH  18  21
ATOM     21  C   UNL A   1      31.355  26.819  23.308  1.00  0.00     0.257 C 
ATOM     22  C   UNL A   1      31.456  26.172  21.935  1.00  0.00     0.071 C 
ENDBRANCH  18  21
ENDBRANCH  15  18
ENDBRANCH  13  15
ENDBRANCH   9  13
ENDBRANCH   8   9
ENDBRANCH   6   8
ENDBRANCH   5   6
ENDBRANCH   4   5
ENDBRANCH   3   4
ENDBRANCH   2   3
ENDBRANCH   1   2
BRANCH   1  23
ATOM     23  C   UNL A   1      41.258  19.735  26.121  1.00  0.00     0.188 C 
BRANCH  23  24
ATOM     24  O   UNL A   1      42.640  19.618  26.445  1.00  0.00    -0.376 OA
BRANCH  24  25
ATOM     25  C   UNL A   1      43.505  19.329  25.351  1.00  0.00     0.202 C 
BRANCH  25  26
ATOM     26  C   UNL A   1      44.272  20.547  24.827  1.00  0.00     0.261 C 
BRANCH  26  27
ATOM     27  O   UNL A   1      44.008  21.725  25.616  1.00  0.00    -0.460 OA
BRANCH  27  28
ATOM     28  C   UNL A   1      44.501  22.870  25.072  1.00  0.00     0.338 C 
ATOM     29  O   UNL A   1      45.070  22.938  23.980  1.00  0.00    -0.246 OA
BRANCH  28  30
ATOM     30  C   UNL A   1      44.233  24.068  25.912  1.00  0.00     0.060 A 
ATOM     31  C   UNL A   1      43.702  25.229  25.372  1.00  0.00     0.016 A 
ATOM     32  C   UNL A   1      44.628  24.094  27.250  1.00  0.00     0.016 A 
ATOM     33  C   UNL A   1      43.728  26.431  26.099  1.00  0.00     0.010 A 
ATOM     34  C   UNL A   1      44.525  25.277  28.010  1.00  0.00     0.010 A 
ATOM     35  C   UNL A   1      44.136  26.501  27.432  1.00  0.00    -0.014 A 
BRANCH  35  36
ATOM     36  C   UNL A   1      44.253  27.813  28.186  1.00  0.00     0.031 A 
ATOM     37  C   UNL A   1      43.012  28.403  28.834  1.00  0.00     0.074 A 
ATOM     38  C   UNL A   1      45.406  28.503  28.372  1.00  0.00     0.049 A 
ATOM     39  N   UNL A   1      42.731  29.647  29.129  1.00  0.00    -0.248 NA
ATOM     40  C   UNL A   1      41.938  27.456  29.167  1.00  0.00     0.031 C 
ATOM     41  C   UNL A   1      46.752  28.078  27.988  1.00  0.00     0.029 A 
ATOM     42  N   UNL A   1      45.625  29.743  28.949  1.00  0.00    -0.354 N 
ATOM     43  C   UNL A   1      41.405  29.648  29.561  1.00  0.00     0.074 A 
ATOM     44  C   UNL A   1      40.953  28.272  29.515  1.00  0.00     0.031 C 
ATOM     45  C   UNL A   1      47.647  28.991  28.391  1.00  0.00     0.029 A 
ATOM     46  C   UNL A   1      46.939  30.160  28.894  1.00  0.00     0.049 A 
ATOM     47  H   UNL A   1      44.908  30.278  29.362  1.00  0.00     0.167 HD
ATOM     48  C   UNL A   1      40.634  30.702  29.936  1.00  0.00     0.034 A 
ATOM     49  C   UNL A   1      47.517  31.364  29.110  1.00  0.00     0.034 A 
ATOM     50  C   UNL A   1      41.131  32.051  30.087  1.00  0.00     0.049 A 
ATOM     51  C   UNL A   1      46.647  32.548  29.446  1.00  0.00     0.074 A 
ATOM     52  C   UNL A   1      40.434  33.196  30.438  1.00  0.00     0.029 A 
ATOM     53  N   UNL A   1      42.457  32.429  29.936  1.00  0.00    -0.354 N 
ATOM     54  N   UNL A   1      45.349  32.594  29.638  1.00  0.00    -0.248 NA
ATOM     55  C   UNL A   1      47.315  33.854  29.553  1.00  0.00     0.031 C 
ATOM     56  C   UNL A   1      41.328  34.273  30.446  1.00  0.00     0.029 A 
ATOM     57  C   UNL A   1      42.596  33.789  30.172  1.00  0.00     0.049 A 
ATOM     58  H   UNL A   1      43.193  31.821  29.696  1.00  0.00     0.167 HD
ATOM     59  C   UNL A   1      45.051  33.930  29.897  1.00  0.00     0.074 A 
ATOM     60  C   UNL A   1      46.305  34.653  29.863  1.00  0.00     0.031 C 
ATOM     61  C   UNL A   1      43.846  34.508  30.133  1.00  0.00     0.034 A 
BRANCH  48  62
ATOM     62  C   UNL A   1      39.152  30.458  30.112  1.00  0.00     0.023 A 
ATOM     63  C   UNL A   1      38.189  30.893  29.186  1.00  0.00     0.031 A 
ATOM     64  C   UNL A   1      38.697  29.791  31.267  1.00  0.00     0.131 A 
ATOM     65  C   UNL A   1      36.823  30.720  29.466  1.00  0.00     0.055 A 
ATOM     66  C   UNL A   1      37.342  29.549  31.499  1.00  0.00     0.041 A 
ATOM     67  F   UNL A   1      39.567  29.370  32.199  1.00  0.00    -0.206 F 
ATOM     68  C   UNL A   1      36.394  30.030  30.603  1.00  0.00     0.022 A 
BRANCH  65  69
ATOM     69  S   UNL A   1      35.606  31.538  28.397  1.00  0.00     0.124 S 
ATOM     70  O   UNL A   1      34.495  31.750  29.322  1.00  0.00    -0.237 OA
ATOM     71  O   UNL A   1      36.318  32.737  27.968  1.00  0.00    -0.237 OA
ATOM     72  O   UNL A   1      35.354  30.554  27.347  1.00  0.00    -0.744 OA
ENDBRANCH  65  69
ENDBRANCH  48  62
BRANCH  49  73
ATOM     73  C   UNL A   1      48.983  31.562  28.866  1.00  0.00     0.023 A 
ATOM     74  C   UNL A   1      49.471  31.971  27.614  1.00  0.00     0.031 A 
ATOM     75  C   UNL A   1      49.928  31.274  29.871  1.00  0.00     0.131 A 
ATOM     76  C   UNL A   1      50.857  32.051  27.393  1.00  0.00     0.055 A 
ATOM     77  C   UNL A   1      51.300  31.426  29.668  1.00  0.00     0.041 A 
ATOM     78  F   UNL A   1      49.527  30.854  31.082  1.00  0.00    -0.206 F 
ATOM     79  C   UNL A   1      51.773  31.804  28.418  1.00  0.00     0.022 A 
BRANCH  76  80
ATOM     80  S   UNL A   1      51.457  32.388  25.713  1.00  0.00     0.124 S 
ATOM     81  O   UNL A   1      51.608  31.040  25.177  1.00  0.00    -0.237 OA
ATOM     82  O   UNL A   1      50.369  33.184  25.156  1.00  0.00    -0.237 OA
ATOM     83  O   UNL A   1      52.706  33.114  25.937  1.00  0.00    -0.744 OA
ENDBRANCH  76  80
ENDBRANCH  49  73
BRANCH  61  84
ATOM     84  C   UNL A   1      43.840  35.987  30.429  1.00  0.00     0.023 A 
ATOM     85  C   UNL A   1      43.863  36.479  31.746  1.00  0.00     0.031 A 
ATOM     86  C   UNL A   1      43.782  36.917  29.376  1.00  0.00     0.131 A 
ATOM     87  C   UNL A   1      43.775  37.861  31.977  1.00  0.00     0.055 A 
ATOM     88  C   UNL A   1      43.752  38.292  29.610  1.00  0.00     0.041 A 
ATOM     89  F   UNL A   1      43.754  36.501  28.100  1.00  0.00    -0.206 F 
ATOM     90  C   UNL A   1      43.734  38.771  30.917  1.00  0.00     0.022 A 
BRANCH  87  91
ATOM     91  S   UNL A   1      43.623  38.454  33.686  1.00  0.00     0.124 S 
ATOM     92  O   UNL A   1      42.704  37.479  34.265  1.00  0.00    -0.237 OA
ATOM     93  O   UNL A   1      45.001  38.393  34.162  1.00  0.00    -0.237 OA
ATOM     94  O   UNL A   1      43.080  39.804  33.534  1.00  0.00    -0.744 OA
ENDBRANCH  87  91
ENDBRANCH  61  84
ENDBRANCH  35  36
ENDBRANCH  28  30
ENDBRANCH  27  28
ENDBRANCH  26  27
ENDBRANCH  25  26
ENDBRANCH  24  25
ENDBRANCH  23  24
ENDBRANCH   1  23
TORSDOF 27
ENDMDL
