MODEL 1
REMARK VINA RESULT:      -7.9      0.000      0.000
REMARK SMILES C[C@@H](C(=O)OCCOCCOCCOC(=O)c1ccc(-c2c3nc(c(-c4cc(S(=O)(=O)[O-])ccc4F)c4ccc([nH]4)c(-c4cc(S(=O)(=O)[O-])ccc4F)c4nc(c(-c5cc(S(=O)(=O)[O-])ccc5F)c5ccc2[nH]5)C=C4)C=C3)cc1)c1ccc(C[C@H]2CCC[C@@H]2O)cc1
REMARK SMILES IDX 9 1 8 2 7 3 6 4 5 5 3 6 4 7 2 8 1 9 80 10 81 11 92 12 82 13
REMARK SMILES IDX 91 14 83 15 84 16 85 17 86 18 89 19 87 20 88 21 90 22 10 24
REMARK SMILES IDX 11 25 12 26 13 27 14 28 15 29 16 30 17 31 18 32 79 33 19 34
REMARK SMILES IDX 78 35 20 36 21 37 22 38 72 39 23 40 77 41 71 42 73 43 24 44
REMARK SMILES IDX 76 45 70 46 69 47 25 49 57 50 37 51 56 52 38 53 41 54 55 55
REMARK SMILES IDX 74 56 39 57 40 58 54 60 75 61 42 62 26 63 27 64 35 65 28 66
REMARK SMILES IDX 34 67 36 68 33 69 29 70 30 71 31 72 32 73 58 74 59 75 67 76
REMARK SMILES IDX 60 77 66 78 68 79 65 80 61 81 62 82 63 83 64 84 43 85 44 86
REMARK SMILES IDX 52 87 45 88 51 89 53 90 50 91 46 92 47 93 48 94 49 95
REMARK H PARENT 90 23 73 48 41 59
REMARK Flexibility Score: inf
ROOT
ATOM      1  C   UNL A   1      42.740  20.293  25.937  1.00  0.00     0.188 C 
ENDROOT
BRANCH   1   2
ATOM      2  O   UNL A   1      41.506  20.858  25.500  1.00  0.00    -0.376 OA
BRANCH   2   3
ATOM      3  C   UNL A   1      40.439  20.958  26.444  1.00  0.00     0.202 C 
BRANCH   3   4
ATOM      4  C   UNL A   1      39.618  22.258  26.517  1.00  0.00     0.261 C 
BRANCH   4   5
ATOM      5  O   UNL A   1      39.927  23.082  27.659  1.00  0.00    -0.463 OA
BRANCH   5   6
ATOM      6  C   UNL A   1      40.957  23.957  27.505  1.00  0.00     0.313 C 
ATOM      7  O   UNL A   1      42.053  23.815  28.039  1.00  0.00    -0.252 OA
BRANCH   6   8
ATOM      8  C   UNL A   1      40.626  25.141  26.584  1.00  0.00     0.126 C 
ATOM      9  C   UNL A   1      41.564  25.234  25.374  1.00  0.00     0.025 C 
BRANCH   8  10
ATOM     10  C   UNL A   1      40.349  26.463  27.312  1.00  0.00    -0.034 A 
ATOM     11  C   UNL A   1      40.596  27.715  26.722  1.00  0.00     0.005 A 
ATOM     12  C   UNL A   1      39.688  26.463  28.551  1.00  0.00     0.005 A 
ATOM     13  C   UNL A   1      40.182  28.909  27.332  1.00  0.00     0.004 A 
ATOM     14  C   UNL A   1      39.285  27.654  29.165  1.00  0.00     0.004 A 
ATOM     15  C   UNL A   1      39.521  28.894  28.562  1.00  0.00    -0.048 A 
BRANCH  15  16
ATOM     16  C   UNL A   1      39.098  30.167  29.267  1.00  0.00     0.041 C 
BRANCH  16  17
ATOM     17  C   UNL A   1      38.617  30.004  30.717  1.00  0.00     0.022 C 
ATOM     18  C   UNL A   1      39.425  30.826  31.735  1.00  0.00     0.007 C 
ATOM     19  C   UNL A   1      37.149  30.431  30.924  1.00  0.00     0.117 C 
ATOM     20  C   UNL A   1      38.452  31.894  32.197  1.00  0.00     0.003 C 
ATOM     21  C   UNL A   1      37.153  31.114  32.278  1.00  0.00     0.032 C 
BRANCH  19  22
ATOM     22  O   UNL A   1      36.264  29.329  30.884  1.00  0.00    -0.393 OA
ATOM     23  H   UNL A   1      35.535  29.477  31.506  1.00  0.00     0.210 HD
ENDBRANCH  19  22
ENDBRANCH  16  17
ENDBRANCH  15  16
ENDBRANCH   8  10
ENDBRANCH   6   8
ENDBRANCH   5   6
ENDBRANCH   4   5
ENDBRANCH   3   4
ENDBRANCH   2   3
ENDBRANCH   1   2
BRANCH   1  24
ATOM     24  C   UNL A   1      44.044  21.000  25.532  1.00  0.00     0.188 C 
BRANCH  24  25
ATOM     25  O   UNL A   1      43.863  22.006  24.557  1.00  0.00    -0.376 OA
BRANCH  25  26
ATOM     26  C   UNL A   1      44.990  22.638  23.968  1.00  0.00     0.202 C 
BRANCH  26  27
ATOM     27  C   UNL A   1      46.058  23.427  24.764  1.00  0.00     0.261 C 
BRANCH  27  28
ATOM     28  O   UNL A   1      46.104  24.854  24.622  1.00  0.00    -0.460 OA
BRANCH  28  29
ATOM     29  C   UNL A   1      46.919  25.516  25.484  1.00  0.00     0.338 C 
ATOM     30  O   UNL A   1      48.130  25.595  25.406  1.00  0.00    -0.246 OA
BRANCH  29  31
ATOM     31  C   UNL A   1      46.080  26.344  26.391  1.00  0.00     0.060 A 
ATOM     32  C   UNL A   1      46.747  27.149  27.309  1.00  0.00     0.016 A 
ATOM     33  C   UNL A   1      44.680  26.352  26.361  1.00  0.00     0.016 A 
ATOM     34  C   UNL A   1      46.014  27.953  28.183  1.00  0.00     0.010 A 
ATOM     35  C   UNL A   1      43.946  27.164  27.259  1.00  0.00     0.010 A 
ATOM     36  C   UNL A   1      44.603  27.988  28.183  1.00  0.00    -0.014 A 
BRANCH  36  37
ATOM     37  C   UNL A   1      43.900  28.800  29.246  1.00  0.00     0.031 A 
ATOM     38  C   UNL A   1      43.837  28.229  30.643  1.00  0.00     0.074 A 
ATOM     39  C   UNL A   1      43.476  30.074  29.061  1.00  0.00     0.049 A 
ATOM     40  N   UNL A   1      43.459  28.794  31.762  1.00  0.00    -0.248 NA
ATOM     41  C   UNL A   1      44.262  26.829  30.788  1.00  0.00     0.031 C 
ATOM     42  C   UNL A   1      43.542  30.807  27.799  1.00  0.00     0.029 A 
ATOM     43  N   UNL A   1      43.043  31.034  29.966  1.00  0.00    -0.354 N 
ATOM     44  C   UNL A   1      43.540  27.801  32.733  1.00  0.00     0.074 A 
ATOM     45  C   UNL A   1      44.088  26.628  32.083  1.00  0.00     0.031 C 
ATOM     46  C   UNL A   1      43.345  32.116  28.042  1.00  0.00     0.029 A 
ATOM     47  C   UNL A   1      43.044  32.327  29.459  1.00  0.00     0.049 A 
ATOM     48  H   UNL A   1      42.761  30.817  30.884  1.00  0.00     0.167 HD
ATOM     49  C   UNL A   1      43.122  27.829  34.023  1.00  0.00     0.034 A 
ATOM     50  C   UNL A   1      42.861  33.529  30.068  1.00  0.00     0.034 A 
ATOM     51  C   UNL A   1      42.517  28.969  34.662  1.00  0.00     0.049 A 
ATOM     52  C   UNL A   1      42.406  33.541  31.520  1.00  0.00     0.074 A 
ATOM     53  C   UNL A   1      41.937  29.045  35.918  1.00  0.00     0.029 A 
ATOM     54  N   UNL A   1      42.399  30.231  34.098  1.00  0.00    -0.354 N 
ATOM     55  N   UNL A   1      42.380  32.561  32.394  1.00  0.00    -0.248 NA
ATOM     56  C   UNL A   1      41.887  34.816  32.046  1.00  0.00     0.031 C 
ATOM     57  C   UNL A   1      41.400  30.327  36.080  1.00  0.00     0.029 A 
ATOM     58  C   UNL A   1      41.727  31.079  34.966  1.00  0.00     0.049 A 
ATOM     59  H   UNL A   1      42.742  30.487  33.212  1.00  0.00     0.167 HD
ATOM     60  C   UNL A   1      41.813  33.100  33.552  1.00  0.00     0.074 A 
ATOM     61  C   UNL A   1      41.592  34.504  33.298  1.00  0.00     0.031 C 
ATOM     62  C   UNL A   1      41.469  32.475  34.708  1.00  0.00     0.034 A 
BRANCH  49  63
ATOM     63  C   UNL A   1      43.139  26.513  34.756  1.00  0.00     0.023 A 
ATOM     64  C   UNL A   1      44.326  25.916  35.205  1.00  0.00     0.031 A 
ATOM     65  C   UNL A   1      41.935  25.800  34.913  1.00  0.00     0.131 A 
ATOM     66  C   UNL A   1      44.292  24.609  35.714  1.00  0.00     0.055 A 
ATOM     67  C   UNL A   1      41.898  24.539  35.502  1.00  0.00     0.041 A 
ATOM     68  F   UNL A   1      40.776  26.310  34.464  1.00  0.00    -0.206 F 
ATOM     69  C   UNL A   1      43.085  23.926  35.890  1.00  0.00     0.022 A 
BRANCH  66  70
ATOM     70  S   UNL A   1      45.864  23.739  35.966  1.00  0.00     0.124 S 
ATOM     71  O   UNL A   1      46.805  24.633  35.295  1.00  0.00    -0.237 OA
ATOM     72  O   UNL A   1      45.964  23.684  37.420  1.00  0.00    -0.237 OA
ATOM     73  O   UNL A   1      45.656  22.454  35.303  1.00  0.00    -0.744 OA
ENDBRANCH  66  70
ENDBRANCH  49  63
BRANCH  50  74
ATOM     74  C   UNL A   1      43.019  34.855  29.356  1.00  0.00     0.023 A 
ATOM     75  C   UNL A   1      44.245  35.562  29.382  1.00  0.00     0.031 A 
ATOM     76  C   UNL A   1      41.928  35.513  28.759  1.00  0.00     0.131 A 
ATOM     77  C   UNL A   1      44.326  36.879  28.882  1.00  0.00     0.055 A 
ATOM     78  C   UNL A   1      42.040  36.778  28.174  1.00  0.00     0.041 A 
ATOM     79  F   UNL A   1      40.709  34.951  28.760  1.00  0.00    -0.206 F 
ATOM     80  C   UNL A   1      43.238  37.477  28.249  1.00  0.00     0.022 A 
BRANCH  77  81
ATOM     81  S   UNL A   1      45.808  37.881  29.225  1.00  0.00     0.124 S 
ATOM     82  O   UNL A   1      46.683  37.503  28.120  1.00  0.00    -0.237 OA
ATOM     83  O   UNL A   1      45.276  39.239  29.193  1.00  0.00    -0.237 OA
ATOM     84  O   UNL A   1      46.238  37.414  30.543  1.00  0.00    -0.744 OA
ENDBRANCH  77  81
ENDBRANCH  50  74
BRANCH  62  85
ATOM     85  C   UNL A   1      40.779  33.295  35.778  1.00  0.00     0.023 A 
ATOM     86  C   UNL A   1      41.502  34.139  36.642  1.00  0.00     0.031 A 
ATOM     87  C   UNL A   1      39.379  33.257  35.920  1.00  0.00     0.131 A 
ATOM     88  C   UNL A   1      40.832  34.873  37.636  1.00  0.00     0.055 A 
ATOM     89  C   UNL A   1      38.713  34.033  36.873  1.00  0.00     0.041 A 
ATOM     90  F   UNL A   1      38.631  32.475  35.126  1.00  0.00    -0.206 F 
ATOM     91  C   UNL A   1      39.441  34.838  37.745  1.00  0.00     0.022 A 
BRANCH  88  92
ATOM     92  S   UNL A   1      41.810  35.824  38.834  1.00  0.00     0.124 S 
ATOM     93  O   UNL A   1      41.515  37.200  38.447  1.00  0.00    -0.237 OA
ATOM     94  O   UNL A   1      41.253  35.387  40.111  1.00  0.00    -0.237 OA
ATOM     95  O   UNL A   1      43.183  35.390  38.579  1.00  0.00    -0.744 OA
ENDBRANCH  88  92
ENDBRANCH  62  85
ENDBRANCH  36  37
ENDBRANCH  29  31
ENDBRANCH  28  29
ENDBRANCH  27  28
ENDBRANCH  26  27
ENDBRANCH  25  26
ENDBRANCH  24  25
ENDBRANCH   1  24
TORSDOF 24
ENDMDL
MODEL 2
REMARK VINA RESULT:      -7.4      5.279     11.573
REMARK SMILES C[C@@H](C(=O)OCCOCCOCCOC(=O)c1ccc(-c2c3nc(c(-c4cc(S(=O)(=O)[O-])ccc4F)c4ccc([nH]4)c(-c4cc(S(=O)(=O)[O-])ccc4F)c4nc(c(-c5cc(S(=O)(=O)[O-])ccc5F)c5ccc2[nH]5)C=C4)C=C3)cc1)c1ccc(C[C@H]2CCC[C@@H]2O)cc1
REMARK SMILES IDX 9 1 8 2 7 3 6 4 5 5 3 6 4 7 2 8 1 9 80 10 81 11 92 12 82 13
REMARK SMILES IDX 91 14 83 15 84 16 85 17 86 18 89 19 87 20 88 21 90 22 10 24
REMARK SMILES IDX 11 25 12 26 13 27 14 28 15 29 16 30 17 31 18 32 79 33 19 34
REMARK SMILES IDX 78 35 20 36 21 37 22 38 72 39 23 40 77 41 71 42 73 43 24 44
REMARK SMILES IDX 76 45 70 46 69 47 25 49 57 50 37 51 56 52 38 53 41 54 55 55
REMARK SMILES IDX 74 56 39 57 40 58 54 60 75 61 42 62 26 63 27 64 35 65 28 66
REMARK SMILES IDX 34 67 36 68 33 69 29 70 30 71 31 72 32 73 58 74 59 75 67 76
REMARK SMILES IDX 60 77 66 78 68 79 65 80 61 81 62 82 63 83 64 84 43 85 44 86
REMARK SMILES IDX 52 87 45 88 51 89 53 90 50 91 46 92 47 93 48 94 49 95
REMARK H PARENT 90 23 73 48 41 59
REMARK Flexibility Score: inf
ROOT
ATOM      1  C   UNL A   1      32.150  31.031  26.455  1.00  0.00     0.188 C 
ENDROOT
BRANCH   1   2
ATOM      2  O   UNL A   1      31.418  29.890  26.016  1.00  0.00    -0.376 OA
BRANCH   2   3
ATOM      3  C   UNL A   1      31.423  29.582  24.621  1.00  0.00     0.202 C 
BRANCH   3   4
ATOM      4  C   UNL A   1      32.416  28.535  24.086  1.00  0.00     0.261 C 
BRANCH   4   5
ATOM      5  O   UNL A   1      32.119  27.184  24.493  1.00  0.00    -0.463 OA
BRANCH   5   6
ATOM      6  C   UNL A   1      32.417  26.209  23.593  1.00  0.00     0.313 C 
ATOM      7  O   UNL A   1      33.468  26.172  22.957  1.00  0.00    -0.252 OA
BRANCH   6   8
ATOM      8  C   UNL A   1      31.320  25.144  23.453  1.00  0.00     0.126 C 
ATOM      9  C   UNL A   1      29.956  25.624  23.965  1.00  0.00     0.025 C 
BRANCH   8  10
ATOM     10  C   UNL A   1      31.734  23.733  23.892  1.00  0.00    -0.034 A 
ATOM     11  C   UNL A   1      31.513  23.253  25.195  1.00  0.00     0.005 A 
ATOM     12  C   UNL A   1      32.217  22.812  22.948  1.00  0.00     0.005 A 
ATOM     13  C   UNL A   1      31.742  21.910  25.532  1.00  0.00     0.004 A 
ATOM     14  C   UNL A   1      32.456  21.475  23.286  1.00  0.00     0.004 A 
ATOM     15  C   UNL A   1      32.217  21.004  24.582  1.00  0.00    -0.048 A 
BRANCH  15  16
ATOM     16  C   UNL A   1      32.515  19.558  24.924  1.00  0.00     0.041 C 
BRANCH  16  17
ATOM     17  C   UNL A   1      33.388  18.795  23.916  1.00  0.00     0.022 C 
ATOM     18  C   UNL A   1      34.730  18.318  24.494  1.00  0.00     0.007 C 
ATOM     19  C   UNL A   1      32.710  17.525  23.360  1.00  0.00     0.117 C 
ATOM     20  C   UNL A   1      34.586  16.809  24.555  1.00  0.00     0.003 C 
ATOM     21  C   UNL A   1      33.840  16.518  23.266  1.00  0.00     0.032 C 
BRANCH  19  22
ATOM     22  O   UNL A   1      32.094  17.755  22.109  1.00  0.00    -0.393 OA
ATOM     23  H   UNL A   1      32.282  17.013  21.514  1.00  0.00     0.210 HD
ENDBRANCH  19  22
ENDBRANCH  16  17
ENDBRANCH  15  16
ENDBRANCH   8  10
ENDBRANCH   6   8
ENDBRANCH   5   6
ENDBRANCH   4   5
ENDBRANCH   3   4
ENDBRANCH   2   3
ENDBRANCH   1   2
BRANCH   1  24
ATOM     24  C   UNL A   1      31.380  32.343  26.680  1.00  0.00     0.188 C 
BRANCH  24  25
ATOM     25  O   UNL A   1      32.056  33.261  27.513  1.00  0.00    -0.376 OA
BRANCH  25  26
ATOM     26  C   UNL A   1      33.443  33.100  27.773  1.00  0.00     0.202 C 
BRANCH  26  27
ATOM     27  C   UNL A   1      34.122  33.466  29.115  1.00  0.00     0.261 C 
BRANCH  27  28
ATOM     28  O   UNL A   1      34.842  32.445  29.820  1.00  0.00    -0.460 OA
BRANCH  28  29
ATOM     29  C   UNL A   1      34.983  31.257  29.176  1.00  0.00     0.338 C 
ATOM     30  O   UNL A   1      34.120  30.678  28.545  1.00  0.00    -0.246 OA
BRANCH  29  31
ATOM     31  C   UNL A   1      36.427  30.902  29.143  1.00  0.00     0.060 A 
ATOM     32  C   UNL A   1      36.763  29.590  29.458  1.00  0.00     0.016 A 
ATOM     33  C   UNL A   1      37.442  31.810  28.813  1.00  0.00     0.016 A 
ATOM     34  C   UNL A   1      38.102  29.195  29.438  1.00  0.00     0.010 A 
ATOM     35  C   UNL A   1      38.797  31.401  28.806  1.00  0.00     0.010 A 
ATOM     36  C   UNL A   1      39.151  30.080  29.111  1.00  0.00    -0.014 A 
BRANCH  36  37
ATOM     37  C   UNL A   1      40.576  29.590  29.234  1.00  0.00     0.031 A 
ATOM     38  C   UNL A   1      41.353  29.983  30.467  1.00  0.00     0.074 A 
ATOM     39  C   UNL A   1      41.134  28.686  28.392  1.00  0.00     0.049 A 
ATOM     40  N   UNL A   1      42.511  29.552  30.899  1.00  0.00    -0.248 NA
ATOM     41  C   UNL A   1      40.730  31.001  31.326  1.00  0.00     0.031 C 
ATOM     42  C   UNL A   1      40.490  28.136  27.202  1.00  0.00     0.029 A 
ATOM     43  N   UNL A   1      42.311  27.955  28.486  1.00  0.00    -0.354 N 
ATOM     44  C   UNL A   1      42.785  30.291  32.046  1.00  0.00     0.074 A 
ATOM     45  C   UNL A   1      41.630  31.130  32.286  1.00  0.00     0.031 C 
ATOM     46  C   UNL A   1      41.177  27.053  26.793  1.00  0.00     0.029 A 
ATOM     47  C   UNL A   1      42.369  26.868  27.623  1.00  0.00     0.049 A 
ATOM     48  H   UNL A   1      43.038  28.186  29.108  1.00  0.00     0.167 HD
ATOM     49  C   UNL A   1      43.922  30.333  32.785  1.00  0.00     0.034 A 
ATOM     50  C   UNL A   1      43.251  25.836  27.538  1.00  0.00     0.034 A 
ATOM     51  C   UNL A   1      45.102  29.550  32.518  1.00  0.00     0.049 A 
ATOM     52  C   UNL A   1      44.513  25.895  28.386  1.00  0.00     0.074 A 
ATOM     53  C   UNL A   1      46.344  29.630  33.126  1.00  0.00     0.029 A 
ATOM     54  N   UNL A   1      45.197  28.553  31.560  1.00  0.00    -0.354 N 
ATOM     55  N   UNL A   1      44.804  26.682  29.396  1.00  0.00    -0.248 NA
ATOM     56  C   UNL A   1      45.599  24.965  28.029  1.00  0.00     0.031 C 
ATOM     57  C   UNL A   1      47.209  28.738  32.483  1.00  0.00     0.029 A 
ATOM     58  C   UNL A   1      46.483  28.035  31.537  1.00  0.00     0.049 A 
ATOM     59  H   UNL A   1      44.459  28.255  30.979  1.00  0.00     0.167 HD
ATOM     60  C   UNL A   1      46.113  26.359  29.765  1.00  0.00     0.074 A 
ATOM     61  C   UNL A   1      46.523  25.253  28.933  1.00  0.00     0.031 C 
ATOM     62  C   UNL A   1      46.916  26.954  30.685  1.00  0.00     0.034 A 
BRANCH  49  63
ATOM     63  C   UNL A   1      43.991  31.410  33.837  1.00  0.00     0.023 A 
ATOM     64  C   UNL A   1      43.557  31.205  35.154  1.00  0.00     0.031 A 
ATOM     65  C   UNL A   1      44.412  32.702  33.468  1.00  0.00     0.131 A 
ATOM     66  C   UNL A   1      43.476  32.296  36.033  1.00  0.00     0.055 A 
ATOM     67  C   UNL A   1      44.413  33.762  34.372  1.00  0.00     0.041 A 
ATOM     68  F   UNL A   1      44.799  32.962  32.208  1.00  0.00    -0.206 F 
ATOM     69  C   UNL A   1      43.925  33.566  35.660  1.00  0.00     0.022 A 
BRANCH  66  70
ATOM     70  S   UNL A   1      42.600  32.075  37.605  1.00  0.00     0.124 S 
ATOM     71  O   UNL A   1      42.299  30.645  37.575  1.00  0.00    -0.237 OA
ATOM     72  O   UNL A   1      43.596  32.496  38.583  1.00  0.00    -0.237 OA
ATOM     73  O   UNL A   1      41.438  32.951  37.477  1.00  0.00    -0.744 OA
ENDBRANCH  66  70
ENDBRANCH  49  63
BRANCH  50  74
ATOM     74  C   UNL A   1      43.076  24.667  26.593  1.00  0.00     0.023 A 
ATOM     75  C   UNL A   1      42.246  23.571  26.926  1.00  0.00     0.031 A 
ATOM     76  C   UNL A   1      43.832  24.547  25.413  1.00  0.00     0.131 A 
ATOM     77  C   UNL A   1      42.241  22.406  26.130  1.00  0.00     0.055 A 
ATOM     78  C   UNL A   1      43.745  23.431  24.573  1.00  0.00     0.041 A 
ATOM     79  F   UNL A   1      44.705  25.503  25.060  1.00  0.00    -0.206 F 
ATOM     80  C   UNL A   1      42.960  22.345  24.939  1.00  0.00     0.022 A 
BRANCH  77  81
ATOM     81  S   UNL A   1      41.430  20.897  26.751  1.00  0.00     0.124 S 
ATOM     82  O   UNL A   1      42.400  19.869  26.389  1.00  0.00    -0.237 OA
ATOM     83  O   UNL A   1      41.294  21.184  28.175  1.00  0.00    -0.237 OA
ATOM     84  O   UNL A   1      40.174  20.853  26.004  1.00  0.00    -0.744 OA
ENDBRANCH  77  81
ENDBRANCH  50  74
BRANCH  62  85
ATOM     85  C   UNL A   1      48.337  26.450  30.817  1.00  0.00     0.023 A 
ATOM     86  C   UNL A   1      48.704  25.528  31.817  1.00  0.00     0.031 A 
ATOM     87  C   UNL A   1      49.334  26.869  29.917  1.00  0.00     0.131 A 
ATOM     88  C   UNL A   1      50.036  25.094  31.922  1.00  0.00     0.055 A 
ATOM     89  C   UNL A   1      50.645  26.390  29.992  1.00  0.00     0.041 A 
ATOM     90  F   UNL A   1      49.049  27.744  28.939  1.00  0.00    -0.206 F 
ATOM     91  C   UNL A   1      51.004  25.506  31.005  1.00  0.00     0.022 A 
BRANCH  88  92
ATOM     92  S   UNL A   1      50.506  24.034  33.319  1.00  0.00     0.124 S 
ATOM     93  O   UNL A   1      50.740  22.750  32.665  1.00  0.00    -0.237 OA
ATOM     94  O   UNL A   1      51.691  24.709  33.840  1.00  0.00    -0.237 OA
ATOM     95  O   UNL A   1      49.335  24.079  34.194  1.00  0.00    -0.744 OA
ENDBRANCH  88  92
ENDBRANCH  62  85
ENDBRANCH  36  37
ENDBRANCH  29  31
ENDBRANCH  28  29
ENDBRANCH  27  28
ENDBRANCH  26  27
ENDBRANCH  25  26
ENDBRANCH  24  25
ENDBRANCH   1  24
TORSDOF 24
ENDMDL
MODEL 3
REMARK VINA RESULT:      -7.4      5.739     10.395
REMARK SMILES C[C@@H](C(=O)OCCOCCOCCOC(=O)c1ccc(-c2c3nc(c(-c4cc(S(=O)(=O)[O-])ccc4F)c4ccc([nH]4)c(-c4cc(S(=O)(=O)[O-])ccc4F)c4nc(c(-c5cc(S(=O)(=O)[O-])ccc5F)c5ccc2[nH]5)C=C4)C=C3)cc1)c1ccc(C[C@H]2CCC[C@@H]2O)cc1
REMARK SMILES IDX 9 1 8 2 7 3 6 4 5 5 3 6 4 7 2 8 1 9 80 10 81 11 92 12 82 13
REMARK SMILES IDX 91 14 83 15 84 16 85 17 86 18 89 19 87 20 88 21 90 22 10 24
REMARK SMILES IDX 11 25 12 26 13 27 14 28 15 29 16 30 17 31 18 32 79 33 19 34
REMARK SMILES IDX 78 35 20 36 21 37 22 38 72 39 23 40 77 41 71 42 73 43 24 44
REMARK SMILES IDX 76 45 70 46 69 47 25 49 57 50 37 51 56 52 38 53 41 54 55 55
REMARK SMILES IDX 74 56 39 57 40 58 54 60 75 61 42 62 26 63 27 64 35 65 28 66
REMARK SMILES IDX 34 67 36 68 33 69 29 70 30 71 31 72 32 73 58 74 59 75 67 76
REMARK SMILES IDX 60 77 66 78 68 79 65 80 61 81 62 82 63 83 64 84 43 85 44 86
REMARK SMILES IDX 52 87 45 88 51 89 53 90 50 91 46 92 47 93 48 94 49 95
REMARK H PARENT 90 23 73 48 41 59
REMARK Flexibility Score: inf
ROOT
ATOM      1  C   UNL A   1      33.818  26.968  24.721  1.00  0.00     0.188 C 
ENDROOT
BRANCH   1   2
ATOM      2  O   UNL A   1      34.415  25.712  25.037  1.00  0.00    -0.376 OA
BRANCH   2   3
ATOM      3  C   UNL A   1      33.887  24.974  26.140  1.00  0.00     0.202 C 
BRANCH   3   4
ATOM      4  C   UNL A   1      33.079  23.692  25.869  1.00  0.00     0.261 C 
BRANCH   4   5
ATOM      5  O   UNL A   1      31.878  23.908  25.100  1.00  0.00    -0.463 OA
BRANCH   5   6
ATOM      6  C   UNL A   1      31.810  23.265  23.904  1.00  0.00     0.313 C 
ATOM      7  O   UNL A   1      31.708  22.045  23.796  1.00  0.00    -0.252 OA
BRANCH   6   8
ATOM      8  C   UNL A   1      31.860  24.208  22.694  1.00  0.00     0.126 C 
ATOM      9  C   UNL A   1      33.291  24.494  22.220  1.00  0.00     0.025 C 
BRANCH   8  10
ATOM     10  C   UNL A   1      30.938  25.430  22.793  1.00  0.00    -0.034 A 
ATOM     11  C   UNL A   1      29.798  25.451  23.616  1.00  0.00     0.005 A 
ATOM     12  C   UNL A   1      31.295  26.637  22.169  1.00  0.00     0.005 A 
ATOM     13  C   UNL A   1      29.064  26.629  23.824  1.00  0.00     0.004 A 
ATOM     14  C   UNL A   1      30.557  27.809  22.367  1.00  0.00     0.004 A 
ATOM     15  C   UNL A   1      29.434  27.823  23.202  1.00  0.00    -0.048 A 
BRANCH  15  16
ATOM     16  C   UNL A   1      28.638  29.102  23.372  1.00  0.00     0.041 C 
BRANCH  16  17
ATOM     17  C   UNL A   1      29.330  30.391  22.904  1.00  0.00     0.022 C 
ATOM     18  C   UNL A   1      28.844  30.893  21.534  1.00  0.00     0.007 C 
ATOM     19  C   UNL A   1      29.126  31.579  23.868  1.00  0.00     0.117 C 
ATOM     20  C   UNL A   1      28.085  32.166  21.860  1.00  0.00     0.003 C 
ATOM     21  C   UNL A   1      28.952  32.772  22.948  1.00  0.00     0.032 C 
BRANCH  19  22
ATOM     22  O   UNL A   1      30.217  31.740  24.752  1.00  0.00    -0.393 OA
ATOM     23  H   UNL A   1      30.216  31.020  25.402  1.00  0.00     0.210 HD
ENDBRANCH  19  22
ENDBRANCH  16  17
ENDBRANCH  15  16
ENDBRANCH   8  10
ENDBRANCH   6   8
ENDBRANCH   5   6
ENDBRANCH   4   5
ENDBRANCH   3   4
ENDBRANCH   2   3
ENDBRANCH   1   2
BRANCH   1  24
ATOM     24  C   UNL A   1      32.594  27.414  25.539  1.00  0.00     0.188 C 
BRANCH  24  25
ATOM     25  O   UNL A   1      32.918  28.243  26.635  1.00  0.00    -0.376 OA
BRANCH  25  26
ATOM     26  C   UNL A   1      33.218  29.615  26.427  1.00  0.00     0.202 C 
BRANCH  26  27
ATOM     27  C   UNL A   1      32.977  30.725  27.479  1.00  0.00     0.261 C 
BRANCH  27  28
ATOM     28  O   UNL A   1      32.685  32.053  27.022  1.00  0.00    -0.460 OA
BRANCH  28  29
ATOM     29  C   UNL A   1      33.172  33.069  27.781  1.00  0.00     0.338 C 
ATOM     30  O   UNL A   1      32.597  34.108  28.040  1.00  0.00    -0.246 OA
BRANCH  29  31
ATOM     31  C   UNL A   1      34.411  32.604  28.460  1.00  0.00     0.060 A 
ATOM     32  C   UNL A   1      35.567  32.537  27.689  1.00  0.00     0.016 A 
ATOM     33  C   UNL A   1      34.466  32.242  29.812  1.00  0.00     0.016 A 
ATOM     34  C   UNL A   1      36.763  32.115  28.271  1.00  0.00     0.010 A 
ATOM     35  C   UNL A   1      35.682  31.805  30.390  1.00  0.00     0.010 A 
ATOM     36  C   UNL A   1      36.858  31.742  29.629  1.00  0.00    -0.014 A 
BRANCH  36  37
ATOM     37  C   UNL A   1      38.168  31.185  30.137  1.00  0.00     0.031 A 
ATOM     38  C   UNL A   1      38.473  31.332  31.609  1.00  0.00     0.074 A 
ATOM     39  C   UNL A   1      38.999  30.419  29.389  1.00  0.00     0.049 A 
ATOM     40  N   UNL A   1      39.427  30.790  32.323  1.00  0.00    -0.248 NA
ATOM     41  C   UNL A   1      37.574  32.210  32.370  1.00  0.00     0.031 C 
ATOM     42  C   UNL A   1      38.808  30.105  27.975  1.00  0.00     0.029 A 
ATOM     43  N   UNL A   1      40.092  29.639  29.745  1.00  0.00    -0.354 N 
ATOM     44  C   UNL A   1      39.281  31.312  33.605  1.00  0.00     0.074 A 
ATOM     45  C   UNL A   1      38.093  32.140  33.584  1.00  0.00     0.031 C 
ATOM     46  C   UNL A   1      39.618  29.083  27.640  1.00  0.00     0.029 A 
ATOM     47  C   UNL A   1      40.463  28.714  28.778  1.00  0.00     0.049 A 
ATOM     48  H   UNL A   1      40.560  29.733  30.606  1.00  0.00     0.167 HD
ATOM     49  C   UNL A   1      40.099  31.185  34.679  1.00  0.00     0.034 A 
ATOM     50  C   UNL A   1      41.346  27.681  28.817  1.00  0.00     0.034 A 
ATOM     51  C   UNL A   1      41.317  30.415  34.694  1.00  0.00     0.049 A 
ATOM     52  C   UNL A   1      42.245  27.546  30.037  1.00  0.00     0.074 A 
ATOM     53  C   UNL A   1      42.279  30.344  35.688  1.00  0.00     0.029 A 
ATOM     54  N   UNL A   1      41.754  29.594  33.666  1.00  0.00    -0.354 N 
ATOM     55  N   UNL A   1      42.159  28.137  31.206  1.00  0.00    -0.248 NA
ATOM     56  C   UNL A   1      43.409  26.651  29.911  1.00  0.00     0.031 C 
ATOM     57  C   UNL A   1      43.330  29.544  35.230  1.00  0.00     0.029 A 
ATOM     58  C   UNL A   1      42.983  29.040  33.988  1.00  0.00     0.049 A 
ATOM     59  H   UNL A   1      41.262  29.427  32.828  1.00  0.00     0.167 HD
ATOM     60  C   UNL A   1      43.273  27.707  31.933  1.00  0.00     0.074 A 
ATOM     61  C   UNL A   1      43.966  26.745  31.108  1.00  0.00     0.031 C 
ATOM     62  C   UNL A   1      43.704  28.105  33.157  1.00  0.00     0.034 A 
BRANCH  49  63
ATOM     63  C   UNL A   1      39.784  32.062  35.863  1.00  0.00     0.023 A 
ATOM     64  C   UNL A   1      38.942  31.647  36.905  1.00  0.00     0.031 A 
ATOM     65  C   UNL A   1      40.266  33.385  35.884  1.00  0.00     0.131 A 
ATOM     66  C   UNL A   1      38.542  32.573  37.880  1.00  0.00     0.055 A 
ATOM     67  C   UNL A   1      39.936  34.273  36.905  1.00  0.00     0.041 A 
ATOM     68  F   UNL A   1      41.044  33.844  34.890  1.00  0.00    -0.206 F 
ATOM     69  C   UNL A   1      39.053  33.874  37.903  1.00  0.00     0.022 A 
BRANCH  66  70
ATOM     70  S   UNL A   1      37.198  32.113  39.008  1.00  0.00     0.124 S 
ATOM     71  O   UNL A   1      37.687  32.644  40.279  1.00  0.00    -0.237 OA
ATOM     72  O   UNL A   1      36.050  32.801  38.430  1.00  0.00    -0.237 OA
ATOM     73  O   UNL A   1      37.163  30.655  38.923  1.00  0.00    -0.744 OA
ENDBRANCH  66  70
ENDBRANCH  49  63
BRANCH  50  74
ATOM     74  C   UNL A   1      41.527  26.698  27.680  1.00  0.00     0.023 A 
ATOM     75  C   UNL A   1      41.220  25.326  27.838  1.00  0.00     0.031 A 
ATOM     76  C   UNL A   1      42.139  27.069  26.469  1.00  0.00     0.131 A 
ATOM     77  C   UNL A   1      41.573  24.391  26.842  1.00  0.00     0.055 A 
ATOM     78  C   UNL A   1      42.393  26.153  25.442  1.00  0.00     0.041 A 
ATOM     79  F   UNL A   1      42.537  28.334  26.264  1.00  0.00    -0.206 F 
ATOM     80  C   UNL A   1      42.127  24.803  25.632  1.00  0.00     0.022 A 
BRANCH  77  81
ATOM     81  S   UNL A   1      41.472  22.609  27.206  1.00  0.00     0.124 S 
ATOM     82  O   UNL A   1      42.879  22.224  27.193  1.00  0.00    -0.237 OA
ATOM     83  O   UNL A   1      40.810  22.597  28.506  1.00  0.00    -0.237 OA
ATOM     84  O   UNL A   1      40.675  22.080  26.100  1.00  0.00    -0.744 OA
ENDBRANCH  77  81
ENDBRANCH  50  74
BRANCH  62  85
ATOM     85  C   UNL A   1      45.008  27.533  33.671  1.00  0.00     0.023 A 
ATOM     86  C   UNL A   1      46.240  28.174  33.432  1.00  0.00     0.031 A 
ATOM     87  C   UNL A   1      45.023  26.351  34.433  1.00  0.00     0.131 A 
ATOM     88  C   UNL A   1      47.434  27.607  33.908  1.00  0.00     0.055 A 
ATOM     89  C   UNL A   1      46.208  25.822  34.952  1.00  0.00     0.041 A 
ATOM     90  F   UNL A   1      43.883  25.694  34.700  1.00  0.00    -0.206 F 
ATOM     91  C   UNL A   1      47.423  26.444  34.681  1.00  0.00     0.022 A 
BRANCH  88  92
ATOM     92  S   UNL A   1      49.014  28.370  33.443  1.00  0.00     0.124 S 
ATOM     93  O   UNL A   1      48.578  29.577  32.747  1.00  0.00    -0.237 OA
ATOM     94  O   UNL A   1      49.654  28.578  34.738  1.00  0.00    -0.237 OA
ATOM     95  O   UNL A   1      49.648  27.361  32.596  1.00  0.00    -0.744 OA
ENDBRANCH  88  92
ENDBRANCH  62  85
ENDBRANCH  36  37
ENDBRANCH  29  31
ENDBRANCH  28  29
ENDBRANCH  27  28
ENDBRANCH  26  27
ENDBRANCH  25  26
ENDBRANCH  24  25
ENDBRANCH   1  24
TORSDOF 24
ENDMDL
