MODEL 1
REMARK VINA RESULT:     -11.8      0.000      0.000
REMARK SMILES C[C@H]1CCCC[C@@H]1n1c(SCC(=O)OCCOCCOCCOC(=O)c2ccc(-c3c4nc(c(-c5cc(S(=O)(=O)[O-])ccc5F)c5ccc([nH]5)c(-c5cc(S(=O)(=O)[O-])ccc5F)c5nc(c(-c6cc(S(=O)(=O)[O-])ccc6F)c6ccc3[nH]6)C=C5)C=C4)cc2)nc2ccccc2c1=O
REMARK SMILES IDX 18 1 17 2 16 3 15 4 14 5 12 6 13 7 11 8 10 9 9 10 8 11 96 12
REMARK SMILES IDX 89 13 95 14 97 15 90 16 94 17 91 18 93 19 92 20 7 21 1 22
REMARK SMILES IDX 2 23 3 24 4 25 6 26 5 27 19 28 20 29 21 30 22 31 23 32 24 33
REMARK SMILES IDX 25 34 26 35 27 36 88 37 28 38 87 39 29 40 30 41 31 42 81 43
REMARK SMILES IDX 32 44 86 45 80 46 82 47 33 48 85 49 79 50 78 51 34 53 66 54
REMARK SMILES IDX 46 55 65 56 47 57 50 58 64 59 83 60 48 61 49 62 63 64 84 65
REMARK SMILES IDX 51 66 35 67 36 68 44 69 37 70 43 71 45 72 42 73 38 74 39 75
REMARK SMILES IDX 40 76 41 77 67 78 68 79 76 80 69 81 75 82 77 83 74 84 70 85
REMARK SMILES IDX 71 86 72 87 73 88 52 89 53 90 61 91 54 92 60 93 62 94 59 95
REMARK SMILES IDX 55 96 56 97 57 98 58 99
REMARK H PARENT 82 52 50 63
REMARK Flexibility Score: inf
ROOT
ATOM      1  C   UNL A   1      44.206  18.782  25.404  1.00  0.00     0.188 C 
ENDROOT
BRANCH   1   2
ATOM      2  O   UNL A   1      42.945  19.395  25.553  1.00  0.00    -0.376 OA
BRANCH   2   3
ATOM      3  C   UNL A   1      42.349  19.373  26.841  1.00  0.00     0.202 C 
BRANCH   3   4
ATOM      4  C   UNL A   1      41.153  20.297  27.105  1.00  0.00     0.261 C 
BRANCH   4   5
ATOM      5  O   UNL A   1      40.431  20.686  25.914  1.00  0.00    -0.463 OA
BRANCH   5   6
ATOM      6  C   UNL A   1      39.393  21.536  26.148  1.00  0.00     0.316 C 
ATOM      7  O   UNL A   1      39.293  22.217  27.166  1.00  0.00    -0.251 OA
BRANCH   6   8
ATOM      8  C   UNL A   1      38.277  21.522  25.132  1.00  0.00     0.200 C 
BRANCH   8   9
ATOM      9  S   UNL A   1      36.642  21.957  25.581  1.00  0.00    -0.076 SA
BRANCH   9  10
ATOM     10  C   UNL A   1      35.140  21.259  25.033  1.00  0.00     0.172 A 
ATOM     11  N   UNL A   1      33.840  21.735  24.741  1.00  0.00    -0.284 N 
ATOM     12  C   UNL A   1      32.849  20.716  24.856  1.00  0.00     0.262 A 
ATOM     13  N   UNL A   1      35.448  19.995  24.990  1.00  0.00    -0.224 NA
ATOM     14  C   UNL A   1      33.218  19.302  24.548  1.00  0.00     0.066 A 
ATOM     15  O   UNL A   1      31.694  20.925  25.219  1.00  0.00    -0.269 OA
ATOM     16  C   UNL A   1      34.556  19.013  24.622  1.00  0.00     0.079 A 
ATOM     17  C   UNL A   1      32.323  18.320  24.083  1.00  0.00     0.016 A 
ATOM     18  C   UNL A   1      35.020  17.727  24.311  1.00  0.00     0.029 A 
ATOM     19  C   UNL A   1      32.798  17.066  23.671  1.00  0.00     0.001 A 
ATOM     20  C   UNL A   1      34.148  16.757  23.814  1.00  0.00     0.002 A 
BRANCH  11  21
ATOM     21  C   UNL A   1      33.220  23.183  24.665  1.00  0.00     0.096 C 
ATOM     22  C   UNL A   1      33.313  23.996  21.994  1.00  0.00     0.010 C 
ATOM     23  C   UNL A   1      33.522  24.233  23.474  1.00  0.00     0.009 C 
ATOM     24  C   UNL A   1      32.775  25.570  23.739  1.00  0.00     0.005 C 
ATOM     25  C   UNL A   1      33.379  26.244  24.945  1.00  0.00     0.000 C 
ATOM     26  C   UNL A   1      33.607  23.931  25.930  1.00  0.00     0.026 C 
ATOM     27  C   UNL A   1      33.125  25.359  26.150  1.00  0.00     0.002 C 
ENDBRANCH  11  21
ENDBRANCH   9  10
ENDBRANCH   8   9
ENDBRANCH   6   8
ENDBRANCH   5   6
ENDBRANCH   4   5
ENDBRANCH   3   4
ENDBRANCH   2   3
ENDBRANCH   1   2
BRANCH   1  28
ATOM     28  C   UNL A   1      45.268  19.379  24.478  1.00  0.00     0.188 C 
BRANCH  28  29
ATOM     29  O   UNL A   1      46.212  20.291  24.990  1.00  0.00    -0.376 OA
BRANCH  29  30
ATOM     30  C   UNL A   1      45.992  21.650  24.682  1.00  0.00     0.202 C 
BRANCH  30  31
ATOM     31  C   UNL A   1      45.473  22.557  25.808  1.00  0.00     0.261 C 
BRANCH  31  32
ATOM     32  O   UNL A   1      44.134  22.304  26.309  1.00  0.00    -0.460 OA
BRANCH  32  33
ATOM     33  C   UNL A   1      43.171  23.106  25.776  1.00  0.00     0.338 C 
ATOM     34  O   UNL A   1      42.636  22.943  24.669  1.00  0.00    -0.246 OA
BRANCH  33  35
ATOM     35  C   UNL A   1      42.700  24.178  26.684  1.00  0.00     0.060 A 
ATOM     36  C   UNL A   1      41.930  23.989  27.823  1.00  0.00     0.016 A 
ATOM     37  C   UNL A   1      43.176  25.459  26.446  1.00  0.00     0.016 A 
ATOM     38  C   UNL A   1      41.578  25.105  28.631  1.00  0.00     0.010 A 
ATOM     39  C   UNL A   1      42.884  26.560  27.269  1.00  0.00     0.010 A 
ATOM     40  C   UNL A   1      42.011  26.418  28.338  1.00  0.00    -0.014 A 
BRANCH  40  41
ATOM     41  C   UNL A   1      41.687  27.589  29.210  1.00  0.00     0.031 A 
ATOM     42  C   UNL A   1      40.508  28.516  29.031  1.00  0.00     0.074 A 
ATOM     43  C   UNL A   1      42.560  27.915  30.175  1.00  0.00     0.049 A 
ATOM     44  N   UNL A   1      39.781  29.113  29.944  1.00  0.00    -0.248 NA
ATOM     45  C   UNL A   1      40.104  28.857  27.666  1.00  0.00     0.031 C 
ATOM     46  C   UNL A   1      43.870  27.297  30.344  1.00  0.00     0.029 A 
ATOM     47  N   UNL A   1      42.478  28.847  31.175  1.00  0.00    -0.354 N 
ATOM     48  C   UNL A   1      38.743  29.749  29.262  1.00  0.00     0.074 A 
ATOM     49  C   UNL A   1      38.972  29.529  27.854  1.00  0.00     0.031 C 
ATOM     50  C   UNL A   1      44.463  27.844  31.413  1.00  0.00     0.029 A 
ATOM     51  C   UNL A   1      43.561  28.827  32.015  1.00  0.00     0.049 A 
ATOM     52  H   UNL A   1      41.721  29.468  31.280  1.00  0.00     0.167 HD
ATOM     53  C   UNL A   1      37.728  30.499  29.762  1.00  0.00     0.034 A 
ATOM     54  C   UNL A   1      43.780  29.483  33.172  1.00  0.00     0.034 A 
ATOM     55  C   UNL A   1      37.749  31.014  31.108  1.00  0.00     0.049 A 
ATOM     56  C   UNL A   1      42.662  30.299  33.765  1.00  0.00     0.074 A 
ATOM     57  C   UNL A   1      36.794  31.767  31.765  1.00  0.00     0.029 A 
ATOM     58  N   UNL A   1      38.845  30.929  31.957  1.00  0.00    -0.354 N 
ATOM     59  N   UNL A   1      41.475  30.559  33.266  1.00  0.00    -0.248 NA
ATOM     60  C   UNL A   1      42.887  30.866  35.100  1.00  0.00     0.031 C 
ATOM     61  C   UNL A   1      37.366  32.248  32.946  1.00  0.00     0.029 A 
ATOM     62  C   UNL A   1      38.624  31.684  33.093  1.00  0.00     0.049 A 
ATOM     63  H   UNL A   1      39.661  30.409  31.776  1.00  0.00     0.167 HD
ATOM     64  C   UNL A   1      40.801  31.300  34.234  1.00  0.00     0.074 A 
ATOM     65  C   UNL A   1      41.710  31.426  35.357  1.00  0.00     0.031 C 
ATOM     66  C   UNL A   1      39.546  31.819  34.200  1.00  0.00     0.034 A 
BRANCH  53  67
ATOM     67  C   UNL A   1      36.526  30.824  28.892  1.00  0.00     0.023 A 
ATOM     68  C   UNL A   1      35.916  32.097  28.906  1.00  0.00     0.031 A 
ATOM     69  C   UNL A   1      35.860  29.791  28.204  1.00  0.00     0.131 A 
ATOM     70  C   UNL A   1      34.668  32.287  28.285  1.00  0.00     0.055 A 
ATOM     71  C   UNL A   1      34.632  29.992  27.567  1.00  0.00     0.041 A 
ATOM     72  F   UNL A   1      36.377  28.552  28.170  1.00  0.00    -0.206 F 
ATOM     73  C   UNL A   1      34.025  31.242  27.616  1.00  0.00     0.022 A 
BRANCH  70  74
ATOM     74  S   UNL A   1      33.793  33.877  28.370  1.00  0.00     0.124 S 
ATOM     75  O   UNL A   1      33.582  34.026  29.810  1.00  0.00    -0.237 OA
ATOM     76  O   UNL A   1      34.767  34.796  27.789  1.00  0.00    -0.237 OA
ATOM     77  O   UNL A   1      32.584  33.653  27.587  1.00  0.00    -0.744 OA
ENDBRANCH  70  74
ENDBRANCH  53  67
BRANCH  54  78
ATOM     78  C   UNL A   1      45.062  29.203  33.876  1.00  0.00     0.023 A 
ATOM     79  C   UNL A   1      45.115  28.201  34.865  1.00  0.00     0.031 A 
ATOM     80  C   UNL A   1      46.147  30.087  33.763  1.00  0.00     0.131 A 
ATOM     81  C   UNL A   1      46.178  28.187  35.776  1.00  0.00     0.055 A 
ATOM     82  C   UNL A   1      47.244  30.012  34.621  1.00  0.00     0.041 A 
ATOM     83  F   UNL A   1      46.123  31.074  32.855  1.00  0.00    -0.206 F 
ATOM     84  C   UNL A   1      47.249  29.077  35.652  1.00  0.00     0.022 A 
BRANCH  81  85
ATOM     85  S   UNL A   1      46.090  27.167  37.277  1.00  0.00     0.124 S 
ATOM     86  O   UNL A   1      44.979  26.273  36.972  1.00  0.00    -0.237 OA
ATOM     87  O   UNL A   1      47.414  26.548  37.295  1.00  0.00    -0.237 OA
ATOM     88  O   UNL A   1      45.848  28.137  38.340  1.00  0.00    -0.744 OA
ENDBRANCH  81  85
ENDBRANCH  54  78
BRANCH  66  89
ATOM     89  C   UNL A   1      39.046  32.602  35.392  1.00  0.00     0.023 A 
ATOM     90  C   UNL A   1      39.508  33.917  35.599  1.00  0.00     0.031 A 
ATOM     91  C   UNL A   1      38.278  32.000  36.403  1.00  0.00     0.131 A 
ATOM     92  C   UNL A   1      39.245  34.566  36.809  1.00  0.00     0.055 A 
ATOM     93  C   UNL A   1      37.966  32.677  37.584  1.00  0.00     0.041 A 
ATOM     94  F   UNL A   1      37.832  30.742  36.266  1.00  0.00    -0.206 F 
ATOM     95  C   UNL A   1      38.466  33.958  37.798  1.00  0.00     0.022 A 
BRANCH  92  96
ATOM     96  S   UNL A   1      40.006  36.168  37.191  1.00  0.00     0.124 S 
ATOM     97  O   UNL A   1      41.328  35.767  37.666  1.00  0.00    -0.237 OA
ATOM     98  O   UNL A   1      39.985  36.836  35.892  1.00  0.00    -0.237 OA
ATOM     99  O   UNL A   1      39.130  36.744  38.206  1.00  0.00    -0.744 OA
ENDBRANCH  92  96
ENDBRANCH  66  89
ENDBRANCH  40  41
ENDBRANCH  33  35
ENDBRANCH  32  33
ENDBRANCH  31  32
ENDBRANCH  30  31
ENDBRANCH  29  30
ENDBRANCH  28  29
ENDBRANCH   1  28
TORSDOF 23
ENDMDL
MODEL 2
REMARK VINA RESULT:     -10.8      1.797      3.296
REMARK SMILES C[C@H]1CCCC[C@@H]1n1c(SCC(=O)OCCOCCOCCOC(=O)c2ccc(-c3c4nc(c(-c5cc(S(=O)(=O)[O-])ccc5F)c5ccc([nH]5)c(-c5cc(S(=O)(=O)[O-])ccc5F)c5nc(c(-c6cc(S(=O)(=O)[O-])ccc6F)c6ccc3[nH]6)C=C5)C=C4)cc2)nc2ccccc2c1=O
REMARK SMILES IDX 18 1 17 2 16 3 15 4 14 5 12 6 13 7 11 8 10 9 9 10 8 11 96 12
REMARK SMILES IDX 89 13 95 14 97 15 90 16 94 17 91 18 93 19 92 20 7 21 1 22
REMARK SMILES IDX 2 23 3 24 4 25 6 26 5 27 19 28 20 29 21 30 22 31 23 32 24 33
REMARK SMILES IDX 25 34 26 35 27 36 88 37 28 38 87 39 29 40 30 41 31 42 81 43
REMARK SMILES IDX 32 44 86 45 80 46 82 47 33 48 85 49 79 50 78 51 34 53 66 54
REMARK SMILES IDX 46 55 65 56 47 57 50 58 64 59 83 60 48 61 49 62 63 64 84 65
REMARK SMILES IDX 51 66 35 67 36 68 44 69 37 70 43 71 45 72 42 73 38 74 39 75
REMARK SMILES IDX 40 76 41 77 67 78 68 79 76 80 69 81 75 82 77 83 74 84 70 85
REMARK SMILES IDX 71 86 72 87 73 88 52 89 53 90 61 91 54 92 60 93 62 94 59 95
REMARK SMILES IDX 55 96 56 97 57 98 58 99
REMARK H PARENT 82 52 50 63
REMARK Flexibility Score: inf
ROOT
ATOM      1  C   UNL A   1      43.158  18.854  25.758  1.00  0.00     0.188 C 
ENDROOT
BRANCH   1   2
ATOM      2  O   UNL A   1      41.960  19.432  25.290  1.00  0.00    -0.376 OA
BRANCH   2   3
ATOM      3  C   UNL A   1      41.060  19.954  26.256  1.00  0.00     0.202 C 
BRANCH   3   4
ATOM      4  C   UNL A   1      40.410  21.317  25.982  1.00  0.00     0.261 C 
BRANCH   4   5
ATOM      5  O   UNL A   1      38.970  21.273  25.861  1.00  0.00    -0.463 OA
BRANCH   5   6
ATOM      6  C   UNL A   1      38.353  22.453  26.144  1.00  0.00     0.316 C 
ATOM      7  O   UNL A   1      38.952  23.451  26.538  1.00  0.00    -0.251 OA
BRANCH   6   8
ATOM      8  C   UNL A   1      36.846  22.455  26.067  1.00  0.00     0.200 C 
BRANCH   8   9
ATOM      9  S   UNL A   1      35.959  23.930  25.752  1.00  0.00    -0.076 SA
BRANCH   9  10
ATOM     10  C   UNL A   1      34.673  24.204  24.606  1.00  0.00     0.172 A 
ATOM     11  N   UNL A   1      33.882  23.405  23.747  1.00  0.00    -0.284 N 
ATOM     12  C   UNL A   1      33.364  24.141  22.642  1.00  0.00     0.262 A 
ATOM     13  N   UNL A   1      34.587  25.504  24.627  1.00  0.00    -0.224 NA
ATOM     14  C   UNL A   1      33.054  25.592  22.813  1.00  0.00     0.066 A 
ATOM     15  O   UNL A   1      33.171  23.657  21.529  1.00  0.00    -0.269 OA
ATOM     16  C   UNL A   1      33.700  26.214  23.850  1.00  0.00     0.079 A 
ATOM     17  C   UNL A   1      32.080  26.298  22.081  1.00  0.00     0.016 A 
ATOM     18  C   UNL A   1      33.452  27.565  24.130  1.00  0.00     0.029 A 
ATOM     19  C   UNL A   1      31.754  27.619  22.427  1.00  0.00     0.001 A 
ATOM     20  C   UNL A   1      32.464  28.265  23.435  1.00  0.00     0.002 A 
BRANCH  11  21
ATOM     21  C   UNL A   1      33.746  21.845  23.560  1.00  0.00     0.096 C 
ATOM     22  C   UNL A   1      31.316  21.365  22.269  1.00  0.00     0.010 C 
ATOM     23  C   UNL A   1      32.338  21.081  23.347  1.00  0.00     0.009 C 
ATOM     24  C   UNL A   1      32.574  19.548  23.233  1.00  0.00     0.005 C 
ATOM     25  C   UNL A   1      33.050  19.020  24.562  1.00  0.00     0.000 C 
ATOM     26  C   UNL A   1      34.362  21.165  24.772  1.00  0.00     0.026 C 
ATOM     27  C   UNL A   1      34.398  19.646  24.858  1.00  0.00     0.002 C 
ENDBRANCH  11  21
ENDBRANCH   9  10
ENDBRANCH   8   9
ENDBRANCH   6   8
ENDBRANCH   5   6
ENDBRANCH   4   5
ENDBRANCH   3   4
ENDBRANCH   2   3
ENDBRANCH   1   2
BRANCH   1  28
ATOM     28  C   UNL A   1      44.384  18.736  24.847  1.00  0.00     0.188 C 
BRANCH  28  29
ATOM     29  O   UNL A   1      45.548  19.475  25.140  1.00  0.00    -0.376 OA
BRANCH  29  30
ATOM     30  C   UNL A   1      45.529  20.835  24.763  1.00  0.00     0.202 C 
BRANCH  30  31
ATOM     31  C   UNL A   1      45.288  21.873  25.869  1.00  0.00     0.261 C 
BRANCH  31  32
ATOM     32  O   UNL A   1      43.913  22.232  26.163  1.00  0.00    -0.460 OA
BRANCH  32  33
ATOM     33  C   UNL A   1      43.501  23.401  25.598  1.00  0.00     0.338 C 
ATOM     34  O   UNL A   1      43.455  23.630  24.381  1.00  0.00    -0.246 OA
BRANCH  33  35
ATOM     35  C   UNL A   1      42.987  24.397  26.568  1.00  0.00     0.060 A 
ATOM     36  C   UNL A   1      42.286  24.104  27.729  1.00  0.00     0.016 A 
ATOM     37  C   UNL A   1      43.349  25.720  26.362  1.00  0.00     0.016 A 
ATOM     38  C   UNL A   1      41.883  25.158  28.595  1.00  0.00     0.010 A 
ATOM     39  C   UNL A   1      43.007  26.763  27.240  1.00  0.00     0.010 A 
ATOM     40  C   UNL A   1      42.196  26.512  28.337  1.00  0.00    -0.014 A 
BRANCH  40  41
ATOM     41  C   UNL A   1      41.819  27.620  29.268  1.00  0.00     0.031 A 
ATOM     42  C   UNL A   1      40.635  28.541  29.100  1.00  0.00     0.074 A 
ATOM     43  C   UNL A   1      42.646  27.893  30.288  1.00  0.00     0.049 A 
ATOM     44  N   UNL A   1      39.862  29.069  30.018  1.00  0.00    -0.248 NA
ATOM     45  C   UNL A   1      40.283  28.966  27.743  1.00  0.00     0.031 C 
ATOM     46  C   UNL A   1      43.957  27.282  30.473  1.00  0.00     0.029 A 
ATOM     47  N   UNL A   1      42.509  28.757  31.342  1.00  0.00    -0.354 N 
ATOM     48  C   UNL A   1      38.843  29.735  29.335  1.00  0.00     0.074 A 
ATOM     49  C   UNL A   1      39.133  29.610  27.927  1.00  0.00     0.031 C 
ATOM     50  C   UNL A   1      44.497  27.764  31.598  1.00  0.00     0.029 A 
ATOM     51  C   UNL A   1      43.556  28.696  32.224  1.00  0.00     0.049 A 
ATOM     52  H   UNL A   1      41.739  29.360  31.455  1.00  0.00     0.167 HD
ATOM     53  C   UNL A   1      37.798  30.439  29.839  1.00  0.00     0.034 A 
ATOM     54  C   UNL A   1      43.717  29.278  33.429  1.00  0.00     0.034 A 
ATOM     55  C   UNL A   1      37.755  30.865  31.215  1.00  0.00     0.049 A 
ATOM     56  C   UNL A   1      42.564  30.040  34.026  1.00  0.00     0.074 A 
ATOM     57  C   UNL A   1      36.762  31.562  31.878  1.00  0.00     0.029 A 
ATOM     58  N   UNL A   1      38.816  30.739  32.102  1.00  0.00    -0.354 N 
ATOM     59  N   UNL A   1      41.395  30.317  33.494  1.00  0.00    -0.248 NA
ATOM     60  C   UNL A   1      42.725  30.522  35.402  1.00  0.00     0.031 C 
ATOM     61  C   UNL A   1      37.278  31.973  33.110  1.00  0.00     0.029 A 
ATOM     62  C   UNL A   1      38.537  31.416  33.274  1.00  0.00     0.049 A 
ATOM     63  H   UNL A   1      39.647  30.242  31.922  1.00  0.00     0.167 HD
ATOM     64  C   UNL A   1      40.671  30.986  34.479  1.00  0.00     0.074 A 
ATOM     65  C   UNL A   1      41.530  31.049  35.644  1.00  0.00     0.031 C 
ATOM     66  C   UNL A   1      39.410  31.490  34.425  1.00  0.00     0.034 A 
BRANCH  53  67
ATOM     67  C   UNL A   1      36.628  30.805  28.941  1.00  0.00     0.023 A 
ATOM     68  C   UNL A   1      36.105  32.115  28.892  1.00  0.00     0.031 A 
ATOM     69  C   UNL A   1      35.899  29.789  28.291  1.00  0.00     0.131 A 
ATOM     70  C   UNL A   1      34.878  32.361  28.249  1.00  0.00     0.055 A 
ATOM     71  C   UNL A   1      34.693  30.044  27.632  1.00  0.00     0.041 A 
ATOM     72  F   UNL A   1      36.332  28.517  28.317  1.00  0.00    -0.206 F 
ATOM     73  C   UNL A   1      34.172  31.332  27.619  1.00  0.00     0.022 A 
BRANCH  70  74
ATOM     74  S   UNL A   1      34.112  34.008  28.254  1.00  0.00     0.124 S 
ATOM     75  O   UNL A   1      34.892  34.705  27.233  1.00  0.00    -0.237 OA
ATOM     76  O   UNL A   1      32.733  33.707  27.881  1.00  0.00    -0.237 OA
ATOM     77  O   UNL A   1      34.312  34.483  29.618  1.00  0.00    -0.744 OA
ENDBRANCH  70  74
ENDBRANCH  53  67
BRANCH  54  78
ATOM     78  C   UNL A   1      44.974  28.969  34.167  1.00  0.00     0.023 A 
ATOM     79  C   UNL A   1      44.963  28.008  35.197  1.00  0.00     0.031 A 
ATOM     80  C   UNL A   1      46.100  29.796  34.037  1.00  0.00     0.131 A 
ATOM     81  C   UNL A   1      46.010  27.982  36.127  1.00  0.00     0.055 A 
ATOM     82  C   UNL A   1      47.179  29.706  34.918  1.00  0.00     0.041 A 
ATOM     83  F   UNL A   1      46.138  30.744  33.089  1.00  0.00    -0.206 F 
ATOM     84  C   UNL A   1      47.123  28.816  35.986  1.00  0.00     0.022 A 
BRANCH  81  85
ATOM     85  S   UNL A   1      45.850  27.032  37.667  1.00  0.00     0.124 S 
ATOM     86  O   UNL A   1      44.524  27.427  38.131  1.00  0.00    -0.237 OA
ATOM     87  O   UNL A   1      45.968  25.658  37.184  1.00  0.00    -0.237 OA
ATOM     88  O   UNL A   1      46.968  27.499  38.479  1.00  0.00    -0.744 OA
ENDBRANCH  81  85
ENDBRANCH  54  78
BRANCH  66  89
ATOM     89  C   UNL A   1      38.850  32.188  35.642  1.00  0.00     0.023 A 
ATOM     90  C   UNL A   1      38.346  31.419  36.709  1.00  0.00     0.031 A 
ATOM     91  C   UNL A   1      38.646  33.578  35.670  1.00  0.00     0.131 A 
ATOM     92  C   UNL A   1      37.616  32.036  37.731  1.00  0.00     0.055 A 
ATOM     93  C   UNL A   1      37.970  34.197  36.724  1.00  0.00     0.041 A 
ATOM     94  F   UNL A   1      39.086  34.354  34.667  1.00  0.00    -0.206 F 
ATOM     95  C   UNL A   1      37.435  33.422  37.750  1.00  0.00     0.022 A 
BRANCH  92  96
ATOM     96  S   UNL A   1      36.772  31.050  38.998  1.00  0.00     0.124 S 
ATOM     97  O   UNL A   1      37.688  31.169  40.130  1.00  0.00    -0.237 OA
ATOM     98  O   UNL A   1      35.503  31.759  39.145  1.00  0.00    -0.237 OA
ATOM     99  O   UNL A   1      36.682  29.718  38.410  1.00  0.00    -0.744 OA
ENDBRANCH  92  96
ENDBRANCH  66  89
ENDBRANCH  40  41
ENDBRANCH  33  35
ENDBRANCH  32  33
ENDBRANCH  31  32
ENDBRANCH  30  31
ENDBRANCH  29  30
ENDBRANCH  28  29
ENDBRANCH   1  28
TORSDOF 23
ENDMDL
MODEL 3
REMARK VINA RESULT:     -10.7      2.119      2.502
REMARK SMILES C[C@H]1CCCC[C@@H]1n1c(SCC(=O)OCCOCCOCCOC(=O)c2ccc(-c3c4nc(c(-c5cc(S(=O)(=O)[O-])ccc5F)c5ccc([nH]5)c(-c5cc(S(=O)(=O)[O-])ccc5F)c5nc(c(-c6cc(S(=O)(=O)[O-])ccc6F)c6ccc3[nH]6)C=C5)C=C4)cc2)nc2ccccc2c1=O
REMARK SMILES IDX 18 1 17 2 16 3 15 4 14 5 12 6 13 7 11 8 10 9 9 10 8 11 96 12
REMARK SMILES IDX 89 13 95 14 97 15 90 16 94 17 91 18 93 19 92 20 7 21 1 22
REMARK SMILES IDX 2 23 3 24 4 25 6 26 5 27 19 28 20 29 21 30 22 31 23 32 24 33
REMARK SMILES IDX 25 34 26 35 27 36 88 37 28 38 87 39 29 40 30 41 31 42 81 43
REMARK SMILES IDX 32 44 86 45 80 46 82 47 33 48 85 49 79 50 78 51 34 53 66 54
REMARK SMILES IDX 46 55 65 56 47 57 50 58 64 59 83 60 48 61 49 62 63 64 84 65
REMARK SMILES IDX 51 66 35 67 36 68 44 69 37 70 43 71 45 72 42 73 38 74 39 75
REMARK SMILES IDX 40 76 41 77 67 78 68 79 76 80 69 81 75 82 77 83 74 84 70 85
REMARK SMILES IDX 71 86 72 87 73 88 52 89 53 90 61 91 54 92 60 93 62 94 59 95
REMARK SMILES IDX 55 96 56 97 57 98 58 99
REMARK H PARENT 82 52 50 63
REMARK Flexibility Score: inf
ROOT
ATOM      1  C   UNL A   1      42.958  18.471  25.911  1.00  0.00     0.188 C 
ENDROOT
BRANCH   1   2
ATOM      2  O   UNL A   1      41.705  19.089  26.099  1.00  0.00    -0.376 OA
BRANCH   2   3
ATOM      3  C   UNL A   1      41.429  19.642  27.377  1.00  0.00     0.202 C 
BRANCH   3   4
ATOM      4  C   UNL A   1      40.710  20.996  27.443  1.00  0.00     0.261 C 
BRANCH   4   5
ATOM      5  O   UNL A   1      40.348  21.538  26.152  1.00  0.00    -0.463 OA
BRANCH   5   6
ATOM      6  C   UNL A   1      39.216  22.295  26.166  1.00  0.00     0.316 C 
ATOM      7  O   UNL A   1      39.051  23.248  26.923  1.00  0.00    -0.251 OA
BRANCH   6   8
ATOM      8  C   UNL A   1      38.092  21.832  25.272  1.00  0.00     0.200 C 
BRANCH   8   9
ATOM      9  S   UNL A   1      36.419  22.061  25.733  1.00  0.00    -0.076 SA
BRANCH   9  10
ATOM     10  C   UNL A   1      34.997  21.275  25.099  1.00  0.00     0.172 A 
ATOM     11  N   UNL A   1      33.691  21.673  24.726  1.00  0.00    -0.284 N 
ATOM     12  C   UNL A   1      32.757  20.597  24.787  1.00  0.00     0.262 A 
ATOM     13  N   UNL A   1      35.381  20.031  25.080  1.00  0.00    -0.224 NA
ATOM     14  C   UNL A   1      33.227  19.206  24.508  1.00  0.00     0.066 A 
ATOM     15  O   UNL A   1      31.572  20.738  25.078  1.00  0.00    -0.269 OA
ATOM     16  C   UNL A   1      34.573  18.998  24.664  1.00  0.00     0.079 A 
ATOM     17  C   UNL A   1      32.421  18.173  23.995  1.00  0.00     0.016 A 
ATOM     18  C   UNL A   1      35.130  17.741  24.388  1.00  0.00     0.029 A 
ATOM     19  C   UNL A   1      32.994  16.949  23.619  1.00  0.00     0.001 A 
ATOM     20  C   UNL A   1      34.348  16.721  23.845  1.00  0.00     0.002 A 
BRANCH  11  21
ATOM     21  C   UNL A   1      32.993  23.082  24.606  1.00  0.00     0.096 C 
ATOM     22  C   UNL A   1      31.508  23.483  26.937  1.00  0.00     0.010 C 
ATOM     23  C   UNL A   1      31.672  23.508  25.433  1.00  0.00     0.009 C 
ATOM     24  C   UNL A   1      31.239  24.949  25.042  1.00  0.00     0.005 C 
ATOM     25  C   UNL A   1      30.759  24.951  23.613  1.00  0.00     0.000 C 
ATOM     26  C   UNL A   1      32.610  23.298  23.150  1.00  0.00     0.026 C 
ATOM     27  C   UNL A   1      31.935  24.595  22.725  1.00  0.00     0.002 C 
ENDBRANCH  11  21
ENDBRANCH   9  10
ENDBRANCH   8   9
ENDBRANCH   6   8
ENDBRANCH   5   6
ENDBRANCH   4   5
ENDBRANCH   3   4
ENDBRANCH   2   3
ENDBRANCH   1   2
BRANCH   1  28
ATOM     28  C   UNL A   1      44.005  19.083  24.975  1.00  0.00     0.188 C 
BRANCH  28  29
ATOM     29  O   UNL A   1      44.712  20.235  25.374  1.00  0.00    -0.376 OA
BRANCH  29  30
ATOM     30  C   UNL A   1      44.415  21.420  24.667  1.00  0.00     0.202 C 
BRANCH  30  31
ATOM     31  C   UNL A   1      43.174  22.212  25.104  1.00  0.00     0.261 C 
BRANCH  31  32
ATOM     32  O   UNL A   1      43.085  23.600  24.690  1.00  0.00    -0.460 OA
BRANCH  32  33
ATOM     33  C   UNL A   1      43.978  24.430  25.299  1.00  0.00     0.338 C 
ATOM     34  O   UNL A   1      45.176  24.537  24.997  1.00  0.00    -0.246 OA
BRANCH  33  35
ATOM     35  C   UNL A   1      43.381  25.318  26.325  1.00  0.00     0.060 A 
ATOM     36  C   UNL A   1      42.750  24.896  27.486  1.00  0.00     0.016 A 
ATOM     37  C   UNL A   1      43.586  26.681  26.173  1.00  0.00     0.016 A 
ATOM     38  C   UNL A   1      42.254  25.857  28.409  1.00  0.00     0.010 A 
ATOM     39  C   UNL A   1      43.152  27.638  27.106  1.00  0.00     0.010 A 
ATOM     40  C   UNL A   1      42.405  27.248  28.209  1.00  0.00    -0.014 A 
BRANCH  40  41
ATOM     41  C   UNL A   1      41.931  28.264  29.199  1.00  0.00     0.031 A 
ATOM     42  C   UNL A   1      40.631  29.028  29.116  1.00  0.00     0.074 A 
ATOM     43  C   UNL A   1      42.762  28.607  30.194  1.00  0.00     0.049 A 
ATOM     44  N   UNL A   1      39.840  29.417  30.087  1.00  0.00    -0.248 NA
ATOM     45  C   UNL A   1      40.165  29.450  27.794  1.00  0.00     0.031 C 
ATOM     46  C   UNL A   1      44.148  28.167  30.299  1.00  0.00     0.029 A 
ATOM     47  N   UNL A   1      42.563  29.409  31.286  1.00  0.00    -0.354 N 
ATOM     48  C   UNL A   1      38.713  29.968  29.473  1.00  0.00     0.074 A 
ATOM     49  C   UNL A   1      38.952  29.931  28.051  1.00  0.00     0.031 C 
ATOM     50  C   UNL A   1      44.673  28.677  31.421  1.00  0.00     0.029 A 
ATOM     51  C   UNL A   1      43.649  29.454  32.122  1.00  0.00     0.049 A 
ATOM     52  H   UNL A   1      41.727  29.901  31.456  1.00  0.00     0.167 HD
ATOM     53  C   UNL A   1      37.609  30.510  30.048  1.00  0.00     0.034 A 
ATOM     54  C   UNL A   1      43.789  30.010  33.342  1.00  0.00     0.034 A 
ATOM     55  C   UNL A   1      37.576  30.879  31.441  1.00  0.00     0.049 A 
ATOM     56  C   UNL A   1      42.575  30.593  34.016  1.00  0.00     0.074 A 
ATOM     57  C   UNL A   1      36.532  31.416  32.172  1.00  0.00     0.029 A 
ATOM     58  N   UNL A   1      38.684  30.862  32.278  1.00  0.00    -0.354 N 
ATOM     59  N   UNL A   1      41.357  30.733  33.544  1.00  0.00    -0.248 NA
ATOM     60  C   UNL A   1      42.735  31.044  35.403  1.00  0.00     0.031 C 
ATOM     61  C   UNL A   1      37.046  31.847  33.398  1.00  0.00     0.029 A 
ATOM     62  C   UNL A   1      38.374  31.455  33.487  1.00  0.00     0.049 A 
ATOM     63  H   UNL A   1      39.562  30.484  32.044  1.00  0.00     0.167 HD
ATOM     64  C   UNL A   1      40.598  31.266  34.584  1.00  0.00     0.074 A 
ATOM     65  C   UNL A   1      41.495  31.401  35.715  1.00  0.00     0.031 C 
ATOM     66  C   UNL A   1      39.282  31.603  34.603  1.00  0.00     0.034 A 
BRANCH  53  67
ATOM     67  C   UNL A   1      36.362  30.751  29.215  1.00  0.00     0.023 A 
ATOM     68  C   UNL A   1      35.640  29.690  28.627  1.00  0.00     0.031 A 
ATOM     69  C   UNL A   1      36.017  32.062  28.834  1.00  0.00     0.131 A 
ATOM     70  C   UNL A   1      34.648  29.959  27.667  1.00  0.00     0.055 A 
ATOM     71  C   UNL A   1      35.013  32.325  27.897  1.00  0.00     0.041 A 
ATOM     72  F   UNL A   1      36.679  33.115  29.341  1.00  0.00    -0.206 F 
ATOM     73  C   UNL A   1      34.331  31.270  27.300  1.00  0.00     0.022 A 
BRANCH  70  74
ATOM     74  S   UNL A   1      33.770  28.624  26.803  1.00  0.00     0.124 S 
ATOM     75  O   UNL A   1      33.198  29.333  25.658  1.00  0.00    -0.237 OA
ATOM     76  O   UNL A   1      34.853  27.700  26.481  1.00  0.00    -0.237 OA
ATOM     77  O   UNL A   1      32.801  28.150  27.784  1.00  0.00    -0.744 OA
ENDBRANCH  70  74
ENDBRANCH  53  67
BRANCH  54  78
ATOM     78  C   UNL A   1      45.107  29.843  34.015  1.00  0.00     0.023 A 
ATOM     79  C   UNL A   1      45.351  28.702  34.805  1.00  0.00     0.031 A 
ATOM     80  C   UNL A   1      46.011  30.914  34.092  1.00  0.00     0.131 A 
ATOM     81  C   UNL A   1      46.407  28.713  35.724  1.00  0.00     0.055 A 
ATOM     82  C   UNL A   1      47.111  30.883  34.948  1.00  0.00     0.041 A 
ATOM     83  F   UNL A   1      45.799  32.030  33.379  1.00  0.00    -0.206 F 
ATOM     84  C   UNL A   1      47.296  29.791  35.791  1.00  0.00     0.022 A 
BRANCH  81  85
ATOM     85  S   UNL A   1      46.521  27.436  37.011  1.00  0.00     0.124 S 
ATOM     86  O   UNL A   1      47.708  26.695  36.598  1.00  0.00    -0.237 OA
ATOM     87  O   UNL A   1      46.668  28.243  38.220  1.00  0.00    -0.237 OA
ATOM     88  O   UNL A   1      45.256  26.718  36.898  1.00  0.00    -0.744 OA
ENDBRANCH  81  85
ENDBRANCH  54  78
BRANCH  66  89
ATOM     89  C   UNL A   1      38.693  32.178  35.870  1.00  0.00     0.023 A 
ATOM     90  C   UNL A   1      38.224  31.306  36.872  1.00  0.00     0.031 A 
ATOM     91  C   UNL A   1      38.427  33.552  36.006  1.00  0.00     0.131 A 
ATOM     92  C   UNL A   1      37.469  31.809  37.937  1.00  0.00     0.055 A 
ATOM     93  C   UNL A   1      37.726  34.055  37.103  1.00  0.00     0.041 A 
ATOM     94  F   UNL A   1      38.832  34.422  35.068  1.00  0.00    -0.206 F 
ATOM     95  C   UNL A   1      37.227  33.181  38.064  1.00  0.00     0.022 A 
BRANCH  92  96
ATOM     96  S   UNL A   1      36.670  30.691  39.122  1.00  0.00     0.124 S 
ATOM     97  O   UNL A   1      36.652  29.432  38.381  1.00  0.00    -0.237 OA
ATOM     98  O   UNL A   1      37.590  30.736  40.255  1.00  0.00    -0.237 OA
ATOM     99  O   UNL A   1      35.362  31.295  39.352  1.00  0.00    -0.744 OA
ENDBRANCH  92  96
ENDBRANCH  66  89
ENDBRANCH  40  41
ENDBRANCH  33  35
ENDBRANCH  32  33
ENDBRANCH  31  32
ENDBRANCH  30  31
ENDBRANCH  29  30
ENDBRANCH  28  29
ENDBRANCH   1  28
TORSDOF 23
ENDMDL
