MODEL 1
REMARK VINA RESULT:     -10.1      0.000      0.000
REMARK SMILES Cc1ccc2c(=O)c3cccc(CC(=O)OCCOCCOCCOC(=O)c4ccc(-c5c6nc(c(-c7cc(S(=O)(=O)[O-])ccc7F)c7ccc([nH]7)c(-c7cc(S(=O)(=O)[O-])ccc7F)c7nc(c(-c8cc(S(=O)(=O)[O-])ccc8F)c8ccc5[nH]8)C=C7)C=C6)cc4)c3oc2c1C
REMARK SMILES IDX 21 1 20 2 19 3 18 4 17 5 16 6 14 7 15 8 13 9 12 10 1 11 2 12
REMARK SMILES IDX 3 13 94 14 4 15 93 16 95 17 5 18 92 19 6 20 91 21 7 22 8 23
REMARK SMILES IDX 9 24 11 25 10 26 22 27 23 28 24 29 25 30 26 31 27 32 28 33
REMARK SMILES IDX 29 34 90 35 30 36 89 37 31 38 32 39 33 40 83 41 34 42 88 43
REMARK SMILES IDX 82 44 84 45 35 46 87 47 81 48 80 49 36 51 68 52 48 53 67 54
REMARK SMILES IDX 49 55 52 56 66 57 85 58 50 59 51 60 65 62 86 63 53 64 37 65
REMARK SMILES IDX 38 66 46 67 39 68 45 69 47 70 44 71 40 72 41 73 42 74 43 75
REMARK SMILES IDX 69 76 70 77 78 78 71 79 77 80 79 81 76 82 72 83 73 84 74 85
REMARK SMILES IDX 75 86 54 87 55 88 63 89 56 90 62 91 64 92 61 93 57 94 58 95
REMARK SMILES IDX 59 96 60 97
REMARK H PARENT 84 50 52 61
REMARK Flexibility Score: inf
ROOT
ATOM      1  C   UNL A   1      53.203  24.423  35.668  1.00  0.00     0.188 C 
ENDROOT
BRANCH   1   2
ATOM      2  C   UNL A   1      53.832  23.089  35.189  1.00  0.00     0.188 C 
BRANCH   2   3
ATOM      3  O   UNL A   1      53.080  21.901  35.377  1.00  0.00    -0.376 OA
BRANCH   3   4
ATOM      4  C   UNL A   1      53.094  20.995  34.288  1.00  0.00     0.202 C 
BRANCH   4   5
ATOM      5  C   UNL A   1      52.057  19.854  34.347  1.00  0.00     0.261 C 
BRANCH   5   6
ATOM      6  O   UNL A   1      50.782  20.159  33.699  1.00  0.00    -0.463 OA
BRANCH   6   7
ATOM      7  C   UNL A   1      50.146  21.308  34.045  1.00  0.00     0.310 C 
ATOM      8  O   UNL A   1      50.007  22.238  33.255  1.00  0.00    -0.252 OA
BRANCH   7   9
ATOM      9  C   UNL A   1      49.486  21.353  35.442  1.00  0.00     0.162 C 
BRANCH   9  10
ATOM     10  C   UNL A   1      48.052  20.889  35.705  1.00  0.00     0.007 A 
ATOM     11  C   UNL A   1      48.162  18.466  43.173  1.00  0.00     0.045 C 
ATOM     12  C   UNL A   1      48.072  18.633  41.613  1.00  0.00    -0.044 A 
ATOM     13  C   UNL A   1      46.759  18.084  41.343  1.00  0.00     0.005 A 
ATOM     14  C   UNL A   1      48.965  19.355  40.500  1.00  0.00    -0.005 A 
ATOM     15  C   UNL A   1      46.111  18.073  40.131  1.00  0.00     0.016 A 
ATOM     16  C   UNL A   1      48.050  19.125  39.082  1.00  0.00     0.141 A 
ATOM     17  C   UNL A   1      50.653  20.662  40.739  1.00  0.00     0.049 C 
ATOM     18  C   UNL A   1      46.740  18.569  39.016  1.00  0.00     0.066 A 
ATOM     19  O   UNL A   1      48.520  19.463  37.712  1.00  0.00    -0.455 OA
ATOM     20  C   UNL A   1      45.893  18.645  37.812  1.00  0.00     0.200 A 
ATOM     21  C   UNL A   1      47.638  19.986  36.750  1.00  0.00     0.142 A 
ATOM     22  O   UNL A   1      44.812  18.070  37.728  1.00  0.00    -0.288 OA
ATOM     23  C   UNL A   1      46.320  19.540  36.749  1.00  0.00     0.066 A 
ATOM     24  C   UNL A   1      45.397  19.928  35.766  1.00  0.00     0.016 A 
ATOM     25  C   UNL A   1      47.100  21.258  34.720  1.00  0.00     0.008 A 
ATOM     26  C   UNL A   1      45.790  20.783  34.749  1.00  0.00     0.001 A 
ENDBRANCH   9  10
ENDBRANCH   7   9
ENDBRANCH   6   7
ENDBRANCH   5   6
ENDBRANCH   4   5
ENDBRANCH   3   4
ENDBRANCH   2   3
ENDBRANCH   1   2
BRANCH   1  27
ATOM     27  O   UNL A   1      52.172  24.193  36.615  1.00  0.00    -0.376 OA
BRANCH  27  28
ATOM     28  C   UNL A   1      50.880  24.522  36.148  1.00  0.00     0.202 C 
BRANCH  28  29
ATOM     29  C   UNL A   1      50.732  26.008  35.796  1.00  0.00     0.261 C 
BRANCH  29  30
ATOM     30  O   UNL A   1      49.385  26.443  35.525  1.00  0.00    -0.460 OA
BRANCH  30  31
ATOM     31  C   UNL A   1      48.789  27.120  36.525  1.00  0.00     0.338 C 
ATOM     32  O   UNL A   1      49.334  27.551  37.526  1.00  0.00    -0.246 OA
BRANCH  31  33
ATOM     33  C   UNL A   1      47.380  27.392  36.185  1.00  0.00     0.060 A 
ATOM     34  C   UNL A   1      47.078  28.765  35.065  1.00  0.00     0.016 A 
ATOM     35  C   UNL A   1      46.077  26.142  36.395  1.00  0.00     0.016 A 
ATOM     36  C   UNL A   1      45.576  28.798  34.032  1.00  0.00     0.010 A 
ATOM     37  C   UNL A   1      44.581  26.135  35.280  1.00  0.00     0.010 A 
ATOM     38  C   UNL A   1      44.347  27.466  34.084  1.00  0.00    -0.014 A 
BRANCH  38  39
ATOM     39  C   UNL A   1      43.027  27.827  33.435  1.00  0.00     0.031 A 
ATOM     40  C   UNL A   1      42.023  28.741  34.110  1.00  0.00     0.074 A 
ATOM     41  C   UNL A   1      42.850  27.555  32.121  1.00  0.00     0.049 A 
ATOM     42  N   UNL A   1      40.985  29.359  33.592  1.00  0.00    -0.248 NA
ATOM     43  C   UNL A   1      42.213  29.035  35.536  1.00  0.00     0.031 C 
ATOM     44  C   UNL A   1      43.763  26.752  31.312  1.00  0.00     0.029 A 
ATOM     45  N   UNL A   1      41.882  27.950  31.221  1.00  0.00    -0.354 N 
ATOM     46  C   UNL A   1      40.426  30.120  34.617  1.00  0.00     0.074 A 
ATOM     47  C   UNL A   1      41.213  29.865  35.798  1.00  0.00     0.031 C 
ATOM     48  C   UNL A   1      43.361  26.770  30.034  1.00  0.00     0.029 A 
ATOM     49  C   UNL A   1      42.101  27.504  29.933  1.00  0.00     0.049 A 
ATOM     50  H   UNL A   1      41.106  28.502  31.474  1.00  0.00     0.167 HD
ATOM     51  C   UNL A   1      39.360  30.959  34.593  1.00  0.00     0.034 A 
ATOM     52  C   UNL A   1      41.373  27.635  28.800  1.00  0.00     0.034 A 
ATOM     53  C   UNL A   1      38.540  31.189  33.434  1.00  0.00     0.049 A 
ATOM     54  C   UNL A   1      40.109  28.460  28.828  1.00  0.00     0.074 A 
ATOM     55  C   UNL A   1      37.418  31.994  33.332  1.00  0.00     0.029 A 
ATOM     56  N   UNL A   1      38.731  30.612  32.188  1.00  0.00    -0.354 N 
ATOM     57  N   UNL A   1      39.626  29.188  29.806  1.00  0.00    -0.248 NA
ATOM     58  C   UNL A   1      39.287  28.485  27.607  1.00  0.00     0.031 C 
ATOM     59  C   UNL A   1      36.878  31.829  32.057  1.00  0.00     0.029 A 
ATOM     60  C   UNL A   1      37.717  31.004  31.328  1.00  0.00     0.049 A 
ATOM     61  H   UNL A   1      39.476  30.015  31.950  1.00  0.00     0.167 HD
ATOM     62  C   UNL A   1      38.459  29.770  29.315  1.00  0.00     0.074 A 
ATOM     63  C   UNL A   1      38.322  29.332  27.943  1.00  0.00     0.031 C 
ATOM     64  C   UNL A   1      37.584  30.586  29.952  1.00  0.00     0.034 A 
BRANCH  51  65
ATOM     65  C   UNL A   1      38.978  31.687  35.863  1.00  0.00     0.023 A 
ATOM     66  C   UNL A   1      38.210  31.032  36.846  1.00  0.00     0.031 A 
ATOM     67  C   UNL A   1      39.250  33.056  36.039  1.00  0.00     0.131 A 
ATOM     68  C   UNL A   1      37.708  31.753  37.936  1.00  0.00     0.055 A 
ATOM     69  C   UNL A   1      38.783  33.761  37.151  1.00  0.00     0.041 A 
ATOM     70  F   UNL A   1      39.977  33.728  35.131  1.00  0.00    -0.206 F 
ATOM     71  C   UNL A   1      37.997  33.112  38.099  1.00  0.00     0.022 A 
BRANCH  68  72
ATOM     72  S   UNL A   1      36.604  30.975  39.148  1.00  0.00     0.124 S 
ATOM     73  O   UNL A   1      36.297  29.702  38.500  1.00  0.00    -0.237 OA
ATOM     74  O   UNL A   1      37.462  30.884  40.326  1.00  0.00    -0.237 OA
ATOM     75  O   UNL A   1      35.485  31.905  39.252  1.00  0.00    -0.744 OA
ENDBRANCH  68  72
ENDBRANCH  51  65
BRANCH  52  76
ATOM     76  C   UNL A   1      41.835  26.953  27.548  1.00  0.00     0.023 A 
ATOM     77  C   UNL A   1      41.641  25.567  27.380  1.00  0.00     0.031 A 
ATOM     78  C   UNL A   1      42.548  27.638  26.551  1.00  0.00     0.131 A 
ATOM     79  C   UNL A   1      42.233  24.900  26.300  1.00  0.00     0.055 A 
ATOM     80  C   UNL A   1      43.065  26.982  25.429  1.00  0.00     0.041 A 
ATOM     81  F   UNL A   1      42.762  28.958  26.656  1.00  0.00    -0.206 F 
ATOM     82  C   UNL A   1      42.928  25.601  25.312  1.00  0.00     0.022 A 
BRANCH  79  83
ATOM     83  S   UNL A   1      42.250  23.087  26.229  1.00  0.00     0.124 S 
ATOM     84  O   UNL A   1      40.827  22.766  26.276  1.00  0.00    -0.237 OA
ATOM     85  O   UNL A   1      42.909  22.847  24.947  1.00  0.00    -0.237 OA
ATOM     86  O   UNL A   1      43.023  22.704  27.405  1.00  0.00    -0.744 OA
ENDBRANCH  79  83
ENDBRANCH  52  76
BRANCH  64  87
ATOM     87  C   UNL A   1      36.372  31.098  29.208  1.00  0.00     0.023 A 
ATOM     88  C   UNL A   1      35.442  30.184  28.672  1.00  0.00     0.031 A 
ATOM     89  C   UNL A   1      36.246  32.453  28.859  1.00  0.00     0.131 A 
ATOM     90  C   UNL A   1      34.472  30.627  27.765  1.00  0.00     0.055 A 
ATOM     91  C   UNL A   1      35.239  32.898  28.001  1.00  0.00     0.041 A 
ATOM     92  F   UNL A   1      37.114  33.362  29.332  1.00  0.00    -0.206 F 
ATOM     93  C   UNL A   1      34.359  31.980  27.433  1.00  0.00     0.022 A 
BRANCH  90  94
ATOM     94  S   UNL A   1      33.400  29.449  26.895  1.00  0.00     0.124 S 
ATOM     95  O   UNL A   1      33.373  30.005  25.544  1.00  0.00    -0.237 OA
ATOM     96  O   UNL A   1      34.139  28.197  27.039  1.00  0.00    -0.237 OA
ATOM     97  O   UNL A   1      32.136  29.520  27.621  1.00  0.00    -0.744 OA
ENDBRANCH  90  94
ENDBRANCH  64  87
ENDBRANCH  38  39
ENDBRANCH  31  33
ENDBRANCH  30  31
ENDBRANCH  29  30
ENDBRANCH  28  29
ENDBRANCH  27  28
ENDBRANCH   1  27
TORSDOF 21
ENDMDL
MODEL 2
REMARK VINA RESULT:      -9.7     11.002     20.014
REMARK SMILES Cc1ccc2c(=O)c3cccc(CC(=O)OCCOCCOCCOC(=O)c4ccc(-c5c6nc(c(-c7cc(S(=O)(=O)[O-])ccc7F)c7ccc([nH]7)c(-c7cc(S(=O)(=O)[O-])ccc7F)c7nc(c(-c8cc(S(=O)(=O)[O-])ccc8F)c8ccc5[nH]8)C=C7)C=C6)cc4)c3oc2c1C
REMARK SMILES IDX 21 1 20 2 19 3 18 4 17 5 16 6 14 7 15 8 13 9 12 10 1 11 2 12
REMARK SMILES IDX 3 13 94 14 4 15 93 16 95 17 5 18 92 19 6 20 91 21 7 22 8 23
REMARK SMILES IDX 9 24 11 25 10 26 22 27 23 28 24 29 25 30 26 31 27 32 28 33
REMARK SMILES IDX 29 34 90 35 30 36 89 37 31 38 32 39 33 40 83 41 34 42 88 43
REMARK SMILES IDX 82 44 84 45 35 46 87 47 81 48 80 49 36 51 68 52 48 53 67 54
REMARK SMILES IDX 49 55 52 56 66 57 85 58 50 59 51 60 65 62 86 63 53 64 37 65
REMARK SMILES IDX 38 66 46 67 39 68 45 69 47 70 44 71 40 72 41 73 42 74 43 75
REMARK SMILES IDX 69 76 70 77 78 78 71 79 77 80 79 81 76 82 72 83 73 84 74 85
REMARK SMILES IDX 75 86 54 87 55 88 63 89 56 90 62 91 64 92 61 93 57 94 58 95
REMARK SMILES IDX 59 96 60 97
REMARK H PARENT 84 50 52 61
REMARK Flexibility Score: inf
ROOT
ATOM      1  C   UNL A   1      43.402  42.990  24.163  1.00  0.00     0.188 C 
ENDROOT
BRANCH   1   2
ATOM      2  C   UNL A   1      44.085  43.309  22.808  1.00  0.00     0.188 C 
BRANCH   2   3
ATOM      3  O   UNL A   1      43.378  44.127  21.890  1.00  0.00    -0.376 OA
BRANCH   3   4
ATOM      4  C   UNL A   1      42.288  43.503  21.235  1.00  0.00     0.202 C 
BRANCH   4   5
ATOM      5  C   UNL A   1      42.655  42.524  20.099  1.00  0.00     0.261 C 
BRANCH   5   6
ATOM      6  O   UNL A   1      42.038  42.833  18.810  1.00  0.00    -0.463 OA
BRANCH   6   7
ATOM      7  C   UNL A   1      42.672  43.709  17.988  1.00  0.00     0.310 C 
ATOM      8  O   UNL A   1      43.804  43.496  17.559  1.00  0.00    -0.252 OA
BRANCH   7   9
ATOM      9  C   UNL A   1      41.864  44.936  17.508  1.00  0.00     0.162 C 
BRANCH   9  10
ATOM     10  C   UNL A   1      42.470  46.333  17.366  1.00  0.00     0.007 A 
ATOM     11  C   UNL A   1      49.138  45.956  21.495  1.00  0.00     0.045 C 
ATOM     12  C   UNL A   1      47.716  46.256  20.896  1.00  0.00    -0.044 A 
ATOM     13  C   UNL A   1      47.772  47.695  20.737  1.00  0.00     0.005 A 
ATOM     14  C   UNL A   1      46.505  45.361  20.358  1.00  0.00    -0.005 A 
ATOM     15  C   UNL A   1      46.818  48.489  20.147  1.00  0.00     0.016 A 
ATOM     16  C   UNL A   1      45.405  46.530  19.788  1.00  0.00     0.141 A 
ATOM     17  C   UNL A   1      46.419  43.243  20.014  1.00  0.00     0.049 C 
ATOM     18  C   UNL A   1      45.650  47.930  19.690  1.00  0.00     0.066 A 
ATOM     19  O   UNL A   1      44.021  46.231  19.332  1.00  0.00    -0.455 OA
ATOM     20  C   UNL A   1      44.776  48.850  18.942  1.00  0.00     0.200 A 
ATOM     21  C   UNL A   1      43.449  46.920  18.247  1.00  0.00     0.142 A 
ATOM     22  O   UNL A   1      44.934  50.067  18.955  1.00  0.00    -0.288 OA
ATOM     23  C   UNL A   1      43.775  48.260  18.068  1.00  0.00     0.066 A 
ATOM     24  C   UNL A   1      43.177  49.053  17.078  1.00  0.00     0.016 A 
ATOM     25  C   UNL A   1      41.876  47.160  16.378  1.00  0.00     0.008 A 
ATOM     26  C   UNL A   1      42.223  48.502  16.236  1.00  0.00     0.001 A 
ENDBRANCH   9  10
ENDBRANCH   7   9
ENDBRANCH   6   7
ENDBRANCH   5   6
ENDBRANCH   4   5
ENDBRANCH   3   4
ENDBRANCH   2   3
ENDBRANCH   1   2
BRANCH   1  27
ATOM     27  O   UNL A   1      42.837  41.689  24.157  1.00  0.00    -0.376 OA
BRANCH  27  28
ATOM     28  C   UNL A   1      42.214  41.327  25.374  1.00  0.00     0.202 C 
BRANCH  28  29
ATOM     29  C   UNL A   1      43.188  41.305  26.559  1.00  0.00     0.261 C 
BRANCH  29  30
ATOM     30  O   UNL A   1      43.330  40.028  27.212  1.00  0.00    -0.460 OA
BRANCH  30  31
ATOM     31  C   UNL A   1      44.280  39.224  26.698  1.00  0.00     0.338 C 
ATOM     32  O   UNL A   1      45.263  39.582  26.072  1.00  0.00    -0.246 OA
BRANCH  31  33
ATOM     33  C   UNL A   1      44.041  37.828  27.108  1.00  0.00     0.060 A 
ATOM     34  C   UNL A   1      45.063  37.202  28.447  1.00  0.00     0.016 A 
ATOM     35  C   UNL A   1      42.491  36.960  26.723  1.00  0.00     0.016 A 
ATOM     36  C   UNL A   1      44.466  35.841  29.504  1.00  0.00     0.010 A 
ATOM     37  C   UNL A   1      41.846  35.623  27.852  1.00  0.00     0.010 A 
ATOM     38  C   UNL A   1      42.839  35.079  29.258  1.00  0.00    -0.014 A 
BRANCH  38  39
ATOM     39  C   UNL A   1      42.664  33.762  29.987  1.00  0.00     0.031 A 
ATOM     40  C   UNL A   1      43.359  32.494  29.530  1.00  0.00     0.074 A 
ATOM     41  C   UNL A   1      42.101  33.768  31.217  1.00  0.00     0.049 A 
ATOM     42  N   UNL A   1      43.532  31.364  30.180  1.00  0.00    -0.248 NA
ATOM     43  C   UNL A   1      43.968  32.487  28.194  1.00  0.00     0.031 C 
ATOM     44  C   UNL A   1      41.459  34.928  31.828  1.00  0.00     0.029 A 
ATOM     45  N   UNL A   1      42.013  32.797  32.193  1.00  0.00    -0.354 N 
ATOM     46  C   UNL A   1      44.281  30.538  29.344  1.00  0.00     0.074 A 
ATOM     47  C   UNL A   1      44.503  31.277  28.125  1.00  0.00     0.031 C 
ATOM     48  C   UNL A   1      41.109  34.632  33.087  1.00  0.00     0.029 A 
ATOM     49  C   UNL A   1      41.408  33.228  33.356  1.00  0.00     0.049 A 
ATOM     50  H   UNL A   1      42.352  31.880  32.071  1.00  0.00     0.167 HD
ATOM     51  C   UNL A   1      44.750  29.284  29.557  1.00  0.00     0.034 A 
ATOM     52  C   UNL A   1      41.096  32.578  34.502  1.00  0.00     0.034 A 
ATOM     53  C   UNL A   1      44.500  28.520  30.750  1.00  0.00     0.049 A 
ATOM     54  C   UNL A   1      41.505  31.134  34.664  1.00  0.00     0.074 A 
ATOM     55  C   UNL A   1      44.905  27.227  31.033  1.00  0.00     0.029 A 
ATOM     56  N   UNL A   1      43.772  28.958  31.845  1.00  0.00    -0.354 N 
ATOM     57  N   UNL A   1      42.236  30.394  33.866  1.00  0.00    -0.248 NA
ATOM     58  C   UNL A   1      41.049  30.431  35.874  1.00  0.00     0.031 C 
ATOM     59  C   UNL A   1      44.345  26.851  32.253  1.00  0.00     0.029 A 
ATOM     60  C   UNL A   1      43.675  27.942  32.782  1.00  0.00     0.049 A 
ATOM     61  H   UNL A   1      43.384  29.857  31.944  1.00  0.00     0.167 HD
ATOM     62  C   UNL A   1      42.344  29.149  34.484  1.00  0.00     0.074 A 
ATOM     63  C   UNL A   1      41.626  29.244  35.736  1.00  0.00     0.031 C 
ATOM     64  C   UNL A   1      42.976  28.034  34.043  1.00  0.00     0.034 A 
BRANCH  51  65
ATOM     65  C   UNL A   1      45.569  28.618  28.472  1.00  0.00     0.023 A 
ATOM     66  C   UNL A   1      44.961  27.693  27.601  1.00  0.00     0.031 A 
ATOM     67  C   UNL A   1      46.962  28.791  28.388  1.00  0.00     0.131 A 
ATOM     68  C   UNL A   1      45.748  26.946  26.715  1.00  0.00     0.055 A 
ATOM     69  C   UNL A   1      47.736  28.076  27.471  1.00  0.00     0.041 A 
ATOM     70  F   UNL A   1      47.591  29.661  29.195  1.00  0.00    -0.206 F 
ATOM     71  C   UNL A   1      47.131  27.139  26.639  1.00  0.00     0.022 A 
BRANCH  68  72
ATOM     72  S   UNL A   1      45.018  25.650  25.675  1.00  0.00     0.124 S 
ATOM     73  O   UNL A   1      46.022  25.509  24.623  1.00  0.00    -0.237 OA
ATOM     74  O   UNL A   1      44.927  24.529  26.605  1.00  0.00    -0.237 OA
ATOM     75  O   UNL A   1      43.746  26.220  25.246  1.00  0.00    -0.744 OA
ENDBRANCH  68  72
ENDBRANCH  51  65
BRANCH  52  76
ATOM     76  C   UNL A   1      40.348  33.306  35.577  1.00  0.00     0.023 A 
ATOM     77  C   UNL A   1      41.047  34.028  36.565  1.00  0.00     0.031 A 
ATOM     78  C   UNL A   1      38.951  33.224  35.695  1.00  0.00     0.131 A 
ATOM     79  C   UNL A   1      40.363  34.552  37.669  1.00  0.00     0.055 A 
ATOM     80  C   UNL A   1      38.262  33.822  36.755  1.00  0.00     0.041 A 
ATOM     81  F   UNL A   1      38.233  32.551  34.784  1.00  0.00    -0.206 F 
ATOM     82  C   UNL A   1      38.972  34.471  37.762  1.00  0.00     0.022 A 
BRANCH  79  83
ATOM     83  S   UNL A   1      41.274  35.217  39.092  1.00  0.00     0.124 S 
ATOM     84  O   UNL A   1      40.367  36.252  39.578  1.00  0.00    -0.237 OA
ATOM     85  O   UNL A   1      41.399  34.036  39.942  1.00  0.00    -0.237 OA
ATOM     86  O   UNL A   1      42.522  35.696  38.507  1.00  0.00    -0.744 OA
ENDBRANCH  79  83
ENDBRANCH  52  76
BRANCH  64  87
ATOM     87  C   UNL A   1      42.956  26.785  34.894  1.00  0.00     0.023 A 
ATOM     88  C   UNL A   1      44.144  26.331  35.500  1.00  0.00     0.031 A 
ATOM     89  C   UNL A   1      41.827  25.950  34.940  1.00  0.00     0.131 A 
ATOM     90  C   UNL A   1      44.195  25.051  36.063  1.00  0.00     0.055 A 
ATOM     91  C   UNL A   1      41.866  24.698  35.556  1.00  0.00     0.041 A 
ATOM     92  F   UNL A   1      40.673  26.330  34.367  1.00  0.00    -0.206 F 
ATOM     93  C   UNL A   1      43.060  24.234  36.103  1.00  0.00     0.022 A 
BRANCH  90  94
ATOM     94  S   UNL A   1      45.761  24.352  36.657  1.00  0.00     0.124 S 
ATOM     95  O   UNL A   1      46.249  25.409  37.540  1.00  0.00    -0.237 OA
ATOM     96  O   UNL A   1      45.318  23.134  37.330  1.00  0.00    -0.237 OA
ATOM     97  O   UNL A   1      46.541  24.149  35.441  1.00  0.00    -0.744 OA
ENDBRANCH  90  94
ENDBRANCH  64  87
ENDBRANCH  38  39
ENDBRANCH  31  33
ENDBRANCH  30  31
ENDBRANCH  29  30
ENDBRANCH  28  29
ENDBRANCH  27  28
ENDBRANCH   1  27
TORSDOF 21
ENDMDL
MODEL 3
REMARK VINA RESULT:      -9.6     11.280     18.974
REMARK SMILES Cc1ccc2c(=O)c3cccc(CC(=O)OCCOCCOCCOC(=O)c4ccc(-c5c6nc(c(-c7cc(S(=O)(=O)[O-])ccc7F)c7ccc([nH]7)c(-c7cc(S(=O)(=O)[O-])ccc7F)c7nc(c(-c8cc(S(=O)(=O)[O-])ccc8F)c8ccc5[nH]8)C=C7)C=C6)cc4)c3oc2c1C
REMARK SMILES IDX 21 1 20 2 19 3 18 4 17 5 16 6 14 7 15 8 13 9 12 10 1 11 2 12
REMARK SMILES IDX 3 13 94 14 4 15 93 16 95 17 5 18 92 19 6 20 91 21 7 22 8 23
REMARK SMILES IDX 9 24 11 25 10 26 22 27 23 28 24 29 25 30 26 31 27 32 28 33
REMARK SMILES IDX 29 34 90 35 30 36 89 37 31 38 32 39 33 40 83 41 34 42 88 43
REMARK SMILES IDX 82 44 84 45 35 46 87 47 81 48 80 49 36 51 68 52 48 53 67 54
REMARK SMILES IDX 49 55 52 56 66 57 85 58 50 59 51 60 65 62 86 63 53 64 37 65
REMARK SMILES IDX 38 66 46 67 39 68 45 69 47 70 44 71 40 72 41 73 42 74 43 75
REMARK SMILES IDX 69 76 70 77 78 78 71 79 77 80 79 81 76 82 72 83 73 84 74 85
REMARK SMILES IDX 75 86 54 87 55 88 63 89 56 90 62 91 64 92 61 93 57 94 58 95
REMARK SMILES IDX 59 96 60 97
REMARK H PARENT 84 50 52 61
REMARK Flexibility Score: inf
ROOT
ATOM      1  C   UNL A   1      43.533  42.816  23.929  1.00  0.00     0.188 C 
ENDROOT
BRANCH   1   2
ATOM      2  C   UNL A   1      44.314  43.247  22.659  1.00  0.00     0.188 C 
BRANCH   2   3
ATOM      3  O   UNL A   1      43.703  44.196  21.801  1.00  0.00    -0.376 OA
BRANCH   3   4
ATOM      4  C   UNL A   1      42.614  43.711  21.036  1.00  0.00     0.202 C 
BRANCH   4   5
ATOM      5  C   UNL A   1      42.943  42.589  20.029  1.00  0.00     0.261 C 
BRANCH   5   6
ATOM      6  O   UNL A   1      42.338  42.761  18.710  1.00  0.00    -0.463 OA
BRANCH   6   7
ATOM      7  C   UNL A   1      42.903  43.655  17.856  1.00  0.00     0.310 C 
ATOM      8  O   UNL A   1      44.028  43.489  17.392  1.00  0.00    -0.252 OA
BRANCH   7   9
ATOM      9  C   UNL A   1      42.022  44.835  17.388  1.00  0.00     0.162 C 
BRANCH   9  10
ATOM     10  C   UNL A   1      42.533  46.274  17.295  1.00  0.00     0.007 A 
ATOM     11  C   UNL A   1      49.221  46.202  21.408  1.00  0.00     0.045 C 
ATOM     12  C   UNL A   1      47.781  46.427  20.820  1.00  0.00    -0.044 A 
ATOM     13  C   UNL A   1      47.739  47.870  20.711  1.00  0.00     0.005 A 
ATOM     14  C   UNL A   1      46.630  45.472  20.251  1.00  0.00    -0.005 A 
ATOM     15  C   UNL A   1      46.733  48.619  20.148  1.00  0.00     0.016 A 
ATOM     16  C   UNL A   1      45.453  46.583  19.722  1.00  0.00     0.141 A 
ATOM     17  C   UNL A   1      46.686  43.366  19.835  1.00  0.00     0.049 C 
ATOM     18  C   UNL A   1      45.605  47.999  19.672  1.00  0.00     0.066 A 
ATOM     19  O   UNL A   1      44.091  46.209  19.256  1.00  0.00    -0.455 OA
ATOM     20  C   UNL A   1      44.669  48.884  18.956  1.00  0.00     0.200 A 
ATOM     21  C   UNL A   1      43.472  46.894  18.195  1.00  0.00     0.142 A 
ATOM     22  O   UNL A   1      44.746  50.107  19.011  1.00  0.00    -0.288 OA
ATOM     23  C   UNL A   1      43.708  48.259  18.062  1.00  0.00     0.066 A 
ATOM     24  C   UNL A   1      43.055  49.043  17.100  1.00  0.00     0.016 A 
ATOM     25  C   UNL A   1      41.882  47.092  16.335  1.00  0.00     0.008 A 
ATOM     26  C   UNL A   1      42.139  48.459  16.239  1.00  0.00     0.001 A 
ENDBRANCH   9  10
ENDBRANCH   7   9
ENDBRANCH   6   7
ENDBRANCH   5   6
ENDBRANCH   4   5
ENDBRANCH   3   4
ENDBRANCH   2   3
ENDBRANCH   1   2
BRANCH   1  27
ATOM     27  O   UNL A   1      42.760  41.653  23.684  1.00  0.00    -0.376 OA
BRANCH  27  28
ATOM     28  C   UNL A   1      41.584  41.570  24.464  1.00  0.00     0.202 C 
BRANCH  28  29
ATOM     29  C   UNL A   1      41.866  41.244  25.937  1.00  0.00     0.261 C 
BRANCH  29  30
ATOM     30  O   UNL A   1      41.993  39.841  26.241  1.00  0.00    -0.460 OA
BRANCH  30  31
ATOM     31  C   UNL A   1      43.243  39.426  26.518  1.00  0.00     0.338 C 
ATOM     32  O   UNL A   1      44.275  39.946  26.133  1.00  0.00    -0.246 OA
BRANCH  31  33
ATOM     33  C   UNL A   1      43.205  38.306  27.476  1.00  0.00     0.060 A 
ATOM     34  C   UNL A   1      42.830  36.685  26.798  1.00  0.00     0.016 A 
ATOM     35  C   UNL A   1      44.012  38.398  29.103  1.00  0.00     0.016 A 
ATOM     36  C   UNL A   1      43.411  35.175  27.641  1.00  0.00     0.010 A 
ATOM     37  C   UNL A   1      44.674  36.859  29.923  1.00  0.00     0.010 A 
ATOM     38  C   UNL A   1      44.381  35.245  29.171  1.00  0.00    -0.014 A 
BRANCH  38  39
ATOM     39  C   UNL A   1      44.470  33.919  29.898  1.00  0.00     0.031 A 
ATOM     40  C   UNL A   1      43.337  33.399  30.762  1.00  0.00     0.074 A 
ATOM     41  C   UNL A   1      45.457  33.056  29.563  1.00  0.00     0.049 A 
ATOM     42  N   UNL A   1      43.141  32.185  31.228  1.00  0.00    -0.248 NA
ATOM     43  C   UNL A   1      42.268  34.335  31.128  1.00  0.00     0.031 C 
ATOM     44  C   UNL A   1      46.577  33.380  28.684  1.00  0.00     0.029 A 
ATOM     45  N   UNL A   1      45.663  31.727  29.872  1.00  0.00    -0.354 N 
ATOM     46  C   UNL A   1      41.928  32.218  31.914  1.00  0.00     0.074 A 
ATOM     47  C   UNL A   1      41.445  33.575  31.835  1.00  0.00     0.031 C 
ATOM     48  C   UNL A   1      47.308  32.279  28.466  1.00  0.00     0.029 A 
ATOM     49  C   UNL A   1      46.775  31.178  29.266  1.00  0.00     0.049 A 
ATOM     50  H   UNL A   1      45.070  31.217  30.471  1.00  0.00     0.167 HD
ATOM     51  C   UNL A   1      41.264  31.221  32.550  1.00  0.00     0.034 A 
ATOM     52  C   UNL A   1      47.331  29.947  29.353  1.00  0.00     0.034 A 
ATOM     53  C   UNL A   1      41.754  29.874  32.673  1.00  0.00     0.049 A 
ATOM     54  C   UNL A   1      46.648  28.888  30.184  1.00  0.00     0.074 A 
ATOM     55  C   UNL A   1      41.164  28.811  33.333  1.00  0.00     0.029 A 
ATOM     56  N   UNL A   1      42.948  29.404  32.148  1.00  0.00    -0.354 N 
ATOM     57  N   UNL A   1      45.488  28.944  30.793  1.00  0.00    -0.248 NA
ATOM     58  C   UNL A   1      47.342  27.600  30.344  1.00  0.00     0.031 C 
ATOM     59  C   UNL A   1      42.041  27.729  33.290  1.00  0.00     0.029 A 
ATOM     60  C   UNL A   1      43.134  28.081  32.515  1.00  0.00     0.049 A 
ATOM     61  H   UNL A   1      43.569  29.931  31.596  1.00  0.00     0.167 HD
ATOM     62  C   UNL A   1      45.306  27.700  31.392  1.00  0.00     0.074 A 
ATOM     63  C   UNL A   1      46.461  26.900  31.048  1.00  0.00     0.031 C 
ATOM     64  C   UNL A   1      44.275  27.270  32.161  1.00  0.00     0.034 A 
BRANCH  51  65
ATOM     65  C   UNL A   1      39.933  31.531  33.201  1.00  0.00     0.023 A 
ATOM     66  C   UNL A   1      39.878  31.845  34.573  1.00  0.00     0.031 A 
ATOM     67  C   UNL A   1      38.720  31.384  32.507  1.00  0.00     0.131 A 
ATOM     68  C   UNL A   1      38.638  31.959  35.215  1.00  0.00     0.055 A 
ATOM     69  C   UNL A   1      37.486  31.542  33.141  1.00  0.00     0.041 A 
ATOM     70  F   UNL A   1      38.716  31.085  31.197  1.00  0.00    -0.206 F 
ATOM     71  C   UNL A   1      37.442  31.818  34.505  1.00  0.00     0.022 A 
BRANCH  68  72
ATOM     72  S   UNL A   1      38.530  32.228  37.006  1.00  0.00     0.124 S 
ATOM     73  O   UNL A   1      37.577  31.196  37.407  1.00  0.00    -0.237 OA
ATOM     74  O   UNL A   1      39.908  32.004  37.432  1.00  0.00    -0.237 OA
ATOM     75  O   UNL A   1      38.047  33.599  37.126  1.00  0.00    -0.744 OA
ENDBRANCH  68  72
ENDBRANCH  51  65
BRANCH  52  76
ATOM     76  C   UNL A   1      48.612  29.669  28.627  1.00  0.00     0.023 A 
ATOM     77  C   UNL A   1      48.590  29.150  27.317  1.00  0.00     0.031 A 
ATOM     78  C   UNL A   1      49.864  29.825  29.245  1.00  0.00     0.131 A 
ATOM     79  C   UNL A   1      49.776  28.719  26.711  1.00  0.00     0.055 A 
ATOM     80  C   UNL A   1      51.055  29.473  28.603  1.00  0.00     0.041 A 
ATOM     81  F   UNL A   1      49.947  30.316  30.491  1.00  0.00    -0.206 F 
ATOM     82  C   UNL A   1      51.012  28.894  27.337  1.00  0.00     0.022 A 
BRANCH  79  83
ATOM     83  S   UNL A   1      49.734  27.778  25.160  1.00  0.00     0.124 S 
ATOM     84  O   UNL A   1      50.036  26.425  25.615  1.00  0.00    -0.237 OA
ATOM     85  O   UNL A   1      48.361  28.003  24.714  1.00  0.00    -0.237 OA
ATOM     86  O   UNL A   1      50.763  28.414  24.344  1.00  0.00    -0.744 OA
ENDBRANCH  79  83
ENDBRANCH  52  76
BRANCH  64  87
ATOM     87  C   UNL A   1      44.297  25.861  32.709  1.00  0.00     0.023 A 
ATOM     88  C   UNL A   1      44.698  25.635  34.041  1.00  0.00     0.031 A 
ATOM     89  C   UNL A   1      44.120  24.748  31.871  1.00  0.00     0.131 A 
ATOM     90  C   UNL A   1      44.975  24.333  34.474  1.00  0.00     0.055 A 
ATOM     91  C   UNL A   1      44.340  23.447  32.326  1.00  0.00     0.041 A 
ATOM     92  F   UNL A   1      43.752  24.909  30.590  1.00  0.00    -0.206 F 
ATOM     93  C   UNL A   1      44.790  23.236  33.627  1.00  0.00     0.022 A 
BRANCH  90  94
ATOM     94  S   UNL A   1      45.696  24.027  36.111  1.00  0.00     0.124 S 
ATOM     95  O   UNL A   1      45.088  25.086  36.913  1.00  0.00    -0.237 OA
ATOM     96  O   UNL A   1      45.226  22.675  36.405  1.00  0.00    -0.237 OA
ATOM     97  O   UNL A   1      47.133  24.158  35.894  1.00  0.00    -0.744 OA
ENDBRANCH  90  94
ENDBRANCH  64  87
ENDBRANCH  38  39
ENDBRANCH  31  33
ENDBRANCH  30  31
ENDBRANCH  29  30
ENDBRANCH  28  29
ENDBRANCH  27  28
ENDBRANCH   1  27
TORSDOF 21
ENDMDL
