MODEL 1
REMARK VINA RESULT:      -9.3      0.000      0.000
REMARK SMILES COC(=O)c1ccc(C[N@@H+](CC(=O)OCCOCCOCCOC(=O)c2ccc(-c3c4nc(c(-c5cc(S(=O)(=O)[O-])ccc5F)c5ccc([nH]5)c(-c5cc(S(=O)(=O)[O-])ccc5F)c5nc(c(-c6cc(S(=O)(=O)[O-])ccc6F)c6ccc3[nH]6)C=C5)C=C4)cc2)C(C)(C)C)cc1
REMARK SMILES IDX 18 1 17 2 16 3 15 4 14 5 12 6 13 7 11 8 10 9 9 11 8 12 5 13
REMARK SMILES IDX 6 14 94 15 7 16 93 17 3 18 4 19 2 20 1 21 89 22 90 23 91 24
REMARK SMILES IDX 92 25 19 26 20 27 21 28 22 29 23 30 24 31 25 32 26 33 27 34
REMARK SMILES IDX 88 35 28 36 87 37 29 38 30 39 31 40 81 41 32 42 86 43 80 44
REMARK SMILES IDX 82 45 33 46 85 47 79 48 78 49 34 51 66 52 46 53 65 54 47 55
REMARK SMILES IDX 50 56 64 57 83 58 48 59 49 60 63 62 84 63 51 64 35 65 36 66
REMARK SMILES IDX 44 67 37 68 43 69 45 70 42 71 38 72 39 73 40 74 41 75 67 76
REMARK SMILES IDX 68 77 76 78 69 79 75 80 77 81 74 82 70 83 71 84 72 85 73 86
REMARK SMILES IDX 52 87 53 88 61 89 54 90 60 91 62 92 59 93 55 94 56 95 57 96
REMARK SMILES IDX 58 97
REMARK H PARENT 10 10 82 50 50 61
REMARK Flexibility Score: inf
ROOT
ATOM      1  C   UNL A   1      33.671  28.917  26.156  1.00  0.00     0.188 C 
ENDROOT
BRANCH   1   2
ATOM      2  O   UNL A   1      32.504  28.673  25.382  1.00  0.00    -0.376 OA
BRANCH   2   3
ATOM      3  C   UNL A   1      32.508  29.215  24.065  1.00  0.00     0.202 C 
BRANCH   3   4
ATOM      4  C   UNL A   1      32.643  28.224  22.893  1.00  0.00     0.261 C 
BRANCH   4   5
ATOM      5  O   UNL A   1      32.979  26.838  23.184  1.00  0.00    -0.459 OA
BRANCH   5   6
ATOM      6  C   UNL A   1      32.161  25.907  22.615  1.00  0.00     0.361 C 
ATOM      7  O   UNL A   1      31.397  26.184  21.690  1.00  0.00    -0.245 OA
BRANCH   6   8
ATOM      8  C   UNL A   1      32.076  24.508  23.258  1.00  0.00     0.387 C 
BRANCH   8   9
ATOM      9  N   UNL A   1      32.758  24.135  24.535  1.00  0.00    -0.318 N 
ATOM     10  H   UNL A   1      33.215  24.959  24.927  1.00  0.00     0.349 HD
BRANCH   9  11
ATOM     11  C   UNL A   1      33.884  23.220  24.261  1.00  0.00     0.299 C 
BRANCH  11  12
ATOM     12  C   UNL A   1      33.581  21.737  24.214  1.00  0.00     0.006 A 
ATOM     13  C   UNL A   1      33.282  18.958  23.973  1.00  0.00     0.060 A 
ATOM     14  C   UNL A   1      32.581  19.815  23.118  1.00  0.00     0.016 A 
ATOM     15  C   UNL A   1      34.102  19.485  24.976  1.00  0.00     0.016 A 
ATOM     16  C   UNL A   1      32.704  21.201  23.259  1.00  0.00     0.010 A 
ATOM     17  C   UNL A   1      34.247  20.867  25.095  1.00  0.00     0.010 A 
BRANCH  13  18
ATOM     18  C   UNL A   1      33.156  17.497  23.774  1.00  0.00     0.337 C 
ATOM     19  O   UNL A   1      32.737  16.978  22.749  1.00  0.00    -0.246 OA
BRANCH  18  20
ATOM     20  O   UNL A   1      33.490  16.853  24.920  1.00  0.00    -0.465 OA
ATOM     21  C   UNL A   1      32.572  15.829  25.300  1.00  0.00     0.282 C 
ENDBRANCH  18  20
ENDBRANCH  13  18
ENDBRANCH  11  12
ENDBRANCH   9  11
BRANCH   9  22
ATOM     22  C   UNL A   1      31.881  23.927  25.722  1.00  0.00     0.090 C 
ATOM     23  C   UNL A   1      32.736  23.580  26.928  1.00  0.00     0.078 C 
ATOM     24  C   UNL A   1      31.000  25.142  26.122  1.00  0.00     0.078 C 
ATOM     25  C   UNL A   1      30.833  22.805  25.482  1.00  0.00     0.078 C 
ENDBRANCH   9  22
ENDBRANCH   8   9
ENDBRANCH   6   8
ENDBRANCH   5   6
ENDBRANCH   4   5
ENDBRANCH   3   4
ENDBRANCH   2   3
ENDBRANCH   1   2
BRANCH   1  26
ATOM     26  C   UNL A   1      33.508  29.936  27.292  1.00  0.00     0.188 C 
BRANCH  26  27
ATOM     27  O   UNL A   1      33.326  31.269  26.826  1.00  0.00    -0.376 OA
BRANCH  27  28
ATOM     28  C   UNL A   1      32.082  31.921  27.082  1.00  0.00     0.202 C 
BRANCH  28  29
ATOM     29  C   UNL A   1      32.054  33.446  27.250  1.00  0.00     0.261 C 
BRANCH  29  30
ATOM     30  O   UNL A   1      33.354  34.047  27.406  1.00  0.00    -0.460 OA
BRANCH  30  31
ATOM     31  C   UNL A   1      33.726  34.383  28.667  1.00  0.00     0.338 C 
ATOM     32  O   UNL A   1      33.138  35.143  29.415  1.00  0.00    -0.246 OA
BRANCH  31  33
ATOM     33  C   UNL A   1      34.843  33.489  29.060  1.00  0.00     0.060 A 
ATOM     34  C   UNL A   1      34.558  32.315  29.766  1.00  0.00     0.016 A 
ATOM     35  C   UNL A   1      36.160  33.773  28.701  1.00  0.00     0.016 A 
ATOM     36  C   UNL A   1      35.568  31.430  30.135  1.00  0.00     0.010 A 
ATOM     37  C   UNL A   1      37.180  32.897  29.088  1.00  0.00     0.010 A 
ATOM     38  C   UNL A   1      36.894  31.733  29.829  1.00  0.00    -0.014 A 
BRANCH  38  39
ATOM     39  C   UNL A   1      37.990  30.956  30.460  1.00  0.00     0.031 A 
ATOM     40  C   UNL A   1      38.349  31.277  31.884  1.00  0.00     0.074 A 
ATOM     41  C   UNL A   1      38.623  29.960  29.815  1.00  0.00     0.049 A 
ATOM     42  N   UNL A   1      39.370  30.882  32.597  1.00  0.00    -0.248 NA
ATOM     43  C   UNL A   1      37.428  32.180  32.592  1.00  0.00     0.031 C 
ATOM     44  C   UNL A   1      38.293  29.471  28.477  1.00  0.00     0.029 A 
ATOM     45  N   UNL A   1      39.690  29.185  30.202  1.00  0.00    -0.354 N 
ATOM     46  C   UNL A   1      39.236  31.519  33.827  1.00  0.00     0.074 A 
ATOM     47  C   UNL A   1      38.050  32.343  33.748  1.00  0.00     0.031 C 
ATOM     48  C   UNL A   1      39.154  28.493  28.147  1.00  0.00     0.029 A 
ATOM     49  C   UNL A   1      40.137  28.334  29.218  1.00  0.00     0.049 A 
ATOM     50  H   UNL A   1      40.096  29.234  31.098  1.00  0.00     0.167 HD
ATOM     51  C   UNL A   1      40.035  31.423  34.918  1.00  0.00     0.034 A 
ATOM     52  C   UNL A   1      41.243  27.561  29.166  1.00  0.00     0.034 A 
ATOM     53  C   UNL A   1      41.207  30.585  34.976  1.00  0.00     0.049 A 
ATOM     54  C   UNL A   1      42.185  27.554  30.348  1.00  0.00     0.074 A 
ATOM     55  C   UNL A   1      42.093  30.414  36.024  1.00  0.00     0.029 A 
ATOM     56  N   UNL A   1      41.661  29.780  33.937  1.00  0.00    -0.354 N 
ATOM     57  N   UNL A   1      42.089  28.201  31.488  1.00  0.00    -0.248 NA
ATOM     58  C   UNL A   1      43.385  26.713  30.236  1.00  0.00     0.031 C 
ATOM     59  C   UNL A   1      43.124  29.574  35.593  1.00  0.00     0.029 A 
ATOM     60  C   UNL A   1      42.834  29.140  34.309  1.00  0.00     0.049 A 
ATOM     61  H   UNL A   1      41.216  29.679  33.066  1.00  0.00     0.167 HD
ATOM     62  C   UNL A   1      43.200  27.820  32.238  1.00  0.00     0.074 A 
ATOM     63  C   UNL A   1      43.943  26.878  31.427  1.00  0.00     0.031 C 
ATOM     64  C   UNL A   1      43.570  28.207  33.487  1.00  0.00     0.034 A 
BRANCH  51  65
ATOM     65  C   UNL A   1      39.705  32.310  36.095  1.00  0.00     0.023 A 
ATOM     66  C   UNL A   1      38.852  31.892  37.132  1.00  0.00     0.031 A 
ATOM     67  C   UNL A   1      40.206  33.624  36.147  1.00  0.00     0.131 A 
ATOM     68  C   UNL A   1      38.460  32.804  38.124  1.00  0.00     0.055 A 
ATOM     69  C   UNL A   1      39.888  34.494  37.189  1.00  0.00     0.041 A 
ATOM     70  F   UNL A   1      41.001  34.091  35.170  1.00  0.00    -0.206 F 
ATOM     71  C   UNL A   1      38.994  34.093  38.176  1.00  0.00     0.022 A 
BRANCH  68  72
ATOM     72  S   UNL A   1      37.107  32.338  39.240  1.00  0.00     0.124 S 
ATOM     73  O   UNL A   1      37.326  30.900  39.383  1.00  0.00    -0.237 OA
ATOM     74  O   UNL A   1      37.381  33.147  40.422  1.00  0.00    -0.237 OA
ATOM     75  O   UNL A   1      35.906  32.706  38.494  1.00  0.00    -0.744 OA
ENDBRANCH  68  72
ENDBRANCH  51  65
BRANCH  52  76
ATOM     76  C   UNL A   1      41.574  26.797  27.926  1.00  0.00     0.023 A 
ATOM     77  C   UNL A   1      41.296  25.425  27.813  1.00  0.00     0.031 A 
ATOM     78  C   UNL A   1      42.236  27.422  26.852  1.00  0.00     0.131 A 
ATOM     79  C   UNL A   1      41.715  24.717  26.674  1.00  0.00     0.055 A 
ATOM     80  C   UNL A   1      42.595  26.728  25.696  1.00  0.00     0.041 A 
ATOM     81  F   UNL A   1      42.540  28.728  26.910  1.00  0.00    -0.206 F 
ATOM     82  C   UNL A   1      42.346  25.362  25.608  1.00  0.00     0.022 A 
BRANCH  79  83
ATOM     83  S   UNL A   1      41.511  22.914  26.645  1.00  0.00     0.124 S 
ATOM     84  O   UNL A   1      42.320  22.544  25.490  1.00  0.00    -0.237 OA
ATOM     85  O   UNL A   1      42.040  22.528  27.949  1.00  0.00    -0.237 OA
ATOM     86  O   UNL A   1      40.070  22.737  26.482  1.00  0.00    -0.744 OA
ENDBRANCH  79  83
ENDBRANCH  52  76
BRANCH  64  87
ATOM     87  C   UNL A   1      44.803  27.562  34.077  1.00  0.00     0.023 A 
ATOM     88  C   UNL A   1      44.757  26.320  34.733  1.00  0.00     0.031 A 
ATOM     89  C   UNL A   1      46.050  28.208  33.974  1.00  0.00     0.131 A 
ATOM     90  C   UNL A   1      45.923  25.789  35.307  1.00  0.00     0.055 A 
ATOM     91  C   UNL A   1      47.217  27.642  34.488  1.00  0.00     0.041 A 
ATOM     92  F   UNL A   1      46.155  29.399  33.363  1.00  0.00    -0.206 F 
ATOM     93  C   UNL A   1      47.156  26.432  35.171  1.00  0.00     0.022 A 
BRANCH  90  94
ATOM     94  S   UNL A   1      45.792  24.290  36.321  1.00  0.00     0.124 S 
ATOM     95  O   UNL A   1      46.214  23.253  35.385  1.00  0.00    -0.237 OA
ATOM     96  O   UNL A   1      46.712  24.572  37.417  1.00  0.00    -0.237 OA
ATOM     97  O   UNL A   1      44.379  24.250  36.694  1.00  0.00    -0.744 OA
ENDBRANCH  90  94
ENDBRANCH  64  87
ENDBRANCH  38  39
ENDBRANCH  31  33
ENDBRANCH  30  31
ENDBRANCH  29  30
ENDBRANCH  28  29
ENDBRANCH  27  28
ENDBRANCH  26  27
ENDBRANCH   1  26
TORSDOF 26
ENDMDL
MODEL 2
REMARK VINA RESULT:      -9.0      2.746      8.208
REMARK SMILES COC(=O)c1ccc(C[N@@H+](CC(=O)OCCOCCOCCOC(=O)c2ccc(-c3c4nc(c(-c5cc(S(=O)(=O)[O-])ccc5F)c5ccc([nH]5)c(-c5cc(S(=O)(=O)[O-])ccc5F)c5nc(c(-c6cc(S(=O)(=O)[O-])ccc6F)c6ccc3[nH]6)C=C5)C=C4)cc2)C(C)(C)C)cc1
REMARK SMILES IDX 18 1 17 2 16 3 15 4 14 5 12 6 13 7 11 8 10 9 9 11 8 12 5 13
REMARK SMILES IDX 6 14 94 15 7 16 93 17 3 18 4 19 2 20 1 21 89 22 90 23 91 24
REMARK SMILES IDX 92 25 19 26 20 27 21 28 22 29 23 30 24 31 25 32 26 33 27 34
REMARK SMILES IDX 88 35 28 36 87 37 29 38 30 39 31 40 81 41 32 42 86 43 80 44
REMARK SMILES IDX 82 45 33 46 85 47 79 48 78 49 34 51 66 52 46 53 65 54 47 55
REMARK SMILES IDX 50 56 64 57 83 58 48 59 49 60 63 62 84 63 51 64 35 65 36 66
REMARK SMILES IDX 44 67 37 68 43 69 45 70 42 71 38 72 39 73 40 74 41 75 67 76
REMARK SMILES IDX 68 77 76 78 69 79 75 80 77 81 74 82 70 83 71 84 72 85 73 86
REMARK SMILES IDX 52 87 53 88 61 89 54 90 60 91 62 92 59 93 55 94 56 95 57 96
REMARK SMILES IDX 58 97
REMARK H PARENT 10 10 82 50 50 61
REMARK Flexibility Score: inf
ROOT
ATOM      1  C   UNL A   1      35.060  31.731  28.070  1.00  0.00     0.188 C 
ENDROOT
BRANCH   1   2
ATOM      2  O   UNL A   1      33.776  31.466  27.524  1.00  0.00    -0.376 OA
BRANCH   2   3
ATOM      3  C   UNL A   1      33.583  30.157  26.995  1.00  0.00     0.202 C 
BRANCH   3   4
ATOM      4  C   UNL A   1      32.138  29.627  26.925  1.00  0.00     0.261 C 
BRANCH   4   5
ATOM      5  O   UNL A   1      31.925  28.209  26.680  1.00  0.00    -0.459 OA
BRANCH   5   6
ATOM      6  C   UNL A   1      31.566  27.883  25.405  1.00  0.00     0.361 C 
ATOM      7  O   UNL A   1      30.954  28.665  24.677  1.00  0.00    -0.245 OA
BRANCH   6   8
ATOM      8  C   UNL A   1      31.794  26.437  24.921  1.00  0.00     0.387 C 
BRANCH   8   9
ATOM      9  N   UNL A   1      31.647  26.002  23.499  1.00  0.00    -0.318 N 
ATOM     10  H   UNL A   1      31.121  26.707  22.983  1.00  0.00     0.349 HD
BRANCH   9  11
ATOM     11  C   UNL A   1      30.783  24.806  23.419  1.00  0.00     0.299 C 
BRANCH  11  12
ATOM     12  C   UNL A   1      31.408  23.471  23.764  1.00  0.00     0.006 A 
ATOM     13  C   UNL A   1      32.295  20.872  24.339  1.00  0.00     0.060 A 
ATOM     14  C   UNL A   1      31.949  21.741  25.380  1.00  0.00     0.016 A 
ATOM     15  C   UNL A   1      32.238  21.310  23.012  1.00  0.00     0.016 A 
ATOM     16  C   UNL A   1      31.539  23.047  25.095  1.00  0.00     0.010 A 
ATOM     17  C   UNL A   1      31.800  22.603  22.729  1.00  0.00     0.010 A 
BRANCH  13  18
ATOM     18  C   UNL A   1      32.691  19.486  24.675  1.00  0.00     0.337 C 
ATOM     19  O   UNL A   1      32.011  18.720  25.343  1.00  0.00    -0.246 OA
BRANCH  18  20
ATOM     20  O   UNL A   1      33.941  19.246  24.204  1.00  0.00    -0.465 OA
ATOM     21  C   UNL A   1      34.452  17.958  24.542  1.00  0.00     0.282 C 
ENDBRANCH  18  20
ENDBRANCH  13  18
ENDBRANCH  11  12
ENDBRANCH   9  11
BRANCH   9  22
ATOM     22  C   UNL A   1      32.857  26.123  22.638  1.00  0.00     0.090 C 
ATOM     23  C   UNL A   1      32.528  25.653  21.232  1.00  0.00     0.078 C 
ATOM     24  C   UNL A   1      33.447  27.555  22.514  1.00  0.00     0.078 C 
ATOM     25  C   UNL A   1      34.055  25.305  23.197  1.00  0.00     0.078 C 
ENDBRANCH   9  22
ENDBRANCH   8   9
ENDBRANCH   6   8
ENDBRANCH   5   6
ENDBRANCH   4   5
ENDBRANCH   3   4
ENDBRANCH   2   3
ENDBRANCH   1   2
BRANCH   1  26
ATOM     26  C   UNL A   1      35.510  33.196  28.019  1.00  0.00     0.188 C 
BRANCH  26  27
ATOM     27  O   UNL A   1      34.469  34.088  27.633  1.00  0.00    -0.376 OA
BRANCH  27  28
ATOM     28  C   UNL A   1      34.363  35.347  28.297  1.00  0.00     0.202 C 
BRANCH  28  29
ATOM     29  C   UNL A   1      33.216  35.579  29.289  1.00  0.00     0.261 C 
BRANCH  29  30
ATOM     30  O   UNL A   1      33.098  34.563  30.303  1.00  0.00    -0.460 OA
BRANCH  30  31
ATOM     31  C   UNL A   1      33.082  34.983  31.593  1.00  0.00     0.338 C 
ATOM     32  O   UNL A   1      32.144  35.499  32.173  1.00  0.00    -0.246 OA
BRANCH  31  33
ATOM     33  C   UNL A   1      34.326  34.497  32.241  1.00  0.00     0.060 A 
ATOM     34  C   UNL A   1      35.544  35.102  31.912  1.00  0.00     0.016 A 
ATOM     35  C   UNL A   1      34.297  33.485  33.199  1.00  0.00     0.016 A 
ATOM     36  C   UNL A   1      36.735  34.700  32.511  1.00  0.00     0.010 A 
ATOM     37  C   UNL A   1      35.495  33.065  33.789  1.00  0.00     0.010 A 
ATOM     38  C   UNL A   1      36.724  33.652  33.430  1.00  0.00    -0.014 A 
BRANCH  38  39
ATOM     39  C   UNL A   1      38.005  33.030  33.851  1.00  0.00     0.031 A 
ATOM     40  C   UNL A   1      38.547  31.903  33.018  1.00  0.00     0.074 A 
ATOM     41  C   UNL A   1      38.700  33.476  34.914  1.00  0.00     0.049 A 
ATOM     42  N   UNL A   1      39.532  31.081  33.263  1.00  0.00    -0.248 NA
ATOM     43  C   UNL A   1      37.869  31.671  31.732  1.00  0.00     0.031 C 
ATOM     44  C   UNL A   1      38.346  34.633  35.734  1.00  0.00     0.029 A 
ATOM     45  N   UNL A   1      39.850  32.994  35.490  1.00  0.00    -0.354 N 
ATOM     46  C   UNL A   1      39.569  30.207  32.181  1.00  0.00     0.074 A 
ATOM     47  C   UNL A   1      38.491  30.588  31.295  1.00  0.00     0.031 C 
ATOM     48  C   UNL A   1      39.250  34.759  36.721  1.00  0.00     0.029 A 
ATOM     49  C   UNL A   1      40.205  33.653  36.644  1.00  0.00     0.049 A 
ATOM     50  H   UNL A   1      40.371  32.249  35.113  1.00  0.00     0.167 HD
ATOM     51  C   UNL A   1      40.425  29.181  31.955  1.00  0.00     0.034 A 
ATOM     52  C   UNL A   1      41.152  33.364  37.561  1.00  0.00     0.034 A 
ATOM     53  C   UNL A   1      41.499  28.828  32.850  1.00  0.00     0.049 A 
ATOM     54  C   UNL A   1      42.024  32.147  37.351  1.00  0.00     0.074 A 
ATOM     55  C   UNL A   1      42.423  27.806  32.725  1.00  0.00     0.029 A 
ATOM     56  N   UNL A   1      41.791  29.484  34.040  1.00  0.00    -0.354 N 
ATOM     57  N   UNL A   1      42.021  31.287  36.358  1.00  0.00    -0.248 NA
ATOM     58  C   UNL A   1      43.027  31.862  38.387  1.00  0.00     0.031 C 
ATOM     59  C   UNL A   1      43.217  27.792  33.876  1.00  0.00     0.029 A 
ATOM     60  C   UNL A   1      42.857  28.865  34.676  1.00  0.00     0.049 A 
ATOM     61  H   UNL A   1      41.312  30.272  34.381  1.00  0.00     0.167 HD
ATOM     62  C   UNL A   1      43.040  30.379  36.636  1.00  0.00     0.074 A 
ATOM     63  C   UNL A   1      43.644  30.803  37.882  1.00  0.00     0.031 C 
ATOM     64  C   UNL A   1      43.446  29.295  35.923  1.00  0.00     0.034 A 
BRANCH  51  65
ATOM     65  C   UNL A   1      40.172  28.328  30.735  1.00  0.00     0.023 A 
ATOM     66  C   UNL A   1      40.825  28.557  29.511  1.00  0.00     0.031 A 
ATOM     67  C   UNL A   1      39.209  27.301  30.784  1.00  0.00     0.131 A 
ATOM     68  C   UNL A   1      40.446  27.832  28.370  1.00  0.00     0.055 A 
ATOM     69  C   UNL A   1      38.907  26.521  29.668  1.00  0.00     0.041 A 
ATOM     70  F   UNL A   1      38.530  27.054  31.915  1.00  0.00    -0.206 F 
ATOM     71  C   UNL A   1      39.512  26.797  28.447  1.00  0.00     0.022 A 
BRANCH  68  72
ATOM     72  S   UNL A   1      41.060  28.382  26.754  1.00  0.00     0.124 S 
ATOM     73  O   UNL A   1      39.961  29.228  26.295  1.00  0.00    -0.237 OA
ATOM     74  O   UNL A   1      42.295  29.072  27.104  1.00  0.00    -0.237 OA
ATOM     75  O   UNL A   1      41.228  27.136  26.010  1.00  0.00    -0.744 OA
ENDBRANCH  68  72
ENDBRANCH  51  65
BRANCH  52  76
ATOM     76  C   UNL A   1      41.275  34.180  38.806  1.00  0.00     0.023 A 
ATOM     77  C   UNL A   1      40.368  34.039  39.870  1.00  0.00     0.031 A 
ATOM     78  C   UNL A   1      42.274  35.165  38.924  1.00  0.00     0.131 A 
ATOM     79  C   UNL A   1      40.452  34.895  40.980  1.00  0.00     0.055 A 
ATOM     80  C   UNL A   1      42.392  35.971  40.057  1.00  0.00     0.041 A 
ATOM     81  F   UNL A   1      43.160  35.355  37.933  1.00  0.00    -0.206 F 
ATOM     82  C   UNL A   1      41.468  35.848  41.089  1.00  0.00     0.022 A 
BRANCH  79  83
ATOM     83  S   UNL A   1      39.152  34.813  42.244  1.00  0.00     0.124 S 
ATOM     84  O   UNL A   1      38.003  34.382  41.457  1.00  0.00    -0.237 OA
ATOM     85  O   UNL A   1      39.696  33.831  43.176  1.00  0.00    -0.237 OA
ATOM     86  O   UNL A   1      39.085  36.181  42.752  1.00  0.00    -0.744 OA
ENDBRANCH  79  83
ENDBRANCH  52  76
BRANCH  64  87
ATOM     87  C   UNL A   1      44.641  28.529  36.444  1.00  0.00     0.023 A 
ATOM     88  C   UNL A   1      45.961  28.919  36.161  1.00  0.00     0.031 A 
ATOM     89  C   UNL A   1      44.448  27.387  37.245  1.00  0.00     0.131 A 
ATOM     90  C   UNL A   1      47.034  28.145  36.628  1.00  0.00     0.055 A 
ATOM     91  C   UNL A   1      45.520  26.660  37.762  1.00  0.00     0.041 A 
ATOM     92  F   UNL A   1      43.209  26.964  37.545  1.00  0.00    -0.206 F 
ATOM     93  C   UNL A   1      46.823  27.029  37.443  1.00  0.00     0.022 A 
BRANCH  90  94
ATOM     94  S   UNL A   1      48.713  28.555  36.076  1.00  0.00     0.124 S 
ATOM     95  O   UNL A   1      49.533  27.906  37.094  1.00  0.00    -0.237 OA
ATOM     96  O   UNL A   1      48.760  27.960  34.745  1.00  0.00    -0.237 OA
ATOM     97  O   UNL A   1      48.735  30.017  36.101  1.00  0.00    -0.744 OA
ENDBRANCH  90  94
ENDBRANCH  64  87
ENDBRANCH  38  39
ENDBRANCH  31  33
ENDBRANCH  30  31
ENDBRANCH  29  30
ENDBRANCH  28  29
ENDBRANCH  27  28
ENDBRANCH  26  27
ENDBRANCH   1  26
TORSDOF 26
ENDMDL
MODEL 3
REMARK VINA RESULT:      -8.8      2.028      2.456
REMARK SMILES COC(=O)c1ccc(C[N@@H+](CC(=O)OCCOCCOCCOC(=O)c2ccc(-c3c4nc(c(-c5cc(S(=O)(=O)[O-])ccc5F)c5ccc([nH]5)c(-c5cc(S(=O)(=O)[O-])ccc5F)c5nc(c(-c6cc(S(=O)(=O)[O-])ccc6F)c6ccc3[nH]6)C=C5)C=C4)cc2)C(C)(C)C)cc1
REMARK SMILES IDX 18 1 17 2 16 3 15 4 14 5 12 6 13 7 11 8 10 9 9 11 8 12 5 13
REMARK SMILES IDX 6 14 94 15 7 16 93 17 3 18 4 19 2 20 1 21 89 22 90 23 91 24
REMARK SMILES IDX 92 25 19 26 20 27 21 28 22 29 23 30 24 31 25 32 26 33 27 34
REMARK SMILES IDX 88 35 28 36 87 37 29 38 30 39 31 40 81 41 32 42 86 43 80 44
REMARK SMILES IDX 82 45 33 46 85 47 79 48 78 49 34 51 66 52 46 53 65 54 47 55
REMARK SMILES IDX 50 56 64 57 83 58 48 59 49 60 63 62 84 63 51 64 35 65 36 66
REMARK SMILES IDX 44 67 37 68 43 69 45 70 42 71 38 72 39 73 40 74 41 75 67 76
REMARK SMILES IDX 68 77 76 78 69 79 75 80 77 81 74 82 70 83 71 84 72 85 73 86
REMARK SMILES IDX 52 87 53 88 61 89 54 90 60 91 62 92 59 93 55 94 56 95 57 96
REMARK SMILES IDX 58 97
REMARK H PARENT 10 10 82 50 50 61
REMARK Flexibility Score: inf
ROOT
ATOM      1  C   UNL A   1      34.259  28.960  26.113  1.00  0.00     0.188 C 
ENDROOT
BRANCH   1   2
ATOM      2  O   UNL A   1      33.107  28.630  25.350  1.00  0.00    -0.376 OA
BRANCH   2   3
ATOM      3  C   UNL A   1      32.907  29.395  24.165  1.00  0.00     0.202 C 
BRANCH   3   4
ATOM      4  C   UNL A   1      33.130  28.683  22.817  1.00  0.00     0.261 C 
BRANCH   4   5
ATOM      5  O   UNL A   1      33.935  27.471  22.791  1.00  0.00    -0.459 OA
BRANCH   5   6
ATOM      6  C   UNL A   1      33.388  26.419  22.117  1.00  0.00     0.361 C 
ATOM      7  O   UNL A   1      33.619  26.214  20.925  1.00  0.00    -0.245 OA
BRANCH   6   8
ATOM      8  C   UNL A   1      32.323  25.560  22.828  1.00  0.00     0.387 C 
BRANCH   8   9
ATOM      9  N   UNL A   1      31.966  25.703  24.273  1.00  0.00    -0.318 N 
ATOM     10  H   UNL A   1      32.185  26.650  24.583  1.00  0.00     0.349 HD
BRANCH   9  11
ATOM     11  C   UNL A   1      32.852  24.861  25.101  1.00  0.00     0.299 C 
BRANCH  11  12
ATOM     12  C   UNL A   1      32.645  23.362  25.040  1.00  0.00     0.006 A 
ATOM     13  C   UNL A   1      32.565  20.562  24.888  1.00  0.00     0.060 A 
ATOM     14  C   UNL A   1      32.217  21.334  23.775  1.00  0.00     0.016 A 
ATOM     15  C   UNL A   1      32.915  21.184  26.092  1.00  0.00     0.016 A 
ATOM     16  C   UNL A   1      32.225  22.730  23.860  1.00  0.00     0.010 A 
ATOM     17  C   UNL A   1      32.951  22.576  26.165  1.00  0.00     0.010 A 
BRANCH  13  18
ATOM     18  C   UNL A   1      32.580  19.088  24.753  1.00  0.00     0.337 C 
ATOM     19  O   UNL A   1      32.844  18.317  25.665  1.00  0.00    -0.246 OA
BRANCH  18  20
ATOM     20  O   UNL A   1      32.344  18.750  23.461  1.00  0.00    -0.465 OA
ATOM     21  C   UNL A   1      33.193  17.716  22.966  1.00  0.00     0.282 C 
ENDBRANCH  18  20
ENDBRANCH  13  18
ENDBRANCH  11  12
ENDBRANCH   9  11
BRANCH   9  22
ATOM     22  C   UNL A   1      30.515  25.822  24.591  1.00  0.00     0.090 C 
ATOM     23  C   UNL A   1      29.713  24.969  23.624  1.00  0.00     0.078 C 
ATOM     24  C   UNL A   1      30.109  25.388  26.027  1.00  0.00     0.078 C 
ATOM     25  C   UNL A   1      30.022  27.295  24.523  1.00  0.00     0.078 C 
ENDBRANCH   9  22
ENDBRANCH   8   9
ENDBRANCH   6   8
ENDBRANCH   5   6
ENDBRANCH   4   5
ENDBRANCH   3   4
ENDBRANCH   2   3
ENDBRANCH   1   2
BRANCH   1  26
ATOM     26  C   UNL A   1      34.020  29.913  27.291  1.00  0.00     0.188 C 
BRANCH  26  27
ATOM     27  O   UNL A   1      33.655  31.228  26.882  1.00  0.00    -0.376 OA
BRANCH  27  28
ATOM     28  C   UNL A   1      32.360  31.719  27.228  1.00  0.00     0.202 C 
BRANCH  28  29
ATOM     29  C   UNL A   1      32.115  33.233  27.261  1.00  0.00     0.261 C 
BRANCH  29  30
ATOM     30  O   UNL A   1      33.286  34.014  27.570  1.00  0.00    -0.460 OA
BRANCH  30  31
ATOM     31  C   UNL A   1      33.503  34.301  28.878  1.00  0.00     0.338 C 
ATOM     32  O   UNL A   1      32.785  34.971  29.600  1.00  0.00    -0.246 OA
BRANCH  31  33
ATOM     33  C   UNL A   1      34.642  33.469  29.339  1.00  0.00     0.060 A 
ATOM     34  C   UNL A   1      34.384  32.330  30.109  1.00  0.00     0.016 A 
ATOM     35  C   UNL A   1      35.954  33.775  28.982  1.00  0.00     0.016 A 
ATOM     36  C   UNL A   1      35.416  31.502  30.543  1.00  0.00     0.010 A 
ATOM     37  C   UNL A   1      36.997  32.957  29.434  1.00  0.00     0.010 A 
ATOM     38  C   UNL A   1      36.736  31.830  30.239  1.00  0.00    -0.014 A 
BRANCH  38  39
ATOM     39  C   UNL A   1      37.846  31.128  30.930  1.00  0.00     0.031 A 
ATOM     40  C   UNL A   1      38.154  31.523  32.347  1.00  0.00     0.074 A 
ATOM     41  C   UNL A   1      38.538  30.134  30.343  1.00  0.00     0.049 A 
ATOM     42  N   UNL A   1      39.171  31.203  33.101  1.00  0.00    -0.248 NA
ATOM     43  C   UNL A   1      37.177  32.415  32.992  1.00  0.00     0.031 C 
ATOM     44  C   UNL A   1      38.264  29.575  29.020  1.00  0.00     0.029 A 
ATOM     45  N   UNL A   1      39.626  29.423  30.789  1.00  0.00    -0.354 N 
ATOM     46  C   UNL A   1      38.978  31.884  34.299  1.00  0.00     0.074 A 
ATOM     47  C   UNL A   1      37.760  32.653  34.155  1.00  0.00     0.031 C 
ATOM     48  C   UNL A   1      39.174  28.622  28.754  1.00  0.00     0.029 A 
ATOM     49  C   UNL A   1      40.134  28.551  29.855  1.00  0.00     0.049 A 
ATOM     50  H   UNL A   1      40.005  29.527  31.693  1.00  0.00     0.167 HD
ATOM     51  C   UNL A   1      39.750  31.869  35.412  1.00  0.00     0.034 A 
ATOM     52  C   UNL A   1      41.272  27.825  29.864  1.00  0.00     0.034 A 
ATOM     53  C   UNL A   1      40.955  31.085  35.535  1.00  0.00     0.049 A 
ATOM     54  C   UNL A   1      42.182  27.908  31.068  1.00  0.00     0.074 A 
ATOM     55  C   UNL A   1      41.819  30.997  36.612  1.00  0.00     0.029 A 
ATOM     56  N   UNL A   1      41.470  30.258  34.544  1.00  0.00    -0.354 N 
ATOM     57  N   UNL A   1      42.029  28.598  32.176  1.00  0.00    -0.248 NA
ATOM     58  C   UNL A   1      43.419  27.115  31.022  1.00  0.00     0.031 C 
ATOM     59  C   UNL A   1      42.896  30.184  36.243  1.00  0.00     0.029 A 
ATOM     60  C   UNL A   1      42.658  29.685  34.972  1.00  0.00     0.049 A 
ATOM     61  H   UNL A   1      41.053  30.101  33.667  1.00  0.00     0.167 HD
ATOM     62  C   UNL A   1      43.135  28.296  32.969  1.00  0.00     0.074 A 
ATOM     63  C   UNL A   1      43.938  27.354  32.218  1.00  0.00     0.031 C 
ATOM     64  C   UNL A   1      43.454  28.751  34.209  1.00  0.00     0.034 A 
BRANCH  51  65
ATOM     65  C   UNL A   1      39.352  32.789  36.542  1.00  0.00     0.023 A 
ATOM     66  C   UNL A   1      39.940  34.054  36.720  1.00  0.00     0.031 A 
ATOM     67  C   UNL A   1      38.408  32.363  37.495  1.00  0.00     0.131 A 
ATOM     68  C   UNL A   1      39.643  34.807  37.867  1.00  0.00     0.055 A 
ATOM     69  C   UNL A   1      38.047  33.159  38.582  1.00  0.00     0.041 A 
ATOM     70  F   UNL A   1      37.835  31.153  37.395  1.00  0.00    -0.206 F 
ATOM     71  C   UNL A   1      38.680  34.381  38.784  1.00  0.00     0.022 A 
BRANCH  68  72
ATOM     72  S   UNL A   1      40.662  36.262  38.233  1.00  0.00     0.124 S 
ATOM     73  O   UNL A   1      41.366  35.832  39.440  1.00  0.00    -0.237 OA
ATOM     74  O   UNL A   1      41.475  36.389  37.030  1.00  0.00    -0.237 OA
ATOM     75  O   UNL A   1      39.680  37.324  38.441  1.00  0.00    -0.744 OA
ENDBRANCH  68  72
ENDBRANCH  51  65
BRANCH  52  76
ATOM     76  C   UNL A   1      41.668  27.024  28.666  1.00  0.00     0.023 A 
ATOM     77  C   UNL A   1      42.631  27.491  27.757  1.00  0.00     0.031 A 
ATOM     78  C   UNL A   1      41.038  25.798  28.382  1.00  0.00     0.131 A 
ATOM     79  C   UNL A   1      42.903  26.761  26.588  1.00  0.00     0.055 A 
ATOM     80  C   UNL A   1      41.357  25.045  27.251  1.00  0.00     0.041 A 
ATOM     81  F   UNL A   1      40.101  25.308  29.208  1.00  0.00    -0.206 F 
ATOM     82  C   UNL A   1      42.287  25.532  26.338  1.00  0.00     0.022 A 
BRANCH  79  83
ATOM     83  S   UNL A   1      44.008  27.486  25.344  1.00  0.00     0.124 S 
ATOM     84  O   UNL A   1      44.961  26.404  25.129  1.00  0.00    -0.237 OA
ATOM     85  O   UNL A   1      43.088  27.760  24.245  1.00  0.00    -0.237 OA
ATOM     86  O   UNL A   1      44.544  28.669  26.014  1.00  0.00    -0.744 OA
ENDBRANCH  79  83
ENDBRANCH  52  76
BRANCH  64  87
ATOM     87  C   UNL A   1      44.698  28.185  34.857  1.00  0.00     0.023 A 
ATOM     88  C   UNL A   1      44.662  27.037  35.667  1.00  0.00     0.031 A 
ATOM     89  C   UNL A   1      45.942  28.810  34.652  1.00  0.00     0.131 A 
ATOM     90  C   UNL A   1      45.838  26.582  36.285  1.00  0.00     0.055 A 
ATOM     91  C   UNL A   1      47.118  28.313  35.215  1.00  0.00     0.041 A 
ATOM     92  F   UNL A   1      46.037  29.913  33.891  1.00  0.00    -0.206 F 
ATOM     93  C   UNL A   1      47.068  27.200  36.048  1.00  0.00     0.022 A 
BRANCH  90  94
ATOM     94  S   UNL A   1      45.724  25.225  37.485  1.00  0.00     0.124 S 
ATOM     95  O   UNL A   1      46.765  25.582  38.444  1.00  0.00    -0.237 OA
ATOM     96  O   UNL A   1      44.351  25.343  37.962  1.00  0.00    -0.237 OA
ATOM     97  O   UNL A   1      46.002  24.034  36.684  1.00  0.00    -0.744 OA
ENDBRANCH  90  94
ENDBRANCH  64  87
ENDBRANCH  38  39
ENDBRANCH  31  33
ENDBRANCH  30  31
ENDBRANCH  29  30
ENDBRANCH  28  29
ENDBRANCH  27  28
ENDBRANCH  26  27
ENDBRANCH   1  26
TORSDOF 26
ENDMDL
