MODEL 1
REMARK VINA RESULT:     -10.9      0.000      0.000
REMARK SMILES O=C(OCCOCCOCCOC(=O)c1c(S(=O)(=O)N2CCCCC2)sc2c1CC[NH2+]C2)c1ccc(-c2c3nc(c(-c4cc(S(=O)(=O)[O-])ccc4F)c4ccc([nH]4)c(-c4cc(S(=O)(=O)[O-])ccc4F)c4nc(c(-c5cc(S(=O)(=O)[O-])ccc5F)c5ccc2[nH]5)C=C4)C=C3)cc1
REMARK SMILES IDX 7 1 6 2 5 3 4 4 3 5 2 6 1 7 33 8 34 9 95 10 35 11 94 12
REMARK SMILES IDX 36 13 37 14 38 15 88 16 39 17 93 18 87 19 89 20 40 21 92 22
REMARK SMILES IDX 86 23 85 24 41 26 73 27 53 28 72 29 54 30 57 31 71 32 90 33
REMARK SMILES IDX 55 34 56 35 70 37 91 38 58 39 42 40 43 41 51 42 44 43 50 44
REMARK SMILES IDX 52 45 49 46 45 47 46 48 47 49 48 50 74 51 75 52 83 53 76 54
REMARK SMILES IDX 82 55 84 56 81 57 77 58 78 59 79 60 80 61 59 62 60 63 68 64
REMARK SMILES IDX 61 65 67 66 69 67 66 68 62 69 63 70 64 71 65 72 8 73 9 74
REMARK SMILES IDX 10 75 11 76 12 77 13 78 14 79 15 80 16 81 28 82 26 83 27 84
REMARK SMILES IDX 29 85 32 86 30 87 31 88 17 91 18 92 19 93 20 94 21 95 25 96
REMARK SMILES IDX 22 97 24 98 23 99
REMARK H PARENT 89 25 57 36 31 89 31 90
REMARK Flexibility Score: inf
ROOT
ATOM      1  C   UNL A   1      32.259  29.413  25.349  1.00  0.00     0.188 C 
ENDROOT
BRANCH   1   2
ATOM      2  O   UNL A   1      32.507  28.791  26.605  1.00  0.00    -0.376 OA
BRANCH   2   3
ATOM      3  C   UNL A   1      33.820  28.918  27.117  1.00  0.00     0.202 C 
BRANCH   3   4
ATOM      4  C   UNL A   1      34.170  30.345  27.548  1.00  0.00     0.261 C 
BRANCH   4   5
ATOM      5  O   UNL A   1      35.536  30.536  27.968  1.00  0.00    -0.460 OA
BRANCH   5   6
ATOM      6  C   UNL A   1      36.282  30.048  28.975  1.00  0.00     0.338 C 
ATOM      7  O   UNL A   1      35.940  30.318  30.126  1.00  0.00    -0.246 OA
BRANCH   6   8
ATOM      8  C   UNL A   1      37.575  29.333  28.789  1.00  0.00     0.060 A 
ATOM      9  C   UNL A   1      38.144  28.424  29.678  1.00  0.00     0.016 A 
ATOM     10  C   UNL A   1      38.288  29.657  27.615  1.00  0.00     0.016 A 
ATOM     11  C   UNL A   1      39.429  27.934  29.454  1.00  0.00     0.010 A 
ATOM     12  C   UNL A   1      39.567  29.161  27.381  1.00  0.00     0.010 A 
ATOM     13  C   UNL A   1      40.163  28.347  28.338  1.00  0.00    -0.014 A 
BRANCH  13  14
ATOM     14  C   UNL A   1      41.569  27.953  28.271  1.00  0.00     0.031 A 
ATOM     15  C   UNL A   1      41.898  26.677  27.582  1.00  0.00     0.074 A 
ATOM     16  C   UNL A   1      42.570  28.700  28.779  1.00  0.00     0.049 A 
ATOM     17  N   UNL A   1      42.411  25.603  28.089  1.00  0.00    -0.248 NA
ATOM     18  C   UNL A   1      41.571  26.567  26.155  1.00  0.00     0.031 C 
ATOM     19  C   UNL A   1      42.515  30.085  29.254  1.00  0.00     0.029 A 
ATOM     20  N   UNL A   1      43.893  28.380  28.896  1.00  0.00    -0.354 N 
ATOM     21  C   UNL A   1      42.654  24.740  27.022  1.00  0.00     0.074 A 
ATOM     22  C   UNL A   1      42.012  25.339  25.877  1.00  0.00     0.031 C 
ATOM     23  C   UNL A   1      43.773  30.553  29.405  1.00  0.00     0.029 A 
ATOM     24  C   UNL A   1      44.709  29.463  29.187  1.00  0.00     0.049 A 
ATOM     25  H   UNL A   1      44.235  27.464  28.785  1.00  0.00     0.167 HD
ATOM     26  C   UNL A   1      43.496  23.672  27.124  1.00  0.00     0.034 A 
ATOM     27  C   UNL A   1      46.064  29.490  29.201  1.00  0.00     0.034 A 
ATOM     28  C   UNL A   1      43.727  23.305  28.499  1.00  0.00     0.049 A 
ATOM     29  C   UNL A   1      46.540  28.107  29.428  1.00  0.00     0.074 A 
ATOM     30  C   UNL A   1      42.916  22.910  29.546  1.00  0.00     0.029 A 
ATOM     31  N   UNL A   1      44.937  23.612  29.075  1.00  0.00    -0.354 N 
ATOM     32  N   UNL A   1      46.349  27.446  30.537  1.00  0.00    -0.248 NA
ATOM     33  C   UNL A   1      46.895  27.291  28.278  1.00  0.00     0.031 C 
ATOM     34  C   UNL A   1      43.508  23.484  30.710  1.00  0.00     0.029 A 
ATOM     35  C   UNL A   1      44.661  24.158  30.305  1.00  0.00     0.049 A 
ATOM     36  H   UNL A   1      45.828  23.468  28.682  1.00  0.00     0.167 HD
ATOM     37  C   UNL A   1      46.149  26.133  30.145  1.00  0.00     0.074 A 
ATOM     38  C   UNL A   1      46.616  26.079  28.765  1.00  0.00     0.031 C 
ATOM     39  C   UNL A   1      45.376  25.280  30.882  1.00  0.00     0.034 A 
BRANCH  26  40
ATOM     40  C   UNL A   1      44.314  23.092  25.991  1.00  0.00     0.023 A 
ATOM     41  C   UNL A   1      44.193  21.715  25.712  1.00  0.00     0.031 A 
ATOM     42  C   UNL A   1      45.382  23.755  25.348  1.00  0.00     0.131 A 
ATOM     43  C   UNL A   1      45.122  21.057  24.883  1.00  0.00     0.055 A 
ATOM     44  C   UNL A   1      46.261  23.113  24.470  1.00  0.00     0.041 A 
ATOM     45  F   UNL A   1      45.689  25.033  25.606  1.00  0.00    -0.206 F 
ATOM     46  C   UNL A   1      46.150  21.751  24.250  1.00  0.00     0.022 A 
BRANCH  43  47
ATOM     47  S   UNL A   1      45.075  19.246  24.785  1.00  0.00     0.124 S 
ATOM     48  O   UNL A   1      43.898  18.932  25.587  1.00  0.00    -0.237 OA
ATOM     49  O   UNL A   1      44.954  19.026  23.347  1.00  0.00    -0.237 OA
ATOM     50  O   UNL A   1      46.353  18.842  25.371  1.00  0.00    -0.744 OA
ENDBRANCH  43  47
ENDBRANCH  26  40
BRANCH  27  51
ATOM     51  C   UNL A   1      46.918  30.606  28.726  1.00  0.00     0.023 A 
ATOM     52  C   UNL A   1      47.699  31.386  29.597  1.00  0.00     0.031 A 
ATOM     53  C   UNL A   1      47.141  30.774  27.340  1.00  0.00     0.131 A 
ATOM     54  C   UNL A   1      48.643  32.297  29.073  1.00  0.00     0.055 A 
ATOM     55  C   UNL A   1      48.063  31.687  26.828  1.00  0.00     0.041 A 
ATOM     56  F   UNL A   1      46.527  29.996  26.435  1.00  0.00    -0.206 F 
ATOM     57  C   UNL A   1      48.825  32.451  27.695  1.00  0.00     0.022 A 
BRANCH  54  58
ATOM     58  S   UNL A   1      49.735  33.223  30.196  1.00  0.00     0.124 S 
ATOM     59  O   UNL A   1      48.881  33.426  31.360  1.00  0.00    -0.237 OA
ATOM     60  O   UNL A   1      50.858  32.308  30.366  1.00  0.00    -0.237 OA
ATOM     61  O   UNL A   1      50.047  34.438  29.441  1.00  0.00    -0.744 OA
ENDBRANCH  54  58
ENDBRANCH  27  51
BRANCH  39  62
ATOM     62  C   UNL A   1      45.012  25.666  32.301  1.00  0.00     0.023 A 
ATOM     63  C   UNL A   1      43.838  26.364  32.660  1.00  0.00     0.031 A 
ATOM     64  C   UNL A   1      45.826  25.179  33.341  1.00  0.00     0.131 A 
ATOM     65  C   UNL A   1      43.522  26.561  34.018  1.00  0.00     0.055 A 
ATOM     66  C   UNL A   1      45.502  25.363  34.686  1.00  0.00     0.041 A 
ATOM     67  F   UNL A   1      46.936  24.476  33.065  1.00  0.00    -0.206 F 
ATOM     68  C   UNL A   1      44.349  26.061  35.030  1.00  0.00     0.022 A 
BRANCH  65  69
ATOM     69  S   UNL A   1      42.015  27.466  34.490  1.00  0.00     0.124 S 
ATOM     70  O   UNL A   1      41.046  26.407  34.745  1.00  0.00    -0.237 OA
ATOM     71  O   UNL A   1      42.459  28.225  35.658  1.00  0.00    -0.237 OA
ATOM     72  O   UNL A   1      41.727  28.285  33.311  1.00  0.00    -0.744 OA
ENDBRANCH  65  69
ENDBRANCH  39  62
ENDBRANCH  13  14
ENDBRANCH   6   8
ENDBRANCH   5   6
ENDBRANCH   4   5
ENDBRANCH   3   4
ENDBRANCH   2   3
ENDBRANCH   1   2
BRANCH   1  73
ATOM     73  C   UNL A   1      32.452  28.421  24.186  1.00  0.00     0.188 C 
BRANCH  73  74
ATOM     74  O   UNL A   1      31.611  27.278  24.038  1.00  0.00    -0.376 OA
BRANCH  74  75
ATOM     75  C   UNL A   1      32.144  26.061  23.558  1.00  0.00     0.202 C 
BRANCH  75  76
ATOM     76  C   UNL A   1      33.419  25.597  24.260  1.00  0.00     0.261 C 
BRANCH  76  77
ATOM     77  O   UNL A   1      33.644  24.179  24.233  1.00  0.00    -0.460 OA
BRANCH  77  78
ATOM     78  C   UNL A   1      33.787  23.571  25.448  1.00  0.00     0.340 C 
ATOM     79  O   UNL A   1      33.089  23.757  26.422  1.00  0.00    -0.246 OA
BRANCH  78  80
ATOM     80  C   UNL A   1      34.886  22.606  25.448  1.00  0.00     0.095 A 
ATOM     81  C   UNL A   1      34.694  21.277  25.088  1.00  0.00     0.150 A 
ATOM     82  C   UNL A   1      36.272  22.870  25.761  1.00  0.00    -0.007 A 
ATOM     83  S   UNL A   1      36.168  20.419  25.048  1.00  0.00    -0.120 S 
ATOM     84  C   UNL A   1      37.063  21.758  25.546  1.00  0.00     0.064 A 
ATOM     85  C   UNL A   1      36.895  24.123  26.307  1.00  0.00     0.099 C 
ATOM     86  C   UNL A   1      38.551  21.712  25.709  1.00  0.00     0.308 C 
ATOM     87  C   UNL A   1      38.440  24.076  26.234  1.00  0.00     0.265 C 
ATOM     88  N   UNL A   1      39.007  22.770  26.624  1.00  0.00    -0.342 N 
ATOM     89  H   UNL A   1      38.706  22.545  27.573  1.00  0.00     0.346 HD
ATOM     90  H   UNL A   1      40.024  22.827  26.580  1.00  0.00     0.346 HD
BRANCH  81  91
ATOM     91  S   UNL A   1      33.194  20.400  24.648  1.00  0.00     0.253 S 
ATOM     92  O   UNL A   1      32.265  20.729  25.707  1.00  0.00    -0.206 OA
ATOM     93  O   UNL A   1      32.948  20.820  23.284  1.00  0.00    -0.206 OA
BRANCH  91  94
ATOM     94  N   UNL A   1      33.395  18.700  24.638  1.00  0.00    -0.197 NA
ATOM     95  C   UNL A   1      32.772  17.974  25.771  1.00  0.00     0.102 C 
ATOM     96  C   UNL A   1      33.305  18.046  23.306  1.00  0.00     0.102 C 
ATOM     97  C   UNL A   1      33.205  16.513  25.799  1.00  0.00     0.017 C 
ATOM     98  C   UNL A   1      33.709  16.578  23.369  1.00  0.00     0.017 C 
ATOM     99  C   UNL A   1      32.945  15.841  24.458  1.00  0.00     0.003 C 
ENDBRANCH  91  94
ENDBRANCH  81  91
ENDBRANCH  78  80
ENDBRANCH  77  78
ENDBRANCH  76  77
ENDBRANCH  75  76
ENDBRANCH  74  75
ENDBRANCH  73  74
ENDBRANCH   1  73
TORSDOF 22
ENDMDL
MODEL 2
REMARK VINA RESULT:     -10.7      2.396      2.919
REMARK SMILES O=C(OCCOCCOCCOC(=O)c1c(S(=O)(=O)N2CCCCC2)sc2c1CC[NH2+]C2)c1ccc(-c2c3nc(c(-c4cc(S(=O)(=O)[O-])ccc4F)c4ccc([nH]4)c(-c4cc(S(=O)(=O)[O-])ccc4F)c4nc(c(-c5cc(S(=O)(=O)[O-])ccc5F)c5ccc2[nH]5)C=C4)C=C3)cc1
REMARK SMILES IDX 7 1 6 2 5 3 4 4 3 5 2 6 1 7 33 8 34 9 95 10 35 11 94 12
REMARK SMILES IDX 36 13 37 14 38 15 88 16 39 17 93 18 87 19 89 20 40 21 92 22
REMARK SMILES IDX 86 23 85 24 41 26 73 27 53 28 72 29 54 30 57 31 71 32 90 33
REMARK SMILES IDX 55 34 56 35 70 37 91 38 58 39 42 40 43 41 51 42 44 43 50 44
REMARK SMILES IDX 52 45 49 46 45 47 46 48 47 49 48 50 74 51 75 52 83 53 76 54
REMARK SMILES IDX 82 55 84 56 81 57 77 58 78 59 79 60 80 61 59 62 60 63 68 64
REMARK SMILES IDX 61 65 67 66 69 67 66 68 62 69 63 70 64 71 65 72 8 73 9 74
REMARK SMILES IDX 10 75 11 76 12 77 13 78 14 79 15 80 16 81 28 82 26 83 27 84
REMARK SMILES IDX 29 85 32 86 30 87 31 88 17 91 18 92 19 93 20 94 21 95 25 96
REMARK SMILES IDX 22 97 24 98 23 99
REMARK H PARENT 89 25 57 36 31 89 31 90
REMARK Flexibility Score: inf
ROOT
ATOM      1  C   UNL A   1      31.781  30.620  26.037  1.00  0.00     0.188 C 
ENDROOT
BRANCH   1   2
ATOM      2  O   UNL A   1      32.267  29.861  27.138  1.00  0.00    -0.376 OA
BRANCH   2   3
ATOM      3  C   UNL A   1      33.671  29.697  27.212  1.00  0.00     0.202 C 
BRANCH   3   4
ATOM      4  C   UNL A   1      34.404  30.949  27.703  1.00  0.00     0.261 C 
BRANCH   4   5
ATOM      5  O   UNL A   1      35.780  30.741  28.078  1.00  0.00    -0.460 OA
BRANCH   5   6
ATOM      6  C   UNL A   1      36.394  29.973  28.996  1.00  0.00     0.338 C 
ATOM      7  O   UNL A   1      35.934  29.966  30.138  1.00  0.00    -0.246 OA
BRANCH   6   8
ATOM      8  C   UNL A   1      37.676  29.252  28.764  1.00  0.00     0.060 A 
ATOM      9  C   UNL A   1      38.255  28.315  29.616  1.00  0.00     0.016 A 
ATOM     10  C   UNL A   1      38.368  29.602  27.584  1.00  0.00     0.016 A 
ATOM     11  C   UNL A   1      39.531  27.820  29.351  1.00  0.00     0.010 A 
ATOM     12  C   UNL A   1      39.637  29.102  27.310  1.00  0.00     0.010 A 
ATOM     13  C   UNL A   1      40.245  28.256  28.232  1.00  0.00    -0.014 A 
BRANCH  13  14
ATOM     14  C   UNL A   1      41.646  27.852  28.125  1.00  0.00     0.031 A 
ATOM     15  C   UNL A   1      41.946  26.570  27.432  1.00  0.00     0.074 A 
ATOM     16  C   UNL A   1      42.667  28.595  28.598  1.00  0.00     0.049 A 
ATOM     17  N   UNL A   1      42.466  25.495  27.929  1.00  0.00    -0.248 NA
ATOM     18  C   UNL A   1      41.575  26.456  26.016  1.00  0.00     0.031 C 
ATOM     19  C   UNL A   1      42.635  29.983  29.068  1.00  0.00     0.029 A 
ATOM     20  N   UNL A   1      43.990  28.266  28.678  1.00  0.00    -0.354 N 
ATOM     21  C   UNL A   1      42.670  24.626  26.860  1.00  0.00     0.074 A 
ATOM     22  C   UNL A   1      41.998  25.223  25.731  1.00  0.00     0.031 C 
ATOM     23  C   UNL A   1      43.901  30.442  29.179  1.00  0.00     0.029 A 
ATOM     24  C   UNL A   1      44.822  29.344  28.938  1.00  0.00     0.049 A 
ATOM     25  H   UNL A   1      44.323  27.347  28.561  1.00  0.00     0.167 HD
ATOM     26  C   UNL A   1      43.508  23.552  26.942  1.00  0.00     0.034 A 
ATOM     27  C   UNL A   1      46.177  29.362  28.912  1.00  0.00     0.034 A 
ATOM     28  C   UNL A   1      43.778  23.191  28.312  1.00  0.00     0.049 A 
ATOM     29  C   UNL A   1      46.651  27.977  29.132  1.00  0.00     0.074 A 
ATOM     30  C   UNL A   1      42.996  22.806  29.385  1.00  0.00     0.029 A 
ATOM     31  N   UNL A   1      45.006  23.492  28.849  1.00  0.00    -0.354 N 
ATOM     32  N   UNL A   1      46.488  27.323  30.249  1.00  0.00    -0.248 NA
ATOM     33  C   UNL A   1      46.965  27.153  27.976  1.00  0.00     0.031 C 
ATOM     34  C   UNL A   1      43.626  23.381  30.527  1.00  0.00     0.029 A 
ATOM     35  C   UNL A   1      44.771  24.045  30.084  1.00  0.00     0.049 A 
ATOM     36  H   UNL A   1      45.885  23.339  28.431  1.00  0.00     0.167 HD
ATOM     37  C   UNL A   1      46.267  26.009  29.870  1.00  0.00     0.074 A 
ATOM     38  C   UNL A   1      46.693  25.945  28.477  1.00  0.00     0.031 C 
ATOM     39  C   UNL A   1      45.511  25.166  30.634  1.00  0.00     0.034 A 
BRANCH  26  40
ATOM     40  C   UNL A   1      44.287  22.961  25.788  1.00  0.00     0.023 A 
ATOM     41  C   UNL A   1      44.068  21.609  25.452  1.00  0.00     0.031 A 
ATOM     42  C   UNL A   1      45.404  23.571  25.176  1.00  0.00     0.131 A 
ATOM     43  C   UNL A   1      44.951  20.920  24.599  1.00  0.00     0.055 A 
ATOM     44  C   UNL A   1      46.239  22.902  24.274  1.00  0.00     0.041 A 
ATOM     45  F   UNL A   1      45.803  24.811  25.487  1.00  0.00    -0.206 F 
ATOM     46  C   UNL A   1      46.030  21.562  23.998  1.00  0.00     0.022 A 
BRANCH  43  47
ATOM     47  S   UNL A   1      44.773  19.122  24.426  1.00  0.00     0.124 S 
ATOM     48  O   UNL A   1      44.574  18.977  22.988  1.00  0.00    -0.237 OA
ATOM     49  O   UNL A   1      46.046  18.642  24.953  1.00  0.00    -0.237 OA
ATOM     50  O   UNL A   1      43.603  18.818  25.248  1.00  0.00    -0.744 OA
ENDBRANCH  43  47
ENDBRANCH  26  40
BRANCH  27  51
ATOM     51  C   UNL A   1      47.024  30.470  28.406  1.00  0.00     0.023 A 
ATOM     52  C   UNL A   1      46.534  31.465  27.542  1.00  0.00     0.031 A 
ATOM     53  C   UNL A   1      48.306  30.680  28.963  1.00  0.00     0.131 A 
ATOM     54  C   UNL A   1      47.322  32.601  27.255  1.00  0.00     0.055 A 
ATOM     55  C   UNL A   1      49.087  31.796  28.664  1.00  0.00     0.041 A 
ATOM     56  F   UNL A   1      48.811  29.844  29.884  1.00  0.00    -0.206 F 
ATOM     57  C   UNL A   1      48.594  32.768  27.811  1.00  0.00     0.022 A 
BRANCH  54  58
ATOM     58  S   UNL A   1      46.645  33.945  26.231  1.00  0.00     0.124 S 
ATOM     59  O   UNL A   1      46.185  34.896  27.235  1.00  0.00    -0.237 OA
ATOM     60  O   UNL A   1      47.801  34.346  25.438  1.00  0.00    -0.237 OA
ATOM     61  O   UNL A   1      45.580  33.288  25.470  1.00  0.00    -0.744 OA
ENDBRANCH  54  58
ENDBRANCH  27  51
BRANCH  39  62
ATOM     62  C   UNL A   1      45.193  25.561  32.061  1.00  0.00     0.023 A 
ATOM     63  C   UNL A   1      46.006  25.252  33.173  1.00  0.00     0.031 A 
ATOM     64  C   UNL A   1      44.088  26.406  32.276  1.00  0.00     0.131 A 
ATOM     65  C   UNL A   1      45.695  25.777  34.443  1.00  0.00     0.055 A 
ATOM     66  C   UNL A   1      43.791  26.936  33.532  1.00  0.00     0.041 A 
ATOM     67  F   UNL A   1      43.297  26.766  31.252  1.00  0.00    -0.206 F 
ATOM     68  C   UNL A   1      44.592  26.618  34.624  1.00  0.00     0.022 A 
BRANCH  65  69
ATOM     69  S   UNL A   1      46.734  25.378  35.883  1.00  0.00     0.124 S 
ATOM     70  O   UNL A   1      46.104  26.115  36.973  1.00  0.00    -0.237 OA
ATOM     71  O   UNL A   1      46.632  23.922  35.950  1.00  0.00    -0.237 OA
ATOM     72  O   UNL A   1      48.056  25.874  35.497  1.00  0.00    -0.744 OA
ENDBRANCH  65  69
ENDBRANCH  39  62
ENDBRANCH  13  14
ENDBRANCH   6   8
ENDBRANCH   5   6
ENDBRANCH   4   5
ENDBRANCH   3   4
ENDBRANCH   2   3
ENDBRANCH   1   2
BRANCH   1  73
ATOM     73  C   UNL A   1      31.284  29.705  24.902  1.00  0.00     0.188 C 
BRANCH  73  74
ATOM     74  O   UNL A   1      31.731  28.356  24.787  1.00  0.00    -0.376 OA
BRANCH  74  75
ATOM     75  C   UNL A   1      32.579  27.975  23.722  1.00  0.00     0.202 C 
BRANCH  75  76
ATOM     76  C   UNL A   1      33.976  27.521  24.145  1.00  0.00     0.261 C 
BRANCH  76  77
ATOM     77  O   UNL A   1      34.225  26.114  23.998  1.00  0.00    -0.460 OA
BRANCH  77  78
ATOM     78  C   UNL A   1      34.196  25.376  25.148  1.00  0.00     0.340 C 
ATOM     79  O   UNL A   1      33.679  25.710  26.193  1.00  0.00    -0.246 OA
BRANCH  78  80
ATOM     80  C   UNL A   1      34.843  24.076  24.976  1.00  0.00     0.095 A 
ATOM     81  C   UNL A   1      34.232  23.041  24.276  1.00  0.00     0.150 A 
ATOM     82  C   UNL A   1      36.156  23.692  25.442  1.00  0.00    -0.007 A 
ATOM     83  S   UNL A   1      35.269  21.695  24.119  1.00  0.00    -0.120 S 
ATOM     84  C   UNL A   1      36.501  22.429  25.004  1.00  0.00     0.064 A 
ATOM     85  C   UNL A   1      37.101  24.448  26.333  1.00  0.00     0.099 C 
ATOM     86  C   UNL A   1      37.818  21.759  25.253  1.00  0.00     0.308 C 
ATOM     87  C   UNL A   1      38.507  23.804  26.357  1.00  0.00     0.265 C 
ATOM     88  N   UNL A   1      38.476  22.330  26.438  1.00  0.00    -0.342 N 
ATOM     89  H   UNL A   1      37.963  22.051  27.274  1.00  0.00     0.346 HD
ATOM     90  H   UNL A   1      39.435  21.984  26.480  1.00  0.00     0.346 HD
BRANCH  81  91
ATOM     91  S   UNL A   1      32.609  22.950  23.522  1.00  0.00     0.253 S 
ATOM     92  O   UNL A   1      32.694  23.840  22.384  1.00  0.00    -0.206 OA
ATOM     93  O   UNL A   1      32.401  21.529  23.343  1.00  0.00    -0.206 OA
BRANCH  91  94
ATOM     94  N   UNL A   1      31.366  23.530  24.548  1.00  0.00    -0.197 NA
ATOM     95  C   UNL A   1      31.433  23.074  25.957  1.00  0.00     0.102 C 
ATOM     96  C   UNL A   1      30.954  24.942  24.330  1.00  0.00     0.102 C 
ATOM     97  C   UNL A   1      30.168  23.445  26.721  1.00  0.00     0.017 C 
ATOM     98  C   UNL A   1      29.709  25.297  25.132  1.00  0.00     0.017 C 
ATOM     99  C   UNL A   1      29.874  24.934  26.599  1.00  0.00     0.003 C 
ENDBRANCH  91  94
ENDBRANCH  81  91
ENDBRANCH  78  80
ENDBRANCH  77  78
ENDBRANCH  76  77
ENDBRANCH  75  76
ENDBRANCH  74  75
ENDBRANCH  73  74
ENDBRANCH   1  73
TORSDOF 22
ENDMDL
MODEL 3
REMARK VINA RESULT:     -10.5      1.602      2.123
REMARK SMILES O=C(OCCOCCOCCOC(=O)c1c(S(=O)(=O)N2CCCCC2)sc2c1CC[NH2+]C2)c1ccc(-c2c3nc(c(-c4cc(S(=O)(=O)[O-])ccc4F)c4ccc([nH]4)c(-c4cc(S(=O)(=O)[O-])ccc4F)c4nc(c(-c5cc(S(=O)(=O)[O-])ccc5F)c5ccc2[nH]5)C=C4)C=C3)cc1
REMARK SMILES IDX 7 1 6 2 5 3 4 4 3 5 2 6 1 7 33 8 34 9 95 10 35 11 94 12
REMARK SMILES IDX 36 13 37 14 38 15 88 16 39 17 93 18 87 19 89 20 40 21 92 22
REMARK SMILES IDX 86 23 85 24 41 26 73 27 53 28 72 29 54 30 57 31 71 32 90 33
REMARK SMILES IDX 55 34 56 35 70 37 91 38 58 39 42 40 43 41 51 42 44 43 50 44
REMARK SMILES IDX 52 45 49 46 45 47 46 48 47 49 48 50 74 51 75 52 83 53 76 54
REMARK SMILES IDX 82 55 84 56 81 57 77 58 78 59 79 60 80 61 59 62 60 63 68 64
REMARK SMILES IDX 61 65 67 66 69 67 66 68 62 69 63 70 64 71 65 72 8 73 9 74
REMARK SMILES IDX 10 75 11 76 12 77 13 78 14 79 15 80 16 81 28 82 26 83 27 84
REMARK SMILES IDX 29 85 32 86 30 87 31 88 17 91 18 92 19 93 20 94 21 95 25 96
REMARK SMILES IDX 22 97 24 98 23 99
REMARK H PARENT 89 25 57 36 31 89 31 90
REMARK Flexibility Score: inf
ROOT
ATOM      1  C   UNL A   1      31.919  29.929  25.931  1.00  0.00     0.188 C 
ENDROOT
BRANCH   1   2
ATOM      2  O   UNL A   1      32.824  29.091  26.641  1.00  0.00    -0.376 OA
BRANCH   2   3
ATOM      3  C   UNL A   1      34.173  29.518  26.677  1.00  0.00     0.202 C 
BRANCH   3   4
ATOM      4  C   UNL A   1      34.402  30.733  27.581  1.00  0.00     0.261 C 
BRANCH   4   5
ATOM      5  O   UNL A   1      35.689  30.776  28.228  1.00  0.00    -0.460 OA
BRANCH   5   6
ATOM      6  C   UNL A   1      36.294  30.016  29.158  1.00  0.00     0.338 C 
ATOM      7  O   UNL A   1      35.820  30.014  30.294  1.00  0.00    -0.246 OA
BRANCH   6   8
ATOM      8  C   UNL A   1      37.582  29.298  28.947  1.00  0.00     0.060 A 
ATOM      9  C   UNL A   1      38.175  28.401  29.831  1.00  0.00     0.016 A 
ATOM     10  C   UNL A   1      38.263  29.609  27.750  1.00  0.00     0.016 A 
ATOM     11  C   UNL A   1      39.453  27.908  29.578  1.00  0.00     0.010 A 
ATOM     12  C   UNL A   1      39.536  29.110  27.488  1.00  0.00     0.010 A 
ATOM     13  C   UNL A   1      40.157  28.307  28.438  1.00  0.00    -0.014 A 
BRANCH  13  14
ATOM     14  C   UNL A   1      41.561  27.912  28.339  1.00  0.00     0.031 A 
ATOM     15  C   UNL A   1      41.871  26.625  27.660  1.00  0.00     0.074 A 
ATOM     16  C   UNL A   1      42.575  28.667  28.806  1.00  0.00     0.049 A 
ATOM     17  N   UNL A   1      42.399  25.559  28.169  1.00  0.00    -0.248 NA
ATOM     18  C   UNL A   1      41.505  26.493  26.245  1.00  0.00     0.031 C 
ATOM     19  C   UNL A   1      42.532  30.059  29.262  1.00  0.00     0.029 A 
ATOM     20  N   UNL A   1      43.901  28.349  28.892  1.00  0.00    -0.354 N 
ATOM     21  C   UNL A   1      42.612  24.680  27.110  1.00  0.00     0.074 A 
ATOM     22  C   UNL A   1      41.938  25.260  25.974  1.00  0.00     0.031 C 
ATOM     23  C   UNL A   1      43.794  30.529  29.371  1.00  0.00     0.029 A 
ATOM     24  C   UNL A   1      44.724  29.436  29.143  1.00  0.00     0.049 A 
ATOM     25  H   UNL A   1      44.241  27.431  28.786  1.00  0.00     0.167 HD
ATOM     26  C   UNL A   1      43.457  23.613  27.205  1.00  0.00     0.034 A 
ATOM     27  C   UNL A   1      46.079  29.463  29.119  1.00  0.00     0.034 A 
ATOM     28  C   UNL A   1      43.726  23.268  28.579  1.00  0.00     0.049 A 
ATOM     29  C   UNL A   1      46.562  28.084  29.355  1.00  0.00     0.074 A 
ATOM     30  C   UNL A   1      42.945  22.889  29.655  1.00  0.00     0.029 A 
ATOM     31  N   UNL A   1      44.951  23.584  29.116  1.00  0.00    -0.354 N 
ATOM     32  N   UNL A   1      46.402  27.440  30.478  1.00  0.00    -0.248 NA
ATOM     33  C   UNL A   1      46.885  27.249  28.208  1.00  0.00     0.031 C 
ATOM     34  C   UNL A   1      43.568  23.481  30.792  1.00  0.00     0.029 A 
ATOM     35  C   UNL A   1      44.709  24.149  30.345  1.00  0.00     0.049 A 
ATOM     36  H   UNL A   1      45.832  23.433  28.701  1.00  0.00     0.167 HD
ATOM     37  C   UNL A   1      46.191  26.121  30.113  1.00  0.00     0.074 A 
ATOM     38  C   UNL A   1      46.621  26.046  28.721  1.00  0.00     0.031 C 
ATOM     39  C   UNL A   1      45.440  25.280  30.884  1.00  0.00     0.034 A 
BRANCH  26  40
ATOM     40  C   UNL A   1      44.243  23.016  26.059  1.00  0.00     0.023 A 
ATOM     41  C   UNL A   1      43.967  21.687  25.676  1.00  0.00     0.031 A 
ATOM     42  C   UNL A   1      45.409  23.584  25.501  1.00  0.00     0.131 A 
ATOM     43  C   UNL A   1      44.842  20.977  24.831  1.00  0.00     0.055 A 
ATOM     44  C   UNL A   1      46.238  22.899  24.607  1.00  0.00     0.041 A 
ATOM     45  F   UNL A   1      45.860  24.793  25.862  1.00  0.00    -0.206 F 
ATOM     46  C   UNL A   1      45.971  21.580  24.284  1.00  0.00     0.022 A 
BRANCH  43  47
ATOM     47  S   UNL A   1      44.578  19.197  24.598  1.00  0.00     0.124 S 
ATOM     48  O   UNL A   1      43.140  19.076  24.808  1.00  0.00    -0.237 OA
ATOM     49  O   UNL A   1      45.049  19.000  23.231  1.00  0.00    -0.237 OA
ATOM     50  O   UNL A   1      45.411  18.594  25.637  1.00  0.00    -0.744 OA
ENDBRANCH  43  47
ENDBRANCH  26  40
BRANCH  27  51
ATOM     51  C   UNL A   1      46.919  30.571  28.604  1.00  0.00     0.023 A 
ATOM     52  C   UNL A   1      48.079  31.013  29.263  1.00  0.00     0.031 A 
ATOM     53  C   UNL A   1      46.692  31.073  27.301  1.00  0.00     0.131 A 
ATOM     54  C   UNL A   1      48.947  31.928  28.628  1.00  0.00     0.055 A 
ATOM     55  C   UNL A   1      47.544  31.989  26.684  1.00  0.00     0.041 A 
ATOM     56  F   UNL A   1      45.675  30.624  26.549  1.00  0.00    -0.206 F 
ATOM     57  C   UNL A   1      48.683  32.417  27.345  1.00  0.00     0.022 A 
BRANCH  54  58
ATOM     58  S   UNL A   1      50.507  32.413  29.430  1.00  0.00     0.124 S 
ATOM     59  O   UNL A   1      51.428  31.385  28.960  1.00  0.00    -0.237 OA
ATOM     60  O   UNL A   1      50.719  33.760  28.915  1.00  0.00    -0.237 OA
ATOM     61  O   UNL A   1      50.188  32.348  30.858  1.00  0.00    -0.744 OA
ENDBRANCH  54  58
ENDBRANCH  27  51
BRANCH  39  62
ATOM     62  C   UNL A   1      45.115  25.688  32.306  1.00  0.00     0.023 A 
ATOM     63  C   UNL A   1      43.939  26.368  32.691  1.00  0.00     0.031 A 
ATOM     64  C   UNL A   1      45.974  25.241  33.328  1.00  0.00     0.131 A 
ATOM     65  C   UNL A   1      43.664  26.587  34.055  1.00  0.00     0.055 A 
ATOM     66  C   UNL A   1      45.691  25.446  34.679  1.00  0.00     0.041 A 
ATOM     67  F   UNL A   1      47.090  24.556  33.029  1.00  0.00    -0.206 F 
ATOM     68  C   UNL A   1      44.535  26.126  35.048  1.00  0.00     0.022 A 
BRANCH  65  69
ATOM     69  S   UNL A   1      42.154  27.469  34.560  1.00  0.00     0.124 S 
ATOM     70  O   UNL A   1      42.588  28.262  35.704  1.00  0.00    -0.237 OA
ATOM     71  O   UNL A   1      41.811  28.218  33.353  1.00  0.00    -0.237 OA
ATOM     72  O   UNL A   1      41.222  26.388  34.886  1.00  0.00    -0.744 OA
ENDBRANCH  65  69
ENDBRANCH  39  62
ENDBRANCH  13  14
ENDBRANCH   6   8
ENDBRANCH   5   6
ENDBRANCH   4   5
ENDBRANCH   3   4
ENDBRANCH   2   3
ENDBRANCH   1   2
BRANCH   1  73
ATOM     73  C   UNL A   1      31.464  29.272  24.614  1.00  0.00     0.188 C 
BRANCH  73  74
ATOM     74  O   UNL A   1      31.718  27.895  24.344  1.00  0.00    -0.376 OA
BRANCH  74  75
ATOM     75  C   UNL A   1      32.658  27.524  23.356  1.00  0.00     0.202 C 
BRANCH  75  76
ATOM     76  C   UNL A   1      34.013  27.071  23.898  1.00  0.00     0.261 C 
BRANCH  76  77
ATOM     77  O   UNL A   1      34.227  25.652  23.885  1.00  0.00    -0.460 OA
BRANCH  77  78
ATOM     78  C   UNL A   1      34.268  25.039  25.106  1.00  0.00     0.340 C 
ATOM     79  O   UNL A   1      33.750  25.449  26.124  1.00  0.00    -0.246 OA
BRANCH  78  80
ATOM     80  C   UNL A   1      34.994  23.772  25.055  1.00  0.00     0.095 A 
ATOM     81  C   UNL A   1      34.448  22.637  24.464  1.00  0.00     0.150 A 
ATOM     82  C   UNL A   1      36.331  23.517  25.542  1.00  0.00    -0.007 A 
ATOM     83  S   UNL A   1      35.566  21.349  24.428  1.00  0.00    -0.120 S 
ATOM     84  C   UNL A   1      36.753  22.241  25.225  1.00  0.00     0.064 A 
ATOM     85  C   UNL A   1      37.229  24.413  26.347  1.00  0.00     0.099 C 
ATOM     86  C   UNL A   1      38.110  21.681  25.525  1.00  0.00     0.308 C 
ATOM     87  C   UNL A   1      38.673  23.863  26.419  1.00  0.00     0.265 C 
ATOM     88  N   UNL A   1      38.736  22.405  26.643  1.00  0.00    -0.342 N 
ATOM     89  H   UNL A   1      38.244  22.178  27.507  1.00  0.00     0.346 HD
ATOM     90  H   UNL A   1      39.714  22.125  26.708  1.00  0.00     0.346 HD
BRANCH  81  91
ATOM     91  S   UNL A   1      32.830  22.373  23.739  1.00  0.00     0.253 S 
ATOM     92  O   UNL A   1      32.894  23.059  22.466  1.00  0.00    -0.206 OA
ATOM     93  O   UNL A   1      32.664  20.936  23.803  1.00  0.00    -0.206 OA
BRANCH  91  94
ATOM     94  N   UNL A   1      31.567  23.082  24.652  1.00  0.00    -0.197 NA
ATOM     95  C   UNL A   1      31.604  22.815  26.111  1.00  0.00     0.102 C 
ATOM     96  C   UNL A   1      31.163  24.453  24.242  1.00  0.00     0.102 C 
ATOM     97  C   UNL A   1      30.323  23.283  26.792  1.00  0.00     0.017 C 
ATOM     98  C   UNL A   1      29.902  24.909  24.964  1.00  0.00     0.017 C 
ATOM     99  C   UNL A   1      30.036  24.743  26.470  1.00  0.00     0.003 C 
ENDBRANCH  91  94
ENDBRANCH  81  91
ENDBRANCH  78  80
ENDBRANCH  77  78
ENDBRANCH  76  77
ENDBRANCH  75  76
ENDBRANCH  74  75
ENDBRANCH  73  74
ENDBRANCH   1  73
TORSDOF 22
ENDMDL
