MODEL 1
REMARK VINA RESULT:      -9.9      0.000      0.000
REMARK SMILES Cc1cs/c(=N\S(=O)(=O)c2ccc(/C=C/C(=O)OCCOCCOCCOC(=O)c3ccc(-c4c5nc(c(-c6cc(S(=O)(=O)[O-])ccc6F)c6ccc([nH]6)c(-c6cc(S(=O)(=O)[O-])ccc6F)c6nc(c(-c7cc(S(=O)(=O)[O-])ccc7F)c7ccc4[nH]7)C=C6)C=C5)cc3)cc2)[nH]1
REMARK SMILES IDX 22 1 21 2 20 3 19 4 18 5 16 6 17 7 15 8 14 9 13 10 10 11
REMARK SMILES IDX 11 12 94 13 12 14 93 15 7 16 8 17 9 18 6 19 1 20 2 21 3 22
REMARK SMILES IDX 95 23 4 24 5 25 23 27 24 28 25 29 26 30 27 31 28 32 29 33
REMARK SMILES IDX 30 34 31 35 92 36 32 37 91 38 33 39 34 40 35 41 85 42 36 43
REMARK SMILES IDX 90 44 84 45 86 46 37 47 89 48 83 49 82 50 38 52 70 53 50 54
REMARK SMILES IDX 69 55 51 56 54 57 68 58 87 59 52 60 53 61 67 63 88 64 55 65
REMARK SMILES IDX 39 66 40 67 48 68 41 69 47 70 49 71 46 72 42 73 43 74 44 75
REMARK SMILES IDX 45 76 71 77 72 78 80 79 73 80 79 81 81 82 78 83 74 84 75 85
REMARK SMILES IDX 76 86 77 87 56 88 57 89 65 90 58 91 64 92 66 93 63 94 59 95
REMARK SMILES IDX 60 96 61 97 62 98
REMARK H PARENT 95 26 86 51 54 62
REMARK Flexibility Score: inf
ROOT
ATOM      1  C   UNL A   1      36.024  21.881  25.900  1.00  0.00     0.188 C 
ENDROOT
BRANCH   1   2
ATOM      2  O   UNL A   1      35.080  22.846  25.457  1.00  0.00    -0.376 OA
BRANCH   2   3
ATOM      3  C   UNL A   1      33.816  22.952  26.093  1.00  0.00     0.202 C 
BRANCH   3   4
ATOM      4  C   UNL A   1      32.560  23.432  25.341  1.00  0.00     0.261 C 
BRANCH   4   5
ATOM      5  O   UNL A   1      32.189  24.806  25.531  1.00  0.00    -0.460 OA
BRANCH   5   6
ATOM      6  C   UNL A   1      32.589  25.651  24.550  1.00  0.00     0.330 C 
ATOM      7  O   UNL A   1      32.627  25.400  23.354  1.00  0.00    -0.247 OA
BRANCH   6   8
ATOM      8  C   UNL A   1      32.900  27.007  25.049  1.00  0.00     0.094 C 
ATOM      9  C   UNL A   1      32.740  27.459  26.304  1.00  0.00     0.015 C 
BRANCH   9  10
ATOM     10  C   UNL A   1      33.140  28.820  26.711  1.00  0.00    -0.025 A 
ATOM     11  C   UNL A   1      33.796  31.372  27.683  1.00  0.00     0.089 A 
ATOM     12  C   UNL A   1      34.801  30.422  27.490  1.00  0.00     0.023 A 
ATOM     13  C   UNL A   1      32.477  31.086  27.328  1.00  0.00     0.023 A 
ATOM     14  C   UNL A   1      34.473  29.156  26.997  1.00  0.00     0.009 A 
ATOM     15  C   UNL A   1      32.156  29.814  26.836  1.00  0.00     0.009 A 
BRANCH  11  16
ATOM     16  S   UNL A   1      34.248  32.925  28.444  1.00  0.00     0.285 S 
ATOM     17  O   UNL A   1      34.092  32.725  29.862  1.00  0.00    -0.199 OA
ATOM     18  O   UNL A   1      33.478  33.927  27.719  1.00  0.00    -0.199 OA
BRANCH  16  19
ATOM     19  N   UNL A   1      35.817  33.128  28.102  1.00  0.00    -0.130 NA
ATOM     20  C   UNL A   1      40.199  34.283  29.826  1.00  0.00     0.065 C 
ATOM     21  C   UNL A   1      38.729  34.066  29.933  1.00  0.00     0.024 A 
ATOM     22  C   UNL A   1      37.994  34.197  31.050  1.00  0.00     0.089 A 
ATOM     23  N   UNL A   1      37.983  33.687  28.835  1.00  0.00    -0.334 N 
ATOM     24  S   UNL A   1      36.306  33.845  30.748  1.00  0.00    -0.104 S 
ATOM     25  C   UNL A   1      36.635  33.493  29.028  1.00  0.00     0.199 A 
ATOM     26  H   UNL A   1      38.398  33.561  27.950  1.00  0.00     0.169 HD
ENDBRANCH  16  19
ENDBRANCH  11  16
ENDBRANCH   9  10
ENDBRANCH   6   8
ENDBRANCH   5   6
ENDBRANCH   4   5
ENDBRANCH   3   4
ENDBRANCH   2   3
ENDBRANCH   1   2
BRANCH   1  27
ATOM     27  C   UNL A   1      37.162  21.439  24.958  1.00  0.00     0.188 C 
BRANCH  27  28
ATOM     28  O   UNL A   1      37.442  20.058  24.983  1.00  0.00    -0.376 OA
BRANCH  28  29
ATOM     29  C   UNL A   1      38.776  19.617  25.167  1.00  0.00     0.202 C 
BRANCH  29  30
ATOM     30  C   UNL A   1      39.856  20.340  26.001  1.00  0.00     0.261 C 
BRANCH  30  31
ATOM     31  O   UNL A   1      40.988  19.598  26.461  1.00  0.00    -0.460 OA
BRANCH  31  32
ATOM     32  C   UNL A   1      42.180  19.908  25.894  1.00  0.00     0.338 C 
ATOM     33  O   UNL A   1      42.816  19.228  25.113  1.00  0.00    -0.246 OA
BRANCH  32  34
ATOM     34  C   UNL A   1      42.507  21.303  26.249  1.00  0.00     0.060 A 
ATOM     35  C   UNL A   1      42.790  22.215  25.224  1.00  0.00     0.016 A 
ATOM     36  C   UNL A   1      42.551  21.703  27.586  1.00  0.00     0.016 A 
ATOM     37  C   UNL A   1      43.133  23.531  25.536  1.00  0.00     0.010 A 
ATOM     38  C   UNL A   1      42.915  23.018  27.897  1.00  0.00     0.010 A 
ATOM     39  C   UNL A   1      43.228  23.933  26.876  1.00  0.00    -0.014 A 
BRANCH  39  40
ATOM     40  C   UNL A   1      43.806  25.260  27.213  1.00  0.00     0.031 A 
ATOM     41  C   UNL A   1      42.912  26.301  27.828  1.00  0.00     0.074 A 
ATOM     42  C   UNL A   1      45.106  25.528  26.993  1.00  0.00     0.049 A 
ATOM     43  N   UNL A   1      43.174  27.543  28.143  1.00  0.00    -0.248 NA
ATOM     44  C   UNL A   1      41.532  25.883  28.119  1.00  0.00     0.031 C 
ATOM     45  C   UNL A   1      46.083  24.585  26.451  1.00  0.00     0.029 A 
ATOM     46  N   UNL A   1      45.826  26.680  27.193  1.00  0.00    -0.354 N 
ATOM     47  C   UNL A   1      41.993  28.058  28.666  1.00  0.00     0.074 A 
ATOM     48  C   UNL A   1      41.004  27.003  28.586  1.00  0.00     0.031 C 
ATOM     49  C   UNL A   1      47.274  25.201  26.352  1.00  0.00     0.029 A 
ATOM     50  C   UNL A   1      47.136  26.592  26.778  1.00  0.00     0.049 A 
ATOM     51  H   UNL A   1      45.442  27.493  27.594  1.00  0.00     0.167 HD
ATOM     52  C   UNL A   1      41.758  29.295  29.171  1.00  0.00     0.034 A 
ATOM     53  C   UNL A   1      48.100  27.534  26.721  1.00  0.00     0.034 A 
ATOM     54  C   UNL A   1      42.750  30.340  29.227  1.00  0.00     0.049 A 
ATOM     55  C   UNL A   1      47.786  28.936  27.194  1.00  0.00     0.074 A 
ATOM     56  C   UNL A   1      42.622  31.623  29.730  1.00  0.00     0.029 A 
ATOM     57  N   UNL A   1      44.050  30.231  28.750  1.00  0.00    -0.354 N 
ATOM     58  N   UNL A   1      46.666  29.412  27.691  1.00  0.00    -0.248 NA
ATOM     59  C   UNL A   1      48.867  29.926  27.102  1.00  0.00     0.031 C 
ATOM     60  C   UNL A   1      43.812  32.314  29.479  1.00  0.00     0.029 A 
ATOM     61  C   UNL A   1      44.720  31.437  28.909  1.00  0.00     0.049 A 
ATOM     62  H   UNL A   1      44.441  29.417  28.357  1.00  0.00     0.167 HD
ATOM     63  C   UNL A   1      46.925  30.745  28.005  1.00  0.00     0.074 A 
ATOM     64  C   UNL A   1      48.307  30.992  27.652  1.00  0.00     0.031 C 
ATOM     65  C   UNL A   1      46.097  31.678  28.543  1.00  0.00     0.034 A 
BRANCH  52  66
ATOM     66  C   UNL A   1      40.355  29.595  29.646  1.00  0.00     0.023 A 
ATOM     67  C   UNL A   1      40.023  29.631  31.012  1.00  0.00     0.031 A 
ATOM     68  C   UNL A   1      39.327  29.824  28.715  1.00  0.00     0.131 A 
ATOM     69  C   UNL A   1      38.689  29.816  31.405  1.00  0.00     0.055 A 
ATOM     70  C   UNL A   1      38.016  30.093  29.115  1.00  0.00     0.041 A 
ATOM     71  F   UNL A   1      39.575  29.776  27.396  1.00  0.00    -0.206 F 
ATOM     72  C   UNL A   1      37.688  30.075  30.466  1.00  0.00     0.022 A 
BRANCH  69  73
ATOM     73  S   UNL A   1      38.254  29.564  33.148  1.00  0.00     0.124 S 
ATOM     74  O   UNL A   1      39.528  29.121  33.709  1.00  0.00    -0.237 OA
ATOM     75  O   UNL A   1      37.802  30.889  33.555  1.00  0.00    -0.237 OA
ATOM     76  O   UNL A   1      37.215  28.538  33.096  1.00  0.00    -0.744 OA
ENDBRANCH  69  73
ENDBRANCH  52  66
BRANCH  53  77
ATOM     77  C   UNL A   1      49.443  27.212  26.155  1.00  0.00     0.023 A 
ATOM     78  C   UNL A   1      50.534  26.917  26.988  1.00  0.00     0.031 A 
ATOM     79  C   UNL A   1      49.671  27.260  24.767  1.00  0.00     0.131 A 
ATOM     80  C   UNL A   1      51.810  26.731  26.431  1.00  0.00     0.055 A 
ATOM     81  C   UNL A   1      50.928  27.014  24.214  1.00  0.00     0.041 A 
ATOM     82  F   UNL A   1      48.667  27.547  23.923  1.00  0.00    -0.206 F 
ATOM     83  C   UNL A   1      52.012  26.761  25.050  1.00  0.00     0.022 A 
BRANCH  80  84
ATOM     84  S   UNL A   1      53.228  26.551  27.550  1.00  0.00     0.124 S 
ATOM     85  O   UNL A   1      52.570  26.252  28.816  1.00  0.00    -0.237 OA
ATOM     86  O   UNL A   1      53.963  25.451  26.933  1.00  0.00    -0.237 OA
ATOM     87  O   UNL A   1      53.884  27.854  27.479  1.00  0.00    -0.744 OA
ENDBRANCH  80  84
ENDBRANCH  53  77
BRANCH  65  88
ATOM     88  C   UNL A   1      46.684  33.041  28.834  1.00  0.00     0.023 A 
ATOM     89  C   UNL A   1      46.759  34.046  27.854  1.00  0.00     0.031 A 
ATOM     90  C   UNL A   1      47.182  33.335  30.117  1.00  0.00     0.131 A 
ATOM     91  C   UNL A   1      47.371  35.273  28.155  1.00  0.00     0.055 A 
ATOM     92  C   UNL A   1      47.727  34.582  30.430  1.00  0.00     0.041 A 
ATOM     93  F   UNL A   1      47.141  32.414  31.094  1.00  0.00    -0.206 F 
ATOM     94  C   UNL A   1      47.836  35.554  29.441  1.00  0.00     0.022 A 
BRANCH  91  95
ATOM     95  S   UNL A   1      47.643  36.465  26.813  1.00  0.00     0.124 S 
ATOM     96  O   UNL A   1      48.939  37.032  27.170  1.00  0.00    -0.237 OA
ATOM     97  O   UNL A   1      47.625  35.613  25.629  1.00  0.00    -0.237 OA
ATOM     98  O   UNL A   1      46.512  37.382  26.934  1.00  0.00    -0.744 OA
ENDBRANCH  91  95
ENDBRANCH  65  88
ENDBRANCH  39  40
ENDBRANCH  32  34
ENDBRANCH  31  32
ENDBRANCH  30  31
ENDBRANCH  29  30
ENDBRANCH  28  29
ENDBRANCH  27  28
ENDBRANCH   1  27
TORSDOF 23
ENDMDL
MODEL 2
REMARK VINA RESULT:      -9.9      2.198      2.597
REMARK SMILES Cc1cs/c(=N\S(=O)(=O)c2ccc(/C=C/C(=O)OCCOCCOCCOC(=O)c3ccc(-c4c5nc(c(-c6cc(S(=O)(=O)[O-])ccc6F)c6ccc([nH]6)c(-c6cc(S(=O)(=O)[O-])ccc6F)c6nc(c(-c7cc(S(=O)(=O)[O-])ccc7F)c7ccc4[nH]7)C=C6)C=C5)cc3)cc2)[nH]1
REMARK SMILES IDX 22 1 21 2 20 3 19 4 18 5 16 6 17 7 15 8 14 9 13 10 10 11
REMARK SMILES IDX 11 12 94 13 12 14 93 15 7 16 8 17 9 18 6 19 1 20 2 21 3 22
REMARK SMILES IDX 95 23 4 24 5 25 23 27 24 28 25 29 26 30 27 31 28 32 29 33
REMARK SMILES IDX 30 34 31 35 92 36 32 37 91 38 33 39 34 40 35 41 85 42 36 43
REMARK SMILES IDX 90 44 84 45 86 46 37 47 89 48 83 49 82 50 38 52 70 53 50 54
REMARK SMILES IDX 69 55 51 56 54 57 68 58 87 59 52 60 53 61 67 63 88 64 55 65
REMARK SMILES IDX 39 66 40 67 48 68 41 69 47 70 49 71 46 72 42 73 43 74 44 75
REMARK SMILES IDX 45 76 71 77 72 78 80 79 73 80 79 81 81 82 78 83 74 84 75 85
REMARK SMILES IDX 76 86 77 87 56 88 57 89 65 90 58 91 64 92 66 93 63 94 59 95
REMARK SMILES IDX 60 96 61 97 62 98
REMARK H PARENT 95 26 86 51 54 62
REMARK Flexibility Score: inf
ROOT
ATOM      1  C   UNL A   1      35.840  21.963  26.166  1.00  0.00     0.188 C 
ENDROOT
BRANCH   1   2
ATOM      2  O   UNL A   1      34.802  22.894  25.901  1.00  0.00    -0.376 OA
BRANCH   2   3
ATOM      3  C   UNL A   1      33.699  23.006  26.787  1.00  0.00     0.202 C 
BRANCH   3   4
ATOM      4  C   UNL A   1      32.293  23.401  26.298  1.00  0.00     0.261 C 
BRANCH   4   5
ATOM      5  O   UNL A   1      31.925  24.779  26.461  1.00  0.00    -0.460 OA
BRANCH   5   6
ATOM      6  C   UNL A   1      32.057  25.545  25.351  1.00  0.00     0.330 C 
ATOM      7  O   UNL A   1      31.738  25.227  24.214  1.00  0.00    -0.247 OA
BRANCH   6   8
ATOM      8  C   UNL A   1      32.550  26.907  25.645  1.00  0.00     0.094 C 
ATOM      9  C   UNL A   1      32.650  27.482  26.855  1.00  0.00     0.015 C 
BRANCH   9  10
ATOM     10  C   UNL A   1      33.215  28.832  27.044  1.00  0.00    -0.025 A 
ATOM     11  C   UNL A   1      34.186  31.408  27.605  1.00  0.00     0.089 A 
ATOM     12  C   UNL A   1      35.069  30.328  27.554  1.00  0.00     0.023 A 
ATOM     13  C   UNL A   1      32.834  31.229  27.307  1.00  0.00     0.023 A 
ATOM     14  C   UNL A   1      34.584  29.049  27.265  1.00  0.00     0.009 A 
ATOM     15  C   UNL A   1      32.355  29.943  27.020  1.00  0.00     0.009 A 
BRANCH  11  16
ATOM     16  S   UNL A   1      34.833  32.994  28.113  1.00  0.00     0.285 S 
ATOM     17  O   UNL A   1      34.203  33.966  27.255  1.00  0.00    -0.199 OA
ATOM     18  O   UNL A   1      36.277  32.811  28.138  1.00  0.00    -0.199 OA
BRANCH  16  19
ATOM     19  N   UNL A   1      34.310  33.203  29.630  1.00  0.00    -0.130 NA
ATOM     20  C   UNL A   1      32.271  36.247  32.806  1.00  0.00     0.065 C 
ATOM     21  C   UNL A   1      32.822  35.868  31.475  1.00  0.00     0.024 A 
ATOM     22  C   UNL A   1      32.874  36.658  30.390  1.00  0.00     0.089 A 
ATOM     23  N   UNL A   1      33.338  34.606  31.252  1.00  0.00    -0.334 N 
ATOM     24  S   UNL A   1      33.591  35.825  29.028  1.00  0.00    -0.104 S 
ATOM     25  C   UNL A   1      33.812  34.336  29.989  1.00  0.00     0.199 A 
ATOM     26  H   UNL A   1      33.367  33.929  31.967  1.00  0.00     0.169 HD
ENDBRANCH  16  19
ENDBRANCH  11  16
ENDBRANCH   9  10
ENDBRANCH   6   8
ENDBRANCH   5   6
ENDBRANCH   4   5
ENDBRANCH   3   4
ENDBRANCH   2   3
ENDBRANCH   1   2
BRANCH   1  27
ATOM     27  C   UNL A   1      36.793  21.537  25.030  1.00  0.00     0.188 C 
BRANCH  27  28
ATOM     28  O   UNL A   1      37.064  20.155  24.978  1.00  0.00    -0.376 OA
BRANCH  28  29
ATOM     29  C   UNL A   1      38.406  19.703  25.031  1.00  0.00     0.202 C 
BRANCH  29  30
ATOM     30  C   UNL A   1      39.559  20.393  25.791  1.00  0.00     0.261 C 
BRANCH  30  31
ATOM     31  O   UNL A   1      40.607  19.588  26.338  1.00  0.00    -0.460 OA
BRANCH  31  32
ATOM     32  C   UNL A   1      41.859  19.845  25.886  1.00  0.00     0.338 C 
ATOM     33  O   UNL A   1      42.539  19.133  25.173  1.00  0.00    -0.246 OA
BRANCH  32  34
ATOM     34  C   UNL A   1      42.208  21.230  26.263  1.00  0.00     0.060 A 
ATOM     35  C   UNL A   1      42.333  22.196  25.256  1.00  0.00     0.016 A 
ATOM     36  C   UNL A   1      42.426  21.567  27.601  1.00  0.00     0.016 A 
ATOM     37  C   UNL A   1      42.693  23.504  25.585  1.00  0.00     0.010 A 
ATOM     38  C   UNL A   1      42.805  22.874  27.924  1.00  0.00     0.010 A 
ATOM     39  C   UNL A   1      42.962  23.844  26.918  1.00  0.00    -0.014 A 
BRANCH  39  40
ATOM     40  C   UNL A   1      43.557  25.166  27.240  1.00  0.00     0.031 A 
ATOM     41  C   UNL A   1      42.683  26.218  27.867  1.00  0.00     0.074 A 
ATOM     42  C   UNL A   1      44.855  25.422  26.996  1.00  0.00     0.049 A 
ATOM     43  N   UNL A   1      42.961  27.458  28.173  1.00  0.00    -0.248 NA
ATOM     44  C   UNL A   1      41.305  25.813  28.184  1.00  0.00     0.031 C 
ATOM     45  C   UNL A   1      45.814  24.469  26.439  1.00  0.00     0.029 A 
ATOM     46  N   UNL A   1      45.589  26.569  27.178  1.00  0.00    -0.354 N 
ATOM     47  C   UNL A   1      41.794  27.985  28.715  1.00  0.00     0.074 A 
ATOM     48  C   UNL A   1      40.795  26.939  28.657  1.00  0.00     0.031 C 
ATOM     49  C   UNL A   1      47.008  25.074  26.317  1.00  0.00     0.029 A 
ATOM     50  C   UNL A   1      46.890  26.468  26.741  1.00  0.00     0.049 A 
ATOM     51  H   UNL A   1      45.219  27.387  27.583  1.00  0.00     0.167 HD
ATOM     52  C   UNL A   1      41.579  29.226  29.220  1.00  0.00     0.034 A 
ATOM     53  C   UNL A   1      47.860  27.401  26.663  1.00  0.00     0.034 A 
ATOM     54  C   UNL A   1      42.581  30.263  29.254  1.00  0.00     0.049 A 
ATOM     55  C   UNL A   1      47.568  28.807  27.136  1.00  0.00     0.074 A 
ATOM     56  C   UNL A   1      42.473  31.549  29.754  1.00  0.00     0.029 A 
ATOM     57  N   UNL A   1      43.872  30.141  28.754  1.00  0.00    -0.354 N 
ATOM     58  N   UNL A   1      46.461  29.295  27.652  1.00  0.00    -0.248 NA
ATOM     59  C   UNL A   1      48.655  29.788  27.022  1.00  0.00     0.031 C 
ATOM     60  C   UNL A   1      43.665  32.228  29.481  1.00  0.00     0.029 A 
ATOM     61  C   UNL A   1      44.554  31.341  28.897  1.00  0.00     0.049 A 
ATOM     62  H   UNL A   1      44.248  29.322  28.357  1.00  0.00     0.167 HD
ATOM     63  C   UNL A   1      46.737  30.627  27.957  1.00  0.00     0.074 A 
ATOM     64  C   UNL A   1      48.115  30.861  27.578  1.00  0.00     0.031 C 
ATOM     65  C   UNL A   1      45.927  31.569  28.506  1.00  0.00     0.034 A 
BRANCH  52  66
ATOM     66  C   UNL A   1      40.187  29.540  29.718  1.00  0.00     0.023 A 
ATOM     67  C   UNL A   1      39.885  29.601  31.090  1.00  0.00     0.031 A 
ATOM     68  C   UNL A   1      39.141  29.756  28.805  1.00  0.00     0.131 A 
ATOM     69  C   UNL A   1      38.560  29.799  31.507  1.00  0.00     0.055 A 
ATOM     70  C   UNL A   1      37.839  30.038  29.227  1.00  0.00     0.041 A 
ATOM     71  F   UNL A   1      39.361  29.685  27.482  1.00  0.00    -0.206 F 
ATOM     72  C   UNL A   1      37.540  30.045  30.586  1.00  0.00     0.022 A 
BRANCH  69  73
ATOM     73  S   UNL A   1      38.161  29.579  33.263  1.00  0.00     0.124 S 
ATOM     74  O   UNL A   1      37.438  30.814  33.559  1.00  0.00    -0.237 OA
ATOM     75  O   UNL A   1      37.365  28.358  33.256  1.00  0.00    -0.237 OA
ATOM     76  O   UNL A   1      39.471  29.466  33.900  1.00  0.00    -0.744 OA
ENDBRANCH  69  73
ENDBRANCH  52  66
BRANCH  53  77
ATOM     77  C   UNL A   1      49.191  27.066  26.074  1.00  0.00     0.023 A 
ATOM     78  C   UNL A   1      49.558  27.518  24.797  1.00  0.00     0.031 A 
ATOM     79  C   UNL A   1      50.091  26.228  26.758  1.00  0.00     0.131 A 
ATOM     80  C   UNL A   1      50.767  27.092  24.223  1.00  0.00     0.055 A 
ATOM     81  C   UNL A   1      51.320  25.856  26.209  1.00  0.00     0.041 A 
ATOM     82  F   UNL A   1      49.789  25.757  27.978  1.00  0.00    -0.206 F 
ATOM     83  C   UNL A   1      51.657  26.278  24.927  1.00  0.00     0.022 A 
BRANCH  80  84
ATOM     84  S   UNL A   1      51.114  27.534  22.498  1.00  0.00     0.124 S 
ATOM     85  O   UNL A   1      51.546  28.921  22.629  1.00  0.00    -0.237 OA
ATOM     86  O   UNL A   1      52.149  26.570  22.140  1.00  0.00    -0.237 OA
ATOM     87  O   UNL A   1      49.827  27.341  21.832  1.00  0.00    -0.744 OA
ENDBRANCH  80  84
ENDBRANCH  53  77
BRANCH  65  88
ATOM     88  C   UNL A   1      46.531  32.927  28.781  1.00  0.00     0.023 A 
ATOM     89  C   UNL A   1      47.149  33.236  30.006  1.00  0.00     0.031 A 
ATOM     90  C   UNL A   1      46.481  33.934  27.799  1.00  0.00     0.131 A 
ATOM     91  C   UNL A   1      47.638  34.532  30.237  1.00  0.00     0.055 A 
ATOM     92  C   UNL A   1      47.031  35.199  28.009  1.00  0.00     0.041 A 
ATOM     93  F   UNL A   1      45.900  33.700  26.610  1.00  0.00    -0.206 F 
ATOM     94  C   UNL A   1      47.601  35.507  29.239  1.00  0.00     0.022 A 
BRANCH  91  95
ATOM     95  S   UNL A   1      48.234  34.956  31.898  1.00  0.00     0.124 S 
ATOM     96  O   UNL A   1      47.785  33.813  32.683  1.00  0.00    -0.237 OA
ATOM     97  O   UNL A   1      49.676  35.062  31.695  1.00  0.00    -0.237 OA
ATOM     98  O   UNL A   1      47.557  36.217  32.194  1.00  0.00    -0.744 OA
ENDBRANCH  91  95
ENDBRANCH  65  88
ENDBRANCH  39  40
ENDBRANCH  32  34
ENDBRANCH  31  32
ENDBRANCH  30  31
ENDBRANCH  29  30
ENDBRANCH  28  29
ENDBRANCH  27  28
ENDBRANCH   1  27
TORSDOF 23
ENDMDL
MODEL 3
REMARK VINA RESULT:      -9.6      1.621      1.998
REMARK SMILES Cc1cs/c(=N\S(=O)(=O)c2ccc(/C=C/C(=O)OCCOCCOCCOC(=O)c3ccc(-c4c5nc(c(-c6cc(S(=O)(=O)[O-])ccc6F)c6ccc([nH]6)c(-c6cc(S(=O)(=O)[O-])ccc6F)c6nc(c(-c7cc(S(=O)(=O)[O-])ccc7F)c7ccc4[nH]7)C=C6)C=C5)cc3)cc2)[nH]1
REMARK SMILES IDX 22 1 21 2 20 3 19 4 18 5 16 6 17 7 15 8 14 9 13 10 10 11
REMARK SMILES IDX 11 12 94 13 12 14 93 15 7 16 8 17 9 18 6 19 1 20 2 21 3 22
REMARK SMILES IDX 95 23 4 24 5 25 23 27 24 28 25 29 26 30 27 31 28 32 29 33
REMARK SMILES IDX 30 34 31 35 92 36 32 37 91 38 33 39 34 40 35 41 85 42 36 43
REMARK SMILES IDX 90 44 84 45 86 46 37 47 89 48 83 49 82 50 38 52 70 53 50 54
REMARK SMILES IDX 69 55 51 56 54 57 68 58 87 59 52 60 53 61 67 63 88 64 55 65
REMARK SMILES IDX 39 66 40 67 48 68 41 69 47 70 49 71 46 72 42 73 43 74 44 75
REMARK SMILES IDX 45 76 71 77 72 78 80 79 73 80 79 81 81 82 78 83 74 84 75 85
REMARK SMILES IDX 76 86 77 87 56 88 57 89 65 90 58 91 64 92 66 93 63 94 59 95
REMARK SMILES IDX 60 96 61 97 62 98
REMARK H PARENT 95 26 86 51 54 62
REMARK Flexibility Score: inf
ROOT
ATOM      1  C   UNL A   1      35.597  21.591  25.937  1.00  0.00     0.188 C 
ENDROOT
BRANCH   1   2
ATOM      2  O   UNL A   1      34.694  22.639  25.619  1.00  0.00    -0.376 OA
BRANCH   2   3
ATOM      3  C   UNL A   1      33.470  22.767  26.327  1.00  0.00     0.202 C 
BRANCH   3   4
ATOM      4  C   UNL A   1      32.280  23.567  25.765  1.00  0.00     0.261 C 
BRANCH   4   5
ATOM      5  O   UNL A   1      32.297  24.983  25.998  1.00  0.00    -0.460 OA
BRANCH   5   6
ATOM      6  C   UNL A   1      32.909  25.717  25.037  1.00  0.00     0.330 C 
ATOM      7  O   UNL A   1      33.256  25.316  23.935  1.00  0.00    -0.247 OA
BRANCH   6   8
ATOM      8  C   UNL A   1      33.046  27.143  25.401  1.00  0.00     0.094 C 
ATOM      9  C   UNL A   1      33.065  27.658  26.641  1.00  0.00     0.015 C 
BRANCH   9  10
ATOM     10  C   UNL A   1      33.267  29.098  26.896  1.00  0.00    -0.025 A 
ATOM     11  C   UNL A   1      33.513  31.817  27.557  1.00  0.00     0.089 A 
ATOM     12  C   UNL A   1      34.604  30.961  27.718  1.00  0.00     0.023 A 
ATOM     13  C   UNL A   1      32.322  31.346  27.001  1.00  0.00     0.023 A 
ATOM     14  C   UNL A   1      34.482  29.610  27.379  1.00  0.00     0.009 A 
ATOM     15  C   UNL A   1      32.207  29.990  26.666  1.00  0.00     0.009 A 
BRANCH  11  16
ATOM     16  S   UNL A   1      33.678  33.500  28.133  1.00  0.00     0.285 S 
ATOM     17  O   UNL A   1      32.353  34.064  28.078  1.00  0.00    -0.199 OA
ATOM     18  O   UNL A   1      34.780  34.049  27.356  1.00  0.00    -0.199 OA
BRANCH  16  19
ATOM     19  N   UNL A   1      34.142  33.380  29.679  1.00  0.00    -0.130 NA
ATOM     20  C   UNL A   1      34.484  35.612  33.969  1.00  0.00     0.065 C 
ATOM     21  C   UNL A   1      34.142  35.532  32.522  1.00  0.00     0.024 A 
ATOM     22  C   UNL A   1      33.597  36.515  31.787  1.00  0.00     0.089 A 
ATOM     23  N   UNL A   1      34.366  34.376  31.801  1.00  0.00    -0.334 N 
ATOM     24  S   UNL A   1      33.347  36.010  30.130  1.00  0.00    -0.104 S 
ATOM     25  C   UNL A   1      34.005  34.385  30.473  1.00  0.00     0.199 A 
ATOM     26  H   UNL A   1      34.767  33.579  32.218  1.00  0.00     0.169 HD
ENDBRANCH  16  19
ENDBRANCH  11  16
ENDBRANCH   9  10
ENDBRANCH   6   8
ENDBRANCH   5   6
ENDBRANCH   4   5
ENDBRANCH   3   4
ENDBRANCH   2   3
ENDBRANCH   1   2
BRANCH   1  27
ATOM     27  C   UNL A   1      36.680  21.181  24.917  1.00  0.00     0.188 C 
BRANCH  27  28
ATOM     28  O   UNL A   1      37.018  19.813  24.936  1.00  0.00    -0.376 OA
BRANCH  28  29
ATOM     29  C   UNL A   1      38.345  19.424  25.246  1.00  0.00     0.202 C 
BRANCH  29  30
ATOM     30  C   UNL A   1      39.445  20.348  25.813  1.00  0.00     0.261 C 
BRANCH  30  31
ATOM     31  O   UNL A   1      40.529  19.767  26.541  1.00  0.00    -0.460 OA
BRANCH  31  32
ATOM     32  C   UNL A   1      41.770  19.965  26.030  1.00  0.00     0.338 C 
ATOM     33  O   UNL A   1      42.367  19.240  25.259  1.00  0.00    -0.246 OA
BRANCH  32  34
ATOM     34  C   UNL A   1      42.221  21.313  26.432  1.00  0.00     0.060 A 
ATOM     35  C   UNL A   1      42.285  22.323  25.463  1.00  0.00     0.016 A 
ATOM     36  C   UNL A   1      42.594  21.572  27.753  1.00  0.00     0.016 A 
ATOM     37  C   UNL A   1      42.738  23.596  25.812  1.00  0.00     0.010 A 
ATOM     38  C   UNL A   1      43.066  22.843  28.094  1.00  0.00     0.010 A 
ATOM     39  C   UNL A   1      43.162  23.856  27.123  1.00  0.00    -0.014 A 
BRANCH  39  40
ATOM     40  C   UNL A   1      43.849  25.134  27.441  1.00  0.00     0.031 A 
ATOM     41  C   UNL A   1      43.125  26.154  28.276  1.00  0.00     0.074 A 
ATOM     42  C   UNL A   1      45.100  25.376  27.009  1.00  0.00     0.049 A 
ATOM     43  N   UNL A   1      43.495  27.360  28.623  1.00  0.00    -0.248 NA
ATOM     44  C   UNL A   1      41.802  25.760  28.781  1.00  0.00     0.031 C 
ATOM     45  C   UNL A   1      45.922  24.446  26.237  1.00  0.00     0.029 A 
ATOM     46  N   UNL A   1      45.896  26.487  27.155  1.00  0.00    -0.354 N 
ATOM     47  C   UNL A   1      42.449  27.871  29.383  1.00  0.00     0.074 A 
ATOM     48  C   UNL A   1      41.416  26.858  29.411  1.00  0.00     0.031 C 
ATOM     49  C   UNL A   1      47.103  25.029  25.968  1.00  0.00     0.029 A 
ATOM     50  C   UNL A   1      47.106  26.388  26.506  1.00  0.00     0.049 A 
ATOM     51  H   UNL A   1      45.625  27.279  27.673  1.00  0.00     0.167 HD
ATOM     52  C   UNL A   1      42.363  29.074  30.006  1.00  0.00     0.034 A 
ATOM     53  C   UNL A   1      48.086  27.300  26.341  1.00  0.00     0.034 A 
ATOM     54  C   UNL A   1      43.396  30.080  29.954  1.00  0.00     0.049 A 
ATOM     55  C   UNL A   1      47.924  28.672  26.957  1.00  0.00     0.074 A 
ATOM     56  C   UNL A   1      43.416  31.325  30.558  1.00  0.00     0.029 A 
ATOM     57  N   UNL A   1      44.585  29.965  29.245  1.00  0.00    -0.354 N 
ATOM     58  N   UNL A   1      46.933  29.144  27.680  1.00  0.00    -0.248 NA
ATOM     59  C   UNL A   1      49.015  29.631  26.740  1.00  0.00     0.031 C 
ATOM     60  C   UNL A   1      44.573  31.994  30.146  1.00  0.00     0.029 A 
ATOM     61  C   UNL A   1      45.325  31.134  29.363  1.00  0.00     0.049 A 
ATOM     62  H   UNL A   1      44.862  29.171  28.733  1.00  0.00     0.167 HD
ATOM     63  C   UNL A   1      47.303  30.441  28.032  1.00  0.00     0.074 A 
ATOM     64  C   UNL A   1      48.610  30.670  27.454  1.00  0.00     0.031 C 
ATOM     65  C   UNL A   1      46.625  31.357  28.773  1.00  0.00     0.034 A 
BRANCH  52  66
ATOM     66  C   UNL A   1      41.081  29.383  30.745  1.00  0.00     0.023 A 
ATOM     67  C   UNL A   1      40.024  30.085  30.140  1.00  0.00     0.031 A 
ATOM     68  C   UNL A   1      40.926  28.990  32.086  1.00  0.00     0.131 A 
ATOM     69  C   UNL A   1      38.893  30.435  30.893  1.00  0.00     0.055 A 
ATOM     70  C   UNL A   1      39.762  29.268  32.806  1.00  0.00     0.041 A 
ATOM     71  F   UNL A   1      41.911  28.341  32.727  1.00  0.00    -0.206 F 
ATOM     72  C   UNL A   1      38.743  30.008  32.214  1.00  0.00     0.022 A 
BRANCH  69  73
ATOM     73  S   UNL A   1      37.691  31.585  30.171  1.00  0.00     0.124 S 
ATOM     74  O   UNL A   1      36.425  30.998  30.600  1.00  0.00    -0.237 OA
ATOM     75  O   UNL A   1      38.052  32.853  30.794  1.00  0.00    -0.237 OA
ATOM     76  O   UNL A   1      37.954  31.499  28.736  1.00  0.00    -0.744 OA
ENDBRANCH  69  73
ENDBRANCH  52  66
BRANCH  53  77
ATOM     77  C   UNL A   1      49.292  26.979  25.522  1.00  0.00     0.023 A 
ATOM     78  C   UNL A   1      50.418  26.364  26.092  1.00  0.00     0.031 A 
ATOM     79  C   UNL A   1      49.360  27.345  24.165  1.00  0.00     0.131 A 
ATOM     80  C   UNL A   1      51.579  26.178  25.324  1.00  0.00     0.055 A 
ATOM     81  C   UNL A   1      50.494  27.102  23.389  1.00  0.00     0.041 A 
ATOM     82  F   UNL A   1      48.317  27.945  23.570  1.00  0.00    -0.206 F 
ATOM     83  C   UNL A   1      51.619  26.528  23.972  1.00  0.00     0.022 A 
BRANCH  80  84
ATOM     84  S   UNL A   1      53.076  25.566  26.146  1.00  0.00     0.124 S 
ATOM     85  O   UNL A   1      52.715  25.696  27.553  1.00  0.00    -0.237 OA
ATOM     86  O   UNL A   1      53.170  24.204  25.630  1.00  0.00    -0.237 OA
ATOM     87  O   UNL A   1      54.117  26.480  25.681  1.00  0.00    -0.744 OA
ENDBRANCH  80  84
ENDBRANCH  53  77
BRANCH  65  88
ATOM     88  C   UNL A   1      47.315  32.675  29.046  1.00  0.00     0.023 A 
ATOM     89  C   UNL A   1      47.160  33.788  28.201  1.00  0.00     0.031 A 
ATOM     90  C   UNL A   1      48.148  32.815  30.172  1.00  0.00     0.131 A 
ATOM     91  C   UNL A   1      47.872  34.970  28.462  1.00  0.00     0.055 A 
ATOM     92  C   UNL A   1      48.799  34.014  30.464  1.00  0.00     0.041 A 
ATOM     93  F   UNL A   1      48.339  31.786  31.013  1.00  0.00    -0.206 F 
ATOM     94  C   UNL A   1      48.674  35.096  29.598  1.00  0.00     0.022 A 
BRANCH  91  95
ATOM     95  S   UNL A   1      47.817  36.310  27.239  1.00  0.00     0.124 S 
ATOM     96  O   UNL A   1      48.331  35.652  26.044  1.00  0.00    -0.237 OA
ATOM     97  O   UNL A   1      46.398  36.654  27.217  1.00  0.00    -0.237 OA
ATOM     98  O   UNL A   1      48.692  37.331  27.810  1.00  0.00    -0.744 OA
ENDBRANCH  91  95
ENDBRANCH  65  88
ENDBRANCH  39  40
ENDBRANCH  32  34
ENDBRANCH  31  32
ENDBRANCH  30  31
ENDBRANCH  29  30
ENDBRANCH  28  29
ENDBRANCH  27  28
ENDBRANCH   1  27
TORSDOF 23
ENDMDL
