MODEL 1
REMARK VINA RESULT:     -10.5      0.000      0.000
REMARK SMILES CC(C)C[C@H](NC(=O)[C@H]1N2C(=O)c3ccccc3[C@@H]2SC1(C)C)C(=O)N[C@@H](C)C(=O)OCCOCCOCCOC(=O)c1ccc(-c2c3nc(c(-c4cc(S(=O)(=O)[O-])ccc4F)c4ccc([nH]4)c(-c4cc(S(=O)(=O)[O-])ccc4F)c4nc(c(-c5cc(S(=O)(=O)[O-])ccc5F)c5ccc2[nH]5)C=C4)C=C3)cc1
REMARK SMILES IDX 35 1 34 2 33 3 32 4 31 5 29 6 30 7 27 8 28 9 26 10 24 11
REMARK SMILES IDX 25 12 5 14 4 15 2 16 1 17 3 18 6 19 7 20 8 22 9 23 10 24
REMARK SMILES IDX 21 25 11 26 19 27 20 28 22 29 23 30 12 31 13 32 18 33 14 34
REMARK SMILES IDX 17 35 15 36 16 37 36 38 37 39 38 40 39 41 40 42 41 43 42 44
REMARK SMILES IDX 43 45 44 46 105 47 45 48 104 49 46 50 47 51 48 52 98 53
REMARK SMILES IDX 49 54 103 55 97 56 99 57 50 58 102 59 96 60 95 61 51 63
REMARK SMILES IDX 83 64 63 65 82 66 64 67 67 68 81 69 100 70 65 71 66 72 80 74
REMARK SMILES IDX 101 75 68 76 52 77 53 78 61 79 54 80 60 81 62 82 59 83 55 84
REMARK SMILES IDX 56 85 57 86 58 87 84 88 85 89 93 90 86 91 92 92 94 93 91 94
REMARK SMILES IDX 87 95 88 96 89 97 90 98 69 99 70 100 78 101 71 102 77 103
REMARK SMILES IDX 79 104 76 105 72 106 73 107 74 108 75 109
REMARK H PARENT 26 13 6 21 99 62 67 73
REMARK Flexibility Score: inf
ROOT
ATOM      1  C   UNL A   1      41.759  22.798  27.716  1.00  0.00     0.188 C 
ENDROOT
BRANCH   1   2
ATOM      2  O   UNL A   1      40.625  23.649  27.650  1.00  0.00    -0.376 OA
BRANCH   2   3
ATOM      3  C   UNL A   1      39.533  23.173  26.891  1.00  0.00     0.202 C 
BRANCH   3   4
ATOM      4  C   UNL A   1      38.366  24.145  26.637  1.00  0.00     0.261 C 
BRANCH   4   5
ATOM      5  O   UNL A   1      37.628  23.956  25.401  1.00  0.00    -0.462 OA
BRANCH   5   6
ATOM      6  C   UNL A   1      36.338  23.532  25.558  1.00  0.00     0.328 C 
ATOM      7  O   UNL A   1      35.823  23.309  26.650  1.00  0.00    -0.250 OA
BRANCH   6   8
ATOM      8  C   UNL A   1      35.560  23.288  24.236  1.00  0.00     0.189 C 
ATOM      9  C   UNL A   1      36.584  22.904  23.169  1.00  0.00     0.043 C 
BRANCH   8  10
ATOM     10  N   UNL A   1      34.722  24.359  23.680  1.00  0.00    -0.341 N 
ATOM     11  C   UNL A   1      33.359  24.492  23.630  1.00  0.00     0.243 C 
ATOM     12  O   UNL A   1      32.917  25.174  22.696  1.00  0.00    -0.273 OA
ATOM     13  H   UNL A   1      35.223  25.104  23.276  1.00  0.00     0.164 HD
BRANCH  11  14
ATOM     14  C   UNL A   1      32.361  23.872  24.676  1.00  0.00     0.171 C 
BRANCH  14  15
ATOM     15  C   UNL A   1      31.219  23.125  24.029  1.00  0.00     0.038 C 
BRANCH  15  16
ATOM     16  C   UNL A   1      31.532  21.670  23.748  1.00  0.00    -0.015 C 
ATOM     17  C   UNL A   1      32.098  21.414  22.353  1.00  0.00     0.007 C 
ATOM     18  C   UNL A   1      32.386  21.228  24.931  1.00  0.00     0.007 C 
ENDBRANCH  15  16
ENDBRANCH  14  15
BRANCH  14  19
ATOM     19  N   UNL A   1      31.853  24.744  25.711  1.00  0.00    -0.342 N 
ATOM     20  C   UNL A   1      31.663  26.099  25.715  1.00  0.00     0.244 C 
ATOM     21  H   UNL A   1      31.603  24.289  26.548  1.00  0.00     0.164 HD
ATOM     22  O   UNL A   1      31.404  26.542  26.843  1.00  0.00    -0.273 OA
BRANCH  20  23
ATOM     23  C   UNL A   1      31.923  27.089  24.500  1.00  0.00     0.191 C 
ATOM     24  N   UNL A   1      30.883  28.017  24.046  1.00  0.00    -0.309 N 
ATOM     25  C   UNL A   1      33.170  28.024  24.673  1.00  0.00     0.042 C 
ATOM     26  C   UNL A   1      30.618  28.221  22.682  1.00  0.00     0.256 C 
ATOM     27  C   UNL A   1      30.745  29.242  24.785  1.00  0.00     0.176 C 
ATOM     28  S   UNL A   1      32.454  29.698  25.137  1.00  0.00    -0.123 SA
ATOM     29  C   UNL A   1      34.168  27.656  25.768  1.00  0.00     0.026 C 
ATOM     30  C   UNL A   1      33.931  28.158  23.339  1.00  0.00     0.026 C 
ATOM     31  O   UNL A   1      30.803  27.458  21.779  1.00  0.00    -0.269 OA
ATOM     32  C   UNL A   1      30.005  29.562  22.573  1.00  0.00     0.046 A 
ATOM     33  C   UNL A   1      29.991  30.123  23.845  1.00  0.00    -0.002 A 
ATOM     34  C   UNL A   1      29.386  30.147  21.486  1.00  0.00     0.014 A 
ATOM     35  C   UNL A   1      29.237  31.264  24.075  1.00  0.00     0.007 A 
ATOM     36  C   UNL A   1      28.605  31.278  21.714  1.00  0.00     0.001 A 
ATOM     37  C   UNL A   1      28.517  31.821  23.005  1.00  0.00     0.000 A 
ENDBRANCH  20  23
ENDBRANCH  14  19
ENDBRANCH  11  14
ENDBRANCH   8  10
ENDBRANCH   6   8
ENDBRANCH   5   6
ENDBRANCH   4   5
ENDBRANCH   3   4
ENDBRANCH   2   3
ENDBRANCH   1   2
BRANCH   1  38
ATOM     38  C   UNL A   1      41.552  21.295  27.906  1.00  0.00     0.188 C 
BRANCH  38  39
ATOM     39  O   UNL A   1      41.748  20.627  26.667  1.00  0.00    -0.376 OA
BRANCH  39  40
ATOM     40  C   UNL A   1      42.143  19.269  26.792  1.00  0.00     0.202 C 
BRANCH  40  41
ATOM     41  C   UNL A   1      43.143  18.764  25.736  1.00  0.00     0.261 C 
BRANCH  41  42
ATOM     42  O   UNL A   1      43.416  19.627  24.602  1.00  0.00    -0.460 OA
BRANCH  42  43
ATOM     43  C   UNL A   1      44.759  19.849  24.398  1.00  0.00     0.338 C 
ATOM     44  O   UNL A   1      45.578  18.988  24.111  1.00  0.00    -0.246 OA
BRANCH  43  45
ATOM     45  C   UNL A   1      45.180  21.253  24.683  1.00  0.00     0.060 A 
ATOM     46  C   UNL A   1      45.031  22.283  23.750  1.00  0.00     0.016 A 
ATOM     47  C   UNL A   1      45.624  21.603  25.939  1.00  0.00     0.016 A 
ATOM     48  C   UNL A   1      45.406  23.618  24.068  1.00  0.00     0.010 A 
ATOM     49  C   UNL A   1      46.058  22.900  26.236  1.00  0.00     0.010 A 
ATOM     50  C   UNL A   1      45.956  23.942  25.320  1.00  0.00    -0.014 A 
BRANCH  50  51
ATOM     51  C   UNL A   1      46.206  25.326  25.843  1.00  0.00     0.031 A 
ATOM     52  C   UNL A   1      47.572  25.811  26.300  1.00  0.00     0.074 A 
ATOM     53  C   UNL A   1      45.139  26.047  26.248  1.00  0.00     0.049 A 
ATOM     54  N   UNL A   1      47.929  27.005  26.716  1.00  0.00    -0.248 NA
ATOM     55  C   UNL A   1      48.663  24.827  26.338  1.00  0.00     0.031 C 
ATOM     56  C   UNL A   1      43.747  25.598  26.160  1.00  0.00     0.029 A 
ATOM     57  N   UNL A   1      45.056  27.251  26.905  1.00  0.00    -0.354 N 
ATOM     58  C   UNL A   1      49.288  26.927  27.025  1.00  0.00     0.074 A 
ATOM     59  C   UNL A   1      49.664  25.541  26.847  1.00  0.00     0.031 C 
ATOM     60  C   UNL A   1      42.962  26.477  26.800  1.00  0.00     0.029 A 
ATOM     61  C   UNL A   1      43.777  27.595  27.273  1.00  0.00     0.049 A 
ATOM     62  H   UNL A   1      45.841  27.816  27.093  1.00  0.00     0.167 HD
ATOM     63  C   UNL A   1      50.143  27.929  27.370  1.00  0.00     0.034 A 
ATOM     64  C   UNL A   1      43.290  28.704  27.870  1.00  0.00     0.034 A 
ATOM     65  C   UNL A   1      49.711  29.296  27.570  1.00  0.00     0.049 A 
ATOM     66  C   UNL A   1      44.213  29.877  28.080  1.00  0.00     0.074 A 
ATOM     67  C   UNL A   1      50.481  30.441  27.682  1.00  0.00     0.029 A 
ATOM     68  N   UNL A   1      48.392  29.693  27.725  1.00  0.00    -0.354 N 
ATOM     69  N   UNL A   1      45.520  29.920  27.991  1.00  0.00    -0.248 NA
ATOM     70  C   UNL A   1      43.592  31.177  28.369  1.00  0.00     0.031 C 
ATOM     71  C   UNL A   1      49.636  31.515  27.968  1.00  0.00     0.029 A 
ATOM     72  C   UNL A   1      48.329  31.060  27.947  1.00  0.00     0.049 A 
ATOM     73  H   UNL A   1      47.613  29.093  27.684  1.00  0.00     0.167 HD
ATOM     74  C   UNL A   1      45.874  31.258  28.149  1.00  0.00     0.074 A 
ATOM     75  C   UNL A   1      44.641  31.992  28.336  1.00  0.00     0.031 C 
ATOM     76  C   UNL A   1      47.111  31.816  28.119  1.00  0.00     0.034 A 
BRANCH  63  77
ATOM     77  C   UNL A   1      51.643  27.667  27.426  1.00  0.00     0.023 A 
ATOM     78  C   UNL A   1      52.444  27.709  26.262  1.00  0.00     0.031 A 
ATOM     79  C   UNL A   1      52.230  27.143  28.596  1.00  0.00     0.131 A 
ATOM     80  C   UNL A   1      53.755  27.198  26.289  1.00  0.00     0.055 A 
ATOM     81  C   UNL A   1      53.551  26.689  28.630  1.00  0.00     0.041 A 
ATOM     82  F   UNL A   1      51.516  27.028  29.727  1.00  0.00    -0.206 F 
ATOM     83  C   UNL A   1      54.312  26.699  27.469  1.00  0.00     0.022 A 
BRANCH  80  84
ATOM     84  S   UNL A   1      54.760  27.052  24.781  1.00  0.00     0.124 S 
ATOM     85  O   UNL A   1      54.805  25.603  24.588  1.00  0.00    -0.237 OA
ATOM     86  O   UNL A   1      53.955  27.782  23.805  1.00  0.00    -0.237 OA
ATOM     87  O   UNL A   1      56.030  27.669  25.142  1.00  0.00    -0.744 OA
ENDBRANCH  80  84
ENDBRANCH  63  77
BRANCH  64  88
ATOM     88  C   UNL A   1      41.813  28.814  28.035  1.00  0.00     0.023 A 
ATOM     89  C   UNL A   1      41.180  28.555  29.264  1.00  0.00     0.031 A 
ATOM     90  C   UNL A   1      41.009  28.995  26.895  1.00  0.00     0.131 A 
ATOM     91  C   UNL A   1      39.782  28.442  29.308  1.00  0.00     0.055 A 
ATOM     92  C   UNL A   1      39.619  28.934  26.954  1.00  0.00     0.041 A 
ATOM     93  F   UNL A   1      41.576  29.205  25.697  1.00  0.00    -0.206 F 
ATOM     94  C   UNL A   1      38.999  28.642  28.164  1.00  0.00     0.022 A 
BRANCH  91  95
ATOM     95  S   UNL A   1      38.924  27.903  30.814  1.00  0.00     0.124 S 
ATOM     96  O   UNL A   1      39.933  28.138  31.843  1.00  0.00    -0.237 OA
ATOM     97  O   UNL A   1      37.776  28.806  30.841  1.00  0.00    -0.237 OA
ATOM     98  O   UNL A   1      38.607  26.503  30.550  1.00  0.00    -0.744 OA
ENDBRANCH  91  95
ENDBRANCH  64  88
BRANCH  76  99
ATOM     99  C   UNL A   1      47.250  33.315  28.269  1.00  0.00     0.023 A 
ATOM    100  C   UNL A   1      47.529  34.108  27.137  1.00  0.00     0.031 A 
ATOM    101  C   UNL A   1      47.268  33.935  29.530  1.00  0.00     0.131 A 
ATOM    102  C   UNL A   1      47.862  35.460  27.293  1.00  0.00     0.055 A 
ATOM    103  C   UNL A   1      47.547  35.295  29.676  1.00  0.00     0.041 A 
ATOM    104  F   UNL A   1      47.023  33.225  30.644  1.00  0.00    -0.206 F 
ATOM    105  C   UNL A   1      47.861  36.060  28.557  1.00  0.00     0.022 A 
BRANCH 102 106
ATOM    106  S   UNL A   1      48.398  36.465  25.882  1.00  0.00     0.124 S 
ATOM    107  O   UNL A   1      48.788  35.444  24.912  1.00  0.00    -0.237 OA
ATOM    108  O   UNL A   1      47.182  37.204  25.551  1.00  0.00    -0.237 OA
ATOM    109  O   UNL A   1      49.496  37.266  26.413  1.00  0.00    -0.744 OA
ENDBRANCH 102 106
ENDBRANCH  76  99
ENDBRANCH  50  51
ENDBRANCH  43  45
ENDBRANCH  42  43
ENDBRANCH  41  42
ENDBRANCH  40  41
ENDBRANCH  39  40
ENDBRANCH  38  39
ENDBRANCH   1  38
TORSDOF 26
ENDMDL
MODEL 2
REMARK VINA RESULT:     -10.2      1.109      7.131
REMARK SMILES CC(C)C[C@H](NC(=O)[C@H]1N2C(=O)c3ccccc3[C@@H]2SC1(C)C)C(=O)N[C@@H](C)C(=O)OCCOCCOCCOC(=O)c1ccc(-c2c3nc(c(-c4cc(S(=O)(=O)[O-])ccc4F)c4ccc([nH]4)c(-c4cc(S(=O)(=O)[O-])ccc4F)c4nc(c(-c5cc(S(=O)(=O)[O-])ccc5F)c5ccc2[nH]5)C=C4)C=C3)cc1
REMARK SMILES IDX 35 1 34 2 33 3 32 4 31 5 29 6 30 7 27 8 28 9 26 10 24 11
REMARK SMILES IDX 25 12 5 14 4 15 2 16 1 17 3 18 6 19 7 20 8 22 9 23 10 24
REMARK SMILES IDX 21 25 11 26 19 27 20 28 22 29 23 30 12 31 13 32 18 33 14 34
REMARK SMILES IDX 17 35 15 36 16 37 36 38 37 39 38 40 39 41 40 42 41 43 42 44
REMARK SMILES IDX 43 45 44 46 105 47 45 48 104 49 46 50 47 51 48 52 98 53
REMARK SMILES IDX 49 54 103 55 97 56 99 57 50 58 102 59 96 60 95 61 51 63
REMARK SMILES IDX 83 64 63 65 82 66 64 67 67 68 81 69 100 70 65 71 66 72 80 74
REMARK SMILES IDX 101 75 68 76 52 77 53 78 61 79 54 80 60 81 62 82 59 83 55 84
REMARK SMILES IDX 56 85 57 86 58 87 84 88 85 89 93 90 86 91 92 92 94 93 91 94
REMARK SMILES IDX 87 95 88 96 89 97 90 98 69 99 70 100 78 101 71 102 77 103
REMARK SMILES IDX 79 104 76 105 72 106 73 107 74 108 75 109
REMARK H PARENT 26 13 6 21 99 62 67 73
REMARK Flexibility Score: inf
ROOT
ATOM      1  C   UNL A   1      41.785  22.723  27.650  1.00  0.00     0.188 C 
ENDROOT
BRANCH   1   2
ATOM      2  O   UNL A   1      40.679  23.611  27.631  1.00  0.00    -0.376 OA
BRANCH   2   3
ATOM      3  C   UNL A   1      39.552  23.187  26.892  1.00  0.00     0.202 C 
BRANCH   3   4
ATOM      4  C   UNL A   1      38.434  24.217  26.646  1.00  0.00     0.261 C 
BRANCH   4   5
ATOM      5  O   UNL A   1      37.662  24.050  25.428  1.00  0.00    -0.462 OA
BRANCH   5   6
ATOM      6  C   UNL A   1      36.359  23.679  25.617  1.00  0.00     0.328 C 
ATOM      7  O   UNL A   1      35.843  23.544  26.723  1.00  0.00    -0.250 OA
BRANCH   6   8
ATOM      8  C   UNL A   1      35.567  23.375  24.316  1.00  0.00     0.189 C 
ATOM      9  C   UNL A   1      36.582  22.974  23.247  1.00  0.00     0.043 C 
BRANCH   8  10
ATOM     10  N   UNL A   1      34.700  24.410  23.737  1.00  0.00    -0.341 N 
ATOM     11  C   UNL A   1      33.334  24.501  23.679  1.00  0.00     0.243 C 
ATOM     12  O   UNL A   1      32.876  25.152  22.731  1.00  0.00    -0.273 OA
ATOM     13  H   UNL A   1      35.180  25.162  23.322  1.00  0.00     0.164 HD
BRANCH  11  14
ATOM     14  C   UNL A   1      32.350  23.869  24.731  1.00  0.00     0.171 C 
BRANCH  14  15
ATOM     15  C   UNL A   1      31.230  23.082  24.092  1.00  0.00     0.038 C 
BRANCH  15  16
ATOM     16  C   UNL A   1      31.620  21.665  23.729  1.00  0.00    -0.015 C 
ATOM     17  C   UNL A   1      32.153  21.512  22.306  1.00  0.00     0.007 C 
ATOM     18  C   UNL A   1      32.538  21.219  24.861  1.00  0.00     0.007 C 
ENDBRANCH  15  16
ENDBRANCH  14  15
BRANCH  14  19
ATOM     19  N   UNL A   1      31.815  24.742  25.752  1.00  0.00    -0.342 N 
ATOM     20  C   UNL A   1      31.592  26.092  25.737  1.00  0.00     0.244 C 
ATOM     21  H   UNL A   1      31.572  24.293  26.594  1.00  0.00     0.164 HD
ATOM     22  O   UNL A   1      31.317  26.544  26.858  1.00  0.00    -0.273 OA
BRANCH  20  23
ATOM     23  C   UNL A   1      31.835  27.072  24.510  1.00  0.00     0.191 C 
ATOM     24  N   UNL A   1      30.790  28.002  24.068  1.00  0.00    -0.309 N 
ATOM     25  C   UNL A   1      33.089  28.002  24.653  1.00  0.00     0.042 C 
ATOM     26  C   UNL A   1      30.501  28.196  22.707  1.00  0.00     0.256 C 
ATOM     27  C   UNL A   1      30.672  29.232  24.800  1.00  0.00     0.176 C 
ATOM     28  S   UNL A   1      32.388  29.683  25.117  1.00  0.00    -0.123 SA
ATOM     29  C   UNL A   1      34.105  27.638  25.732  1.00  0.00     0.026 C 
ATOM     30  C   UNL A   1      33.826  28.122  23.304  1.00  0.00     0.026 C 
ATOM     31  O   UNL A   1      30.666  27.425  21.807  1.00  0.00    -0.269 OA
ATOM     32  C   UNL A   1      29.893  29.539  22.600  1.00  0.00     0.046 A 
ATOM     33  C   UNL A   1      29.904  30.110  23.867  1.00  0.00    -0.002 A 
ATOM     34  C   UNL A   1      29.256  30.119  21.520  1.00  0.00     0.014 A 
ATOM     35  C   UNL A   1      29.160  31.255  24.102  1.00  0.00     0.007 A 
ATOM     36  C   UNL A   1      28.484  31.255  21.753  1.00  0.00     0.001 A 
ATOM     37  C   UNL A   1      28.423  31.808  23.041  1.00  0.00     0.000 A 
ENDBRANCH  20  23
ENDBRANCH  14  19
ENDBRANCH  11  14
ENDBRANCH   8  10
ENDBRANCH   6   8
ENDBRANCH   5   6
ENDBRANCH   4   5
ENDBRANCH   3   4
ENDBRANCH   2   3
ENDBRANCH   1   2
BRANCH   1  38
ATOM     38  C   UNL A   1      41.532  21.222  27.792  1.00  0.00     0.188 C 
BRANCH  38  39
ATOM     39  O   UNL A   1      41.734  20.584  26.539  1.00  0.00    -0.376 OA
BRANCH  39  40
ATOM     40  C   UNL A   1      41.970  19.186  26.627  1.00  0.00     0.202 C 
BRANCH  40  41
ATOM     41  C   UNL A   1      43.021  18.622  25.653  1.00  0.00     0.261 C 
BRANCH  41  42
ATOM     42  O   UNL A   1      43.459  19.479  24.566  1.00  0.00    -0.460 OA
BRANCH  42  43
ATOM     43  C   UNL A   1      44.823  19.657  24.529  1.00  0.00     0.338 C 
ATOM     44  O   UNL A   1      45.642  18.769  24.343  1.00  0.00    -0.246 OA
BRANCH  43  45
ATOM     45  C   UNL A   1      45.251  21.046  24.867  1.00  0.00     0.060 A 
ATOM     46  C   UNL A   1      45.574  21.989  23.886  1.00  0.00     0.016 A 
ATOM     47  C   UNL A   1      45.225  21.484  26.173  1.00  0.00     0.016 A 
ATOM     48  C   UNL A   1      45.940  23.317  24.240  1.00  0.00     0.010 A 
ATOM     49  C   UNL A   1      45.650  22.768  26.532  1.00  0.00     0.010 A 
ATOM     50  C   UNL A   1      46.011  23.720  25.585  1.00  0.00    -0.014 A 
BRANCH  50  51
ATOM     51  C   UNL A   1      46.190  25.126  26.077  1.00  0.00     0.031 A 
ATOM     52  C   UNL A   1      45.029  26.049  26.407  1.00  0.00     0.074 A 
ATOM     53  C   UNL A   1      47.396  25.706  25.894  1.00  0.00     0.049 A 
ATOM     54  N   UNL A   1      45.055  27.267  26.898  1.00  0.00    -0.248 NA
ATOM     55  C   UNL A   1      43.673  25.567  26.107  1.00  0.00     0.031 C 
ATOM     56  C   UNL A   1      48.559  25.045  25.300  1.00  0.00     0.029 A 
ATOM     57  N   UNL A   1      47.815  27.001  26.086  1.00  0.00    -0.354 N 
ATOM     58  C   UNL A   1      43.726  27.680  27.005  1.00  0.00     0.074 A 
ATOM     59  C   UNL A   1      42.927  26.620  26.427  1.00  0.00     0.031 C 
ATOM     60  C   UNL A   1      49.530  25.950  25.113  1.00  0.00     0.029 A 
ATOM     61  C   UNL A   1      49.096  27.240  25.647  1.00  0.00     0.049 A 
ATOM     62  H   UNL A   1      47.250  27.694  26.500  1.00  0.00     0.167 HD
ATOM     63  C   UNL A   1      43.226  28.809  27.579  1.00  0.00     0.034 A 
ATOM     64  C   UNL A   1      49.868  28.346  25.712  1.00  0.00     0.034 A 
ATOM     65  C   UNL A   1      44.069  29.857  28.112  1.00  0.00     0.049 A 
ATOM     66  C   UNL A   1      49.375  29.526  26.508  1.00  0.00     0.074 A 
ATOM     67  C   UNL A   1      43.718  30.923  28.922  1.00  0.00     0.029 A 
ATOM     68  N   UNL A   1      45.425  29.989  27.855  1.00  0.00    -0.354 N 
ATOM     69  N   UNL A   1      48.171  29.759  26.972  1.00  0.00    -0.248 NA
ATOM     70  C   UNL A   1      50.364  30.546  26.882  1.00  0.00     0.031 C 
ATOM     71  C   UNL A   1      44.844  31.731  29.101  1.00  0.00     0.029 A 
ATOM     72  C   UNL A   1      45.920  31.124  28.476  1.00  0.00     0.049 A 
ATOM     73  H   UNL A   1      45.960  29.366  27.310  1.00  0.00     0.167 HD
ATOM     74  C   UNL A   1      48.271  30.914  27.743  1.00  0.00     0.074 A 
ATOM     75  C   UNL A   1      49.656  31.331  27.685  1.00  0.00     0.031 C 
ATOM     76  C   UNL A   1      47.300  31.550  28.447  1.00  0.00     0.034 A 
BRANCH  63  77
ATOM     77  C   UNL A   1      41.726  28.950  27.808  1.00  0.00     0.023 A 
ATOM     78  C   UNL A   1      41.148  28.719  29.077  1.00  0.00     0.031 A 
ATOM     79  C   UNL A   1      40.849  29.079  26.712  1.00  0.00     0.131 A 
ATOM     80  C   UNL A   1      39.753  28.582  29.202  1.00  0.00     0.055 A 
ATOM     81  C   UNL A   1      39.462  28.999  26.852  1.00  0.00     0.041 A 
ATOM     82  F   UNL A   1      41.328  29.253  25.469  1.00  0.00    -0.206 F 
ATOM     83  C   UNL A   1      38.910  28.732  28.098  1.00  0.00     0.022 A 
BRANCH  80  84
ATOM     84  S   UNL A   1      38.973  28.098  30.771  1.00  0.00     0.124 S 
ATOM     85  O   UNL A   1      40.022  28.412  31.739  1.00  0.00    -0.237 OA
ATOM     86  O   UNL A   1      37.806  28.976  30.816  1.00  0.00    -0.237 OA
ATOM     87  O   UNL A   1      38.690  26.678  30.602  1.00  0.00    -0.744 OA
ENDBRANCH  80  84
ENDBRANCH  63  77
BRANCH  64  88
ATOM     88  C   UNL A   1      51.275  28.240  25.234  1.00  0.00     0.023 A 
ATOM     89  C   UNL A   1      51.608  28.356  23.872  1.00  0.00     0.031 A 
ATOM     90  C   UNL A   1      52.276  27.829  26.133  1.00  0.00     0.131 A 
ATOM     91  C   UNL A   1      52.902  28.017  23.449  1.00  0.00     0.055 A 
ATOM     92  C   UNL A   1      53.573  27.544  25.715  1.00  0.00     0.041 A 
ATOM     93  F   UNL A   1      51.987  27.669  27.434  1.00  0.00    -0.206 F 
ATOM     94  C   UNL A   1      53.888  27.625  24.363  1.00  0.00     0.022 A 
BRANCH  91  95
ATOM     95  S   UNL A   1      53.332  27.941  21.686  1.00  0.00     0.124 S 
ATOM     96  O   UNL A   1      54.098  29.171  21.505  1.00  0.00    -0.237 OA
ATOM     97  O   UNL A   1      54.104  26.703  21.622  1.00  0.00    -0.237 OA
ATOM     98  O   UNL A   1      52.036  27.901  21.016  1.00  0.00    -0.744 OA
ENDBRANCH  91  95
ENDBRANCH  64  88
BRANCH  76  99
ATOM     99  C   UNL A   1      47.656  32.776  29.258  1.00  0.00     0.023 A 
ATOM    100  C   UNL A   1      47.680  34.043  28.637  1.00  0.00     0.031 A 
ATOM    101  C   UNL A   1      48.121  32.681  30.580  1.00  0.00     0.131 A 
ATOM    102  C   UNL A   1      48.203  35.148  29.320  1.00  0.00     0.055 A 
ATOM    103  C   UNL A   1      48.591  33.797  31.276  1.00  0.00     0.041 A 
ATOM    104  F   UNL A   1      48.134  31.498  31.216  1.00  0.00    -0.206 F 
ATOM    105  C   UNL A   1      48.649  35.034  30.641  1.00  0.00     0.022 A 
BRANCH 102 106
ATOM    106  S   UNL A   1      48.413  36.750  28.494  1.00  0.00     0.124 S 
ATOM    107  O   UNL A   1      49.282  36.402  27.372  1.00  0.00    -0.237 OA
ATOM    108  O   UNL A   1      47.040  37.092  28.133  1.00  0.00    -0.237 OA
ATOM    109  O   UNL A   1      49.026  37.597  29.512  1.00  0.00    -0.744 OA
ENDBRANCH 102 106
ENDBRANCH  76  99
ENDBRANCH  50  51
ENDBRANCH  43  45
ENDBRANCH  42  43
ENDBRANCH  41  42
ENDBRANCH  40  41
ENDBRANCH  39  40
ENDBRANCH  38  39
ENDBRANCH   1  38
TORSDOF 26
ENDMDL
MODEL 3
REMARK VINA RESULT:      -9.6      6.062     10.533
REMARK SMILES CC(C)C[C@H](NC(=O)[C@H]1N2C(=O)c3ccccc3[C@@H]2SC1(C)C)C(=O)N[C@@H](C)C(=O)OCCOCCOCCOC(=O)c1ccc(-c2c3nc(c(-c4cc(S(=O)(=O)[O-])ccc4F)c4ccc([nH]4)c(-c4cc(S(=O)(=O)[O-])ccc4F)c4nc(c(-c5cc(S(=O)(=O)[O-])ccc5F)c5ccc2[nH]5)C=C4)C=C3)cc1
REMARK SMILES IDX 35 1 34 2 33 3 32 4 31 5 29 6 30 7 27 8 28 9 26 10 24 11
REMARK SMILES IDX 25 12 5 14 4 15 2 16 1 17 3 18 6 19 7 20 8 22 9 23 10 24
REMARK SMILES IDX 21 25 11 26 19 27 20 28 22 29 23 30 12 31 13 32 18 33 14 34
REMARK SMILES IDX 17 35 15 36 16 37 36 38 37 39 38 40 39 41 40 42 41 43 42 44
REMARK SMILES IDX 43 45 44 46 105 47 45 48 104 49 46 50 47 51 48 52 98 53
REMARK SMILES IDX 49 54 103 55 97 56 99 57 50 58 102 59 96 60 95 61 51 63
REMARK SMILES IDX 83 64 63 65 82 66 64 67 67 68 81 69 100 70 65 71 66 72 80 74
REMARK SMILES IDX 101 75 68 76 52 77 53 78 61 79 54 80 60 81 62 82 59 83 55 84
REMARK SMILES IDX 56 85 57 86 58 87 84 88 85 89 93 90 86 91 92 92 94 93 91 94
REMARK SMILES IDX 87 95 88 96 89 97 90 98 69 99 70 100 78 101 71 102 77 103
REMARK SMILES IDX 79 104 76 105 72 106 73 107 74 108 75 109
REMARK H PARENT 26 13 6 21 99 62 67 73
REMARK Flexibility Score: inf
ROOT
ATOM      1  C   UNL A   1      47.506  28.219  22.963  1.00  0.00     0.188 C 
ENDROOT
BRANCH   1   2
ATOM      2  O   UNL A   1      46.570  27.520  23.767  1.00  0.00    -0.376 OA
BRANCH   2   3
ATOM      3  C   UNL A   1      46.218  28.134  24.990  1.00  0.00     0.202 C 
BRANCH   3   4
ATOM      4  C   UNL A   1      44.797  27.886  25.528  1.00  0.00     0.261 C 
BRANCH   4   5
ATOM      5  O   UNL A   1      44.524  28.367  26.870  1.00  0.00    -0.462 OA
BRANCH   5   6
ATOM      6  C   UNL A   1      43.227  28.732  27.100  1.00  0.00     0.328 C 
ATOM      7  O   UNL A   1      42.527  29.313  26.274  1.00  0.00    -0.250 OA
BRANCH   6   8
ATOM      8  C   UNL A   1      42.694  28.412  28.523  1.00  0.00     0.189 C 
ATOM      9  C   UNL A   1      43.351  27.107  28.972  1.00  0.00     0.043 C 
BRANCH   8  10
ATOM     10  N   UNL A   1      41.248  28.279  28.743  1.00  0.00    -0.341 N 
ATOM     11  C   UNL A   1      40.518  28.273  29.902  1.00  0.00     0.243 C 
ATOM     12  O   UNL A   1      39.449  27.648  29.865  1.00  0.00    -0.273 OA
ATOM     13  H   UNL A   1      40.716  28.176  27.922  1.00  0.00     0.164 HD
BRANCH  11  14
ATOM     14  C   UNL A   1      40.933  29.017  31.225  1.00  0.00     0.171 C 
BRANCH  14  15
ATOM     15  C   UNL A   1      42.163  28.425  31.872  1.00  0.00     0.038 C 
BRANCH  15  16
ATOM     16  C   UNL A   1      43.325  29.391  31.957  1.00  0.00    -0.015 C 
ATOM     17  C   UNL A   1      43.096  30.706  31.215  1.00  0.00     0.007 C 
ATOM     18  C   UNL A   1      43.636  29.485  33.446  1.00  0.00     0.007 C 
ENDBRANCH  15  16
ENDBRANCH  14  15
BRANCH  14  19
ATOM     19  N   UNL A   1      39.908  29.228  32.222  1.00  0.00    -0.342 N 
ATOM     20  C   UNL A   1      39.044  30.275  32.397  1.00  0.00     0.244 C 
ATOM     21  H   UNL A   1      39.816  28.502  32.881  1.00  0.00     0.164 HD
ATOM     22  O   UNL A   1      38.439  30.220  33.478  1.00  0.00    -0.273 OA
BRANCH  20  23
ATOM     23  C   UNL A   1      38.919  31.558  31.468  1.00  0.00     0.191 C 
ATOM     24  N   UNL A   1      37.607  32.096  31.096  1.00  0.00    -0.309 N 
ATOM     25  C   UNL A   1      39.677  32.824  31.995  1.00  0.00     0.042 C 
ATOM     26  C   UNL A   1      37.323  32.515  29.786  1.00  0.00     0.256 C 
ATOM     27  C   UNL A   1      36.965  32.948  32.059  1.00  0.00     0.176 C 
ATOM     28  S   UNL A   1      38.333  33.923  32.715  1.00  0.00    -0.123 SA
ATOM     29  C   UNL A   1      40.706  32.609  33.102  1.00  0.00     0.026 C 
ATOM     30  C   UNL A   1      40.359  33.568  30.829  1.00  0.00     0.026 C 
ATOM     31  O   UNL A   1      37.827  32.131  28.771  1.00  0.00    -0.269 OA
ATOM     32  C   UNL A   1      36.225  33.498  29.893  1.00  0.00     0.046 A 
ATOM     33  C   UNL A   1      35.947  33.676  31.243  1.00  0.00    -0.002 A 
ATOM     34  C   UNL A   1      35.455  34.051  28.888  1.00  0.00     0.014 A 
ATOM     35  C   UNL A   1      34.791  34.343  31.616  1.00  0.00     0.007 A 
ATOM     36  C   UNL A   1      34.278  34.700  29.254  1.00  0.00     0.001 A 
ATOM     37  C   UNL A   1      33.940  34.829  30.609  1.00  0.00     0.000 A 
ENDBRANCH  20  23
ENDBRANCH  14  19
ENDBRANCH  11  14
ENDBRANCH   8  10
ENDBRANCH   6   8
ENDBRANCH   5   6
ENDBRANCH   4   5
ENDBRANCH   3   4
ENDBRANCH   2   3
ENDBRANCH   1   2
BRANCH   1  38
ATOM     38  C   UNL A   1      48.659  27.449  22.320  1.00  0.00     0.188 C 
BRANCH  38  39
ATOM     39  O   UNL A   1      49.586  28.364  21.754  1.00  0.00    -0.376 OA
BRANCH  39  40
ATOM     40  C   UNL A   1      50.451  27.793  20.783  1.00  0.00     0.202 C 
BRANCH  40  41
ATOM     41  C   UNL A   1      51.578  26.899  21.334  1.00  0.00     0.261 C 
BRANCH  41  42
ATOM     42  O   UNL A   1      52.829  27.540  21.694  1.00  0.00    -0.460 OA
BRANCH  42  43
ATOM     43  C   UNL A   1      53.415  26.997  22.815  1.00  0.00     0.338 C 
ATOM     44  O   UNL A   1      54.524  26.483  22.850  1.00  0.00    -0.246 OA
BRANCH  43  45
ATOM     45  C   UNL A   1      52.513  26.972  24.004  1.00  0.00     0.060 A 
ATOM     46  C   UNL A   1      51.696  28.054  24.347  1.00  0.00     0.016 A 
ATOM     47  C   UNL A   1      52.368  25.818  24.743  1.00  0.00     0.016 A 
ATOM     48  C   UNL A   1      50.818  27.982  25.465  1.00  0.00     0.010 A 
ATOM     49  C   UNL A   1      51.558  25.764  25.882  1.00  0.00     0.010 A 
ATOM     50  C   UNL A   1      50.758  26.833  26.272  1.00  0.00    -0.014 A 
BRANCH  50  51
ATOM     51  C   UNL A   1      49.747  26.561  27.346  1.00  0.00     0.031 A 
ATOM     52  C   UNL A   1      48.480  25.754  27.115  1.00  0.00     0.074 A 
ATOM     53  C   UNL A   1      49.780  27.337  28.452  1.00  0.00     0.049 A 
ATOM     54  N   UNL A   1      47.557  25.399  27.979  1.00  0.00    -0.248 NA
ATOM     55  C   UNL A   1      48.188  25.332  25.738  1.00  0.00     0.031 C 
ATOM     56  C   UNL A   1      50.768  28.389  28.704  1.00  0.00     0.029 A 
ATOM     57  N   UNL A   1      48.912  27.438  29.512  1.00  0.00    -0.354 N 
ATOM     58  C   UNL A   1      46.599  24.679  27.262  1.00  0.00     0.074 A 
ATOM     59  C   UNL A   1      47.004  24.741  25.874  1.00  0.00     0.031 C 
ATOM     60  C   UNL A   1      50.412  29.070  29.803  1.00  0.00     0.029 A 
ATOM     61  C   UNL A   1      49.219  28.457  30.384  1.00  0.00     0.049 A 
ATOM     62  H   UNL A   1      48.143  26.837  29.637  1.00  0.00     0.167 HD
ATOM     63  C   UNL A   1      45.521  23.992  27.731  1.00  0.00     0.034 A 
ATOM     64  C   UNL A   1      48.652  28.830  31.551  1.00  0.00     0.034 A 
ATOM     65  C   UNL A   1      45.138  23.989  29.126  1.00  0.00     0.049 A 
ATOM     66  C   UNL A   1      47.581  27.955  32.148  1.00  0.00     0.074 A 
ATOM     67  C   UNL A   1      44.235  23.165  29.775  1.00  0.00     0.029 A 
ATOM     68  N   UNL A   1      45.610  24.880  30.077  1.00  0.00    -0.354 N 
ATOM     69  N   UNL A   1      46.913  26.976  31.588  1.00  0.00    -0.248 NA
ATOM     70  C   UNL A   1      47.257  28.162  33.566  1.00  0.00     0.031 C 
ATOM     71  C   UNL A   1      44.114  23.598  31.098  1.00  0.00     0.029 A 
ATOM     72  C   UNL A   1      45.007  24.636  31.301  1.00  0.00     0.049 A 
ATOM     73  H   UNL A   1      46.278  25.584  29.909  1.00  0.00     0.167 HD
ATOM     74  C   UNL A   1      46.138  26.409  32.597  1.00  0.00     0.074 A 
ATOM     75  C   UNL A   1      46.423  27.155  33.804  1.00  0.00     0.031 C 
ATOM     76  C   UNL A   1      45.288  25.355  32.522  1.00  0.00     0.034 A 
BRANCH  63  77
ATOM     77  C   UNL A   1      44.742  23.068  26.802  1.00  0.00     0.023 A 
ATOM     78  C   UNL A   1      45.256  21.811  26.408  1.00  0.00     0.031 A 
ATOM     79  C   UNL A   1      43.601  23.542  26.123  1.00  0.00     0.131 A 
ATOM     80  C   UNL A   1      44.660  21.107  25.346  1.00  0.00     0.055 A 
ATOM     81  C   UNL A   1      42.979  22.811  25.108  1.00  0.00     0.041 A 
ATOM     82  F   UNL A   1      43.085  24.747  26.411  1.00  0.00    -0.206 F 
ATOM     83  C   UNL A   1      43.519  21.597  24.704  1.00  0.00     0.022 A 
BRANCH  80  84
ATOM     84  S   UNL A   1      45.389  19.584  24.674  1.00  0.00     0.124 S 
ATOM     85  O   UNL A   1      44.927  19.615  23.287  1.00  0.00    -0.237 OA
ATOM     86  O   UNL A   1      46.818  19.824  24.856  1.00  0.00    -0.237 OA
ATOM     87  O   UNL A   1      44.816  18.525  25.495  1.00  0.00    -0.744 OA
ENDBRANCH  80  84
ENDBRANCH  63  77
BRANCH  64  88
ATOM     88  C   UNL A   1      49.304  29.928  32.320  1.00  0.00     0.023 A 
ATOM     89  C   UNL A   1      50.260  29.670  33.319  1.00  0.00     0.031 A 
ATOM     90  C   UNL A   1      48.821  31.242  32.182  1.00  0.00     0.131 A 
ATOM     91  C   UNL A   1      50.665  30.710  34.169  1.00  0.00     0.055 A 
ATOM     92  C   UNL A   1      49.266  32.282  32.994  1.00  0.00     0.041 A 
ATOM     93  F   UNL A   1      47.880  31.520  31.266  1.00  0.00    -0.206 F 
ATOM     94  C   UNL A   1      50.184  32.015  34.004  1.00  0.00     0.022 A 
BRANCH  91  95
ATOM     95  S   UNL A   1      51.731  30.398  35.605  1.00  0.00     0.124 S 
ATOM     96  O   UNL A   1      51.804  31.717  36.225  1.00  0.00    -0.237 OA
ATOM     97  O   UNL A   1      50.956  29.399  36.338  1.00  0.00    -0.237 OA
ATOM     98  O   UNL A   1      52.973  29.909  35.014  1.00  0.00    -0.744 OA
ENDBRANCH  91  95
ENDBRANCH  64  88
BRANCH  76  99
ATOM     99  C   UNL A   1      44.582  24.882  33.773  1.00  0.00     0.023 A 
ATOM    100  C   UNL A   1      43.450  25.580  34.243  1.00  0.00     0.031 A 
ATOM    101  C   UNL A   1      45.108  23.859  34.580  1.00  0.00     0.131 A 
ATOM    102  C   UNL A   1      42.915  25.279  35.503  1.00  0.00     0.055 A 
ATOM    103  C   UNL A   1      44.538  23.526  35.810  1.00  0.00     0.041 A 
ATOM    104  F   UNL A   1      46.193  23.171  34.188  1.00  0.00    -0.206 F 
ATOM    105  C   UNL A   1      43.446  24.248  36.284  1.00  0.00     0.022 A 
BRANCH 102 106
ATOM    106  S   UNL A   1      41.573  26.272  36.215  1.00  0.00     0.124 S 
ATOM    107  O   UNL A   1      40.485  25.300  36.295  1.00  0.00    -0.237 OA
ATOM    108  O   UNL A   1      42.140  26.677  37.499  1.00  0.00    -0.237 OA
ATOM    109  O   UNL A   1      41.375  27.346  35.248  1.00  0.00    -0.744 OA
ENDBRANCH 102 106
ENDBRANCH  76  99
ENDBRANCH  50  51
ENDBRANCH  43  45
ENDBRANCH  42  43
ENDBRANCH  41  42
ENDBRANCH  40  41
ENDBRANCH  39  40
ENDBRANCH  38  39
ENDBRANCH   1  38
TORSDOF 26
ENDMDL
