MODEL 1
REMARK VINA RESULT:     -10.8      0.000      0.000
REMARK SMILES Cc1ccc2c(c1)C(=O)C[C@H](C(=O)OCCOCCOCCOC(=O)c1ccc(-c3c4nc(c(-c5cc(S(=O)(=O)[O-])ccc5F)c5ccc([nH]5)c(-c5cc(S(=O)(=O)[O-])ccc5F)c5nc(c(-c6cc(S(=O)(=O)[O-])ccc6F)c6ccc3[nH]6)C=C5)C=C4)cc1)C2
REMARK SMILES IDX 20 1 19 2 18 3 17 4 16 5 15 6 14 7 12 8 13 9 11 10 1 11 2 12
REMARK SMILES IDX 3 13 7 14 4 15 6 16 5 17 8 18 89 19 9 20 10 21 21 22 22 23
REMARK SMILES IDX 23 24 24 25 25 26 26 27 27 28 88 29 28 30 87 31 29 32 30 33
REMARK SMILES IDX 31 34 81 35 32 36 86 37 80 38 82 39 33 40 85 41 79 42 78 43
REMARK SMILES IDX 34 45 66 46 46 47 65 48 47 49 50 50 64 51 83 52 48 53 49 54
REMARK SMILES IDX 63 56 84 57 51 58 35 59 36 60 44 61 37 62 43 63 45 64 42 65
REMARK SMILES IDX 38 66 39 67 40 68 41 69 67 70 68 71 76 72 69 73 75 74 77 75
REMARK SMILES IDX 74 76 70 77 71 78 72 79 73 80 52 81 53 82 61 83 54 84 60 85
REMARK SMILES IDX 62 86 59 87 55 88 56 89 57 90 58 91
REMARK H PARENT 82 44 50 55
REMARK Flexibility Score: inf
ROOT
ATOM      1  O   UNL A   1      35.984  21.850  25.736  1.00  0.00    -0.376 OA
ENDROOT
BRANCH   1   2
ATOM      2  C   UNL A   1      34.614  22.209  25.675  1.00  0.00     0.188 C 
BRANCH   2   3
ATOM      3  C   UNL A   1      33.938  21.758  24.374  1.00  0.00     0.188 C 
BRANCH   3   4
ATOM      4  O   UNL A   1      32.590  22.133  24.118  1.00  0.00    -0.376 OA
BRANCH   4   5
ATOM      5  C   UNL A   1      32.169  22.331  22.779  1.00  0.00     0.202 C 
BRANCH   5   6
ATOM      6  C   UNL A   1      32.660  23.603  22.085  1.00  0.00     0.261 C 
BRANCH   6   7
ATOM      7  O   UNL A   1      32.559  24.816  22.863  1.00  0.00    -0.463 OA
BRANCH   7   8
ATOM      8  C   UNL A   1      31.575  25.678  22.500  1.00  0.00     0.309 C 
ATOM      9  O   UNL A   1      31.590  26.347  21.473  1.00  0.00    -0.252 OA
BRANCH   8  10
ATOM     10  C   UNL A   1      30.477  25.864  23.545  1.00  0.00     0.111 C 
ATOM     11  C   UNL A   1      34.688  29.158  27.313  1.00  0.00     0.044 C 
ATOM     12  C   UNL A   1      33.558  28.698  26.443  1.00  0.00    -0.050 A 
ATOM     13  C   UNL A   1      32.988  29.557  25.496  1.00  0.00     0.004 A 
ATOM     14  C   UNL A   1      33.094  27.381  26.533  1.00  0.00     0.015 A 
ATOM     15  C   UNL A   1      31.953  29.119  24.667  1.00  0.00     0.005 A 
ATOM     16  C   UNL A   1      32.065  26.937  25.694  1.00  0.00     0.021 A 
ATOM     17  C   UNL A   1      31.486  27.804  24.755  1.00  0.00    -0.036 A 
ATOM     18  C   UNL A   1      31.608  25.527  25.792  1.00  0.00     0.164 C 
ATOM     19  C   UNL A   1      30.365  27.352  23.856  1.00  0.00     0.052 C 
ATOM     20  O   UNL A   1      32.060  24.781  26.658  1.00  0.00    -0.294 OA
ATOM     21  C   UNL A   1      30.521  25.071  24.845  1.00  0.00     0.096 C 
ENDBRANCH   8  10
ENDBRANCH   7   8
ENDBRANCH   6   7
ENDBRANCH   5   6
ENDBRANCH   4   5
ENDBRANCH   3   4
ENDBRANCH   2   3
ENDBRANCH   1   2
BRANCH   1  22
ATOM     22  C   UNL A   1      36.307  20.691  24.980  1.00  0.00     0.202 C 
BRANCH  22  23
ATOM     23  C   UNL A   1      37.803  20.431  25.163  1.00  0.00     0.261 C 
BRANCH  23  24
ATOM     24  O   UNL A   1      38.529  21.608  25.566  1.00  0.00    -0.460 OA
BRANCH  24  25
ATOM     25  C   UNL A   1      39.666  21.407  26.275  1.00  0.00     0.338 C 
ATOM     26  O   UNL A   1      40.335  20.387  26.296  1.00  0.00    -0.246 OA
BRANCH  25  27
ATOM     27  C   UNL A   1      40.096  22.720  26.816  1.00  0.00     0.060 A 
ATOM     28  C   UNL A   1      41.083  22.798  27.803  1.00  0.00     0.016 A 
ATOM     29  C   UNL A   1      39.455  23.884  26.370  1.00  0.00     0.016 A 
ATOM     30  C   UNL A   1      41.441  24.043  28.327  1.00  0.00     0.010 A 
ATOM     31  C   UNL A   1      39.806  25.129  26.902  1.00  0.00     0.010 A 
ATOM     32  C   UNL A   1      40.818  25.219  27.870  1.00  0.00    -0.014 A 
BRANCH  32  33
ATOM     33  C   UNL A   1      41.409  26.533  28.228  1.00  0.00     0.031 A 
ATOM     34  C   UNL A   1      42.820  26.909  27.899  1.00  0.00     0.074 A 
ATOM     35  C   UNL A   1      40.608  27.407  28.865  1.00  0.00     0.049 A 
ATOM     36  N   UNL A   1      43.404  28.073  28.039  1.00  0.00    -0.248 NA
ATOM     37  C   UNL A   1      43.692  25.859  27.356  1.00  0.00     0.031 C 
ATOM     38  C   UNL A   1      39.229  27.123  29.266  1.00  0.00     0.029 A 
ATOM     39  N   UNL A   1      40.818  28.698  29.278  1.00  0.00    -0.354 N 
ATOM     40  C   UNL A   1      44.705  27.911  27.579  1.00  0.00     0.074 A 
ATOM     41  C   UNL A   1      44.837  26.517  27.202  1.00  0.00     0.031 C 
ATOM     42  C   UNL A   1      38.709  28.213  29.843  1.00  0.00     0.029 A 
ATOM     43  C   UNL A   1      39.721  29.265  29.881  1.00  0.00     0.049 A 
ATOM     44  H   UNL A   1      41.672  29.172  29.154  1.00  0.00     0.167 HD
ATOM     45  C   UNL A   1      45.679  28.847  27.467  1.00  0.00     0.034 A 
ATOM     46  C   UNL A   1      39.538  30.495  30.402  1.00  0.00     0.034 A 
ATOM     47  C   UNL A   1      45.518  30.229  27.859  1.00  0.00     0.049 A 
ATOM     48  C   UNL A   1      40.644  31.508  30.289  1.00  0.00     0.074 A 
ATOM     49  C   UNL A   1      46.421  31.268  27.702  1.00  0.00     0.029 A 
ATOM     50  N   UNL A   1      44.406  30.766  28.493  1.00  0.00    -0.354 N 
ATOM     51  N   UNL A   1      41.820  31.380  29.719  1.00  0.00    -0.248 NA
ATOM     52  C   UNL A   1      40.402  32.836  30.868  1.00  0.00     0.031 C 
ATOM     53  C   UNL A   1      45.894  32.406  28.313  1.00  0.00     0.029 A 
ATOM     54  C   UNL A   1      44.624  32.105  28.780  1.00  0.00     0.049 A 
ATOM     55  H   UNL A   1      43.585  30.269  28.708  1.00  0.00     0.167 HD
ATOM     56  C   UNL A   1      42.451  32.612  29.858  1.00  0.00     0.074 A 
ATOM     57  C   UNL A   1      41.515  33.482  30.538  1.00  0.00     0.031 C 
ATOM     58  C   UNL A   1      43.694  32.980  29.460  1.00  0.00     0.034 A 
BRANCH  45  59
ATOM     59  C   UNL A   1      47.009  28.459  26.866  1.00  0.00     0.023 A 
ATOM     60  C   UNL A   1      47.139  28.301  25.471  1.00  0.00     0.031 A 
ATOM     61  C   UNL A   1      48.084  28.060  27.681  1.00  0.00     0.131 A 
ATOM     62  C   UNL A   1      48.297  27.716  24.940  1.00  0.00     0.055 A 
ATOM     63  C   UNL A   1      49.251  27.516  27.143  1.00  0.00     0.041 A 
ATOM     64  F   UNL A   1      48.005  28.175  29.017  1.00  0.00    -0.206 F 
ATOM     65  C   UNL A   1      49.355  27.327  25.768  1.00  0.00     0.022 A 
BRANCH  62  66
ATOM     66  S   UNL A   1      48.441  27.355  23.167  1.00  0.00     0.124 S 
ATOM     67  O   UNL A   1      47.287  28.068  22.622  1.00  0.00    -0.237 OA
ATOM     68  O   UNL A   1      49.740  27.935  22.840  1.00  0.00    -0.237 OA
ATOM     69  O   UNL A   1      48.361  25.901  23.095  1.00  0.00    -0.744 OA
ENDBRANCH  62  66
ENDBRANCH  45  59
BRANCH  46  70
ATOM     70  C   UNL A   1      38.215  30.824  31.009  1.00  0.00     0.023 A 
ATOM     71  C   UNL A   1      37.218  31.463  30.249  1.00  0.00     0.031 A 
ATOM     72  C   UNL A   1      37.985  30.637  32.380  1.00  0.00     0.131 A 
ATOM     73  C   UNL A   1      36.074  31.963  30.881  1.00  0.00     0.055 A 
ATOM     74  C   UNL A   1      36.807  31.069  32.993  1.00  0.00     0.041 A 
ATOM     75  F   UNL A   1      38.915  30.049  33.149  1.00  0.00    -0.206 F 
ATOM     76  C   UNL A   1      35.854  31.755  32.246  1.00  0.00     0.022 A 
BRANCH  73  77
ATOM     77  S   UNL A   1      34.912  33.033  29.987  1.00  0.00     0.124 S 
ATOM     78  O   UNL A   1      34.318  32.105  29.031  1.00  0.00    -0.237 OA
ATOM     79  O   UNL A   1      34.033  33.482  31.063  1.00  0.00    -0.237 OA
ATOM     80  O   UNL A   1      35.768  34.068  29.415  1.00  0.00    -0.744 OA
ENDBRANCH  73  77
ENDBRANCH  46  70
BRANCH  58  81
ATOM     81  C   UNL A   1      44.167  34.385  29.758  1.00  0.00     0.023 A 
ATOM     82  C   UNL A   1      44.002  35.407  28.802  1.00  0.00     0.031 A 
ATOM     83  C   UNL A   1      44.921  34.670  30.909  1.00  0.00     0.131 A 
ATOM     84  C   UNL A   1      44.630  36.645  28.988  1.00  0.00     0.055 A 
ATOM     85  C   UNL A   1      45.502  35.923  31.115  1.00  0.00     0.041 A 
ATOM     86  F   UNL A   1      45.114  33.729  31.847  1.00  0.00    -0.206 F 
ATOM     87  C   UNL A   1      45.372  36.910  30.144  1.00  0.00     0.022 A 
BRANCH  84  88
ATOM     88  S   UNL A   1      44.586  37.923  27.701  1.00  0.00     0.124 S 
ATOM     89  O   UNL A   1      43.386  37.559  26.952  1.00  0.00    -0.237 OA
ATOM     90  O   UNL A   1      44.481  39.148  28.489  1.00  0.00    -0.237 OA
ATOM     91  O   UNL A   1      45.843  37.743  26.982  1.00  0.00    -0.744 OA
ENDBRANCH  84  88
ENDBRANCH  58  81
ENDBRANCH  32  33
ENDBRANCH  25  27
ENDBRANCH  24  25
ENDBRANCH  23  24
ENDBRANCH  22  23
ENDBRANCH   1  22
TORSDOF 20
ENDMDL
MODEL 2
REMARK VINA RESULT:     -10.7      4.875     10.207
REMARK SMILES Cc1ccc2c(c1)C(=O)C[C@H](C(=O)OCCOCCOCCOC(=O)c1ccc(-c3c4nc(c(-c5cc(S(=O)(=O)[O-])ccc5F)c5ccc([nH]5)c(-c5cc(S(=O)(=O)[O-])ccc5F)c5nc(c(-c6cc(S(=O)(=O)[O-])ccc6F)c6ccc3[nH]6)C=C5)C=C4)cc1)C2
REMARK SMILES IDX 20 1 19 2 18 3 17 4 16 5 15 6 14 7 12 8 13 9 11 10 1 11 2 12
REMARK SMILES IDX 3 13 7 14 4 15 6 16 5 17 8 18 89 19 9 20 10 21 21 22 22 23
REMARK SMILES IDX 23 24 24 25 25 26 26 27 27 28 88 29 28 30 87 31 29 32 30 33
REMARK SMILES IDX 31 34 81 35 32 36 86 37 80 38 82 39 33 40 85 41 79 42 78 43
REMARK SMILES IDX 34 45 66 46 46 47 65 48 47 49 50 50 64 51 83 52 48 53 49 54
REMARK SMILES IDX 63 56 84 57 51 58 35 59 36 60 44 61 37 62 43 63 45 64 42 65
REMARK SMILES IDX 38 66 39 67 40 68 41 69 67 70 68 71 76 72 69 73 75 74 77 75
REMARK SMILES IDX 74 76 70 77 71 78 72 79 73 80 52 81 53 82 61 83 54 84 60 85
REMARK SMILES IDX 62 86 59 87 55 88 56 89 57 90 58 91
REMARK H PARENT 82 44 50 55
REMARK Flexibility Score: inf
ROOT
ATOM      1  O   UNL A   1      30.968  28.647  24.954  1.00  0.00    -0.376 OA
ENDROOT
BRANCH   1   2
ATOM      2  C   UNL A   1      31.566  29.116  23.757  1.00  0.00     0.188 C 
BRANCH   2   3
ATOM      3  C   UNL A   1      30.784  28.708  22.502  1.00  0.00     0.188 C 
BRANCH   3   4
ATOM      4  O   UNL A   1      31.011  27.430  21.920  1.00  0.00    -0.376 OA
BRANCH   4   5
ATOM      5  C   UNL A   1      32.248  26.777  22.146  1.00  0.00     0.202 C 
BRANCH   5   6
ATOM      6  C   UNL A   1      32.432  25.406  21.492  1.00  0.00     0.261 C 
BRANCH   6   7
ATOM      7  O   UNL A   1      33.453  24.568  22.076  1.00  0.00    -0.463 OA
BRANCH   7   8
ATOM      8  C   UNL A   1      33.030  23.390  22.601  1.00  0.00     0.309 C 
ATOM      9  O   UNL A   1      32.757  22.398  21.935  1.00  0.00    -0.252 OA
BRANCH   8  10
ATOM     10  C   UNL A   1      32.785  23.418  24.108  1.00  0.00     0.111 C 
ATOM     11  C   UNL A   1      38.152  19.787  25.001  1.00  0.00     0.044 C 
ATOM     12  C   UNL A   1      37.095  20.850  24.973  1.00  0.00    -0.050 A 
ATOM     13  C   UNL A   1      37.442  22.201  24.868  1.00  0.00     0.004 A 
ATOM     14  C   UNL A   1      35.742  20.495  24.997  1.00  0.00     0.015 A 
ATOM     15  C   UNL A   1      36.456  23.189  24.815  1.00  0.00     0.005 A 
ATOM     16  C   UNL A   1      34.752  21.483  24.931  1.00  0.00     0.021 A 
ATOM     17  C   UNL A   1      35.103  22.838  24.840  1.00  0.00    -0.036 A 
ATOM     18  C   UNL A   1      33.323  21.078  24.932  1.00  0.00     0.164 C 
ATOM     19  C   UNL A   1      34.055  23.919  24.787  1.00  0.00     0.052 C 
ATOM     20  O   UNL A   1      33.007  19.901  25.082  1.00  0.00    -0.294 OA
ATOM     21  C   UNL A   1      32.282  22.169  24.821  1.00  0.00     0.096 C 
ENDBRANCH   8  10
ENDBRANCH   7   8
ENDBRANCH   6   7
ENDBRANCH   5   6
ENDBRANCH   4   5
ENDBRANCH   3   4
ENDBRANCH   2   3
ENDBRANCH   1   2
BRANCH   1  22
ATOM     22  C   UNL A   1      31.843  28.662  26.075  1.00  0.00     0.202 C 
BRANCH  22  23
ATOM     23  C   UNL A   1      31.906  30.103  26.583  1.00  0.00     0.261 C 
BRANCH  23  24
ATOM     24  O   UNL A   1      33.187  30.722  26.351  1.00  0.00    -0.460 OA
BRANCH  24  25
ATOM     25  C   UNL A   1      33.572  31.670  27.238  1.00  0.00     0.338 C 
ATOM     26  O   UNL A   1      32.893  32.597  27.648  1.00  0.00    -0.246 OA
BRANCH  25  27
ATOM     27  C   UNL A   1      34.867  31.241  27.821  1.00  0.00     0.060 A 
ATOM     28  C   UNL A   1      35.903  32.158  28.019  1.00  0.00     0.016 A 
ATOM     29  C   UNL A   1      35.065  29.884  28.116  1.00  0.00     0.016 A 
ATOM     30  C   UNL A   1      37.127  31.721  28.529  1.00  0.00     0.010 A 
ATOM     31  C   UNL A   1      36.294  29.445  28.618  1.00  0.00     0.010 A 
ATOM     32  C   UNL A   1      37.328  30.365  28.849  1.00  0.00    -0.014 A 
BRANCH  32  33
ATOM     33  C   UNL A   1      38.519  29.982  29.647  1.00  0.00     0.031 A 
ATOM     34  C   UNL A   1      38.803  30.537  31.008  1.00  0.00     0.074 A 
ATOM     35  C   UNL A   1      39.356  29.081  29.098  1.00  0.00     0.049 A 
ATOM     36  N   UNL A   1      39.735  30.177  31.855  1.00  0.00    -0.248 NA
ATOM     37  C   UNL A   1      37.949  31.635  31.482  1.00  0.00     0.031 C 
ATOM     38  C   UNL A   1      39.190  28.508  27.761  1.00  0.00     0.029 A 
ATOM     39  N   UNL A   1      40.492  28.483  29.582  1.00  0.00    -0.354 N 
ATOM     40  C   UNL A   1      39.570  30.981  32.975  1.00  0.00     0.074 A 
ATOM     41  C   UNL A   1      38.476  31.885  32.677  1.00  0.00     0.031 C 
ATOM     42  C   UNL A   1      40.171  27.625  27.540  1.00  0.00     0.029 A 
ATOM     43  C   UNL A   1      41.053  27.585  28.704  1.00  0.00     0.049 A 
ATOM     44  H   UNL A   1      40.868  28.677  30.470  1.00  0.00     0.167 HD
ATOM     45  C   UNL A   1      40.258  30.945  34.143  1.00  0.00     0.034 A 
ATOM     46  C   UNL A   1      42.149  26.808  28.818  1.00  0.00     0.034 A 
ATOM     47  C   UNL A   1      41.351  30.036  34.408  1.00  0.00     0.049 A 
ATOM     48  C   UNL A   1      42.911  26.806  30.115  1.00  0.00     0.074 A 
ATOM     49  C   UNL A   1      42.050  29.869  35.592  1.00  0.00     0.029 A 
ATOM     50  N   UNL A   1      41.914  29.160  33.491  1.00  0.00    -0.354 N 
ATOM     51  N   UNL A   1      42.655  27.469  31.219  1.00  0.00    -0.248 NA
ATOM     52  C   UNL A   1      44.097  25.944  30.197  1.00  0.00     0.031 C 
ATOM     53  C   UNL A   1      43.084  28.960  35.368  1.00  0.00     0.029 A 
ATOM     54  C   UNL A   1      42.984  28.491  34.068  1.00  0.00     0.049 A 
ATOM     55  H   UNL A   1      41.602  29.033  32.567  1.00  0.00     0.167 HD
ATOM     56  C   UNL A   1      43.637  27.092  32.130  1.00  0.00     0.074 A 
ATOM     57  C   UNL A   1      44.474  26.121  31.458  1.00  0.00     0.031 C 
ATOM     58  C   UNL A   1      43.825  27.521  33.402  1.00  0.00     0.034 A 
BRANCH  45  59
ATOM     59  C   UNL A   1      39.858  31.874  35.264  1.00  0.00     0.023 A 
ATOM     60  C   UNL A   1      39.048  31.405  36.319  1.00  0.00     0.031 A 
ATOM     61  C   UNL A   1      40.111  33.255  35.187  1.00  0.00     0.131 A 
ATOM     62  C   UNL A   1      38.485  32.316  37.224  1.00  0.00     0.055 A 
ATOM     63  C   UNL A   1      39.581  34.153  36.116  1.00  0.00     0.041 A 
ATOM     64  F   UNL A   1      40.863  33.755  34.193  1.00  0.00    -0.206 F 
ATOM     65  C   UNL A   1      38.751  33.686  37.131  1.00  0.00     0.022 A 
BRANCH  62  66
ATOM     66  S   UNL A   1      37.316  31.772  38.503  1.00  0.00     0.124 S 
ATOM     67  O   UNL A   1      37.030  30.401  38.083  1.00  0.00    -0.237 OA
ATOM     68  O   UNL A   1      38.114  31.895  39.719  1.00  0.00    -0.237 OA
ATOM     69  O   UNL A   1      36.201  32.703  38.381  1.00  0.00    -0.744 OA
ENDBRANCH  62  66
ENDBRANCH  45  59
BRANCH  46  70
ATOM     70  C   UNL A   1      42.521  25.926  27.674  1.00  0.00     0.023 A 
ATOM     71  C   UNL A   1      41.962  24.640  27.550  1.00  0.00     0.031 A 
ATOM     72  C   UNL A   1      43.536  26.296  26.779  1.00  0.00     0.131 A 
ATOM     73  C   UNL A   1      42.479  23.745  26.607  1.00  0.00     0.055 A 
ATOM     74  C   UNL A   1      43.997  25.426  25.789  1.00  0.00     0.041 A 
ATOM     75  F   UNL A   1      44.112  27.506  26.871  1.00  0.00    -0.206 F 
ATOM     76  C   UNL A   1      43.482  24.135  25.713  1.00  0.00     0.022 A 
BRANCH  73  77
ATOM     77  S   UNL A   1      41.979  22.000  26.613  1.00  0.00     0.124 S 
ATOM     78  O   UNL A   1      42.582  21.507  25.380  1.00  0.00    -0.237 OA
ATOM     79  O   UNL A   1      42.588  21.520  27.851  1.00  0.00    -0.237 OA
ATOM     80  O   UNL A   1      40.521  22.060  26.622  1.00  0.00    -0.744 OA
ENDBRANCH  73  77
ENDBRANCH  46  70
BRANCH  58  81
ATOM     81  C   UNL A   1      44.998  26.978  34.187  1.00  0.00     0.023 A 
ATOM     82  C   UNL A   1      44.853  25.813  34.966  1.00  0.00     0.031 A 
ATOM     83  C   UNL A   1      46.199  27.700  34.293  1.00  0.00     0.131 A 
ATOM     84  C   UNL A   1      45.867  25.438  35.856  1.00  0.00     0.055 A 
ATOM     85  C   UNL A   1      47.229  27.293  35.142  1.00  0.00     0.041 A 
ATOM     86  F   UNL A   1      46.385  28.821  33.577  1.00  0.00    -0.206 F 
ATOM     87  C   UNL A   1      47.057  26.167  35.942  1.00  0.00     0.022 A 
BRANCH  84  88
ATOM     88  S   UNL A   1      45.645  24.047  37.000  1.00  0.00     0.124 S 
ATOM     89  O   UNL A   1      47.027  23.685  37.309  1.00  0.00    -0.237 OA
ATOM     90  O   UNL A   1      44.904  24.667  38.096  1.00  0.00    -0.237 OA
ATOM     91  O   UNL A   1      44.906  23.062  36.219  1.00  0.00    -0.744 OA
ENDBRANCH  84  88
ENDBRANCH  58  81
ENDBRANCH  32  33
ENDBRANCH  25  27
ENDBRANCH  24  25
ENDBRANCH  23  24
ENDBRANCH  22  23
ENDBRANCH   1  22
TORSDOF 20
ENDMDL
MODEL 3
REMARK VINA RESULT:     -10.6      4.773     10.020
REMARK SMILES Cc1ccc2c(c1)C(=O)C[C@H](C(=O)OCCOCCOCCOC(=O)c1ccc(-c3c4nc(c(-c5cc(S(=O)(=O)[O-])ccc5F)c5ccc([nH]5)c(-c5cc(S(=O)(=O)[O-])ccc5F)c5nc(c(-c6cc(S(=O)(=O)[O-])ccc6F)c6ccc3[nH]6)C=C5)C=C4)cc1)C2
REMARK SMILES IDX 20 1 19 2 18 3 17 4 16 5 15 6 14 7 12 8 13 9 11 10 1 11 2 12
REMARK SMILES IDX 3 13 7 14 4 15 6 16 5 17 8 18 89 19 9 20 10 21 21 22 22 23
REMARK SMILES IDX 23 24 24 25 25 26 26 27 27 28 88 29 28 30 87 31 29 32 30 33
REMARK SMILES IDX 31 34 81 35 32 36 86 37 80 38 82 39 33 40 85 41 79 42 78 43
REMARK SMILES IDX 34 45 66 46 46 47 65 48 47 49 50 50 64 51 83 52 48 53 49 54
REMARK SMILES IDX 63 56 84 57 51 58 35 59 36 60 44 61 37 62 43 63 45 64 42 65
REMARK SMILES IDX 38 66 39 67 40 68 41 69 67 70 68 71 76 72 69 73 75 74 77 75
REMARK SMILES IDX 74 76 70 77 71 78 72 79 73 80 52 81 53 82 61 83 54 84 60 85
REMARK SMILES IDX 62 86 59 87 55 88 56 89 57 90 58 91
REMARK H PARENT 82 44 50 55
REMARK Flexibility Score: inf
ROOT
ATOM      1  O   UNL A   1      30.981  30.405  24.822  1.00  0.00    -0.376 OA
ENDROOT
BRANCH   1   2
ATOM      2  C   UNL A   1      30.144  29.751  23.882  1.00  0.00     0.188 C 
BRANCH   2   3
ATOM      3  C   UNL A   1      30.931  29.098  22.738  1.00  0.00     0.188 C 
BRANCH   3   4
ATOM      4  O   UNL A   1      30.422  27.923  22.119  1.00  0.00    -0.376 OA
BRANCH   4   5
ATOM      5  C   UNL A   1      30.305  26.734  22.883  1.00  0.00     0.202 C 
BRANCH   5   6
ATOM      6  C   UNL A   1      31.297  25.613  22.566  1.00  0.00     0.261 C 
BRANCH   6   7
ATOM      7  O   UNL A   1      32.690  25.942  22.753  1.00  0.00    -0.463 OA
BRANCH   7   8
ATOM      8  C   UNL A   1      33.570  24.918  22.616  1.00  0.00     0.309 C 
ATOM      9  O   UNL A   1      33.587  24.146  21.664  1.00  0.00    -0.252 OA
BRANCH   8  10
ATOM     10  C   UNL A   1      34.483  24.700  23.822  1.00  0.00     0.111 C 
ATOM     11  C   UNL A   1      29.308  22.786  27.334  1.00  0.00     0.044 C 
ATOM     12  C   UNL A   1      30.599  22.908  26.583  1.00  0.00    -0.050 A 
ATOM     13  C   UNL A   1      31.100  21.833  25.841  1.00  0.00     0.004 A 
ATOM     14  C   UNL A   1      31.293  24.123  26.573  1.00  0.00     0.015 A 
ATOM     15  C   UNL A   1      32.289  21.955  25.120  1.00  0.00     0.005 A 
ATOM     16  C   UNL A   1      32.479  24.252  25.841  1.00  0.00     0.021 A 
ATOM     17  C   UNL A   1      32.986  23.168  25.109  1.00  0.00    -0.036 A 
ATOM     18  C   UNL A   1      33.184  25.560  25.826  1.00  0.00     0.164 C 
ATOM     19  C   UNL A   1      34.270  23.278  24.328  1.00  0.00     0.052 C 
ATOM     20  O   UNL A   1      32.786  26.492  26.519  1.00  0.00    -0.294 OA
ATOM     21  C   UNL A   1      34.441  25.673  24.993  1.00  0.00     0.096 C 
ENDBRANCH   8  10
ENDBRANCH   7   8
ENDBRANCH   6   7
ENDBRANCH   5   6
ENDBRANCH   4   5
ENDBRANCH   3   4
ENDBRANCH   2   3
ENDBRANCH   1   2
BRANCH   1  22
ATOM     22  C   UNL A   1      31.684  29.515  25.679  1.00  0.00     0.202 C 
BRANCH  22  23
ATOM     23  C   UNL A   1      32.987  30.207  26.081  1.00  0.00     0.261 C 
BRANCH  23  24
ATOM     24  O   UNL A   1      32.955  30.719  27.428  1.00  0.00    -0.460 OA
BRANCH  24  25
ATOM     25  C   UNL A   1      33.733  31.797  27.686  1.00  0.00     0.338 C 
ATOM     26  O   UNL A   1      33.366  32.960  27.736  1.00  0.00    -0.246 OA
BRANCH  25  27
ATOM     27  C   UNL A   1      35.051  31.299  28.152  1.00  0.00     0.060 A 
ATOM     28  C   UNL A   1      36.180  32.122  28.117  1.00  0.00     0.016 A 
ATOM     29  C   UNL A   1      35.166  29.966  28.572  1.00  0.00     0.016 A 
ATOM     30  C   UNL A   1      37.418  31.616  28.521  1.00  0.00     0.010 A 
ATOM     31  C   UNL A   1      36.407  29.457  28.967  1.00  0.00     0.010 A 
ATOM     32  C   UNL A   1      37.539  30.286  28.965  1.00  0.00    -0.014 A 
BRANCH  32  33
ATOM     33  C   UNL A   1      38.787  29.866  29.650  1.00  0.00     0.031 A 
ATOM     34  C   UNL A   1      39.199  30.392  30.990  1.00  0.00     0.074 A 
ATOM     35  C   UNL A   1      39.554  28.959  29.016  1.00  0.00     0.049 A 
ATOM     36  N   UNL A   1      40.193  29.999  31.746  1.00  0.00    -0.248 NA
ATOM     37  C   UNL A   1      38.412  31.497  31.554  1.00  0.00     0.031 C 
ATOM     38  C   UNL A   1      39.262  28.413  27.689  1.00  0.00     0.029 A 
ATOM     39  N   UNL A   1      40.715  28.331  29.390  1.00  0.00    -0.354 N 
ATOM     40  C   UNL A   1      40.142  30.787  32.890  1.00  0.00     0.074 A 
ATOM     41  C   UNL A   1      39.046  31.717  32.702  1.00  0.00     0.031 C 
ATOM     42  C   UNL A   1      40.201  27.515  27.370  1.00  0.00     0.029 A 
ATOM     43  C   UNL A   1      41.179  27.439  28.453  1.00  0.00     0.049 A 
ATOM     44  H   UNL A   1      41.171  28.503  30.244  1.00  0.00     0.167 HD
ATOM     45  C   UNL A   1      40.928  30.717  33.992  1.00  0.00     0.034 A 
ATOM     46  C   UNL A   1      42.265  26.639  28.458  1.00  0.00     0.034 A 
ATOM     47  C   UNL A   1      42.021  29.783  34.147  1.00  0.00     0.049 A 
ATOM     48  C   UNL A   1      43.136  26.599  29.684  1.00  0.00     0.074 A 
ATOM     49  C   UNL A   1      42.816  29.581  35.263  1.00  0.00     0.029 A 
ATOM     50  N   UNL A   1      42.485  28.913  33.170  1.00  0.00    -0.354 N 
ATOM     51  N   UNL A   1      42.990  27.247  30.816  1.00  0.00    -0.248 NA
ATOM     52  C   UNL A   1      44.307  25.713  29.648  1.00  0.00     0.031 C 
ATOM     53  C   UNL A   1      43.808  28.657  34.936  1.00  0.00     0.029 A 
ATOM     54  C   UNL A   1      43.586  28.213  33.642  1.00  0.00     0.049 A 
ATOM     55  H   UNL A   1      42.091  28.807  32.275  1.00  0.00     0.167 HD
ATOM     56  C   UNL A   1      44.040  26.836  31.632  1.00  0.00     0.074 A 
ATOM     57  C   UNL A   1      44.795  25.861  30.875  1.00  0.00     0.031 C 
ATOM     58  C   UNL A   1      44.346  27.239  32.890  1.00  0.00     0.034 A 
BRANCH  45  59
ATOM     59  C   UNL A   1      40.646  31.634  35.159  1.00  0.00     0.023 A 
ATOM     60  C   UNL A   1      39.604  31.335  36.060  1.00  0.00     0.031 A 
ATOM     61  C   UNL A   1      41.272  32.889  35.263  1.00  0.00     0.131 A 
ATOM     62  C   UNL A   1      39.190  32.296  36.993  1.00  0.00     0.055 A 
ATOM     63  C   UNL A   1      40.884  33.826  36.222  1.00  0.00     0.041 A 
ATOM     64  F   UNL A   1      42.260  33.229  34.419  1.00  0.00    -0.206 F 
ATOM     65  C   UNL A   1      39.828  33.538  37.082  1.00  0.00     0.022 A 
BRANCH  62  66
ATOM     66  S   UNL A   1      37.755  32.010  38.067  1.00  0.00     0.124 S 
ATOM     67  O   UNL A   1      36.823  33.034  37.600  1.00  0.00    -0.237 OA
ATOM     68  O   UNL A   1      37.389  30.637  37.730  1.00  0.00    -0.237 OA
ATOM     69  O   UNL A   1      38.276  32.214  39.414  1.00  0.00    -0.744 OA
ENDBRANCH  62  66
ENDBRANCH  45  59
BRANCH  46  70
ATOM     70  C   UNL A   1      42.518  25.770  27.272  1.00  0.00     0.023 A 
ATOM     71  C   UNL A   1      42.065  24.438  27.251  1.00  0.00     0.031 A 
ATOM     72  C   UNL A   1      43.331  26.210  26.217  1.00  0.00     0.131 A 
ATOM     73  C   UNL A   1      42.495  23.572  26.239  1.00  0.00     0.055 A 
ATOM     74  C   UNL A   1      43.696  25.364  25.168  1.00  0.00     0.041 A 
ATOM     75  F   UNL A   1      43.802  27.467  26.204  1.00  0.00    -0.206 F 
ATOM     76  C   UNL A   1      43.295  24.032  25.187  1.00  0.00     0.022 A 
BRANCH  73  77
ATOM     77  S   UNL A   1      42.163  21.791  26.338  1.00  0.00     0.124 S 
ATOM     78  O   UNL A   1      42.420  21.511  27.746  1.00  0.00    -0.237 OA
ATOM     79  O   UNL A   1      40.764  21.726  25.925  1.00  0.00    -0.237 OA
ATOM     80  O   UNL A   1      43.114  21.210  25.395  1.00  0.00    -0.744 OA
ENDBRANCH  73  77
ENDBRANCH  46  70
BRANCH  58  81
ATOM     81  C   UNL A   1      45.571  26.660  33.561  1.00  0.00     0.023 A 
ATOM     82  C   UNL A   1      45.462  25.510  34.368  1.00  0.00     0.031 A 
ATOM     83  C   UNL A   1      46.803  27.337  33.535  1.00  0.00     0.131 A 
ATOM     84  C   UNL A   1      46.546  25.105  35.157  1.00  0.00     0.055 A 
ATOM     85  C   UNL A   1      47.897  26.899  34.283  1.00  0.00     0.041 A 
ATOM     86  F   UNL A   1      46.957  28.442  32.788  1.00  0.00    -0.206 F 
ATOM     87  C   UNL A   1      47.766  25.790  35.113  1.00  0.00     0.022 A 
BRANCH  84  88
ATOM     88  S   UNL A   1      46.389  23.737  36.338  1.00  0.00     0.124 S 
ATOM     89  O   UNL A   1      46.347  24.443  37.617  1.00  0.00    -0.237 OA
ATOM     90  O   UNL A   1      45.131  23.119  35.926  1.00  0.00    -0.237 OA
ATOM     91  O   UNL A   1      47.587  22.936  36.111  1.00  0.00    -0.744 OA
ENDBRANCH  84  88
ENDBRANCH  58  81
ENDBRANCH  32  33
ENDBRANCH  25  27
ENDBRANCH  24  25
ENDBRANCH  23  24
ENDBRANCH  22  23
ENDBRANCH   1  22
TORSDOF 20
ENDMDL
