MODEL 1
REMARK VINA RESULT:     -10.2      0.000      0.000
REMARK SMILES CCCc1cc2c(cc1Cl)C=C(C(=O)OCCOCCOCCOC(=O)c1ccc(-c3c4nc(c(-c5cc(S(=O)(=O)[O-])ccc5F)c5ccc([nH]5)c(-c5cc(S(=O)(=O)[O-])ccc5F)c5nc(c(-c6cc(S(=O)(=O)[O-])ccc6F)c6ccc3[nH]6)C=C5)C=C4)cc1)[C@@H](C(F)(F)F)O2
REMARK SMILES IDX 20 1 19 2 18 3 17 4 16 5 15 6 13 7 14 8 12 9 4 10 5 11 9 12
REMARK SMILES IDX 6 13 8 14 10 15 7 16 95 17 11 18 90 19 3 20 2 21 1 22 91 23
REMARK SMILES IDX 92 24 93 25 94 26 21 27 22 28 23 29 24 30 25 31 26 32 27 33
REMARK SMILES IDX 28 34 89 35 29 36 88 37 30 38 31 39 32 40 82 41 33 42 87 43
REMARK SMILES IDX 81 44 83 45 34 46 86 47 80 48 79 49 35 51 67 52 47 53 66 54
REMARK SMILES IDX 48 55 51 56 65 57 84 58 49 59 50 60 64 62 85 63 52 64 36 65
REMARK SMILES IDX 37 66 45 67 38 68 44 69 46 70 43 71 39 72 40 73 41 74 42 75
REMARK SMILES IDX 68 76 69 77 77 78 70 79 76 80 78 81 75 82 71 83 72 84 73 85
REMARK SMILES IDX 74 86 53 87 54 88 62 89 55 90 61 91 63 92 60 93 56 94 57 95
REMARK SMILES IDX 58 96 59 97
REMARK H PARENT 83 50 51 61
REMARK Flexibility Score: inf
ROOT
ATOM      1  C   UNL A   1      32.679  29.419  24.888  1.00  0.00     0.188 C 
ENDROOT
BRANCH   1   2
ATOM      2  C   UNL A   1      31.254  28.988  24.477  1.00  0.00     0.188 C 
BRANCH   2   3
ATOM      3  O   UNL A   1      30.964  27.647  24.794  1.00  0.00    -0.376 OA
BRANCH   3   4
ATOM      4  C   UNL A   1      30.081  26.887  23.994  1.00  0.00     0.202 C 
BRANCH   4   5
ATOM      5  C   UNL A   1      30.357  25.445  23.532  1.00  0.00     0.261 C 
BRANCH   5   6
ATOM      6  O   UNL A   1      31.520  25.225  22.732  1.00  0.00    -0.460 OA
BRANCH   6   7
ATOM      7  C   UNL A   1      32.701  25.182  23.387  1.00  0.00     0.338 C 
ATOM      8  O   UNL A   1      33.453  26.118  23.598  1.00  0.00    -0.246 OA
BRANCH   7   9
ATOM      9  C   UNL A   1      32.894  23.820  23.922  1.00  0.00     0.087 C 
ATOM     10  C   UNL A   1      32.721  18.882  24.775  1.00  0.00    -0.026 A 
ATOM     11  C   UNL A   1      33.166  19.993  25.508  1.00  0.00     0.052 A 
ATOM     12  C   UNL A   1      32.458  19.066  23.406  1.00  0.00     0.045 A 
ATOM     13  C   UNL A   1      33.180  21.271  24.944  1.00  0.00     0.128 A 
ATOM     14  C   UNL A   1      32.493  20.343  22.833  1.00  0.00     0.032 A 
ATOM     15  Cl  UNL A   1      32.061  17.745  22.365  1.00  0.00    -0.084 Cl
ATOM     16  C   UNL A   1      32.799  21.456  23.619  1.00  0.00     0.019 A 
ATOM     17  O   UNL A   1      33.559  22.283  25.778  1.00  0.00    -0.475 OA
ATOM     18  C   UNL A   1      32.670  22.800  23.085  1.00  0.00     0.027 C 
ATOM     19  C   UNL A   1      33.350  23.655  25.349  1.00  0.00     0.316 C 
BRANCH  10  20
ATOM     20  C   UNL A   1      32.531  17.532  25.440  1.00  0.00     0.037 C 
BRANCH  20  21
ATOM     21  C   UNL A   1      33.691  16.527  25.332  1.00  0.00     0.001 C 
ATOM     22  C   UNL A   1      34.853  17.020  24.475  1.00  0.00     0.004 C 
ENDBRANCH  20  21
ENDBRANCH  10  20
BRANCH  19  23
ATOM     23  C   UNL A   1      32.408  24.339  26.350  1.00  0.00     0.430 C 
ATOM     24  F   UNL A   1      31.114  24.238  25.957  1.00  0.00    -0.167 F 
ATOM     25  F   UNL A   1      32.481  23.769  27.577  1.00  0.00    -0.167 F 
ATOM     26  F   UNL A   1      32.683  25.654  26.498  1.00  0.00    -0.167 F 
ENDBRANCH  19  23
ENDBRANCH   7   9
ENDBRANCH   6   7
ENDBRANCH   5   6
ENDBRANCH   4   5
ENDBRANCH   3   4
ENDBRANCH   2   3
ENDBRANCH   1   2
BRANCH   1  27
ATOM     27  O   UNL A   1      32.856  30.329  25.970  1.00  0.00    -0.376 OA
BRANCH  27  28
ATOM     28  C   UNL A   1      31.704  30.901  26.584  1.00  0.00     0.202 C 
BRANCH  28  29
ATOM     29  C   UNL A   1      31.654  32.415  26.832  1.00  0.00     0.261 C 
BRANCH  29  30
ATOM     30  O   UNL A   1      32.924  33.078  26.724  1.00  0.00    -0.460 OA
BRANCH  30  31
ATOM     31  C   UNL A   1      33.341  33.728  27.841  1.00  0.00     0.338 C 
ATOM     32  O   UNL A   1      32.746  34.602  28.446  1.00  0.00    -0.246 OA
BRANCH  31  33
ATOM     33  C   UNL A   1      34.557  33.064  28.358  1.00  0.00     0.060 A 
ATOM     34  C   UNL A   1      35.831  33.508  28.002  1.00  0.00     0.016 A 
ATOM     35  C   UNL A   1      34.402  31.971  29.222  1.00  0.00     0.016 A 
ATOM     36  C   UNL A   1      36.954  32.868  28.537  1.00  0.00     0.010 A 
ATOM     37  C   UNL A   1      35.524  31.322  29.741  1.00  0.00     0.010 A 
ATOM     38  C   UNL A   1      36.809  31.780  29.418  1.00  0.00    -0.014 A 
BRANCH  38  39
ATOM     39  C   UNL A   1      37.992  31.256  30.144  1.00  0.00     0.031 A 
ATOM     40  C   UNL A   1      38.320  31.670  31.544  1.00  0.00     0.074 A 
ATOM     41  C   UNL A   1      38.788  30.386  29.493  1.00  0.00     0.049 A 
ATOM     42  N   UNL A   1      39.247  31.200  32.338  1.00  0.00    -0.248 NA
ATOM     43  C   UNL A   1      37.515  32.752  32.129  1.00  0.00     0.031 C 
ATOM     44  C   UNL A   1      38.588  29.958  28.109  1.00  0.00     0.029 A 
ATOM     45  N   UNL A   1      39.911  29.709  29.896  1.00  0.00    -0.354 N 
ATOM     46  C   UNL A   1      39.124  31.904  33.530  1.00  0.00     0.074 A 
ATOM     47  C   UNL A   1      38.066  32.873  33.333  1.00  0.00     0.031 C 
ATOM     48  C   UNL A   1      39.542  29.073  27.783  1.00  0.00     0.029 A 
ATOM     49  C   UNL A   1      40.432  28.885  28.927  1.00  0.00     0.049 A 
ATOM     50  H   UNL A   1      40.305  29.805  30.793  1.00  0.00     0.167 HD
ATOM     51  C   UNL A   1      39.818  31.732  34.681  1.00  0.00     0.034 A 
ATOM     52  C   UNL A   1      41.498  28.059  28.954  1.00  0.00     0.034 A 
ATOM     53  C   UNL A   1      40.883  30.770  34.845  1.00  0.00     0.049 A 
ATOM     54  C   UNL A   1      42.264  27.899  30.241  1.00  0.00     0.074 A 
ATOM     55  C   UNL A   1      41.602  30.480  35.992  1.00  0.00     0.029 A 
ATOM     56  N   UNL A   1      41.394  29.956  33.843  1.00  0.00    -0.354 N 
ATOM     57  N   UNL A   1      42.048  28.469  31.403  1.00  0.00    -0.248 NA
ATOM     58  C   UNL A   1      43.401  26.969  30.233  1.00  0.00     0.031 C 
ATOM     59  C   UNL A   1      42.590  29.550  35.669  1.00  0.00     0.029 A 
ATOM     60  C   UNL A   1      42.442  29.193  34.339  1.00  0.00     0.049 A 
ATOM     61  H   UNL A   1      41.062  29.924  32.917  1.00  0.00     0.167 HD
ATOM     62  C   UNL A   1      43.004  27.948  32.271  1.00  0.00     0.074 A 
ATOM     63  C   UNL A   1      43.783  26.998  31.504  1.00  0.00     0.031 C 
ATOM     64  C   UNL A   1      43.215  28.236  33.580  1.00  0.00     0.034 A 
BRANCH  51  65
ATOM     65  C   UNL A   1      39.446  32.560  35.888  1.00  0.00     0.023 A 
ATOM     66  C   UNL A   1      40.101  33.781  36.142  1.00  0.00     0.031 A 
ATOM     67  C   UNL A   1      38.574  32.057  36.871  1.00  0.00     0.131 A 
ATOM     68  C   UNL A   1      39.904  34.435  37.366  1.00  0.00     0.055 A 
ATOM     69  C   UNL A   1      38.352  32.734  38.071  1.00  0.00     0.041 A 
ATOM     70  F   UNL A   1      37.933  30.892  36.681  1.00  0.00    -0.206 F 
ATOM     71  C   UNL A   1      39.031  33.921  38.329  1.00  0.00     0.022 A 
BRANCH  68  72
ATOM     72  S   UNL A   1      40.835  35.934  37.792  1.00  0.00     0.124 S 
ATOM     73  O   UNL A   1      41.545  35.511  38.997  1.00  0.00    -0.237 OA
ATOM     74  O   UNL A   1      41.670  36.122  36.609  1.00  0.00    -0.237 OA
ATOM     75  O   UNL A   1      39.801  36.941  38.003  1.00  0.00    -0.744 OA
ENDBRANCH  68  72
ENDBRANCH  51  65
BRANCH  52  76
ATOM     76  C   UNL A   1      41.822  27.265  27.734  1.00  0.00     0.023 A 
ATOM     77  C   UNL A   1      41.461  25.908  27.639  1.00  0.00     0.031 A 
ATOM     78  C   UNL A   1      42.607  27.814  26.707  1.00  0.00     0.131 A 
ATOM     79  C   UNL A   1      41.945  25.132  26.578  1.00  0.00     0.055 A 
ATOM     80  C   UNL A   1      43.026  27.055  25.614  1.00  0.00     0.041 A 
ATOM     81  F   UNL A   1      42.992  29.099  26.764  1.00  0.00    -0.206 F 
ATOM     82  C   UNL A   1      42.710  25.701  25.555  1.00  0.00     0.022 A 
BRANCH  79  83
ATOM     83  S   UNL A   1      41.718  23.331  26.566  1.00  0.00     0.124 S 
ATOM     84  O   UNL A   1      42.421  22.928  27.779  1.00  0.00    -0.237 OA
ATOM     85  O   UNL A   1      40.263  23.215  26.610  1.00  0.00    -0.237 OA
ATOM     86  O   UNL A   1      42.335  22.915  25.310  1.00  0.00    -0.744 OA
ENDBRANCH  79  83
ENDBRANCH  52  76
BRANCH  64  87
ATOM     87  C   UNL A   1      44.335  27.529  34.308  1.00  0.00     0.023 A 
ATOM     88  C   UNL A   1      45.661  27.988  34.180  1.00  0.00     0.031 A 
ATOM     89  C   UNL A   1      44.115  26.324  34.998  1.00  0.00     0.131 A 
ATOM     90  C   UNL A   1      46.718  27.223  34.693  1.00  0.00     0.055 A 
ATOM     91  C   UNL A   1      45.168  25.592  35.551  1.00  0.00     0.041 A 
ATOM     92  F   UNL A   1      42.872  25.836  35.139  1.00  0.00    -0.206 F 
ATOM     93  C   UNL A   1      46.476  26.033  35.387  1.00  0.00     0.022 A 
BRANCH  90  94
ATOM     94  S   UNL A   1      48.445  27.695  34.401  1.00  0.00     0.124 S 
ATOM     95  O   UNL A   1      48.443  27.985  32.969  1.00  0.00    -0.237 OA
ATOM     96  O   UNL A   1      48.598  28.858  35.271  1.00  0.00    -0.237 OA
ATOM     97  O   UNL A   1      49.206  26.513  34.794  1.00  0.00    -0.744 OA
ENDBRANCH  90  94
ENDBRANCH  64  87
ENDBRANCH  38  39
ENDBRANCH  31  33
ENDBRANCH  30  31
ENDBRANCH  29  30
ENDBRANCH  28  29
ENDBRANCH  27  28
ENDBRANCH   1  27
TORSDOF 23
ENDMDL
MODEL 2
REMARK VINA RESULT:     -10.1      2.311      3.050
REMARK SMILES CCCc1cc2c(cc1Cl)C=C(C(=O)OCCOCCOCCOC(=O)c1ccc(-c3c4nc(c(-c5cc(S(=O)(=O)[O-])ccc5F)c5ccc([nH]5)c(-c5cc(S(=O)(=O)[O-])ccc5F)c5nc(c(-c6cc(S(=O)(=O)[O-])ccc6F)c6ccc3[nH]6)C=C5)C=C4)cc1)[C@@H](C(F)(F)F)O2
REMARK SMILES IDX 20 1 19 2 18 3 17 4 16 5 15 6 13 7 14 8 12 9 4 10 5 11 9 12
REMARK SMILES IDX 6 13 8 14 10 15 7 16 95 17 11 18 90 19 3 20 2 21 1 22 91 23
REMARK SMILES IDX 92 24 93 25 94 26 21 27 22 28 23 29 24 30 25 31 26 32 27 33
REMARK SMILES IDX 28 34 89 35 29 36 88 37 30 38 31 39 32 40 82 41 33 42 87 43
REMARK SMILES IDX 81 44 83 45 34 46 86 47 80 48 79 49 35 51 67 52 47 53 66 54
REMARK SMILES IDX 48 55 51 56 65 57 84 58 49 59 50 60 64 62 85 63 52 64 36 65
REMARK SMILES IDX 37 66 45 67 38 68 44 69 46 70 43 71 39 72 40 73 41 74 42 75
REMARK SMILES IDX 68 76 69 77 77 78 70 79 76 80 78 81 75 82 71 83 72 84 73 85
REMARK SMILES IDX 74 86 53 87 54 88 62 89 55 90 61 91 63 92 60 93 56 94 57 95
REMARK SMILES IDX 58 96 59 97
REMARK H PARENT 83 50 51 61
REMARK Flexibility Score: inf
ROOT
ATOM      1  C   UNL A   1      32.869  29.300  24.990  1.00  0.00     0.188 C 
ENDROOT
BRANCH   1   2
ATOM      2  C   UNL A   1      31.366  29.364  24.639  1.00  0.00     0.188 C 
BRANCH   2   3
ATOM      3  O   UNL A   1      30.696  28.141  24.836  1.00  0.00    -0.376 OA
BRANCH   3   4
ATOM      4  C   UNL A   1      30.197  27.402  23.740  1.00  0.00     0.202 C 
BRANCH   4   5
ATOM      5  C   UNL A   1      30.112  25.865  23.699  1.00  0.00     0.261 C 
BRANCH   5   6
ATOM      6  O   UNL A   1      31.139  25.173  22.987  1.00  0.00    -0.460 OA
BRANCH   6   7
ATOM      7  C   UNL A   1      32.353  25.125  23.579  1.00  0.00     0.338 C 
ATOM      8  O   UNL A   1      33.099  26.066  23.790  1.00  0.00    -0.246 OA
BRANCH   7   9
ATOM      9  C   UNL A   1      32.597  23.746  24.044  1.00  0.00     0.087 C 
ATOM     10  C   UNL A   1      32.646  18.765  24.619  1.00  0.00    -0.026 A 
ATOM     11  C   UNL A   1      33.012  19.854  25.426  1.00  0.00     0.052 A 
ATOM     12  C   UNL A   1      32.416  19.013  23.253  1.00  0.00     0.045 A 
ATOM     13  C   UNL A   1      32.979  21.160  24.934  1.00  0.00     0.128 A 
ATOM     14  C   UNL A   1      32.405  20.321  22.753  1.00  0.00     0.032 A 
ATOM     15  Cl  UNL A   1      32.118  17.736  22.129  1.00  0.00    -0.084 Cl
ATOM     16  C   UNL A   1      32.630  21.401  23.609  1.00  0.00     0.019 A 
ATOM     17  O   UNL A   1      33.281  22.141  25.835  1.00  0.00    -0.475 OA
ATOM     18  C   UNL A   1      32.451  22.766  23.145  1.00  0.00     0.027 C 
ATOM     19  C   UNL A   1      33.017  23.523  25.474  1.00  0.00     0.316 C 
BRANCH  10  20
ATOM     20  C   UNL A   1      32.503  17.372  25.201  1.00  0.00     0.037 C 
BRANCH  20  21
ATOM     21  C   UNL A   1      33.290  16.241  24.518  1.00  0.00     0.001 C 
ATOM     22  C   UNL A   1      34.762  16.188  24.919  1.00  0.00     0.004 C 
ENDBRANCH  20  21
ENDBRANCH  10  20
BRANCH  19  23
ATOM     23  C   UNL A   1      32.012  24.103  26.480  1.00  0.00     0.430 C 
ATOM     24  F   UNL A   1      30.736  23.928  26.056  1.00  0.00    -0.167 F 
ATOM     25  F   UNL A   1      32.101  23.494  27.687  1.00  0.00    -0.167 F 
ATOM     26  F   UNL A   1      32.192  25.428  26.680  1.00  0.00    -0.167 F 
ENDBRANCH  19  23
ENDBRANCH   7   9
ENDBRANCH   6   7
ENDBRANCH   5   6
ENDBRANCH   4   5
ENDBRANCH   3   4
ENDBRANCH   2   3
ENDBRANCH   1   2
BRANCH   1  27
ATOM     27  O   UNL A   1      33.328  29.848  26.222  1.00  0.00    -0.376 OA
BRANCH  27  28
ATOM     28  C   UNL A   1      32.468  30.717  26.953  1.00  0.00     0.202 C 
BRANCH  28  29
ATOM     29  C   UNL A   1      33.055  31.958  27.640  1.00  0.00     0.261 C 
BRANCH  29  30
ATOM     30  O   UNL A   1      34.471  31.896  27.872  1.00  0.00    -0.460 OA
BRANCH  30  31
ATOM     31  C   UNL A   1      34.861  32.066  29.162  1.00  0.00     0.338 C 
ATOM     32  O   UNL A   1      34.213  32.566  30.064  1.00  0.00    -0.246 OA
BRANCH  31  33
ATOM     33  C   UNL A   1      36.136  31.349  29.377  1.00  0.00     0.060 A 
ATOM     34  C   UNL A   1      37.307  31.743  28.728  1.00  0.00     0.016 A 
ATOM     35  C   UNL A   1      36.145  30.255  30.256  1.00  0.00     0.016 A 
ATOM     36  C   UNL A   1      38.497  31.053  28.982  1.00  0.00     0.010 A 
ATOM     37  C   UNL A   1      37.331  29.557  30.494  1.00  0.00     0.010 A 
ATOM     38  C   UNL A   1      38.520  29.965  29.875  1.00  0.00    -0.014 A 
BRANCH  38  39
ATOM     39  C   UNL A   1      39.819  29.387  30.300  1.00  0.00     0.031 A 
ATOM     40  C   UNL A   1      40.574  29.903  31.485  1.00  0.00     0.074 A 
ATOM     41  C   UNL A   1      40.318  28.372  29.570  1.00  0.00     0.049 A 
ATOM     42  N   UNL A   1      41.653  29.414  32.040  1.00  0.00    -0.248 NA
ATOM     43  C   UNL A   1      40.064  31.122  32.126  1.00  0.00     0.031 C 
ATOM     44  C   UNL A   1      39.688  27.829  28.366  1.00  0.00     0.029 A 
ATOM     45  N   UNL A   1      41.453  27.616  29.726  1.00  0.00    -0.354 N 
ATOM     46  C   UNL A   1      41.940  30.245  33.116  1.00  0.00     0.074 A 
ATOM     47  C   UNL A   1      40.951  31.303  33.100  1.00  0.00     0.031 C 
ATOM     48  C   UNL A   1      40.432  26.814  27.904  1.00  0.00     0.029 A 
ATOM     49  C   UNL A   1      41.601  26.644  28.765  1.00  0.00     0.049 A 
ATOM     50  H   UNL A   1      42.099  27.758  30.455  1.00  0.00     0.167 HD
ATOM     51  C   UNL A   1      42.926  30.114  34.037  1.00  0.00     0.034 A 
ATOM     52  C   UNL A   1      42.558  25.710  28.598  1.00  0.00     0.034 A 
ATOM     53  C   UNL A   1      43.913  29.060  34.019  1.00  0.00     0.049 A 
ATOM     54  C   UNL A   1      43.653  25.596  29.627  1.00  0.00     0.074 A 
ATOM     55  C   UNL A   1      44.911  28.809  34.944  1.00  0.00     0.029 A 
ATOM     56  N   UNL A   1      44.042  28.095  33.028  1.00  0.00    -0.354 N 
ATOM     57  N   UNL A   1      43.833  26.303  30.718  1.00  0.00    -0.248 NA
ATOM     58  C   UNL A   1      44.661  24.548  29.421  1.00  0.00     0.031 C 
ATOM     59  C   UNL A   1      45.685  27.745  34.480  1.00  0.00     0.029 A 
ATOM     60  C   UNL A   1      45.125  27.273  33.304  1.00  0.00     0.049 A 
ATOM     61  H   UNL A   1      43.452  28.007  32.246  1.00  0.00     0.167 HD
ATOM     62  C   UNL A   1      44.957  25.768  31.342  1.00  0.00     0.074 A 
ATOM     63  C   UNL A   1      45.400  24.663  30.517  1.00  0.00     0.031 C 
ATOM     64  C   UNL A   1      45.565  26.163  32.489  1.00  0.00     0.034 A 
BRANCH  51  65
ATOM     65  C   UNL A   1      42.991  31.098  35.181  1.00  0.00     0.023 A 
ATOM     66  C   UNL A   1      43.748  32.280  35.062  1.00  0.00     0.031 A 
ATOM     67  C   UNL A   1      42.448  30.782  36.440  1.00  0.00     0.131 A 
ATOM     68  C   UNL A   1      43.976  33.078  36.190  1.00  0.00     0.055 A 
ATOM     69  C   UNL A   1      42.646  31.601  37.552  1.00  0.00     0.041 A 
ATOM     70  F   UNL A   1      41.726  29.661  36.609  1.00  0.00    -0.206 F 
ATOM     71  C   UNL A   1      43.425  32.748  37.433  1.00  0.00     0.022 A 
BRANCH  68  72
ATOM     72  S   UNL A   1      45.062  34.530  36.113  1.00  0.00     0.124 S 
ATOM     73  O   UNL A   1      44.283  35.524  36.847  1.00  0.00    -0.237 OA
ATOM     74  O   UNL A   1      46.262  34.050  36.794  1.00  0.00    -0.237 OA
ATOM     75  O   UNL A   1      45.205  34.785  34.684  1.00  0.00    -0.744 OA
ENDBRANCH  68  72
ENDBRANCH  51  65
BRANCH  52  76
ATOM     76  C   UNL A   1      42.447  24.764  27.451  1.00  0.00     0.023 A 
ATOM     77  C   UNL A   1      41.572  23.664  27.504  1.00  0.00     0.031 A 
ATOM     78  C   UNL A   1      43.306  24.873  26.345  1.00  0.00     0.131 A 
ATOM     79  C   UNL A   1      41.625  22.682  26.508  1.00  0.00     0.055 A 
ATOM     80  C   UNL A   1      43.305  23.929  25.316  1.00  0.00     0.041 A 
ATOM     81  F   UNL A   1      44.172  25.894  26.259  1.00  0.00    -0.206 F 
ATOM     82  C   UNL A   1      42.474  22.817  25.404  1.00  0.00     0.022 A 
BRANCH  79  83
ATOM     83  S   UNL A   1      40.703  21.129  26.682  1.00  0.00     0.124 S 
ATOM     84  O   UNL A   1      40.670  20.955  28.130  1.00  0.00    -0.237 OA
ATOM     85  O   UNL A   1      39.427  21.470  26.057  1.00  0.00    -0.237 OA
ATOM     86  O   UNL A   1      41.513  20.162  25.947  1.00  0.00    -0.744 OA
ENDBRANCH  79  83
ENDBRANCH  52  76
BRANCH  64  87
ATOM     87  C   UNL A   1      46.790  25.411  32.958  1.00  0.00     0.023 A 
ATOM     88  C   UNL A   1      46.661  24.362  33.889  1.00  0.00     0.031 A 
ATOM     89  C   UNL A   1      48.085  25.829  32.606  1.00  0.00     0.131 A 
ATOM     90  C   UNL A   1      47.805  23.798  34.469  1.00  0.00     0.055 A 
ATOM     91  C   UNL A   1      49.223  25.228  33.149  1.00  0.00     0.041 A 
ATOM     92  F   UNL A   1      48.264  26.832  31.732  1.00  0.00    -0.206 F 
ATOM     93  C   UNL A   1      49.085  24.219  34.095  1.00  0.00     0.022 A 
BRANCH  90  94
ATOM     94  S   UNL A   1      47.675  22.563  35.793  1.00  0.00     0.124 S 
ATOM     95  O   UNL A   1      48.908  22.791  36.542  1.00  0.00    -0.237 OA
ATOM     96  O   UNL A   1      46.449  22.970  36.474  1.00  0.00    -0.237 OA
ATOM     97  O   UNL A   1      47.605  21.290  35.083  1.00  0.00    -0.744 OA
ENDBRANCH  90  94
ENDBRANCH  64  87
ENDBRANCH  38  39
ENDBRANCH  31  33
ENDBRANCH  30  31
ENDBRANCH  29  30
ENDBRANCH  28  29
ENDBRANCH  27  28
ENDBRANCH   1  27
TORSDOF 23
ENDMDL
MODEL 3
REMARK VINA RESULT:      -9.3      4.804     10.282
REMARK SMILES CCCc1cc2c(cc1Cl)C=C(C(=O)OCCOCCOCCOC(=O)c1ccc(-c3c4nc(c(-c5cc(S(=O)(=O)[O-])ccc5F)c5ccc([nH]5)c(-c5cc(S(=O)(=O)[O-])ccc5F)c5nc(c(-c6cc(S(=O)(=O)[O-])ccc6F)c6ccc3[nH]6)C=C5)C=C4)cc1)[C@@H](C(F)(F)F)O2
REMARK SMILES IDX 20 1 19 2 18 3 17 4 16 5 15 6 13 7 14 8 12 9 4 10 5 11 9 12
REMARK SMILES IDX 6 13 8 14 10 15 7 16 95 17 11 18 90 19 3 20 2 21 1 22 91 23
REMARK SMILES IDX 92 24 93 25 94 26 21 27 22 28 23 29 24 30 25 31 26 32 27 33
REMARK SMILES IDX 28 34 89 35 29 36 88 37 30 38 31 39 32 40 82 41 33 42 87 43
REMARK SMILES IDX 81 44 83 45 34 46 86 47 80 48 79 49 35 51 67 52 47 53 66 54
REMARK SMILES IDX 48 55 51 56 65 57 84 58 49 59 50 60 64 62 85 63 52 64 36 65
REMARK SMILES IDX 37 66 45 67 38 68 44 69 46 70 43 71 39 72 40 73 41 74 42 75
REMARK SMILES IDX 68 76 69 77 77 78 70 79 76 80 78 81 75 82 71 83 72 84 73 85
REMARK SMILES IDX 74 86 53 87 54 88 62 89 55 90 61 91 63 92 60 93 56 94 57 95
REMARK SMILES IDX 58 96 59 97
REMARK H PARENT 83 50 51 61
REMARK Flexibility Score: inf
ROOT
ATOM      1  C   UNL A   1      41.384  21.194  27.041  1.00  0.00     0.188 C 
ENDROOT
BRANCH   1   2
ATOM      2  C   UNL A   1      40.132  20.798  26.225  1.00  0.00     0.188 C 
BRANCH   2   3
ATOM      3  O   UNL A   1      39.062  21.702  26.375  1.00  0.00    -0.376 OA
BRANCH   3   4
ATOM      4  C   UNL A   1      38.153  21.931  25.317  1.00  0.00     0.202 C 
BRANCH   4   5
ATOM      5  C   UNL A   1      36.854  21.133  25.105  1.00  0.00     0.261 C 
BRANCH   5   6
ATOM      6  O   UNL A   1      35.622  21.846  25.223  1.00  0.00    -0.460 OA
BRANCH   6   7
ATOM      7  C   UNL A   1      34.546  21.287  24.627  1.00  0.00     0.338 C 
ATOM      8  O   UNL A   1      34.258  20.102  24.600  1.00  0.00    -0.246 OA
BRANCH   7   9
ATOM      9  C   UNL A   1      33.687  22.366  24.098  1.00  0.00     0.087 C 
ATOM     10  C   UNL A   1      31.808  26.768  22.605  1.00  0.00    -0.026 A 
ATOM     11  C   UNL A   1      31.262  25.503  22.871  1.00  0.00     0.052 A 
ATOM     12  C   UNL A   1      33.207  26.863  22.486  1.00  0.00     0.045 A 
ATOM     13  C   UNL A   1      32.080  24.414  23.179  1.00  0.00     0.128 A 
ATOM     14  C   UNL A   1      34.028  25.766  22.773  1.00  0.00     0.032 A 
ATOM     15  Cl  UNL A   1      33.987  28.328  22.004  1.00  0.00    -0.084 Cl
ATOM     16  C   UNL A   1      33.464  24.554  23.176  1.00  0.00     0.019 A 
ATOM     17  O   UNL A   1      31.430  23.255  23.494  1.00  0.00    -0.475 OA
ATOM     18  C   UNL A   1      34.302  23.464  23.643  1.00  0.00     0.027 C 
ATOM     19  C   UNL A   1      32.194  22.164  24.073  1.00  0.00     0.316 C 
BRANCH  10  20
ATOM     20  C   UNL A   1      30.920  27.988  22.454  1.00  0.00     0.037 C 
BRANCH  20  21
ATOM     21  C   UNL A   1      30.875  28.975  23.633  1.00  0.00     0.001 C 
ATOM     22  C   UNL A   1      31.353  28.377  24.953  1.00  0.00     0.004 C 
ENDBRANCH  20  21
ENDBRANCH  10  20
BRANCH  19  23
ATOM     23  C   UNL A   1      31.620  21.854  25.463  1.00  0.00     0.430 C 
ATOM     24  F   UNL A   1      30.396  22.414  25.627  1.00  0.00    -0.167 F 
ATOM     25  F   UNL A   1      31.461  20.522  25.654  1.00  0.00    -0.167 F 
ATOM     26  F   UNL A   1      32.411  22.314  26.460  1.00  0.00    -0.167 F 
ENDBRANCH  19  23
ENDBRANCH   7   9
ENDBRANCH   6   7
ENDBRANCH   5   6
ENDBRANCH   4   5
ENDBRANCH   3   4
ENDBRANCH   2   3
ENDBRANCH   1   2
BRANCH   1  27
ATOM     27  O   UNL A   1      42.562  20.399  26.951  1.00  0.00    -0.376 OA
BRANCH  27  28
ATOM     28  C   UNL A   1      42.823  19.688  25.744  1.00  0.00     0.202 C 
BRANCH  28  29
ATOM     29  C   UNL A   1      44.256  19.636  25.194  1.00  0.00     0.261 C 
BRANCH  29  30
ATOM     30  O   UNL A   1      45.021  20.832  25.410  1.00  0.00    -0.460 OA
BRANCH  30  31
ATOM     31  C   UNL A   1      44.756  21.858  24.559  1.00  0.00     0.338 C 
ATOM     32  O   UNL A   1      44.524  21.779  23.366  1.00  0.00    -0.246 OA
BRANCH  31  33
ATOM     33  C   UNL A   1      44.571  23.097  25.344  1.00  0.00     0.060 A 
ATOM     34  C   UNL A   1      44.692  23.099  26.734  1.00  0.00     0.016 A 
ATOM     35  C   UNL A   1      44.271  24.282  24.656  1.00  0.00     0.016 A 
ATOM     36  C   UNL A   1      44.537  24.299  27.434  1.00  0.00     0.010 A 
ATOM     37  C   UNL A   1      44.099  25.477  25.359  1.00  0.00     0.010 A 
ATOM     38  C   UNL A   1      44.252  25.497  26.752  1.00  0.00    -0.014 A 
BRANCH  38  39
ATOM     39  C   UNL A   1      44.307  26.790  27.478  1.00  0.00     0.031 A 
ATOM     40  C   UNL A   1      45.589  27.534  27.689  1.00  0.00     0.074 A 
ATOM     41  C   UNL A   1      43.152  27.284  27.963  1.00  0.00     0.049 A 
ATOM     42  N   UNL A   1      45.765  28.728  28.194  1.00  0.00    -0.248 NA
ATOM     43  C   UNL A   1      46.831  26.856  27.293  1.00  0.00     0.031 C 
ATOM     44  C   UNL A   1      41.856  26.612  27.858  1.00  0.00     0.029 A 
ATOM     45  N   UNL A   1      42.874  28.449  28.630  1.00  0.00    -0.354 N 
ATOM     46  C   UNL A   1      47.133  28.964  28.152  1.00  0.00     0.074 A 
ATOM     47  C   UNL A   1      47.746  27.763  27.623  1.00  0.00     0.031 C 
ATOM     48  C   UNL A   1      40.917  27.386  28.420  1.00  0.00     0.029 A 
ATOM     49  C   UNL A   1      41.543  28.598  28.942  1.00  0.00     0.049 A 
ATOM     50  H   UNL A   1      43.561  29.114  28.863  1.00  0.00     0.167 HD
ATOM     51  C   UNL A   1      47.802  30.089  28.503  1.00  0.00     0.034 A 
ATOM     52  C   UNL A   1      40.892  29.602  29.565  1.00  0.00     0.034 A 
ATOM     53  C   UNL A   1      47.169  31.268  29.046  1.00  0.00     0.049 A 
ATOM     54  C   UNL A   1      41.662  30.835  29.961  1.00  0.00     0.074 A 
ATOM     55  C   UNL A   1      47.755  32.478  29.373  1.00  0.00     0.029 A 
ATOM     56  N   UNL A   1      45.821  31.385  29.360  1.00  0.00    -0.354 N 
ATOM     57  N   UNL A   1      42.936  31.101  29.789  1.00  0.00    -0.248 NA
ATOM     58  C   UNL A   1      40.909  31.914  30.614  1.00  0.00     0.031 C 
ATOM     59  C   UNL A   1      46.784  33.298  29.948  1.00  0.00     0.029 A 
ATOM     60  C   UNL A   1      45.568  32.634  29.909  1.00  0.00     0.049 A 
ATOM     61  H   UNL A   1      45.144  30.686  29.213  1.00  0.00     0.167 HD
ATOM     62  C   UNL A   1      43.130  32.386  30.285  1.00  0.00     0.074 A 
ATOM     63  C   UNL A   1      41.838  32.853  30.743  1.00  0.00     0.031 C 
ATOM     64  C   UNL A   1      44.278  33.108  30.357  1.00  0.00     0.034 A 
BRANCH  51  65
ATOM     65  C   UNL A   1      49.295  30.149  28.285  1.00  0.00     0.023 A 
ATOM     66  C   UNL A   1      49.818  30.607  27.059  1.00  0.00     0.031 A 
ATOM     67  C   UNL A   1      50.187  29.590  29.219  1.00  0.00     0.131 A 
ATOM     68  C   UNL A   1      51.184  30.460  26.786  1.00  0.00     0.055 A 
ATOM     69  C   UNL A   1      51.554  29.483  28.956  1.00  0.00     0.041 A 
ATOM     70  F   UNL A   1      49.738  29.129  30.398  1.00  0.00    -0.206 F 
ATOM     71  C   UNL A   1      52.055  29.906  27.729  1.00  0.00     0.022 A 
BRANCH  68  72
ATOM     72  S   UNL A   1      51.873  30.906  25.168  1.00  0.00     0.124 S 
ATOM     73  O   UNL A   1      51.437  29.784  24.339  1.00  0.00    -0.237 OA
ATOM     74  O   UNL A   1      51.211  32.178  24.893  1.00  0.00    -0.237 OA
ATOM     75  O   UNL A   1      53.310  30.979  25.406  1.00  0.00    -0.744 OA
ENDBRANCH  68  72
ENDBRANCH  51  65
BRANCH  52  76
ATOM     76  C   UNL A   1      39.417  29.491  29.757  1.00  0.00     0.023 A 
ATOM     77  C   UNL A   1      38.529  30.231  28.956  1.00  0.00     0.031 A 
ATOM     78  C   UNL A   1      38.886  28.749  30.824  1.00  0.00     0.131 A 
ATOM     79  C   UNL A   1      37.166  30.267  29.278  1.00  0.00     0.055 A 
ATOM     80  C   UNL A   1      37.517  28.730  31.097  1.00  0.00     0.041 A 
ATOM     81  F   UNL A   1      39.696  28.044  31.628  1.00  0.00    -0.206 F 
ATOM     82  C   UNL A   1      36.652  29.507  30.333  1.00  0.00     0.022 A 
BRANCH  79  83
ATOM     83  S   UNL A   1      36.041  31.412  28.431  1.00  0.00     0.124 S 
ATOM     84  O   UNL A   1      36.905  32.561  28.183  1.00  0.00    -0.237 OA
ATOM     85  O   UNL A   1      35.663  30.638  27.251  1.00  0.00    -0.237 OA
ATOM     86  O   UNL A   1      34.971  31.623  29.401  1.00  0.00    -0.744 OA
ENDBRANCH  79  83
ENDBRANCH  52  76
BRANCH  64  87
ATOM     87  C   UNL A   1      44.227  34.496  30.952  1.00  0.00     0.023 A 
ATOM     88  C   UNL A   1      44.204  34.665  32.351  1.00  0.00     0.031 A 
ATOM     89  C   UNL A   1      44.049  35.634  30.145  1.00  0.00     0.131 A 
ATOM     90  C   UNL A   1      43.961  35.932  32.898  1.00  0.00     0.055 A 
ATOM     91  C   UNL A   1      43.858  36.903  30.696  1.00  0.00     0.041 A 
ATOM     92  F   UNL A   1      44.051  35.527  28.807  1.00  0.00    -0.206 F 
ATOM     93  C   UNL A   1      43.799  37.053  32.078  1.00  0.00     0.022 A 
BRANCH  90  94
ATOM     94  S   UNL A   1      43.756  36.158  34.687  1.00  0.00     0.124 S 
ATOM     95  O   UNL A   1      44.585  37.335  34.940  1.00  0.00    -0.237 OA
ATOM     96  O   UNL A   1      42.317  36.373  34.807  1.00  0.00    -0.237 OA
ATOM     97  O   UNL A   1      44.254  34.912  35.260  1.00  0.00    -0.744 OA
ENDBRANCH  90  94
ENDBRANCH  64  87
ENDBRANCH  38  39
ENDBRANCH  31  33
ENDBRANCH  30  31
ENDBRANCH  29  30
ENDBRANCH  28  29
ENDBRANCH  27  28
ENDBRANCH   1  27
TORSDOF 23
ENDMDL
