MODEL 1
REMARK VINA RESULT:     -10.7      0.000      0.000
REMARK SMILES Cc1cccc(Nc2ccccc2C(=O)OCCOCCOCCOC(=O)c2ccc(-c3c4nc(c(-c5cc(S(=O)(=O)[O-])ccc5F)c5ccc([nH]5)c(-c5cc(S(=O)(=O)[O-])ccc5F)c5nc(c(-c6cc(S(=O)(=O)[O-])ccc6F)c6ccc3[nH]6)C=C5)C=C4)cc2)c1C
REMARK SMILES IDX 21 1 20 2 19 3 18 4 17 5 16 6 14 7 15 8 13 9 8 10 9 11 10 12
REMARK SMILES IDX 12 13 11 14 7 15 6 17 1 18 2 19 3 20 91 21 4 22 92 23 5 24
REMARK SMILES IDX 22 25 23 26 24 27 25 28 26 29 27 30 28 31 29 32 90 33 30 34
REMARK SMILES IDX 89 35 31 36 32 37 33 38 83 39 34 40 88 41 82 42 84 43 35 44
REMARK SMILES IDX 87 45 81 46 80 47 36 49 68 50 48 51 67 52 49 53 52 54 66 55
REMARK SMILES IDX 85 56 50 57 51 58 65 60 86 61 53 62 37 63 38 64 46 65 39 66
REMARK SMILES IDX 45 67 47 68 44 69 40 70 41 71 42 72 43 73 69 74 70 75 78 76
REMARK SMILES IDX 71 77 77 78 79 79 76 80 72 81 73 82 74 83 75 84 54 85 55 86
REMARK SMILES IDX 63 87 56 88 62 89 64 90 61 91 57 92 58 93 59 94 60 95
REMARK H PARENT 7 16 84 48 52 59
REMARK Flexibility Score: inf
ROOT
ATOM      1  C   UNL A   1      33.974  27.435  22.834  1.00  0.00     0.188 C 
ENDROOT
BRANCH   1   2
ATOM      2  C   UNL A   1      32.990  26.247  22.969  1.00  0.00     0.188 C 
BRANCH   2   3
ATOM      3  O   UNL A   1      33.233  25.201  22.055  1.00  0.00    -0.376 OA
BRANCH   3   4
ATOM      4  C   UNL A   1      33.457  23.895  22.554  1.00  0.00     0.202 C 
BRANCH   4   5
ATOM      5  C   UNL A   1      32.376  23.044  23.240  1.00  0.00     0.261 C 
BRANCH   5   6
ATOM      6  O   UNL A   1      32.430  21.627  23.065  1.00  0.00    -0.460 OA
BRANCH   6   7
ATOM      7  C   UNL A   1      32.286  20.870  24.180  1.00  0.00     0.340 C 
ATOM      8  O   UNL A   1      31.541  21.121  25.115  1.00  0.00    -0.246 OA
BRANCH   7   9
ATOM      9  C   UNL A   1      33.019  19.575  24.050  1.00  0.00     0.083 A 
ATOM     10  C   UNL A   1      34.268  19.279  24.642  1.00  0.00     0.053 A 
ATOM     11  C   UNL A   1      34.841  18.020  24.364  1.00  0.00     0.027 A 
ATOM     12  C   UNL A   1      34.204  17.084  23.546  1.00  0.00     0.002 A 
ATOM     13  C   UNL A   1      32.387  18.624  23.223  1.00  0.00     0.018 A 
ATOM     14  C   UNL A   1      32.975  17.385  22.976  1.00  0.00     0.001 A 
BRANCH  10  15
ATOM     15  N   UNL A   1      34.963  20.077  25.581  1.00  0.00    -0.355 N 
ATOM     16  H   UNL A   1      35.086  19.654  26.462  1.00  0.00     0.167 HD
BRANCH  15  17
ATOM     17  C   UNL A   1      35.510  21.372  25.475  1.00  0.00     0.042 A 
ATOM     18  C   UNL A   1      34.434  24.988  25.963  1.00  0.00     0.044 C 
ATOM     19  C   UNL A   1      35.276  23.790  25.616  1.00  0.00    -0.046 A 
ATOM     20  C   UNL A   1      36.328  23.936  24.699  1.00  0.00     0.004 A 
ATOM     21  C   UNL A   1      34.941  22.504  26.096  1.00  0.00    -0.025 A 
ATOM     22  C   UNL A   1      37.005  22.823  24.214  1.00  0.00     0.002 A 
ATOM     23  C   UNL A   1      33.971  22.361  27.246  1.00  0.00     0.047 C 
ATOM     24  C   UNL A   1      36.572  21.549  24.570  1.00  0.00     0.026 A 
ENDBRANCH  15  17
ENDBRANCH  10  15
ENDBRANCH   7   9
ENDBRANCH   6   7
ENDBRANCH   5   6
ENDBRANCH   4   5
ENDBRANCH   3   4
ENDBRANCH   2   3
ENDBRANCH   1   2
BRANCH   1  25
ATOM     25  O   UNL A   1      33.957  28.495  23.780  1.00  0.00    -0.376 OA
BRANCH  25  26
ATOM     26  C   UNL A   1      32.775  28.720  24.533  1.00  0.00     0.202 C 
BRANCH  26  27
ATOM     27  C   UNL A   1      32.835  29.332  25.948  1.00  0.00     0.261 C 
BRANCH  27  28
ATOM     28  O   UNL A   1      34.068  29.176  26.673  1.00  0.00    -0.460 OA
BRANCH  28  29
ATOM     29  C   UNL A   1      34.452  30.239  27.427  1.00  0.00     0.338 C 
ATOM     30  O   UNL A   1      33.767  31.207  27.725  1.00  0.00    -0.246 OA
BRANCH  29  31
ATOM     31  C   UNL A   1      35.773  29.963  28.040  1.00  0.00     0.060 A 
ATOM     32  C   UNL A   1      36.924  30.074  27.244  1.00  0.00     0.016 A 
ATOM     33  C   UNL A   1      35.882  29.581  29.377  1.00  0.00     0.016 A 
ATOM     34  C   UNL A   1      38.184  29.796  27.776  1.00  0.00     0.010 A 
ATOM     35  C   UNL A   1      37.143  29.266  29.899  1.00  0.00     0.010 A 
ATOM     36  C   UNL A   1      38.297  29.344  29.094  1.00  0.00    -0.014 A 
BRANCH  36  37
ATOM     37  C   UNL A   1      39.579  28.754  29.561  1.00  0.00     0.031 A 
ATOM     38  C   UNL A   1      40.302  29.433  30.694  1.00  0.00     0.074 A 
ATOM     39  C   UNL A   1      40.088  27.637  29.011  1.00  0.00     0.049 A 
ATOM     40  N   UNL A   1      41.466  29.161  31.224  1.00  0.00    -0.248 NA
ATOM     41  C   UNL A   1      39.613  30.581  31.304  1.00  0.00     0.031 C 
ATOM     42  C   UNL A   1      39.459  26.859  27.946  1.00  0.00     0.029 A 
ATOM     43  N   UNL A   1      41.263  26.973  29.266  1.00  0.00    -0.354 N 
ATOM     44  C   UNL A   1      41.661  30.117  32.215  1.00  0.00     0.074 A 
ATOM     45  C   UNL A   1      40.506  30.990  32.191  1.00  0.00     0.031 C 
ATOM     46  C   UNL A   1      40.269  25.836  27.620  1.00  0.00     0.029 A 
ATOM     47  C   UNL A   1      41.491  25.912  28.420  1.00  0.00     0.049 A 
ATOM     48  H   UNL A   1      41.885  27.233  29.985  1.00  0.00     0.167 HD
ATOM     49  C   UNL A   1      42.706  30.253  33.069  1.00  0.00     0.034 A 
ATOM     50  C   UNL A   1      42.576  25.120  28.281  1.00  0.00     0.034 A 
ATOM     51  C   UNL A   1      43.855  29.380  33.071  1.00  0.00     0.049 A 
ATOM     52  C   UNL A   1      43.769  25.339  29.184  1.00  0.00     0.074 A 
ATOM     53  C   UNL A   1      44.953  29.407  33.913  1.00  0.00     0.029 A 
ATOM     54  N   UNL A   1      44.069  28.339  32.175  1.00  0.00    -0.354 N 
ATOM     55  N   UNL A   1      43.938  26.233  30.133  1.00  0.00    -0.248 NA
ATOM     56  C   UNL A   1      44.916  24.439  29.000  1.00  0.00     0.031 C 
ATOM     57  C   UNL A   1      45.870  28.448  33.467  1.00  0.00     0.029 A 
ATOM     58  C   UNL A   1      45.303  27.750  32.413  1.00  0.00     0.049 A 
ATOM     59  H   UNL A   1      43.437  28.060  31.473  1.00  0.00     0.167 HD
ATOM     60  C   UNL A   1      45.197  25.980  30.677  1.00  0.00     0.074 A 
ATOM     61  C   UNL A   1      45.735  24.844  29.960  1.00  0.00     0.031 C 
ATOM     62  C   UNL A   1      45.843  26.625  31.683  1.00  0.00     0.034 A 
BRANCH  49  63
ATOM     63  C   UNL A   1      42.682  31.431  34.016  1.00  0.00     0.023 A 
ATOM     64  C   UNL A   1      42.097  31.353  35.292  1.00  0.00     0.031 A 
ATOM     65  C   UNL A   1      43.216  32.668  33.614  1.00  0.00     0.131 A 
ATOM     66  C   UNL A   1      41.988  32.506  36.084  1.00  0.00     0.055 A 
ATOM     67  C   UNL A   1      43.186  33.790  34.444  1.00  0.00     0.041 A 
ATOM     68  F   UNL A   1      43.763  32.815  32.396  1.00  0.00    -0.206 F 
ATOM     69  C   UNL A   1      42.553  33.717  35.680  1.00  0.00     0.022 A 
BRANCH  66  70
ATOM     70  S   UNL A   1      40.951  32.440  37.571  1.00  0.00     0.124 S 
ATOM     71  O   UNL A   1      39.797  31.683  37.093  1.00  0.00    -0.237 OA
ATOM     72  O   UNL A   1      41.814  31.756  38.528  1.00  0.00    -0.237 OA
ATOM     73  O   UNL A   1      40.685  33.847  37.866  1.00  0.00    -0.744 OA
ENDBRANCH  66  70
ENDBRANCH  49  63
BRANCH  50  74
ATOM     74  C   UNL A   1      42.618  24.085  27.205  1.00  0.00     0.023 A 
ATOM     75  C   UNL A   1      42.020  22.827  27.372  1.00  0.00     0.031 A 
ATOM     76  C   UNL A   1      43.304  24.333  26.002  1.00  0.00     0.131 A 
ATOM     77  C   UNL A   1      42.149  21.851  26.369  1.00  0.00     0.055 A 
ATOM     78  C   UNL A   1      43.382  23.380  24.985  1.00  0.00     0.041 A 
ATOM     79  F   UNL A   1      43.905  25.515  25.794  1.00  0.00    -0.206 F 
ATOM     80  C   UNL A   1      42.811  22.126  25.169  1.00  0.00     0.022 A 
BRANCH  77  81
ATOM     81  S   UNL A   1      41.510  20.183  26.685  1.00  0.00     0.124 S 
ATOM     82  O   UNL A   1      42.291  19.781  27.849  1.00  0.00    -0.237 OA
ATOM     83  O   UNL A   1      40.093  20.440  26.921  1.00  0.00    -0.237 OA
ATOM     84  O   UNL A   1      41.811  19.462  25.450  1.00  0.00    -0.744 OA
ENDBRANCH  77  81
ENDBRANCH  50  74
BRANCH  62  85
ATOM     85  C   UNL A   1      47.193  26.084  32.104  1.00  0.00     0.023 A 
ATOM     86  C   UNL A   1      48.374  26.399  31.409  1.00  0.00     0.031 A 
ATOM     87  C   UNL A   1      47.294  25.235  33.222  1.00  0.00     0.131 A 
ATOM     88  C   UNL A   1      49.593  25.824  31.802  1.00  0.00     0.055 A 
ATOM     89  C   UNL A   1      48.520  24.723  33.650  1.00  0.00     0.041 A 
ATOM     90  F   UNL A   1      46.201  24.892  33.922  1.00  0.00    -0.206 F 
ATOM     91  C   UNL A   1      49.676  25.005  32.931  1.00  0.00     0.022 A 
BRANCH  88  92
ATOM     92  S   UNL A   1      51.054  26.070  30.755  1.00  0.00     0.124 S 
ATOM     93  O   UNL A   1      50.610  25.512  29.481  1.00  0.00    -0.237 OA
ATOM     94  O   UNL A   1      51.224  27.519  30.791  1.00  0.00    -0.237 OA
ATOM     95  O   UNL A   1      52.097  25.306  31.436  1.00  0.00    -0.744 OA
ENDBRANCH  88  92
ENDBRANCH  62  85
ENDBRANCH  36  37
ENDBRANCH  29  31
ENDBRANCH  28  29
ENDBRANCH  27  28
ENDBRANCH  26  27
ENDBRANCH  25  26
ENDBRANCH   1  25
TORSDOF 22
ENDMDL
MODEL 2
REMARK VINA RESULT:     -10.6      1.853      2.137
REMARK SMILES Cc1cccc(Nc2ccccc2C(=O)OCCOCCOCCOC(=O)c2ccc(-c3c4nc(c(-c5cc(S(=O)(=O)[O-])ccc5F)c5ccc([nH]5)c(-c5cc(S(=O)(=O)[O-])ccc5F)c5nc(c(-c6cc(S(=O)(=O)[O-])ccc6F)c6ccc3[nH]6)C=C5)C=C4)cc2)c1C
REMARK SMILES IDX 21 1 20 2 19 3 18 4 17 5 16 6 14 7 15 8 13 9 8 10 9 11 10 12
REMARK SMILES IDX 12 13 11 14 7 15 6 17 1 18 2 19 3 20 91 21 4 22 92 23 5 24
REMARK SMILES IDX 22 25 23 26 24 27 25 28 26 29 27 30 28 31 29 32 90 33 30 34
REMARK SMILES IDX 89 35 31 36 32 37 33 38 83 39 34 40 88 41 82 42 84 43 35 44
REMARK SMILES IDX 87 45 81 46 80 47 36 49 68 50 48 51 67 52 49 53 52 54 66 55
REMARK SMILES IDX 85 56 50 57 51 58 65 60 86 61 53 62 37 63 38 64 46 65 39 66
REMARK SMILES IDX 45 67 47 68 44 69 40 70 41 71 42 72 43 73 69 74 70 75 78 76
REMARK SMILES IDX 71 77 77 78 79 79 76 80 72 81 73 82 74 83 75 84 54 85 55 86
REMARK SMILES IDX 63 87 56 88 62 89 64 90 61 91 57 92 58 93 59 94 60 95
REMARK H PARENT 7 16 84 48 52 59
REMARK Flexibility Score: inf
ROOT
ATOM      1  C   UNL A   1      33.966  27.478  22.626  1.00  0.00     0.188 C 
ENDROOT
BRANCH   1   2
ATOM      2  C   UNL A   1      32.846  26.409  22.626  1.00  0.00     0.188 C 
BRANCH   2   3
ATOM      3  O   UNL A   1      33.162  25.254  21.880  1.00  0.00    -0.376 OA
BRANCH   3   4
ATOM      4  C   UNL A   1      33.482  24.061  22.569  1.00  0.00     0.202 C 
BRANCH   4   5
ATOM      5  C   UNL A   1      32.467  23.245  23.387  1.00  0.00     0.261 C 
BRANCH   5   6
ATOM      6  O   UNL A   1      32.372  21.843  23.129  1.00  0.00    -0.460 OA
BRANCH   6   7
ATOM      7  C   UNL A   1      32.148  21.041  24.198  1.00  0.00     0.340 C 
ATOM      8  O   UNL A   1      31.353  21.266  25.098  1.00  0.00    -0.246 OA
BRANCH   7   9
ATOM      9  C   UNL A   1      32.864  19.739  24.053  1.00  0.00     0.083 A 
ATOM     10  C   UNL A   1      34.080  19.399  24.689  1.00  0.00     0.053 A 
ATOM     11  C   UNL A   1      34.644  18.140  24.391  1.00  0.00     0.027 A 
ATOM     12  C   UNL A   1      34.029  17.246  23.511  1.00  0.00     0.002 A 
ATOM     13  C   UNL A   1      32.254  18.830  23.165  1.00  0.00     0.018 A 
ATOM     14  C   UNL A   1      32.832  17.590  22.899  1.00  0.00     0.001 A 
BRANCH  10  15
ATOM     15  N   UNL A   1      34.746  20.150  25.686  1.00  0.00    -0.355 N 
ATOM     16  H   UNL A   1      34.706  19.754  26.587  1.00  0.00     0.167 HD
BRANCH  15  17
ATOM     17  C   UNL A   1      35.455  21.366  25.614  1.00  0.00     0.042 A 
ATOM     18  C   UNL A   1      34.766  25.103  25.787  1.00  0.00     0.044 C 
ATOM     19  C   UNL A   1      35.499  23.799  25.622  1.00  0.00    -0.046 A 
ATOM     20  C   UNL A   1      36.684  23.772  24.873  1.00  0.00     0.004 A 
ATOM     21  C   UNL A   1      34.942  22.589  26.095  1.00  0.00    -0.025 A 
ATOM     22  C   UNL A   1      37.286  22.562  24.542  1.00  0.00     0.002 A 
ATOM     23  C   UNL A   1      33.803  22.624  27.087  1.00  0.00     0.047 C 
ATOM     24  C   UNL A   1      36.654  21.368  24.878  1.00  0.00     0.026 A 
ENDBRANCH  15  17
ENDBRANCH  10  15
ENDBRANCH   7   9
ENDBRANCH   6   7
ENDBRANCH   5   6
ENDBRANCH   4   5
ENDBRANCH   3   4
ENDBRANCH   2   3
ENDBRANCH   1   2
BRANCH   1  25
ATOM     25  O   UNL A   1      33.990  28.496  23.618  1.00  0.00    -0.376 OA
BRANCH  25  26
ATOM     26  C   UNL A   1      32.771  28.872  24.240  1.00  0.00     0.202 C 
BRANCH  26  27
ATOM     27  C   UNL A   1      32.746  29.411  25.685  1.00  0.00     0.261 C 
BRANCH  27  28
ATOM     28  O   UNL A   1      33.940  29.233  26.467  1.00  0.00    -0.460 OA
BRANCH  28  29
ATOM     29  C   UNL A   1      34.301  30.285  27.248  1.00  0.00     0.338 C 
ATOM     30  O   UNL A   1      33.615  31.260  27.520  1.00  0.00    -0.246 OA
BRANCH  29  31
ATOM     31  C   UNL A   1      35.585  29.985  27.925  1.00  0.00     0.060 A 
ATOM     32  C   UNL A   1      36.775  30.061  27.182  1.00  0.00     0.016 A 
ATOM     33  C   UNL A   1      35.623  29.615  29.270  1.00  0.00     0.016 A 
ATOM     34  C   UNL A   1      38.001  29.760  27.775  1.00  0.00     0.010 A 
ATOM     35  C   UNL A   1      36.851  29.276  29.853  1.00  0.00     0.010 A 
ATOM     36  C   UNL A   1      38.042  29.319  29.102  1.00  0.00    -0.014 A 
BRANCH  36  37
ATOM     37  C   UNL A   1      39.287  28.704  29.634  1.00  0.00     0.031 A 
ATOM     38  C   UNL A   1      39.908  29.310  30.864  1.00  0.00     0.074 A 
ATOM     39  C   UNL A   1      39.849  27.627  29.055  1.00  0.00     0.049 A 
ATOM     40  N   UNL A   1      41.027  29.008  31.469  1.00  0.00    -0.248 NA
ATOM     41  C   UNL A   1      39.161  30.413  31.489  1.00  0.00     0.031 C 
ATOM     42  C   UNL A   1      39.317  26.919  27.894  1.00  0.00     0.029 A 
ATOM     43  N   UNL A   1      41.006  26.953  29.363  1.00  0.00    -0.354 N 
ATOM     44  C   UNL A   1      41.131  29.898  32.534  1.00  0.00     0.074 A 
ATOM     45  C   UNL A   1      39.975  30.766  32.471  1.00  0.00     0.031 C 
ATOM     46  C   UNL A   1      40.160  25.923  27.570  1.00  0.00     0.029 A 
ATOM     47  C   UNL A   1      41.312  25.950  28.472  1.00  0.00     0.049 A 
ATOM     48  H   UNL A   1      41.564  27.167  30.146  1.00  0.00     0.167 HD
ATOM     49  C   UNL A   1      42.102  29.981  33.477  1.00  0.00     0.034 A 
ATOM     50  C   UNL A   1      42.412  25.173  28.371  1.00  0.00     0.034 A 
ATOM     51  C   UNL A   1      43.254  29.115  33.518  1.00  0.00     0.049 A 
ATOM     52  C   UNL A   1      43.525  25.337  29.382  1.00  0.00     0.074 A 
ATOM     53  C   UNL A   1      44.279  29.090  34.447  1.00  0.00     0.029 A 
ATOM     54  N   UNL A   1      43.551  28.136  32.577  1.00  0.00    -0.354 N 
ATOM     55  N   UNL A   1      43.607  26.168  30.398  1.00  0.00    -0.248 NA
ATOM     56  C   UNL A   1      44.691  24.456  29.236  1.00  0.00     0.031 C 
ATOM     57  C   UNL A   1      45.238  28.167  34.018  1.00  0.00     0.029 A 
ATOM     58  C   UNL A   1      44.766  27.537  32.877  1.00  0.00     0.049 A 
ATOM     59  H   UNL A   1      42.981  27.901  31.809  1.00  0.00     0.167 HD
ATOM     60  C   UNL A   1      44.819  25.884  31.027  1.00  0.00     0.074 A 
ATOM     61  C   UNL A   1      45.425  24.800  30.284  1.00  0.00     0.031 C 
ATOM     62  C   UNL A   1      45.375  26.465  32.123  1.00  0.00     0.034 A 
BRANCH  49  63
ATOM     63  C   UNL A   1      41.988  31.095  34.494  1.00  0.00     0.023 A 
ATOM     64  C   UNL A   1      42.623  32.337  34.317  1.00  0.00     0.031 A 
ATOM     65  C   UNL A   1      41.265  30.891  35.683  1.00  0.00     0.131 A 
ATOM     66  C   UNL A   1      42.591  33.292  35.345  1.00  0.00     0.055 A 
ATOM     67  C   UNL A   1      41.161  31.880  36.662  1.00  0.00     0.041 A 
ATOM     68  F   UNL A   1      40.660  29.717  35.923  1.00  0.00    -0.206 F 
ATOM     69  C   UNL A   1      41.841  33.083  36.504  1.00  0.00     0.022 A 
BRANCH  66  70
ATOM     70  S   UNL A   1      43.679  34.738  35.217  1.00  0.00     0.124 S 
ATOM     71  O   UNL A   1      44.875  34.270  35.912  1.00  0.00    -0.237 OA
ATOM     72  O   UNL A   1      43.804  34.912  33.775  1.00  0.00    -0.237 OA
ATOM     73  O   UNL A   1      42.935  35.789  35.911  1.00  0.00    -0.744 OA
ENDBRANCH  66  70
ENDBRANCH  49  63
BRANCH  50  74
ATOM     74  C   UNL A   1      42.552  24.211  27.238  1.00  0.00     0.023 A 
ATOM     75  C   UNL A   1      41.976  22.932  27.284  1.00  0.00     0.031 A 
ATOM     76  C   UNL A   1      43.309  24.551  26.102  1.00  0.00     0.131 A 
ATOM     77  C   UNL A   1      42.197  22.027  26.232  1.00  0.00     0.055 A 
ATOM     78  C   UNL A   1      43.479  23.669  25.034  1.00  0.00     0.041 A 
ATOM     79  F   UNL A   1      43.892  25.757  26.010  1.00  0.00    -0.206 F 
ATOM     80  C   UNL A   1      42.929  22.393  25.100  1.00  0.00     0.022 A 
BRANCH  77  81
ATOM     81  S   UNL A   1      41.582  20.328  26.399  1.00  0.00     0.124 S 
ATOM     82  O   UNL A   1      42.323  19.639  25.349  1.00  0.00    -0.237 OA
ATOM     83  O   UNL A   1      41.957  20.003  27.770  1.00  0.00    -0.237 OA
ATOM     84  O   UNL A   1      40.145  20.461  26.165  1.00  0.00    -0.744 OA
ENDBRANCH  77  81
ENDBRANCH  50  74
BRANCH  62  85
ATOM     85  C   UNL A   1      46.690  25.902  32.617  1.00  0.00     0.023 A 
ATOM     86  C   UNL A   1      46.750  24.852  33.550  1.00  0.00     0.031 A 
ATOM     87  C   UNL A   1      47.905  26.432  32.145  1.00  0.00     0.131 A 
ATOM     88  C   UNL A   1      47.994  24.405  34.023  1.00  0.00     0.055 A 
ATOM     89  C   UNL A   1      49.140  25.935  32.566  1.00  0.00     0.041 A 
ATOM     90  F   UNL A   1      47.914  27.440  31.259  1.00  0.00    -0.206 F 
ATOM     91  C   UNL A   1      49.189  24.926  33.522  1.00  0.00     0.022 A 
BRANCH  88  92
ATOM     92  S   UNL A   1      48.032  23.208  35.386  1.00  0.00     0.124 S 
ATOM     93  O   UNL A   1      46.610  23.005  35.649  1.00  0.00    -0.237 OA
ATOM     94  O   UNL A   1      48.738  22.078  34.791  1.00  0.00    -0.237 OA
ATOM     95  O   UNL A   1      48.763  23.910  36.439  1.00  0.00    -0.744 OA
ENDBRANCH  88  92
ENDBRANCH  62  85
ENDBRANCH  36  37
ENDBRANCH  29  31
ENDBRANCH  28  29
ENDBRANCH  27  28
ENDBRANCH  26  27
ENDBRANCH  25  26
ENDBRANCH   1  25
TORSDOF 22
ENDMDL
MODEL 3
REMARK VINA RESULT:     -10.6      2.386      7.873
REMARK SMILES Cc1cccc(Nc2ccccc2C(=O)OCCOCCOCCOC(=O)c2ccc(-c3c4nc(c(-c5cc(S(=O)(=O)[O-])ccc5F)c5ccc([nH]5)c(-c5cc(S(=O)(=O)[O-])ccc5F)c5nc(c(-c6cc(S(=O)(=O)[O-])ccc6F)c6ccc3[nH]6)C=C5)C=C4)cc2)c1C
REMARK SMILES IDX 21 1 20 2 19 3 18 4 17 5 16 6 14 7 15 8 13 9 8 10 9 11 10 12
REMARK SMILES IDX 12 13 11 14 7 15 6 17 1 18 2 19 3 20 91 21 4 22 92 23 5 24
REMARK SMILES IDX 22 25 23 26 24 27 25 28 26 29 27 30 28 31 29 32 90 33 30 34
REMARK SMILES IDX 89 35 31 36 32 37 33 38 83 39 34 40 88 41 82 42 84 43 35 44
REMARK SMILES IDX 87 45 81 46 80 47 36 49 68 50 48 51 67 52 49 53 52 54 66 55
REMARK SMILES IDX 85 56 50 57 51 58 65 60 86 61 53 62 37 63 38 64 46 65 39 66
REMARK SMILES IDX 45 67 47 68 44 69 40 70 41 71 42 72 43 73 69 74 70 75 78 76
REMARK SMILES IDX 71 77 77 78 79 79 76 80 72 81 73 82 74 83 75 84 54 85 55 86
REMARK SMILES IDX 63 87 56 88 62 89 64 90 61 91 57 92 58 93 59 94 60 95
REMARK H PARENT 7 16 84 48 52 59
REMARK Flexibility Score: inf
ROOT
ATOM      1  C   UNL A   1      32.229  28.946  23.238  1.00  0.00     0.188 C 
ENDROOT
BRANCH   1   2
ATOM      2  C   UNL A   1      30.785  28.602  22.799  1.00  0.00     0.188 C 
BRANCH   2   3
ATOM      3  O   UNL A   1      30.683  27.397  22.073  1.00  0.00    -0.376 OA
BRANCH   3   4
ATOM      4  C   UNL A   1      30.920  26.173  22.742  1.00  0.00     0.202 C 
BRANCH   4   5
ATOM      5  C   UNL A   1      32.006  25.166  22.325  1.00  0.00     0.261 C 
BRANCH   5   6
ATOM      6  O   UNL A   1      31.866  23.813  22.762  1.00  0.00    -0.460 OA
BRANCH   6   7
ATOM      7  C   UNL A   1      32.978  23.040  22.715  1.00  0.00     0.340 C 
ATOM      8  O   UNL A   1      34.048  23.368  22.223  1.00  0.00    -0.246 OA
BRANCH   7   9
ATOM      9  C   UNL A   1      32.798  21.789  23.510  1.00  0.00     0.083 A 
ATOM     10  C   UNL A   1      32.923  21.687  24.914  1.00  0.00     0.053 A 
ATOM     11  C   UNL A   1      32.775  20.409  25.493  1.00  0.00     0.027 A 
ATOM     12  C   UNL A   1      32.500  19.277  24.721  1.00  0.00     0.002 A 
ATOM     13  C   UNL A   1      32.525  20.640  22.740  1.00  0.00     0.018 A 
ATOM     14  C   UNL A   1      32.374  19.393  23.344  1.00  0.00     0.001 A 
BRANCH  10  15
ATOM     15  N   UNL A   1      33.078  22.759  25.824  1.00  0.00    -0.355 N 
ATOM     16  H   UNL A   1      33.654  22.557  26.597  1.00  0.00     0.167 HD
BRANCH  15  17
ATOM     17  C   UNL A   1      32.549  24.066  25.818  1.00  0.00     0.042 A 
ATOM     18  C   UNL A   1      33.704  27.630  26.477  1.00  0.00     0.044 C 
ATOM     19  C   UNL A   1      32.810  26.460  26.165  1.00  0.00    -0.046 A 
ATOM     20  C   UNL A   1      31.435  26.565  26.419  1.00  0.00     0.004 A 
ATOM     21  C   UNL A   1      33.353  25.224  25.748  1.00  0.00    -0.025 A 
ATOM     22  C   UNL A   1      30.609  25.450  26.320  1.00  0.00     0.002 A 
ATOM     23  C   UNL A   1      34.780  25.158  25.255  1.00  0.00     0.047 C 
ATOM     24  C   UNL A   1      31.170  24.203  26.060  1.00  0.00     0.026 A 
ENDBRANCH  15  17
ENDBRANCH  10  15
ENDBRANCH   7   9
ENDBRANCH   6   7
ENDBRANCH   5   6
ENDBRANCH   4   5
ENDBRANCH   3   4
ENDBRANCH   2   3
ENDBRANCH   1   2
BRANCH   1  25
ATOM     25  O   UNL A   1      32.465  29.669  24.438  1.00  0.00    -0.376 OA
BRANCH  25  26
ATOM     26  C   UNL A   1      31.351  30.170  25.163  1.00  0.00     0.202 C 
BRANCH  26  27
ATOM     27  C   UNL A   1      31.538  31.173  26.319  1.00  0.00     0.261 C 
BRANCH  27  28
ATOM     28  O   UNL A   1      32.639  30.937  27.215  1.00  0.00    -0.460 OA
BRANCH  28  29
ATOM     29  C   UNL A   1      33.381  32.026  27.544  1.00  0.00     0.338 C 
ATOM     30  O   UNL A   1      32.986  33.181  27.623  1.00  0.00    -0.246 OA
BRANCH  29  31
ATOM     31  C   UNL A   1      34.716  31.594  28.020  1.00  0.00     0.060 A 
ATOM     32  C   UNL A   1      34.877  30.274  28.474  1.00  0.00     0.016 A 
ATOM     33  C   UNL A   1      35.797  32.475  28.038  1.00  0.00     0.016 A 
ATOM     34  C   UNL A   1      36.111  29.836  28.956  1.00  0.00     0.010 A 
ATOM     35  C   UNL A   1      37.025  32.045  28.558  1.00  0.00     0.010 A 
ATOM     36  C   UNL A   1      37.180  30.732  29.045  1.00  0.00    -0.014 A 
BRANCH  36  37
ATOM     37  C   UNL A   1      38.383  30.364  29.837  1.00  0.00     0.031 A 
ATOM     38  C   UNL A   1      39.338  29.357  29.253  1.00  0.00     0.074 A 
ATOM     39  C   UNL A   1      38.638  30.916  31.038  1.00  0.00     0.049 A 
ATOM     40  N   UNL A   1      40.406  28.817  29.778  1.00  0.00    -0.248 NA
ATOM     41  C   UNL A   1      39.034  28.895  27.890  1.00  0.00     0.031 C 
ATOM     42  C   UNL A   1      37.821  31.938  31.687  1.00  0.00     0.029 A 
ATOM     43  N   UNL A   1      39.654  30.677  31.932  1.00  0.00    -0.354 N 
ATOM     44  C   UNL A   1      40.891  27.933  28.819  1.00  0.00     0.074 A 
ATOM     45  C   UNL A   1      39.982  27.993  27.694  1.00  0.00     0.031 C 
ATOM     46  C   UNL A   1      38.355  32.221  32.889  1.00  0.00     0.029 A 
ATOM     47  C   UNL A   1      39.523  31.369  33.113  1.00  0.00     0.049 A 
ATOM     48  H   UNL A   1      40.404  30.066  31.745  1.00  0.00     0.167 HD
ATOM     49  C   UNL A   1      41.995  27.147  28.872  1.00  0.00     0.034 A 
ATOM     50  C   UNL A   1      40.238  31.295  34.256  1.00  0.00     0.034 A 
ATOM     51  C   UNL A   1      42.884  27.091  30.006  1.00  0.00     0.049 A 
ATOM     52  C   UNL A   1      41.416  30.349  34.328  1.00  0.00     0.074 A 
ATOM     53  C   UNL A   1      44.047  26.355  30.152  1.00  0.00     0.029 A 
ATOM     54  N   UNL A   1      42.699  27.778  31.200  1.00  0.00    -0.354 N 
ATOM     55  N   UNL A   1      41.880  29.532  33.410  1.00  0.00    -0.248 NA
ATOM     56  C   UNL A   1      42.168  30.320  35.590  1.00  0.00     0.031 C 
ATOM     57  C   UNL A   1      44.510  26.523  31.462  1.00  0.00     0.029 A 
ATOM     58  C   UNL A   1      43.698  27.444  32.104  1.00  0.00     0.049 A 
ATOM     59  H   UNL A   1      41.965  28.410  31.380  1.00  0.00     0.167 HD
ATOM     60  C   UNL A   1      42.997  28.916  33.975  1.00  0.00     0.074 A 
ATOM     61  C   UNL A   1      43.142  29.467  35.305  1.00  0.00     0.031 C 
ATOM     62  C   UNL A   1      43.829  27.986  33.438  1.00  0.00     0.034 A 
BRANCH  49  63
ATOM     63  C   UNL A   1      42.253  26.233  27.696  1.00  0.00     0.023 A 
ATOM     64  C   UNL A   1      41.756  24.918  27.646  1.00  0.00     0.031 A 
ATOM     65  C   UNL A   1      43.049  26.673  26.623  1.00  0.00     0.131 A 
ATOM     66  C   UNL A   1      42.126  24.069  26.593  1.00  0.00     0.055 A 
ATOM     67  C   UNL A   1      43.339  25.852  25.532  1.00  0.00     0.041 A 
ATOM     68  F   UNL A   1      43.577  27.908  26.625  1.00  0.00    -0.206 F 
ATOM     69  C   UNL A   1      42.892  24.535  25.521  1.00  0.00     0.022 A 
BRANCH  66  70
ATOM     70  S   UNL A   1      41.736  22.302  26.726  1.00  0.00     0.124 S 
ATOM     71  O   UNL A   1      42.020  21.834  25.372  1.00  0.00    -0.237 OA
ATOM     72  O   UNL A   1      42.656  21.853  27.765  1.00  0.00    -0.237 OA
ATOM     73  O   UNL A   1      40.321  22.290  27.097  1.00  0.00    -0.744 OA
ENDBRANCH  66  70
ENDBRANCH  49  63
BRANCH  50  74
ATOM     74  C   UNL A   1      39.829  32.091  35.451  1.00  0.00     0.023 A 
ATOM     75  C   UNL A   1      38.958  31.568  36.420  1.00  0.00     0.031 A 
ATOM     76  C   UNL A   1      40.276  33.415  35.615  1.00  0.00     0.131 A 
ATOM     77  C   UNL A   1      38.533  32.376  37.488  1.00  0.00     0.055 A 
ATOM     78  C   UNL A   1      39.896  34.195  36.708  1.00  0.00     0.041 A 
ATOM     79  F   UNL A   1      41.102  33.970  34.713  1.00  0.00    -0.206 F 
ATOM     80  C   UNL A   1      39.011  33.679  37.648  1.00  0.00     0.022 A 
BRANCH  77  81
ATOM     81  S   UNL A   1      37.279  31.728  38.628  1.00  0.00     0.124 S 
ATOM     82  O   UNL A   1      37.974  31.800  39.907  1.00  0.00    -0.237 OA
ATOM     83  O   UNL A   1      36.182  32.671  38.439  1.00  0.00    -0.237 OA
ATOM     84  O   UNL A   1      37.028  30.377  38.127  1.00  0.00    -0.744 OA
ENDBRANCH  77  81
ENDBRANCH  50  74
BRANCH  62  85
ATOM     85  C   UNL A   1      45.007  27.538  34.276  1.00  0.00     0.023 A 
ATOM     86  C   UNL A   1      46.247  28.200  34.237  1.00  0.00     0.031 A 
ATOM     87  C   UNL A   1      44.883  26.425  35.128  1.00  0.00     0.131 A 
ATOM     88  C   UNL A   1      47.327  27.710  34.989  1.00  0.00     0.055 A 
ATOM     89  C   UNL A   1      45.941  25.986  35.926  1.00  0.00     0.041 A 
ATOM     90  F   UNL A   1      43.727  25.747  35.204  1.00  0.00    -0.206 F 
ATOM     91  C   UNL A   1      47.175  26.620  35.848  1.00  0.00     0.022 A 
BRANCH  88  92
ATOM     92  S   UNL A   1      48.967  28.449  34.746  1.00  0.00     0.124 S 
ATOM     93  O   UNL A   1      48.731  29.838  35.126  1.00  0.00    -0.237 OA
ATOM     94  O   UNL A   1      49.798  27.671  35.658  1.00  0.00    -0.237 OA
ATOM     95  O   UNL A   1      49.234  28.232  33.326  1.00  0.00    -0.744 OA
ENDBRANCH  88  92
ENDBRANCH  62  85
ENDBRANCH  36  37
ENDBRANCH  29  31
ENDBRANCH  28  29
ENDBRANCH  27  28
ENDBRANCH  26  27
ENDBRANCH  25  26
ENDBRANCH   1  25
TORSDOF 22
ENDMDL
