MODEL 1
REMARK VINA RESULT:     -10.2      0.000      0.000
REMARK SMILES Cc1c(Cl)cccc1NC(=O)C[C@](C)(C(=O)OCCOCCOCCOC(=O)c1ccc(-c2c3nc(c(-c4cc(S(=O)(=O)[O-])ccc4F)c4ccc([nH]4)c(-c4cc(S(=O)(=O)[O-])ccc4F)c4nc(c(-c5cc(S(=O)(=O)[O-])ccc5F)c5ccc2[nH]5)C=C4)C=C3)cc1)c1ccccc1
REMARK SMILES IDX 21 1 20 2 19 3 18 4 17 5 15 6 16 7 13 8 14 9 12 10 10 11
REMARK SMILES IDX 9 12 11 14 8 15 1 16 2 17 3 18 4 19 5 20 7 21 6 22 92 23
REMARK SMILES IDX 93 24 97 25 94 26 96 27 95 28 22 29 23 30 24 31 25 32 26 33
REMARK SMILES IDX 27 34 28 35 29 36 30 37 91 38 31 39 90 40 32 41 33 42 34 43
REMARK SMILES IDX 84 44 35 45 89 46 83 47 85 48 36 49 88 50 82 51 81 52 37 54
REMARK SMILES IDX 69 55 49 56 68 57 50 58 53 59 67 60 86 61 51 62 52 63 66 65
REMARK SMILES IDX 87 66 54 67 38 68 39 69 47 70 40 71 46 72 48 73 45 74 41 75
REMARK SMILES IDX 42 76 43 77 44 78 70 79 71 80 79 81 72 82 78 83 80 84 77 85
REMARK SMILES IDX 73 86 74 87 75 88 76 89 55 90 56 91 64 92 57 93 63 94 65 95
REMARK SMILES IDX 62 96 58 97 59 98 60 99 61 100
REMARK H PARENT 9 13 85 53 53 64
REMARK Flexibility Score: inf
ROOT
ATOM      1  C   UNL A   1      34.003  32.149  28.194  1.00  0.00     0.188 C 
ENDROOT
BRANCH   1   2
ATOM      2  O   UNL A   1      35.328  31.674  27.976  1.00  0.00    -0.376 OA
BRANCH   2   3
ATOM      3  C   UNL A   1      35.498  30.298  27.647  1.00  0.00     0.202 C 
BRANCH   3   4
ATOM      4  C   UNL A   1      34.248  29.507  27.248  1.00  0.00     0.261 C 
BRANCH   4   5
ATOM      5  O   UNL A   1      34.121  29.260  25.831  1.00  0.00    -0.463 OA
BRANCH   5   6
ATOM      6  C   UNL A   1      32.886  29.483  25.309  1.00  0.00     0.316 C 
ATOM      7  O   UNL A   1      32.162  30.393  25.707  1.00  0.00    -0.251 OA
BRANCH   6   8
ATOM      8  C   UNL A   1      32.446  28.498  24.186  1.00  0.00     0.099 C 
ATOM      9  C   UNL A   1      31.625  29.111  23.016  1.00  0.00     0.029 C 
BRANCH   8  10
ATOM     10  C   UNL A   1      33.757  27.900  23.572  1.00  0.00     0.123 C 
BRANCH  10  11
ATOM     11  C   UNL A   1      33.659  26.817  22.494  1.00  0.00     0.225 C 
ATOM     12  N   UNL A   1      33.480  25.485  22.725  1.00  0.00    -0.326 N 
ATOM     13  H   UNL A   1      33.246  24.989  21.906  1.00  0.00     0.169 HD
ATOM     14  O   UNL A   1      33.733  27.149  21.304  1.00  0.00    -0.275 OA
BRANCH  12  15
ATOM     15  C   UNL A   1      33.551  24.651  23.856  1.00  0.00     0.045 A 
ATOM     16  C   UNL A   1      31.340  23.511  23.187  1.00  0.00     0.048 C 
ATOM     17  C   UNL A   1      32.512  23.721  24.119  1.00  0.00    -0.009 A 
ATOM     18  C   UNL A   1      32.571  22.961  25.310  1.00  0.00     0.046 A 
ATOM     19  Cl  UNL A   1      31.329  21.834  25.745  1.00  0.00    -0.084 Cl
ATOM     20  C   UNL A   1      33.638  23.091  26.198  1.00  0.00     0.021 A 
ATOM     21  C   UNL A   1      34.654  24.693  24.711  1.00  0.00     0.026 A 
ATOM     22  C   UNL A   1      34.692  23.938  25.886  1.00  0.00     0.004 A 
ENDBRANCH  12  15
ENDBRANCH  10  11
ENDBRANCH   8  10
BRANCH   8  23
ATOM     23  C   UNL A   1      31.508  27.381  24.761  1.00  0.00    -0.030 A 
ATOM     24  C   UNL A   1      30.327  27.009  24.080  1.00  0.00     0.005 A 
ATOM     25  C   UNL A   1      31.732  26.782  26.016  1.00  0.00     0.005 A 
ATOM     26  C   UNL A   1      29.403  26.121  24.648  1.00  0.00     0.000 A 
ATOM     27  C   UNL A   1      30.822  25.874  26.566  1.00  0.00     0.000 A 
ATOM     28  C   UNL A   1      29.650  25.555  25.893  1.00  0.00     0.000 A 
ENDBRANCH   8  23
ENDBRANCH   6   8
ENDBRANCH   5   6
ENDBRANCH   4   5
ENDBRANCH   3   4
ENDBRANCH   2   3
ENDBRANCH   1   2
BRANCH   1  29
ATOM     29  C   UNL A   1      33.677  33.579  27.734  1.00  0.00     0.188 C 
BRANCH  29  30
ATOM     30  O   UNL A   1      34.647  34.545  28.067  1.00  0.00    -0.376 OA
BRANCH  30  31
ATOM     31  C   UNL A   1      34.207  35.806  28.527  1.00  0.00     0.202 C 
BRANCH  31  32
ATOM     32  C   UNL A   1      32.796  35.982  29.119  1.00  0.00     0.261 C 
BRANCH  32  33
ATOM     33  O   UNL A   1      32.478  35.239  30.302  1.00  0.00    -0.460 OA
BRANCH  33  34
ATOM     34  C   UNL A   1      32.944  35.703  31.494  1.00  0.00     0.338 C 
ATOM     35  O   UNL A   1      32.385  36.473  32.236  1.00  0.00    -0.246 OA
BRANCH  34  36
ATOM     36  C   UNL A   1      34.131  34.864  31.827  1.00  0.00     0.060 A 
ATOM     37  C   UNL A   1      33.992  33.467  31.861  1.00  0.00     0.016 A 
ATOM     38  C   UNL A   1      35.391  35.448  31.982  1.00  0.00     0.016 A 
ATOM     39  C   UNL A   1      35.115  32.653  32.041  1.00  0.00     0.010 A 
ATOM     40  C   UNL A   1      36.506  34.635  32.196  1.00  0.00     0.010 A 
ATOM     41  C   UNL A   1      36.374  33.236  32.241  1.00  0.00    -0.014 A 
BRANCH  41  42
ATOM     42  C   UNL A   1      37.524  32.423  32.709  1.00  0.00     0.031 A 
ATOM     43  C   UNL A   1      38.077  32.721  34.073  1.00  0.00     0.074 A 
ATOM     44  C   UNL A   1      38.093  31.479  31.939  1.00  0.00     0.049 A 
ATOM     45  N   UNL A   1      39.157  32.270  34.652  1.00  0.00    -0.248 NA
ATOM     46  C   UNL A   1      37.306  33.675  34.883  1.00  0.00     0.031 C 
ATOM     47  C   UNL A   1      37.616  31.062  30.623  1.00  0.00     0.029 A 
ATOM     48  N   UNL A   1      39.208  30.707  32.153  1.00  0.00    -0.354 N 
ATOM     49  C   UNL A   1      39.203  32.892  35.896  1.00  0.00     0.074 A 
ATOM     50  C   UNL A   1      38.057  33.775  35.966  1.00  0.00     0.031 C 
ATOM     51  C   UNL A   1      38.434  30.106  30.147  1.00  0.00     0.029 A 
ATOM     52  C   UNL A   1      39.526  29.885  31.096  1.00  0.00     0.049 A 
ATOM     53  H   UNL A   1      39.732  30.739  32.986  1.00  0.00     0.167 HD
ATOM     54  C   UNL A   1      40.115  32.742  36.886  1.00  0.00     0.034 A 
ATOM     55  C   UNL A   1      40.594  29.082  30.905  1.00  0.00     0.034 A 
ATOM     56  C   UNL A   1      41.275  31.894  36.781  1.00  0.00     0.049 A 
ATOM     57  C   UNL A   1      41.677  29.040  31.962  1.00  0.00     0.074 A 
ATOM     58  C   UNL A   1      42.275  31.678  37.713  1.00  0.00     0.029 A 
ATOM     59  N   UNL A   1      41.605  31.136  35.663  1.00  0.00    -0.354 N 
ATOM     60  N   UNL A   1      41.721  29.643  33.128  1.00  0.00    -0.248 NA
ATOM     61  C   UNL A   1      42.864  28.226  31.665  1.00  0.00     0.031 C 
ATOM     62  C   UNL A   1      43.244  30.853  37.131  1.00  0.00     0.029 A 
ATOM     63  C   UNL A   1      42.811  30.486  35.867  1.00  0.00     0.049 A 
ATOM     64  H   UNL A   1      41.059  31.070  34.846  1.00  0.00     0.167 HD
ATOM     65  C   UNL A   1      42.928  29.259  33.711  1.00  0.00     0.074 A 
ATOM     66  C   UNL A   1      43.576  28.366  32.774  1.00  0.00     0.031 C 
ATOM     67  C   UNL A   1      43.453  29.610  34.913  1.00  0.00     0.034 A 
BRANCH  54  68
ATOM     68  C   UNL A   1      39.915  33.579  38.126  1.00  0.00     0.023 A 
ATOM     69  C   UNL A   1      39.082  33.149  39.174  1.00  0.00     0.031 A 
ATOM     70  C   UNL A   1      40.494  34.855  38.226  1.00  0.00     0.131 A 
ATOM     71  C   UNL A   1      38.773  34.024  40.226  1.00  0.00     0.055 A 
ATOM     72  C   UNL A   1      40.257  35.686  39.321  1.00  0.00     0.041 A 
ATOM     73  F   UNL A   1      41.276  35.330  37.243  1.00  0.00    -0.206 F 
ATOM     74  C   UNL A   1      39.376  35.281  40.320  1.00  0.00     0.022 A 
BRANCH  71  75
ATOM     75  S   UNL A   1      37.434  33.569  41.362  1.00  0.00     0.124 S 
ATOM     76  O   UNL A   1      38.112  32.634  42.258  1.00  0.00    -0.237 OA
ATOM     77  O   UNL A   1      37.063  34.855  41.942  1.00  0.00    -0.237 OA
ATOM     78  O   UNL A   1      36.433  32.966  40.486  1.00  0.00    -0.744 OA
ENDBRANCH  71  75
ENDBRANCH  54  68
BRANCH  55  79
ATOM     79  C   UNL A   1      40.743  28.290  29.648  1.00  0.00     0.023 A 
ATOM     80  C   UNL A   1      41.662  28.676  28.659  1.00  0.00     0.031 A 
ATOM     81  C   UNL A   1      39.924  27.177  29.385  1.00  0.00     0.131 A 
ATOM     82  C   UNL A   1      41.714  27.982  27.439  1.00  0.00     0.055 A 
ATOM     83  C   UNL A   1      40.019  26.455  28.193  1.00  0.00     0.041 A 
ATOM     84  F   UNL A   1      39.017  26.771  30.288  1.00  0.00    -0.206 F 
ATOM     85  C   UNL A   1      40.910  26.864  27.206  1.00  0.00     0.022 A 
BRANCH  82  86
ATOM     86  S   UNL A   1      42.789  28.616  26.122  1.00  0.00     0.124 S 
ATOM     87  O   UNL A   1      43.756  27.533  25.983  1.00  0.00    -0.237 OA
ATOM     88  O   UNL A   1      41.851  28.784  25.018  1.00  0.00    -0.237 OA
ATOM     89  O   UNL A   1      43.319  29.857  26.683  1.00  0.00    -0.744 OA
ENDBRANCH  82  86
ENDBRANCH  55  79
BRANCH  67  90
ATOM     90  C   UNL A   1      44.777  28.995  35.300  1.00  0.00     0.023 A 
ATOM     91  C   UNL A   1      44.855  27.757  35.963  1.00  0.00     0.031 A 
ATOM     92  C   UNL A   1      45.980  29.650  34.978  1.00  0.00     0.131 A 
ATOM     93  C   UNL A   1      46.108  27.231  36.315  1.00  0.00     0.055 A 
ATOM     94  C   UNL A   1      47.223  29.096  35.282  1.00  0.00     0.041 A 
ATOM     95  F   UNL A   1      45.963  30.835  34.346  1.00  0.00    -0.206 F 
ATOM     96  C   UNL A   1      47.292  27.884  35.962  1.00  0.00     0.022 A 
BRANCH  93  97
ATOM     97  S   UNL A   1      46.174  25.706  37.294  1.00  0.00     0.124 S 
ATOM     98  O   UNL A   1      45.623  24.724  36.364  1.00  0.00    -0.237 OA
ATOM     99  O   UNL A   1      47.598  25.580  37.585  1.00  0.00    -0.237 OA
ATOM    100  O   UNL A   1      45.331  26.003  38.451  1.00  0.00    -0.744 OA
ENDBRANCH  93  97
ENDBRANCH  67  90
ENDBRANCH  41  42
ENDBRANCH  34  36
ENDBRANCH  33  34
ENDBRANCH  32  33
ENDBRANCH  31  32
ENDBRANCH  30  31
ENDBRANCH  29  30
ENDBRANCH   1  29
TORSDOF 24
ENDMDL
MODEL 2
REMARK VINA RESULT:     -10.0      6.440     12.410
REMARK SMILES Cc1c(Cl)cccc1NC(=O)C[C@](C)(C(=O)OCCOCCOCCOC(=O)c1ccc(-c2c3nc(c(-c4cc(S(=O)(=O)[O-])ccc4F)c4ccc([nH]4)c(-c4cc(S(=O)(=O)[O-])ccc4F)c4nc(c(-c5cc(S(=O)(=O)[O-])ccc5F)c5ccc2[nH]5)C=C4)C=C3)cc1)c1ccccc1
REMARK SMILES IDX 21 1 20 2 19 3 18 4 17 5 15 6 16 7 13 8 14 9 12 10 10 11
REMARK SMILES IDX 9 12 11 14 8 15 1 16 2 17 3 18 4 19 5 20 7 21 6 22 92 23
REMARK SMILES IDX 93 24 97 25 94 26 96 27 95 28 22 29 23 30 24 31 25 32 26 33
REMARK SMILES IDX 27 34 28 35 29 36 30 37 91 38 31 39 90 40 32 41 33 42 34 43
REMARK SMILES IDX 84 44 35 45 89 46 83 47 85 48 36 49 88 50 82 51 81 52 37 54
REMARK SMILES IDX 69 55 49 56 68 57 50 58 53 59 67 60 86 61 51 62 52 63 66 65
REMARK SMILES IDX 87 66 54 67 38 68 39 69 47 70 40 71 46 72 48 73 45 74 41 75
REMARK SMILES IDX 42 76 43 77 44 78 70 79 71 80 79 81 72 82 78 83 80 84 77 85
REMARK SMILES IDX 73 86 74 87 75 88 76 89 55 90 56 91 64 92 57 93 63 94 65 95
REMARK SMILES IDX 62 96 58 97 59 98 60 99 61 100
REMARK H PARENT 9 13 85 53 53 64
REMARK Flexibility Score: inf
ROOT
ATOM      1  C   UNL A   1      38.739  21.466  25.746  1.00  0.00     0.188 C 
ENDROOT
BRANCH   1   2
ATOM      2  O   UNL A   1      37.439  21.002  25.400  1.00  0.00    -0.376 OA
BRANCH   2   3
ATOM      3  C   UNL A   1      36.504  21.950  24.893  1.00  0.00     0.202 C 
BRANCH   3   4
ATOM      4  C   UNL A   1      35.065  21.473  24.668  1.00  0.00     0.261 C 
BRANCH   4   5
ATOM      5  O   UNL A   1      34.049  22.404  25.100  1.00  0.00    -0.463 OA
BRANCH   5   6
ATOM      6  C   UNL A   1      33.130  22.740  24.157  1.00  0.00     0.316 C 
ATOM      7  O   UNL A   1      32.334  21.924  23.699  1.00  0.00    -0.251 OA
BRANCH   6   8
ATOM      8  C   UNL A   1      33.164  24.225  23.688  1.00  0.00     0.099 C 
ATOM      9  C   UNL A   1      34.571  24.833  23.430  1.00  0.00     0.029 C 
BRANCH   8  10
ATOM     10  C   UNL A   1      32.374  24.288  22.337  1.00  0.00     0.123 C 
BRANCH  10  11
ATOM     11  C   UNL A   1      32.746  25.348  21.295  1.00  0.00     0.225 C 
ATOM     12  N   UNL A   1      32.588  26.694  21.446  1.00  0.00    -0.326 N 
ATOM     13  H   UNL A   1      33.065  27.209  20.755  1.00  0.00     0.169 HD
ATOM     14  O   UNL A   1      33.243  24.984  20.222  1.00  0.00    -0.275 OA
BRANCH  12  15
ATOM     15  C   UNL A   1      31.905  27.523  22.356  1.00  0.00     0.045 A 
ATOM     16  C   UNL A   1      34.139  28.490  23.195  1.00  0.00     0.048 C 
ATOM     17  C   UNL A   1      32.633  28.366  23.234  1.00  0.00    -0.009 A 
ATOM     18  C   UNL A   1      31.918  29.119  24.194  1.00  0.00     0.046 A 
ATOM     19  Cl  UNL A   1      32.718  30.141  25.343  1.00  0.00    -0.084 Cl
ATOM     20  C   UNL A   1      30.527  29.067  24.264  1.00  0.00     0.021 A 
ATOM     21  C   UNL A   1      30.509  27.561  22.382  1.00  0.00     0.026 A 
ATOM     22  C   UNL A   1      29.821  28.308  23.342  1.00  0.00     0.004 A 
ENDBRANCH  12  15
ENDBRANCH  10  11
ENDBRANCH   8  10
BRANCH   8  23
ATOM     23  C   UNL A   1      32.539  25.166  24.775  1.00  0.00    -0.030 A 
ATOM     24  C   UNL A   1      33.363  25.975  25.590  1.00  0.00     0.005 A 
ATOM     25  C   UNL A   1      31.160  25.172  25.064  1.00  0.00     0.005 A 
ATOM     26  C   UNL A   1      32.838  26.710  26.661  1.00  0.00     0.000 A 
ATOM     27  C   UNL A   1      30.636  25.929  26.116  1.00  0.00     0.000 A 
ATOM     28  C   UNL A   1      31.473  26.685  26.926  1.00  0.00     0.000 A 
ENDBRANCH   8  23
ENDBRANCH   6   8
ENDBRANCH   5   6
ENDBRANCH   4   5
ENDBRANCH   3   4
ENDBRANCH   2   3
ENDBRANCH   1   2
BRANCH   1  29
ATOM     29  C   UNL A   1      39.864  20.424  25.841  1.00  0.00     0.188 C 
BRANCH  29  30
ATOM     30  O   UNL A   1      40.908  20.756  26.726  1.00  0.00    -0.376 OA
BRANCH  30  31
ATOM     31  C   UNL A   1      41.809  19.739  27.113  1.00  0.00     0.202 C 
BRANCH  31  32
ATOM     32  C   UNL A   1      42.498  18.852  26.059  1.00  0.00     0.261 C 
BRANCH  32  33
ATOM     33  O   UNL A   1      42.976  19.490  24.869  1.00  0.00    -0.460 OA
BRANCH  33  34
ATOM     34  C   UNL A   1      44.319  19.673  24.737  1.00  0.00     0.338 C 
ATOM     35  O   UNL A   1      45.108  18.903  24.248  1.00  0.00    -0.246 OA
BRANCH  34  36
ATOM     36  C   UNL A   1      44.571  21.109  25.053  1.00  0.00     0.060 A 
ATOM     37  C   UNL A   1      44.984  21.461  26.348  1.00  0.00     0.016 A 
ATOM     38  C   UNL A   1      44.518  22.076  24.047  1.00  0.00     0.016 A 
ATOM     39  C   UNL A   1      45.352  22.780  26.635  1.00  0.00     0.010 A 
ATOM     40  C   UNL A   1      44.853  23.399  24.343  1.00  0.00     0.010 A 
ATOM     41  C   UNL A   1      45.258  23.762  25.639  1.00  0.00    -0.014 A 
BRANCH  41  42
ATOM     42  C   UNL A   1      45.369  25.203  25.978  1.00  0.00     0.031 A 
ATOM     43  C   UNL A   1      46.724  25.840  25.867  1.00  0.00     0.074 A 
ATOM     44  C   UNL A   1      44.317  25.918  26.414  1.00  0.00     0.049 A 
ATOM     45  N   UNL A   1      47.121  27.027  26.244  1.00  0.00    -0.248 NA
ATOM     46  C   UNL A   1      47.775  25.011  25.260  1.00  0.00     0.031 C 
ATOM     47  C   UNL A   1      42.945  25.428  26.513  1.00  0.00     0.029 A 
ATOM     48  N   UNL A   1      44.245  27.213  26.866  1.00  0.00    -0.354 N 
ATOM     49  C   UNL A   1      48.475  27.086  25.927  1.00  0.00     0.074 A 
ATOM     50  C   UNL A   1      48.830  25.802  25.359  1.00  0.00     0.031 C 
ATOM     51  C   UNL A   1      42.165  26.413  26.994  1.00  0.00     0.029 A 
ATOM     52  C   UNL A   1      42.991  27.583  27.294  1.00  0.00     0.049 A 
ATOM     53  H   UNL A   1      45.021  27.820  26.882  1.00  0.00     0.167 HD
ATOM     54  C   UNL A   1      49.341  28.114  26.097  1.00  0.00     0.034 A 
ATOM     55  C   UNL A   1      42.573  28.717  27.893  1.00  0.00     0.034 A 
ATOM     56  C   UNL A   1      48.981  29.368  26.708  1.00  0.00     0.049 A 
ATOM     57  C   UNL A   1      43.587  29.798  28.205  1.00  0.00     0.074 A 
ATOM     58  C   UNL A   1      49.779  30.473  26.946  1.00  0.00     0.029 A 
ATOM     59  N   UNL A   1      47.719  29.677  27.200  1.00  0.00    -0.354 N 
ATOM     60  N   UNL A   1      44.868  29.840  27.917  1.00  0.00    -0.248 NA
ATOM     61  C   UNL A   1      43.101  30.972  28.944  1.00  0.00     0.031 C 
ATOM     62  C   UNL A   1      49.021  31.417  27.648  1.00  0.00     0.029 A 
ATOM     63  C   UNL A   1      47.727  30.937  27.777  1.00  0.00     0.049 A 
ATOM     64  H   UNL A   1      46.933  29.087  27.145  1.00  0.00     0.167 HD
ATOM     65  C   UNL A   1      45.331  31.056  28.419  1.00  0.00     0.074 A 
ATOM     66  C   UNL A   1      44.192  31.720  29.016  1.00  0.00     0.031 C 
ATOM     67  C   UNL A   1      46.584  31.579  28.385  1.00  0.00     0.034 A 
BRANCH  54  68
ATOM     68  C   UNL A   1      50.770  27.873  25.676  1.00  0.00     0.023 A 
ATOM     69  C   UNL A   1      51.187  28.068  24.348  1.00  0.00     0.031 A 
ATOM     70  C   UNL A   1      51.706  27.364  26.593  1.00  0.00     0.131 A 
ATOM     71  C   UNL A   1      52.471  27.664  23.952  1.00  0.00     0.055 A 
ATOM     72  C   UNL A   1      53.011  27.050  26.212  1.00  0.00     0.041 A 
ATOM     73  F   UNL A   1      51.357  27.131  27.868  1.00  0.00    -0.206 F 
ATOM     74  C   UNL A   1      53.395  27.180  24.880  1.00  0.00     0.022 A 
BRANCH  71  75
ATOM     75  S   UNL A   1      52.846  27.604  22.178  1.00  0.00     0.124 S 
ATOM     76  O   UNL A   1      53.667  28.802  22.009  1.00  0.00    -0.237 OA
ATOM     77  O   UNL A   1      53.543  26.329  22.046  1.00  0.00    -0.237 OA
ATOM     78  O   UNL A   1      51.531  27.666  21.547  1.00  0.00    -0.744 OA
ENDBRANCH  71  75
ENDBRANCH  54  68
BRANCH  55  79
ATOM     79  C   UNL A   1      41.146  28.890  28.299  1.00  0.00     0.023 A 
ATOM     80  C   UNL A   1      40.760  28.758  29.643  1.00  0.00     0.031 A 
ATOM     81  C   UNL A   1      40.138  29.120  27.346  1.00  0.00     0.131 A 
ATOM     82  C   UNL A   1      39.401  28.818  29.992  1.00  0.00     0.055 A 
ATOM     83  C   UNL A   1      38.794  29.235  27.705  1.00  0.00     0.041 A 
ATOM     84  F   UNL A   1      40.447  29.239  26.045  1.00  0.00    -0.206 F 
ATOM     85  C   UNL A   1      38.417  29.072  29.033  1.00  0.00     0.022 A 
BRANCH  82  86
ATOM     86  S   UNL A   1      38.927  28.471  31.708  1.00  0.00     0.124 S 
ATOM     87  O   UNL A   1      38.407  27.112  31.601  1.00  0.00    -0.237 OA
ATOM     88  O   UNL A   1      40.196  28.618  32.411  1.00  0.00    -0.237 OA
ATOM     89  O   UNL A   1      37.929  29.498  32.001  1.00  0.00    -0.744 OA
ENDBRANCH  82  86
ENDBRANCH  55  79
BRANCH  67  90
ATOM     90  C   UNL A   1      46.780  32.954  28.978  1.00  0.00     0.023 A 
ATOM     91  C   UNL A   1      46.668  34.120  28.201  1.00  0.00     0.031 A 
ATOM     92  C   UNL A   1      47.060  33.096  30.350  1.00  0.00     0.131 A 
ATOM     93  C   UNL A   1      46.873  35.376  28.795  1.00  0.00     0.055 A 
ATOM     94  C   UNL A   1      47.207  34.350  30.944  1.00  0.00     0.041 A 
ATOM     95  F   UNL A   1      47.177  32.015  31.138  1.00  0.00    -0.206 F 
ATOM     96  C   UNL A   1      47.123  35.498  30.164  1.00  0.00     0.022 A 
BRANCH  93  97
ATOM     97  S   UNL A   1      46.865  36.853  27.741  1.00  0.00     0.124 S 
ATOM     98  O   UNL A   1      48.047  37.569  28.214  1.00  0.00    -0.237 OA
ATOM     99  O   UNL A   1      46.958  36.285  26.401  1.00  0.00    -0.237 OA
ATOM    100  O   UNL A   1      45.588  37.492  28.054  1.00  0.00    -0.744 OA
ENDBRANCH  93  97
ENDBRANCH  67  90
ENDBRANCH  41  42
ENDBRANCH  34  36
ENDBRANCH  33  34
ENDBRANCH  32  33
ENDBRANCH  31  32
ENDBRANCH  30  31
ENDBRANCH  29  30
ENDBRANCH   1  29
TORSDOF 24
ENDMDL
MODEL 3
REMARK VINA RESULT:      -9.8      1.698      7.620
REMARK SMILES Cc1c(Cl)cccc1NC(=O)C[C@](C)(C(=O)OCCOCCOCCOC(=O)c1ccc(-c2c3nc(c(-c4cc(S(=O)(=O)[O-])ccc4F)c4ccc([nH]4)c(-c4cc(S(=O)(=O)[O-])ccc4F)c4nc(c(-c5cc(S(=O)(=O)[O-])ccc5F)c5ccc2[nH]5)C=C4)C=C3)cc1)c1ccccc1
REMARK SMILES IDX 21 1 20 2 19 3 18 4 17 5 15 6 16 7 13 8 14 9 12 10 10 11
REMARK SMILES IDX 9 12 11 14 8 15 1 16 2 17 3 18 4 19 5 20 7 21 6 22 92 23
REMARK SMILES IDX 93 24 97 25 94 26 96 27 95 28 22 29 23 30 24 31 25 32 26 33
REMARK SMILES IDX 27 34 28 35 29 36 30 37 91 38 31 39 90 40 32 41 33 42 34 43
REMARK SMILES IDX 84 44 35 45 89 46 83 47 85 48 36 49 88 50 82 51 81 52 37 54
REMARK SMILES IDX 69 55 49 56 68 57 50 58 53 59 67 60 86 61 51 62 52 63 66 65
REMARK SMILES IDX 87 66 54 67 38 68 39 69 47 70 40 71 46 72 48 73 45 74 41 75
REMARK SMILES IDX 42 76 43 77 44 78 70 79 71 80 79 81 72 82 78 83 80 84 77 85
REMARK SMILES IDX 73 86 74 87 75 88 76 89 55 90 56 91 64 92 57 93 63 94 65 95
REMARK SMILES IDX 62 96 58 97 59 98 60 99 61 100
REMARK H PARENT 9 13 85 53 53 64
REMARK Flexibility Score: inf
ROOT
ATOM      1  C   UNL A   1      32.986  31.732  27.620  1.00  0.00     0.188 C 
ENDROOT
BRANCH   1   2
ATOM      2  O   UNL A   1      34.129  30.982  27.221  1.00  0.00    -0.376 OA
BRANCH   2   3
ATOM      3  C   UNL A   1      33.920  29.817  26.427  1.00  0.00     0.202 C 
BRANCH   3   4
ATOM      4  C   UNL A   1      32.626  29.741  25.610  1.00  0.00     0.261 C 
BRANCH   4   5
ATOM      5  O   UNL A   1      32.503  28.559  24.790  1.00  0.00    -0.463 OA
BRANCH   5   6
ATOM      6  C   UNL A   1      31.886  27.503  25.381  1.00  0.00     0.316 C 
ATOM      7  O   UNL A   1      31.273  27.611  26.440  1.00  0.00    -0.251 OA
BRANCH   6   8
ATOM      8  C   UNL A   1      32.022  26.143  24.632  1.00  0.00     0.099 C 
ATOM      9  C   UNL A   1      30.944  25.841  23.554  1.00  0.00     0.029 C 
BRANCH   8  10
ATOM     10  C   UNL A   1      33.411  26.165  23.908  1.00  0.00     0.123 C 
BRANCH  10  11
ATOM     11  C   UNL A   1      33.551  25.522  22.525  1.00  0.00     0.225 C 
ATOM     12  N   UNL A   1      33.469  24.187  22.262  1.00  0.00    -0.326 N 
ATOM     13  H   UNL A   1      33.386  23.997  21.299  1.00  0.00     0.169 HD
ATOM     14  O   UNL A   1      33.743  26.251  21.543  1.00  0.00    -0.275 OA
BRANCH  12  15
ATOM     15  C   UNL A   1      33.474  23.015  23.042  1.00  0.00     0.045 A 
ATOM     16  C   UNL A   1      35.920  23.445  23.723  1.00  0.00     0.048 C 
ATOM     17  C   UNL A   1      34.654  22.619  23.722  1.00  0.00    -0.009 A 
ATOM     18  C   UNL A   1      34.649  21.391  24.424  1.00  0.00     0.046 A 
ATOM     19  Cl  UNL A   1      36.054  20.796  25.246  1.00  0.00    -0.084 Cl
ATOM     20  C   UNL A   1      33.506  20.596  24.481  1.00  0.00     0.021 A 
ATOM     21  C   UNL A   1      32.315  22.250  23.194  1.00  0.00     0.026 A 
ATOM     22  C   UNL A   1      32.332  21.038  23.888  1.00  0.00     0.004 A 
ENDBRANCH  12  15
ENDBRANCH  10  11
ENDBRANCH   8  10
BRANCH   8  23
ATOM     23  C   UNL A   1      31.904  24.943  25.633  1.00  0.00    -0.030 A 
ATOM     24  C   UNL A   1      33.049  24.432  26.286  1.00  0.00     0.005 A 
ATOM     25  C   UNL A   1      30.694  24.254  25.844  1.00  0.00     0.005 A 
ATOM     26  C   UNL A   1      32.989  23.271  27.069  1.00  0.00     0.000 A 
ATOM     27  C   UNL A   1      30.633  23.112  26.649  1.00  0.00     0.000 A 
ATOM     28  C   UNL A   1      31.780  22.609  27.248  1.00  0.00     0.000 A 
ENDBRANCH   8  23
ENDBRANCH   6   8
ENDBRANCH   5   6
ENDBRANCH   4   5
ENDBRANCH   3   4
ENDBRANCH   2   3
ENDBRANCH   1   2
BRANCH   1  29
ATOM     29  C   UNL A   1      33.098  33.264  27.598  1.00  0.00     0.188 C 
BRANCH  29  30
ATOM     30  O   UNL A   1      34.347  33.773  28.004  1.00  0.00    -0.376 OA
BRANCH  30  31
ATOM     31  C   UNL A   1      34.376  34.995  28.711  1.00  0.00     0.202 C 
BRANCH  31  32
ATOM     32  C   UNL A   1      33.208  35.404  29.629  1.00  0.00     0.261 C 
BRANCH  32  33
ATOM     33  O   UNL A   1      32.994  34.624  30.812  1.00  0.00    -0.460 OA
BRANCH  33  34
ATOM     34  C   UNL A   1      33.200  35.223  32.018  1.00  0.00     0.338 C 
ATOM     35  O   UNL A   1      32.403  35.876  32.645  1.00  0.00    -0.246 OA
BRANCH  34  36
ATOM     36  C   UNL A   1      34.491  34.680  32.530  1.00  0.00     0.060 A 
ATOM     37  C   UNL A   1      35.686  35.345  32.213  1.00  0.00     0.016 A 
ATOM     38  C   UNL A   1      34.504  33.599  33.415  1.00  0.00     0.016 A 
ATOM     39  C   UNL A   1      36.894  34.935  32.788  1.00  0.00     0.010 A 
ATOM     40  C   UNL A   1      35.716  33.168  33.961  1.00  0.00     0.010 A 
ATOM     41  C   UNL A   1      36.918  33.823  33.641  1.00  0.00    -0.014 A 
BRANCH  41  42
ATOM     42  C   UNL A   1      38.203  33.196  34.038  1.00  0.00     0.031 A 
ATOM     43  C   UNL A   1      38.678  32.016  33.240  1.00  0.00     0.074 A 
ATOM     44  C   UNL A   1      38.909  33.624  35.099  1.00  0.00     0.049 A 
ATOM     45  N   UNL A   1      39.674  31.202  33.466  1.00  0.00    -0.248 NA
ATOM     46  C   UNL A   1      37.905  31.710  32.027  1.00  0.00     0.031 C 
ATOM     47  C   UNL A   1      38.581  34.787  35.919  1.00  0.00     0.029 A 
ATOM     48  N   UNL A   1      40.048  33.117  35.676  1.00  0.00    -0.354 N 
ATOM     49  C   UNL A   1      39.644  30.278  32.427  1.00  0.00     0.074 A 
ATOM     50  C   UNL A   1      38.511  30.618  31.593  1.00  0.00     0.031 C 
ATOM     51  C   UNL A   1      39.502  34.908  36.892  1.00  0.00     0.029 A 
ATOM     52  C   UNL A   1      40.449  33.797  36.803  1.00  0.00     0.049 A 
ATOM     53  H   UNL A   1      40.533  32.340  35.314  1.00  0.00     0.167 HD
ATOM     54  C   UNL A   1      40.484  29.241  32.191  1.00  0.00     0.034 A 
ATOM     55  C   UNL A   1      41.440  33.526  37.678  1.00  0.00     0.034 A 
ATOM     56  C   UNL A   1      41.580  28.887  33.057  1.00  0.00     0.049 A 
ATOM     57  C   UNL A   1      42.276  32.279  37.476  1.00  0.00     0.074 A 
ATOM     58  C   UNL A   1      42.484  27.848  32.926  1.00  0.00     0.029 A 
ATOM     59  N   UNL A   1      41.907  29.552  34.232  1.00  0.00    -0.354 N 
ATOM     60  N   UNL A   1      42.232  31.402  36.500  1.00  0.00    -0.248 NA
ATOM     61  C   UNL A   1      43.278  31.977  38.509  1.00  0.00     0.031 C 
ATOM     62  C   UNL A   1      43.306  27.839  34.058  1.00  0.00     0.029 A 
ATOM     63  C   UNL A   1      42.971  28.922  34.856  1.00  0.00     0.049 A 
ATOM     64  H   UNL A   1      41.450  30.356  34.571  1.00  0.00     0.167 HD
ATOM     65  C   UNL A   1      43.218  30.459  36.791  1.00  0.00     0.074 A 
ATOM     66  C   UNL A   1      43.845  30.881  38.026  1.00  0.00     0.031 C 
ATOM     67  C   UNL A   1      43.575  29.347  36.098  1.00  0.00     0.034 A 
BRANCH  54  68
ATOM     68  C   UNL A   1      40.183  28.386  30.984  1.00  0.00     0.023 A 
ATOM     69  C   UNL A   1      40.822  28.605  29.751  1.00  0.00     0.031 A 
ATOM     70  C   UNL A   1      39.187  27.396  31.042  1.00  0.00     0.131 A 
ATOM     71  C   UNL A   1      40.392  27.916  28.608  1.00  0.00     0.055 A 
ATOM     72  C   UNL A   1      38.827  26.648  29.920  1.00  0.00     0.041 A 
ATOM     73  F   UNL A   1      38.523  27.160  32.185  1.00  0.00    -0.206 F 
ATOM     74  C   UNL A   1      39.416  26.920  28.689  1.00  0.00     0.022 A 
BRANCH  71  75
ATOM     75  S   UNL A   1      40.992  28.473  26.989  1.00  0.00     0.124 S 
ATOM     76  O   UNL A   1      39.884  29.312  26.536  1.00  0.00    -0.237 OA
ATOM     77  O   UNL A   1      42.224  29.174  27.334  1.00  0.00    -0.237 OA
ATOM     78  O   UNL A   1      41.167  27.230  26.242  1.00  0.00    -0.744 OA
ENDBRANCH  71  75
ENDBRANCH  54  68
BRANCH  55  79
ATOM     79  C   UNL A   1      41.679  34.404  38.863  1.00  0.00     0.023 A 
ATOM     80  C   UNL A   1      40.839  34.338  39.987  1.00  0.00     0.031 A 
ATOM     81  C   UNL A   1      42.703  35.367  38.864  1.00  0.00     0.131 A 
ATOM     82  C   UNL A   1      41.013  35.243  41.047  1.00  0.00     0.055 A 
ATOM     83  C   UNL A   1      42.908  36.227  39.944  1.00  0.00     0.041 A 
ATOM     84  F   UNL A   1      43.527  35.485  37.810  1.00  0.00    -0.206 F 
ATOM     85  C   UNL A   1      42.052  36.177  41.040  1.00  0.00     0.022 A 
BRANCH  82  86
ATOM     86  S   UNL A   1      39.803  35.242  42.399  1.00  0.00     0.124 S 
ATOM     87  O   UNL A   1      39.373  36.636  42.410  1.00  0.00    -0.237 OA
ATOM     88  O   UNL A   1      38.822  34.272  41.929  1.00  0.00    -0.237 OA
ATOM     89  O   UNL A   1      40.588  34.822  43.558  1.00  0.00    -0.744 OA
ENDBRANCH  82  86
ENDBRANCH  55  79
BRANCH  67  90
ATOM     90  C   UNL A   1      44.724  28.529  36.641  1.00  0.00     0.023 A 
ATOM     91  C   UNL A   1      44.515  27.430  37.492  1.00  0.00     0.031 A 
ATOM     92  C   UNL A   1      46.046  28.846  36.281  1.00  0.00     0.131 A 
ATOM     93  C   UNL A   1      45.614  26.709  37.984  1.00  0.00     0.055 A 
ATOM     94  C   UNL A   1      47.131  28.091  36.729  1.00  0.00     0.041 A 
ATOM     95  F   UNL A   1      46.303  29.886  35.472  1.00  0.00    -0.206 F 
ATOM     96  C   UNL A   1      46.919  27.021  37.593  1.00  0.00     0.022 A 
BRANCH  93  97
ATOM     97  S   UNL A   1      45.324  25.387  39.192  1.00  0.00     0.124 S 
ATOM     98  O   UNL A   1      44.605  26.093  40.248  1.00  0.00    -0.237 OA
ATOM     99  O   UNL A   1      44.543  24.424  38.424  1.00  0.00    -0.237 OA
ATOM    100  O   UNL A   1      46.671  24.945  39.548  1.00  0.00    -0.744 OA
ENDBRANCH  93  97
ENDBRANCH  67  90
ENDBRANCH  41  42
ENDBRANCH  34  36
ENDBRANCH  33  34
ENDBRANCH  32  33
ENDBRANCH  31  32
ENDBRANCH  30  31
ENDBRANCH  29  30
ENDBRANCH   1  29
TORSDOF 24
ENDMDL
