MODEL 1
REMARK VINA RESULT:     -10.2      0.000      0.000
REMARK SMILES COc1ccc(C(C)(C)C)cc1CC(=O)OCCOCCOCCOC(=O)c1ccc(-c2c3nc(c(-c4cc(S(=O)(=O)[O-])ccc4F)c4ccc([nH]4)c(-c4cc(S(=O)(=O)[O-])ccc4F)c4nc(c(-c5cc(S(=O)(=O)[O-])ccc5F)c5ccc2[nH]5)C=C4)C=C3)cc1
REMARK SMILES IDX 21 1 20 2 19 3 18 4 17 5 16 6 14 7 15 8 13 9 12 10 3 11 4 12
REMARK SMILES IDX 5 13 11 14 6 15 2 16 1 17 7 18 8 19 9 20 10 21 22 22 23 23
REMARK SMILES IDX 24 24 25 25 26 26 27 27 28 28 29 29 90 30 30 31 89 32 31 33
REMARK SMILES IDX 32 34 33 35 83 36 34 37 88 38 82 39 84 40 35 41 87 42 81 43
REMARK SMILES IDX 80 44 36 46 68 47 48 48 67 49 49 50 52 51 66 52 85 53 50 54
REMARK SMILES IDX 51 55 65 57 86 58 53 59 37 60 38 61 46 62 39 63 45 64 47 65
REMARK SMILES IDX 44 66 40 67 41 68 42 69 43 70 69 71 70 72 78 73 71 74 77 75
REMARK SMILES IDX 79 76 76 77 72 78 73 79 74 80 75 81 54 82 55 83 63 84 56 85
REMARK SMILES IDX 62 86 64 87 61 88 57 89 58 90 59 91 60 92
REMARK H PARENT 84 45 52 56
REMARK Flexibility Score: inf
ROOT
ATOM      1  C   UNL A   1      30.375  27.634  22.576  1.00  0.00     0.188 C 
ENDROOT
BRANCH   1   2
ATOM      2  C   UNL A   1      29.572  27.336  23.854  1.00  0.00     0.188 C 
BRANCH   2   3
ATOM      3  O   UNL A   1      29.572  25.995  24.348  1.00  0.00    -0.376 OA
BRANCH   3   4
ATOM      4  C   UNL A   1      30.232  25.749  25.587  1.00  0.00     0.202 C 
BRANCH   4   5
ATOM      5  C   UNL A   1      31.741  25.522  25.467  1.00  0.00     0.261 C 
BRANCH   5   6
ATOM      6  O   UNL A   1      31.997  24.181  25.024  1.00  0.00    -0.463 OA
BRANCH   6   7
ATOM      7  C   UNL A   1      32.458  24.048  23.754  1.00  0.00     0.310 C 
ATOM      8  O   UNL A   1      31.762  24.132  22.750  1.00  0.00    -0.252 OA
BRANCH   7   9
ATOM      9  C   UNL A   1      33.972  23.968  23.730  1.00  0.00     0.162 C 
BRANCH   9  10
ATOM     10  C   UNL A   1      34.597  22.658  24.160  1.00  0.00     0.005 A 
ATOM     11  C   UNL A   1      35.890  22.599  24.684  1.00  0.00     0.122 A 
ATOM     12  C   UNL A   1      36.438  21.388  25.098  1.00  0.00     0.047 A 
ATOM     13  C   UNL A   1      35.681  20.218  25.035  1.00  0.00     0.008 A 
ATOM     14  C   UNL A   1      33.840  21.463  24.118  1.00  0.00     0.012 A 
ATOM     15  C   UNL A   1      34.363  20.223  24.545  1.00  0.00    -0.042 A 
BRANCH  11  16
ATOM     16  O   UNL A   1      36.681  23.712  24.769  1.00  0.00    -0.496 OA
ATOM     17  C   UNL A   1      37.611  23.600  25.849  1.00  0.00     0.278 C 
ENDBRANCH  11  16
BRANCH  15  18
ATOM     18  C   UNL A   1      33.573  18.898  24.483  1.00  0.00    -0.013 C 
ATOM     19  C   UNL A   1      32.901  18.641  25.852  1.00  0.00     0.016 C 
ATOM     20  C   UNL A   1      32.488  18.959  23.388  1.00  0.00     0.016 C 
ATOM     21  C   UNL A   1      34.438  17.664  24.177  1.00  0.00     0.016 C 
ENDBRANCH  15  18
ENDBRANCH   9  10
ENDBRANCH   7   9
ENDBRANCH   6   7
ENDBRANCH   5   6
ENDBRANCH   4   5
ENDBRANCH   3   4
ENDBRANCH   2   3
ENDBRANCH   1   2
BRANCH   1  22
ATOM     22  O   UNL A   1      31.586  28.331  22.867  1.00  0.00    -0.376 OA
BRANCH  22  23
ATOM     23  C   UNL A   1      31.593  28.951  24.149  1.00  0.00     0.202 C 
BRANCH  23  24
ATOM     24  C   UNL A   1      33.020  29.335  24.537  1.00  0.00     0.261 C 
BRANCH  24  25
ATOM     25  O   UNL A   1      33.258  29.259  25.955  1.00  0.00    -0.460 OA
BRANCH  25  26
ATOM     26  C   UNL A   1      33.188  30.434  26.614  1.00  0.00     0.338 C 
ATOM     27  O   UNL A   1      32.316  31.278  26.524  1.00  0.00    -0.246 OA
BRANCH  26  28
ATOM     28  C   UNL A   1      34.345  30.531  27.519  1.00  0.00     0.060 A 
ATOM     29  C   UNL A   1      35.059  31.731  27.622  1.00  0.00     0.016 A 
ATOM     30  C   UNL A   1      34.778  29.389  28.187  1.00  0.00     0.016 A 
ATOM     31  C   UNL A   1      36.262  31.772  28.326  1.00  0.00     0.010 A 
ATOM     32  C   UNL A   1      35.955  29.446  28.931  1.00  0.00     0.010 A 
ATOM     33  C   UNL A   1      36.727  30.625  28.974  1.00  0.00    -0.014 A 
BRANCH  33  34
ATOM     34  C   UNL A   1      38.058  30.576  29.628  1.00  0.00     0.031 A 
ATOM     35  C   UNL A   1      39.127  29.720  29.010  1.00  0.00     0.074 A 
ATOM     36  C   UNL A   1      38.292  31.219  30.786  1.00  0.00     0.049 A 
ATOM     37  N   UNL A   1      40.206  29.221  29.546  1.00  0.00    -0.248 NA
ATOM     38  C   UNL A   1      38.932  29.367  27.593  1.00  0.00     0.031 C 
ATOM     39  C   UNL A   1      37.380  32.159  31.437  1.00  0.00     0.029 A 
ATOM     40  N   UNL A   1      39.360  31.138  31.645  1.00  0.00    -0.354 N 
ATOM     41  C   UNL A   1      40.793  28.442  28.556  1.00  0.00     0.074 A 
ATOM     42  C   UNL A   1      39.955  28.550  27.380  1.00  0.00     0.031 C 
ATOM     43  C   UNL A   1      37.910  32.538  32.611  1.00  0.00     0.029 A 
ATOM     44  C   UNL A   1      39.150  31.799  32.835  1.00  0.00     0.049 A 
ATOM     45  H   UNL A   1      40.193  30.657  31.433  1.00  0.00     0.167 HD
ATOM     46  C   UNL A   1      41.917  27.689  28.637  1.00  0.00     0.034 A 
ATOM     47  C   UNL A   1      39.832  31.746  33.997  1.00  0.00     0.034 A 
ATOM     48  C   UNL A   1      42.745  27.620  29.815  1.00  0.00     0.049 A 
ATOM     49  C   UNL A   1      41.037  30.841  34.097  1.00  0.00     0.074 A 
ATOM     50  C   UNL A   1      43.906  26.894  30.014  1.00  0.00     0.029 A 
ATOM     51  N   UNL A   1      42.497  28.306  30.997  1.00  0.00    -0.354 N 
ATOM     52  N   UNL A   1      41.551  30.046  33.185  1.00  0.00    -0.248 NA
ATOM     53  C   UNL A   1      41.744  30.811  35.384  1.00  0.00     0.031 C 
ATOM     54  C   UNL A   1      44.329  27.099  31.332  1.00  0.00     0.029 A 
ATOM     55  C   UNL A   1      43.470  28.005  31.933  1.00  0.00     0.049 A 
ATOM     56  H   UNL A   1      41.740  28.917  31.146  1.00  0.00     0.167 HD
ATOM     57  C   UNL A   1      42.660  29.451  33.782  1.00  0.00     0.074 A 
ATOM     58  C   UNL A   1      42.741  29.978  35.128  1.00  0.00     0.031 C 
ATOM     59  C   UNL A   1      43.537  28.554  33.266  1.00  0.00     0.034 A 
BRANCH  46  60
ATOM     60  C   UNL A   1      42.266  26.824  27.454  1.00  0.00     0.023 A 
ATOM     61  C   UNL A   1      41.968  25.453  27.416  1.00  0.00     0.031 A 
ATOM     62  C   UNL A   1      42.924  27.391  26.347  1.00  0.00     0.131 A 
ATOM     63  C   UNL A   1      42.373  24.682  26.314  1.00  0.00     0.055 A 
ATOM     64  C   UNL A   1      43.264  26.633  25.226  1.00  0.00     0.041 A 
ATOM     65  F   UNL A   1      43.255  28.691  26.342  1.00  0.00    -0.206 F 
ATOM     66  C   UNL A   1      42.998  25.268  25.209  1.00  0.00     0.022 A 
BRANCH  63  67
ATOM     67  S   UNL A   1      42.169  22.883  26.389  1.00  0.00     0.124 S 
ATOM     68  O   UNL A   1      43.054  22.531  27.498  1.00  0.00    -0.237 OA
ATOM     69  O   UNL A   1      40.741  22.736  26.641  1.00  0.00    -0.237 OA
ATOM     70  O   UNL A   1      42.621  22.430  25.074  1.00  0.00    -0.744 OA
ENDBRANCH  63  67
ENDBRANCH  46  60
BRANCH  47  71
ATOM     71  C   UNL A   1      39.342  32.484  35.197  1.00  0.00     0.023 A 
ATOM     72  C   UNL A   1      39.747  33.803  35.452  1.00  0.00     0.031 A 
ATOM     73  C   UNL A   1      38.513  31.855  36.144  1.00  0.00     0.131 A 
ATOM     74  C   UNL A   1      39.365  34.433  36.648  1.00  0.00     0.055 A 
ATOM     75  C   UNL A   1      38.086  32.507  37.303  1.00  0.00     0.041 A 
ATOM     76  F   UNL A   1      38.100  30.591  35.954  1.00  0.00    -0.206 F 
ATOM     77  C   UNL A   1      38.526  33.798  37.568  1.00  0.00     0.022 A 
BRANCH  74  78
ATOM     78  S   UNL A   1      40.072  36.057  37.035  1.00  0.00     0.124 S 
ATOM     79  O   UNL A   1      41.444  35.708  37.387  1.00  0.00    -0.237 OA
ATOM     80  O   UNL A   1      39.894  36.771  35.774  1.00  0.00    -0.237 OA
ATOM     81  O   UNL A   1      39.245  36.534  38.141  1.00  0.00    -0.744 OA
ENDBRANCH  74  78
ENDBRANCH  47  71
BRANCH  59  82
ATOM     82  C   UNL A   1      44.701  28.152  34.131  1.00  0.00     0.023 A 
ATOM     83  C   UNL A   1      44.693  26.970  34.889  1.00  0.00     0.031 A 
ATOM     84  C   UNL A   1      45.848  28.966  34.178  1.00  0.00     0.131 A 
ATOM     85  C   UNL A   1      45.799  26.649  35.690  1.00  0.00     0.055 A 
ATOM     86  C   UNL A   1      46.963  28.619  34.940  1.00  0.00     0.041 A 
ATOM     87  F   UNL A   1      45.905  30.105  33.469  1.00  0.00    -0.206 F 
ATOM     88  C   UNL A   1      46.939  27.459  35.709  1.00  0.00     0.022 A 
BRANCH  85  89
ATOM     89  S   UNL A   1      45.714  25.180  36.751  1.00  0.00     0.124 S 
ATOM     90  O   UNL A   1      45.680  24.100  35.771  1.00  0.00    -0.237 OA
ATOM     91  O   UNL A   1      46.939  25.290  37.537  1.00  0.00    -0.237 OA
ATOM     92  O   UNL A   1      44.478  25.372  37.506  1.00  0.00    -0.744 OA
ENDBRANCH  85  89
ENDBRANCH  59  82
ENDBRANCH  33  34
ENDBRANCH  26  28
ENDBRANCH  25  26
ENDBRANCH  24  25
ENDBRANCH  23  24
ENDBRANCH  22  23
ENDBRANCH   1  22
TORSDOF 23
ENDMDL
MODEL 2
REMARK VINA RESULT:      -9.6      1.987      2.806
REMARK SMILES COc1ccc(C(C)(C)C)cc1CC(=O)OCCOCCOCCOC(=O)c1ccc(-c2c3nc(c(-c4cc(S(=O)(=O)[O-])ccc4F)c4ccc([nH]4)c(-c4cc(S(=O)(=O)[O-])ccc4F)c4nc(c(-c5cc(S(=O)(=O)[O-])ccc5F)c5ccc2[nH]5)C=C4)C=C3)cc1
REMARK SMILES IDX 21 1 20 2 19 3 18 4 17 5 16 6 14 7 15 8 13 9 12 10 3 11 4 12
REMARK SMILES IDX 5 13 11 14 6 15 2 16 1 17 7 18 8 19 9 20 10 21 22 22 23 23
REMARK SMILES IDX 24 24 25 25 26 26 27 27 28 28 29 29 90 30 30 31 89 32 31 33
REMARK SMILES IDX 32 34 33 35 83 36 34 37 88 38 82 39 84 40 35 41 87 42 81 43
REMARK SMILES IDX 80 44 36 46 68 47 48 48 67 49 49 50 52 51 66 52 85 53 50 54
REMARK SMILES IDX 51 55 65 57 86 58 53 59 37 60 38 61 46 62 39 63 45 64 47 65
REMARK SMILES IDX 44 66 40 67 41 68 42 69 43 70 69 71 70 72 78 73 71 74 77 75
REMARK SMILES IDX 79 76 76 77 72 78 73 79 74 80 75 81 54 82 55 83 63 84 56 85
REMARK SMILES IDX 62 86 64 87 61 88 57 89 58 90 59 91 60 92
REMARK H PARENT 84 45 52 56
REMARK Flexibility Score: inf
ROOT
ATOM      1  C   UNL A   1      30.581  27.141  24.729  1.00  0.00     0.188 C 
ENDROOT
BRANCH   1   2
ATOM      2  C   UNL A   1      31.376  26.850  26.013  1.00  0.00     0.188 C 
BRANCH   2   3
ATOM      3  O   UNL A   1      30.950  25.760  26.833  1.00  0.00    -0.376 OA
BRANCH   3   4
ATOM      4  C   UNL A   1      30.265  24.684  26.197  1.00  0.00     0.202 C 
BRANCH   4   5
ATOM      5  C   UNL A   1      31.173  23.543  25.732  1.00  0.00     0.261 C 
BRANCH   5   6
ATOM      6  O   UNL A   1      30.630  22.945  24.544  1.00  0.00    -0.463 OA
BRANCH   6   7
ATOM      7  C   UNL A   1      31.392  23.041  23.425  1.00  0.00     0.310 C 
ATOM      8  O   UNL A   1      31.746  24.097  22.913  1.00  0.00    -0.252 OA
BRANCH   7   9
ATOM      9  C   UNL A   1      31.905  21.680  22.995  1.00  0.00     0.162 C 
BRANCH   9  10
ATOM     10  C   UNL A   1      33.114  21.140  23.728  1.00  0.00     0.005 A 
ATOM     11  C   UNL A   1      33.204  19.799  24.107  1.00  0.00     0.122 A 
ATOM     12  C   UNL A   1      34.335  19.315  24.758  1.00  0.00     0.047 A 
ATOM     13  C   UNL A   1      35.420  20.159  25.000  1.00  0.00     0.008 A 
ATOM     14  C   UNL A   1      34.230  21.976  23.969  1.00  0.00     0.012 A 
ATOM     15  C   UNL A   1      35.398  21.511  24.612  1.00  0.00    -0.042 A 
BRANCH  11  16
ATOM     16  O   UNL A   1      32.173  18.924  23.898  1.00  0.00    -0.496 OA
ATOM     17  C   UNL A   1      32.263  17.803  24.781  1.00  0.00     0.278 C 
ENDBRANCH  11  16
BRANCH  15  18
ATOM     18  C   UNL A   1      36.618  22.406  24.917  1.00  0.00    -0.013 C 
ATOM     19  C   UNL A   1      36.286  23.329  26.112  1.00  0.00     0.016 C 
ATOM     20  C   UNL A   1      37.852  21.549  25.264  1.00  0.00     0.016 C 
ATOM     21  C   UNL A   1      37.031  23.322  23.752  1.00  0.00     0.016 C 
ENDBRANCH  15  18
ENDBRANCH   9  10
ENDBRANCH   7   9
ENDBRANCH   6   7
ENDBRANCH   5   6
ENDBRANCH   4   5
ENDBRANCH   3   4
ENDBRANCH   2   3
ENDBRANCH   1   2
BRANCH   1  22
ATOM     22  O   UNL A   1      31.145  28.229  23.997  1.00  0.00    -0.376 OA
BRANCH  22  23
ATOM     23  C   UNL A   1      32.568  28.249  24.013  1.00  0.00     0.202 C 
BRANCH  23  24
ATOM     24  C   UNL A   1      33.067  29.553  24.634  1.00  0.00     0.261 C 
BRANCH  24  25
ATOM     25  O   UNL A   1      33.601  29.378  25.959  1.00  0.00    -0.460 OA
BRANCH  25  26
ATOM     26  C   UNL A   1      33.489  30.450  26.771  1.00  0.00     0.338 C 
ATOM     27  O   UNL A   1      32.565  31.240  26.823  1.00  0.00    -0.246 OA
BRANCH  26  28
ATOM     28  C   UNL A   1      34.676  30.505  27.639  1.00  0.00     0.060 A 
ATOM     29  C   UNL A   1      35.461  31.663  27.686  1.00  0.00     0.016 A 
ATOM     30  C   UNL A   1      35.063  29.359  28.327  1.00  0.00     0.016 A 
ATOM     31  C   UNL A   1      36.685  31.654  28.353  1.00  0.00     0.010 A 
ATOM     32  C   UNL A   1      36.264  29.367  29.035  1.00  0.00     0.010 A 
ATOM     33  C   UNL A   1      37.103  30.499  29.021  1.00  0.00    -0.014 A 
BRANCH  33  34
ATOM     34  C   UNL A   1      38.449  30.391  29.638  1.00  0.00     0.031 A 
ATOM     35  C   UNL A   1      39.428  29.417  29.048  1.00  0.00     0.074 A 
ATOM     36  C   UNL A   1      38.770  31.088  30.742  1.00  0.00     0.049 A 
ATOM     37  N   UNL A   1      40.485  28.872  29.585  1.00  0.00    -0.248 NA
ATOM     38  C   UNL A   1      39.159  28.987  27.665  1.00  0.00     0.031 C 
ATOM     39  C   UNL A   1      37.953  32.137  31.354  1.00  0.00     0.029 A 
ATOM     40  N   UNL A   1      39.857  30.982  31.573  1.00  0.00    -0.354 N 
ATOM     41  C   UNL A   1      40.977  27.987  28.634  1.00  0.00     0.074 A 
ATOM     42  C   UNL A   1      40.110  28.082  27.478  1.00  0.00     0.031 C 
ATOM     43  C   UNL A   1      38.550  32.550  32.484  1.00  0.00     0.029 A 
ATOM     44  C   UNL A   1      39.738  31.734  32.721  1.00  0.00     0.049 A 
ATOM     45  H   UNL A   1      40.644  30.426  31.370  1.00  0.00     0.167 HD
ATOM     46  C   UNL A   1      42.044  27.157  28.733  1.00  0.00     0.034 A 
ATOM     47  C   UNL A   1      40.454  31.705  33.864  1.00  0.00     0.034 A 
ATOM     48  C   UNL A   1      42.904  27.101  29.889  1.00  0.00     0.049 A 
ATOM     49  C   UNL A   1      41.590  30.718  33.989  1.00  0.00     0.074 A 
ATOM     50  C   UNL A   1      44.013  26.303  30.102  1.00  0.00     0.029 A 
ATOM     51  N   UNL A   1      42.749  27.880  31.028  1.00  0.00    -0.354 N 
ATOM     52  N   UNL A   1      42.012  29.828  33.119  1.00  0.00    -0.248 NA
ATOM     53  C   UNL A   1      42.337  30.718  35.255  1.00  0.00     0.031 C 
ATOM     54  C   UNL A   1      44.495  26.560  31.390  1.00  0.00     0.029 A 
ATOM     55  C   UNL A   1      43.728  27.567  31.954  1.00  0.00     0.049 A 
ATOM     56  H   UNL A   1      42.045  28.556  31.157  1.00  0.00     0.167 HD
ATOM     57  C   UNL A   1      43.093  29.189  33.723  1.00  0.00     0.074 A 
ATOM     58  C   UNL A   1      43.259  29.795  35.026  1.00  0.00     0.031 C 
ATOM     59  C   UNL A   1      43.881  28.196  33.243  1.00  0.00     0.034 A 
BRANCH  46  60
ATOM     60  C   UNL A   1      42.286  26.192  27.602  1.00  0.00     0.023 A 
ATOM     61  C   UNL A   1      41.827  24.866  27.638  1.00  0.00     0.031 A 
ATOM     62  C   UNL A   1      43.006  26.614  26.469  1.00  0.00     0.131 A 
ATOM     63  C   UNL A   1      42.136  23.992  26.583  1.00  0.00     0.055 A 
ATOM     64  C   UNL A   1      43.252  25.760  25.394  1.00  0.00     0.041 A 
ATOM     65  F   UNL A   1      43.490  27.863  26.394  1.00  0.00    -0.206 F 
ATOM     66  C   UNL A   1      42.826  24.437  25.451  1.00  0.00     0.022 A 
BRANCH  63  67
ATOM     67  S   UNL A   1      41.720  22.237  26.756  1.00  0.00     0.124 S 
ATOM     68  O   UNL A   1      40.393  22.307  27.367  1.00  0.00    -0.237 OA
ATOM     69  O   UNL A   1      41.764  21.763  25.378  1.00  0.00    -0.237 OA
ATOM     70  O   UNL A   1      42.772  21.718  27.628  1.00  0.00    -0.744 OA
ENDBRANCH  63  67
ENDBRANCH  46  60
BRANCH  47  71
ATOM     71  C   UNL A   1      40.061  32.555  35.025  1.00  0.00     0.023 A 
ATOM     72  C   UNL A   1      39.172  32.082  36.002  1.00  0.00     0.031 A 
ATOM     73  C   UNL A   1      40.517  33.882  35.137  1.00  0.00     0.131 A 
ATOM     74  C   UNL A   1      38.727  32.942  37.019  1.00  0.00     0.055 A 
ATOM     75  C   UNL A   1      40.119  34.714  36.184  1.00  0.00     0.041 A 
ATOM     76  F   UNL A   1      41.365  34.389  34.227  1.00  0.00    -0.206 F 
ATOM     77  C   UNL A   1      39.206  34.250  37.124  1.00  0.00     0.022 A 
BRANCH  74  78
ATOM     78  S   UNL A   1      37.428  32.358  38.140  1.00  0.00     0.124 S 
ATOM     79  O   UNL A   1      37.946  32.776  39.438  1.00  0.00    -0.237 OA
ATOM     80  O   UNL A   1      36.260  33.084  37.652  1.00  0.00    -0.237 OA
ATOM     81  O   UNL A   1      37.404  30.915  37.911  1.00  0.00    -0.744 OA
ENDBRANCH  74  78
ENDBRANCH  47  71
BRANCH  59  82
ATOM     82  C   UNL A   1      45.041  27.763  34.100  1.00  0.00     0.023 A 
ATOM     83  C   UNL A   1      46.299  28.384  34.020  1.00  0.00     0.031 A 
ATOM     84  C   UNL A   1      44.871  26.719  35.027  1.00  0.00     0.131 A 
ATOM     85  C   UNL A   1      47.350  27.932  34.831  1.00  0.00     0.055 A 
ATOM     86  C   UNL A   1      45.907  26.304  35.863  1.00  0.00     0.041 A 
ATOM     87  F   UNL A   1      43.688  26.096  35.143  1.00  0.00    -0.206 F 
ATOM     88  C   UNL A   1      47.158  26.907  35.762  1.00  0.00     0.022 A 
BRANCH  85  89
ATOM     89  S   UNL A   1      48.995  28.670  34.623  1.00  0.00     0.124 S 
ATOM     90  O   UNL A   1      48.710  30.093  34.777  1.00  0.00    -0.237 OA
ATOM     91  O   UNL A   1      49.755  28.051  35.704  1.00  0.00    -0.237 OA
ATOM     92  O   UNL A   1      49.388  28.257  33.277  1.00  0.00    -0.744 OA
ENDBRANCH  85  89
ENDBRANCH  59  82
ENDBRANCH  33  34
ENDBRANCH  26  28
ENDBRANCH  25  26
ENDBRANCH  24  25
ENDBRANCH  23  24
ENDBRANCH  22  23
ENDBRANCH   1  22
TORSDOF 23
ENDMDL
MODEL 3
REMARK VINA RESULT:      -9.5      0.947      2.048
REMARK SMILES COc1ccc(C(C)(C)C)cc1CC(=O)OCCOCCOCCOC(=O)c1ccc(-c2c3nc(c(-c4cc(S(=O)(=O)[O-])ccc4F)c4ccc([nH]4)c(-c4cc(S(=O)(=O)[O-])ccc4F)c4nc(c(-c5cc(S(=O)(=O)[O-])ccc5F)c5ccc2[nH]5)C=C4)C=C3)cc1
REMARK SMILES IDX 21 1 20 2 19 3 18 4 17 5 16 6 14 7 15 8 13 9 12 10 3 11 4 12
REMARK SMILES IDX 5 13 11 14 6 15 2 16 1 17 7 18 8 19 9 20 10 21 22 22 23 23
REMARK SMILES IDX 24 24 25 25 26 26 27 27 28 28 29 29 90 30 30 31 89 32 31 33
REMARK SMILES IDX 32 34 33 35 83 36 34 37 88 38 82 39 84 40 35 41 87 42 81 43
REMARK SMILES IDX 80 44 36 46 68 47 48 48 67 49 49 50 52 51 66 52 85 53 50 54
REMARK SMILES IDX 51 55 65 57 86 58 53 59 37 60 38 61 46 62 39 63 45 64 47 65
REMARK SMILES IDX 44 66 40 67 41 68 42 69 43 70 69 71 70 72 78 73 71 74 77 75
REMARK SMILES IDX 79 76 76 77 72 78 73 79 74 80 75 81 54 82 55 83 63 84 56 85
REMARK SMILES IDX 62 86 64 87 61 88 57 89 58 90 59 91 60 92
REMARK H PARENT 84 45 52 56
REMARK Flexibility Score: inf
ROOT
ATOM      1  C   UNL A   1      30.377  27.543  24.579  1.00  0.00     0.188 C 
ENDROOT
BRANCH   1   2
ATOM      2  C   UNL A   1      31.028  27.198  25.928  1.00  0.00     0.188 C 
BRANCH   2   3
ATOM      3  O   UNL A   1      30.595  26.014  26.600  1.00  0.00    -0.376 OA
BRANCH   3   4
ATOM      4  C   UNL A   1      30.264  24.883  25.797  1.00  0.00     0.202 C 
BRANCH   4   5
ATOM      5  C   UNL A   1      31.430  24.327  24.976  1.00  0.00     0.261 C 
BRANCH   5   6
ATOM      6  O   UNL A   1      31.171  22.957  24.633  1.00  0.00    -0.463 OA
BRANCH   6   7
ATOM      7  C   UNL A   1      31.695  22.526  23.456  1.00  0.00     0.310 C 
ATOM      8  O   UNL A   1      32.012  23.258  22.527  1.00  0.00    -0.252 OA
BRANCH   7   9
ATOM      9  C   UNL A   1      32.008  21.043  23.510  1.00  0.00     0.162 C 
BRANCH   9  10
ATOM     10  C   UNL A   1      33.357  20.648  24.071  1.00  0.00     0.005 A 
ATOM     11  C   UNL A   1      33.676  19.316  24.346  1.00  0.00     0.122 A 
ATOM     12  C   UNL A   1      34.931  18.968  24.838  1.00  0.00     0.047 A 
ATOM     13  C   UNL A   1      35.907  19.947  25.021  1.00  0.00     0.008 A 
ATOM     14  C   UNL A   1      34.366  21.624  24.250  1.00  0.00     0.012 A 
ATOM     15  C   UNL A   1      35.653  21.300  24.732  1.00  0.00    -0.042 A 
BRANCH  11  16
ATOM     16  O   UNL A   1      32.759  18.312  24.188  1.00  0.00    -0.496 OA
ATOM     17  C   UNL A   1      32.501  17.652  25.430  1.00  0.00     0.278 C 
ENDBRANCH  11  16
BRANCH  15  18
ATOM     18  C   UNL A   1      36.764  22.347  24.966  1.00  0.00    -0.013 C 
ATOM     19  C   UNL A   1      36.988  23.151  23.665  1.00  0.00     0.016 C 
ATOM     20  C   UNL A   1      36.371  23.315  26.101  1.00  0.00     0.016 C 
ATOM     21  C   UNL A   1      38.125  21.743  25.353  1.00  0.00     0.016 C 
ENDBRANCH  15  18
ENDBRANCH   9  10
ENDBRANCH   7   9
ENDBRANCH   6   7
ENDBRANCH   5   6
ENDBRANCH   4   5
ENDBRANCH   3   4
ENDBRANCH   2   3
ENDBRANCH   1   2
BRANCH   1  22
ATOM     22  O   UNL A   1      31.160  28.480  23.841  1.00  0.00    -0.376 OA
BRANCH  22  23
ATOM     23  C   UNL A   1      32.552  28.184  23.840  1.00  0.00     0.202 C 
BRANCH  23  24
ATOM     24  C   UNL A   1      33.329  29.311  24.519  1.00  0.00     0.261 C 
BRANCH  24  25
ATOM     25  O   UNL A   1      33.214  29.290  25.954  1.00  0.00    -0.460 OA
BRANCH  25  26
ATOM     26  C   UNL A   1      33.198  30.501  26.548  1.00  0.00     0.338 C 
ATOM     27  O   UNL A   1      32.373  31.384  26.398  1.00  0.00    -0.246 OA
BRANCH  26  28
ATOM     28  C   UNL A   1      34.345  30.587  27.465  1.00  0.00     0.060 A 
ATOM     29  C   UNL A   1      35.011  31.805  27.647  1.00  0.00     0.016 A 
ATOM     30  C   UNL A   1      34.820  29.424  28.064  1.00  0.00     0.016 A 
ATOM     31  C   UNL A   1      36.209  31.849  28.360  1.00  0.00     0.010 A 
ATOM     32  C   UNL A   1      35.991  29.480  28.819  1.00  0.00     0.010 A 
ATOM     33  C   UNL A   1      36.716  30.683  28.940  1.00  0.00    -0.014 A 
BRANCH  33  34
ATOM     34  C   UNL A   1      38.045  30.645  29.598  1.00  0.00     0.031 A 
ATOM     35  C   UNL A   1      39.121  29.793  28.987  1.00  0.00     0.074 A 
ATOM     36  C   UNL A   1      38.271  31.294  30.754  1.00  0.00     0.049 A 
ATOM     37  N   UNL A   1      40.202  29.304  29.529  1.00  0.00    -0.248 NA
ATOM     38  C   UNL A   1      38.934  29.433  27.572  1.00  0.00     0.031 C 
ATOM     39  C   UNL A   1      37.350  32.231  31.398  1.00  0.00     0.029 A 
ATOM     40  N   UNL A   1      39.336  31.224  31.618  1.00  0.00    -0.354 N 
ATOM     41  C   UNL A   1      40.797  28.524  28.544  1.00  0.00     0.074 A 
ATOM     42  C   UNL A   1      39.962  28.622  27.365  1.00  0.00     0.031 C 
ATOM     43  C   UNL A   1      37.874  32.618  32.573  1.00  0.00     0.029 A 
ATOM     44  C   UNL A   1      39.117  31.888  32.804  1.00  0.00     0.049 A 
ATOM     45  H   UNL A   1      40.173  30.747  31.410  1.00  0.00     0.167 HD
ATOM     46  C   UNL A   1      41.925  27.779  28.633  1.00  0.00     0.034 A 
ATOM     47  C   UNL A   1      39.796  31.844  33.969  1.00  0.00     0.034 A 
ATOM     48  C   UNL A   1      42.749  27.719  29.814  1.00  0.00     0.049 A 
ATOM     49  C   UNL A   1      41.006  30.947  34.076  1.00  0.00     0.074 A 
ATOM     50  C   UNL A   1      43.914  27.002  30.020  1.00  0.00     0.029 A 
ATOM     51  N   UNL A   1      42.493  28.409  30.992  1.00  0.00    -0.354 N 
ATOM     52  N   UNL A   1      41.528  30.152  33.170  1.00  0.00    -0.248 NA
ATOM     53  C   UNL A   1      41.709  30.927  35.366  1.00  0.00     0.031 C 
ATOM     54  C   UNL A   1      44.331  27.215  31.339  1.00  0.00     0.029 A 
ATOM     55  C   UNL A   1      43.465  28.118  31.933  1.00  0.00     0.049 A 
ATOM     56  H   UNL A   1      41.731  29.015  31.136  1.00  0.00     0.167 HD
ATOM     57  C   UNL A   1      42.639  29.566  33.773  1.00  0.00     0.074 A 
ATOM     58  C   UNL A   1      42.712  30.099  35.117  1.00  0.00     0.031 C 
ATOM     59  C   UNL A   1      43.523  28.673  33.264  1.00  0.00     0.034 A 
BRANCH  46  60
ATOM     60  C   UNL A   1      42.284  26.912  27.455  1.00  0.00     0.023 A 
ATOM     61  C   UNL A   1      42.025  25.532  27.434  1.00  0.00     0.031 A 
ATOM     62  C   UNL A   1      42.911  27.485  26.334  1.00  0.00     0.131 A 
ATOM     63  C   UNL A   1      42.438  24.761  26.336  1.00  0.00     0.055 A 
ATOM     64  C   UNL A   1      43.259  26.725  25.216  1.00  0.00     0.041 A 
ATOM     65  F   UNL A   1      43.205  28.794  26.311  1.00  0.00    -0.206 F 
ATOM     66  C   UNL A   1      43.032  25.353  25.217  1.00  0.00     0.022 A 
BRANCH  63  67
ATOM     67  S   UNL A   1      42.287  22.957  26.432  1.00  0.00     0.124 S 
ATOM     68  O   UNL A   1      40.922  22.802  26.932  1.00  0.00    -0.237 OA
ATOM     69  O   UNL A   1      42.511  22.546  25.052  1.00  0.00    -0.237 OA
ATOM     70  O   UNL A   1      43.335  22.574  27.376  1.00  0.00    -0.744 OA
ENDBRANCH  63  67
ENDBRANCH  46  60
BRANCH  47  71
ATOM     71  C   UNL A   1      39.296  32.584  35.164  1.00  0.00     0.023 A 
ATOM     72  C   UNL A   1      39.729  33.890  35.441  1.00  0.00     0.031 A 
ATOM     73  C   UNL A   1      38.429  31.968  36.086  1.00  0.00     0.131 A 
ATOM     74  C   UNL A   1      39.335  34.518  36.634  1.00  0.00     0.055 A 
ATOM     75  C   UNL A   1      37.993  32.620  37.240  1.00  0.00     0.041 A 
ATOM     76  F   UNL A   1      37.989  30.717  35.874  1.00  0.00    -0.206 F 
ATOM     77  C   UNL A   1      38.459  33.898  37.528  1.00  0.00     0.022 A 
BRANCH  74  78
ATOM     78  S   UNL A   1      40.074  36.120  37.052  1.00  0.00     0.124 S 
ATOM     79  O   UNL A   1      39.868  36.874  35.820  1.00  0.00    -0.237 OA
ATOM     80  O   UNL A   1      39.269  36.533  38.198  1.00  0.00    -0.237 OA
ATOM     81  O   UNL A   1      41.463  35.786  37.356  1.00  0.00    -0.744 OA
ENDBRANCH  74  78
ENDBRANCH  47  71
BRANCH  59  82
ATOM     82  C   UNL A   1      44.687  28.282  34.135  1.00  0.00     0.023 A 
ATOM     83  C   UNL A   1      44.662  27.130  34.938  1.00  0.00     0.031 A 
ATOM     84  C   UNL A   1      45.850  29.074  34.141  1.00  0.00     0.131 A 
ATOM     85  C   UNL A   1      45.769  26.819  35.743  1.00  0.00     0.055 A 
ATOM     86  C   UNL A   1      46.964  28.735  34.907  1.00  0.00     0.041 A 
ATOM     87  F   UNL A   1      45.923  30.183  33.388  1.00  0.00    -0.206 F 
ATOM     88  C   UNL A   1      46.924  27.606  35.721  1.00  0.00     0.022 A 
BRANCH  85  89
ATOM     89  S   UNL A   1      45.665  25.394  36.861  1.00  0.00     0.124 S 
ATOM     90  O   UNL A   1      45.414  26.035  38.147  1.00  0.00    -0.237 OA
ATOM     91  O   UNL A   1      44.552  24.635  36.298  1.00  0.00    -0.237 OA
ATOM     92  O   UNL A   1      46.974  24.759  36.728  1.00  0.00    -0.744 OA
ENDBRANCH  85  89
ENDBRANCH  59  82
ENDBRANCH  33  34
ENDBRANCH  26  28
ENDBRANCH  25  26
ENDBRANCH  24  25
ENDBRANCH  23  24
ENDBRANCH  22  23
ENDBRANCH   1  22
TORSDOF 23
ENDMDL
