MODEL 1
REMARK VINA RESULT:     -10.8      0.000      0.000
REMARK SMILES O=C(N[C@@H](C(=O)OCCOCCOCCOC(=O)c1ccc(-c2c3nc(c(-c4cc(S(=O)(=O)[O-])ccc4F)c4ccc([nH]4)c(-c4cc(S(=O)(=O)[O-])ccc4F)c4nc(c(-c5cc(S(=O)(=O)[O-])ccc5F)c5ccc2[nH]5)C=C4)C=C3)cc1)c1ccccc1)c1ccc(Br)nc1
REMARK SMILES IDX 12 1 11 2 10 3 9 4 8 5 7 6 5 7 6 8 4 9 3 10 1 11 2 12 88 14
REMARK SMILES IDX 89 15 94 16 90 17 93 18 91 19 92 20 82 21 83 22 87 23 84 24
REMARK SMILES IDX 86 25 85 26 13 27 14 28 15 29 16 30 17 31 18 32 19 33 20 34
REMARK SMILES IDX 81 35 21 36 80 37 22 38 23 39 24 40 74 41 25 42 79 43 73 44
REMARK SMILES IDX 75 45 26 46 78 47 72 48 71 49 27 51 59 52 39 53 58 54 40 55
REMARK SMILES IDX 43 56 57 57 76 58 41 59 42 60 56 62 77 63 44 64 28 65 29 66
REMARK SMILES IDX 37 67 30 68 36 69 38 70 35 71 31 72 32 73 33 74 34 75 60 76
REMARK SMILES IDX 61 77 69 78 62 79 68 80 70 81 67 82 63 83 64 84 65 85 66 86
REMARK SMILES IDX 45 87 46 88 54 89 47 90 53 91 55 92 52 93 48 94 49 95 50 96
REMARK SMILES IDX 51 97
REMARK H PARENT 3 13 75 50 43 61
REMARK Flexibility Score: inf
ROOT
ATOM      1  C   UNL A   1      32.275  29.282  27.016  1.00  0.00     0.188 C 
ENDROOT
BRANCH   1   2
ATOM      2  C   UNL A   1      31.388  28.335  26.189  1.00  0.00     0.188 C 
BRANCH   2   3
ATOM      3  O   UNL A   1      31.970  27.223  25.519  1.00  0.00    -0.376 OA
BRANCH   3   4
ATOM      4  C   UNL A   1      33.274  27.342  24.972  1.00  0.00     0.202 C 
BRANCH   4   5
ATOM      5  C   UNL A   1      33.456  26.954  23.502  1.00  0.00     0.261 C 
BRANCH   5   6
ATOM      6  O   UNL A   1      32.494  26.003  23.006  1.00  0.00    -0.461 OA
BRANCH   6   7
ATOM      7  C   UNL A   1      33.012  24.919  22.360  1.00  0.00     0.333 C 
ATOM      8  O   UNL A   1      33.280  24.906  21.163  1.00  0.00    -0.249 OA
BRANCH   7   9
ATOM      9  C   UNL A   1      33.152  23.663  23.264  1.00  0.00     0.223 C 
BRANCH   9  10
ATOM     10  N   UNL A   1      32.172  23.405  24.334  1.00  0.00    -0.335 N 
ATOM     11  O   UNL A   1      30.920  22.202  25.780  1.00  0.00    -0.269 OA
ATOM     12  C   UNL A   1      31.809  22.230  24.935  1.00  0.00     0.253 C 
ATOM     13  H   UNL A   1      31.705  24.203  24.669  1.00  0.00     0.165 HD
BRANCH  12  14
ATOM     14  C   UNL A   1      32.446  20.974  24.530  1.00  0.00     0.058 A 
ATOM     15  C   UNL A   1      33.444  20.426  25.331  1.00  0.00     0.018 A 
ATOM     16  C   UNL A   1      32.064  20.297  23.381  1.00  0.00     0.126 A 
ATOM     17  C   UNL A   1      33.952  19.171  25.006  1.00  0.00     0.037 A 
ATOM     18  N   UNL A   1      32.529  19.069  23.054  1.00  0.00    -0.249 NA
ATOM     19  C   UNL A   1      33.449  18.526  23.884  1.00  0.00     0.106 A 
ATOM     20  Br  UNL A   1      34.044  16.767  23.501  1.00  0.00    -0.029 Br
ENDBRANCH  12  14
ENDBRANCH   9  10
BRANCH   9  21
ATOM     21  C   UNL A   1      34.554  23.550  23.840  1.00  0.00    -0.014 A 
ATOM     22  C   UNL A   1      34.817  24.050  25.125  1.00  0.00     0.006 A 
ATOM     23  C   UNL A   1      35.603  22.941  23.129  1.00  0.00     0.006 A 
ATOM     24  C   UNL A   1      36.091  23.944  25.683  1.00  0.00     0.000 A 
ATOM     25  C   UNL A   1      36.875  22.835  23.692  1.00  0.00     0.000 A 
ATOM     26  C   UNL A   1      37.119  23.335  24.968  1.00  0.00     0.000 A 
ENDBRANCH   9  21
ENDBRANCH   7   9
ENDBRANCH   6   7
ENDBRANCH   5   6
ENDBRANCH   4   5
ENDBRANCH   3   4
ENDBRANCH   2   3
ENDBRANCH   1   2
BRANCH   1  27
ATOM     27  O   UNL A   1      32.493  30.543  26.405  1.00  0.00    -0.376 OA
BRANCH  27  28
ATOM     28  C   UNL A   1      31.421  31.468  26.508  1.00  0.00     0.202 C 
BRANCH  28  29
ATOM     29  C   UNL A   1      31.864  32.776  27.169  1.00  0.00     0.261 C 
BRANCH  29  30
ATOM     30  O   UNL A   1      33.273  33.043  27.061  1.00  0.00    -0.460 OA
BRANCH  30  31
ATOM     31  C   UNL A   1      33.867  33.565  28.160  1.00  0.00     0.338 C 
ATOM     32  O   UNL A   1      33.395  34.406  28.907  1.00  0.00    -0.246 OA
BRANCH  31  33
ATOM     33  C   UNL A   1      35.102  32.797  28.438  1.00  0.00     0.060 A 
ATOM     34  C   UNL A   1      34.993  31.425  28.694  1.00  0.00     0.016 A 
ATOM     35  C   UNL A   1      36.353  33.421  28.459  1.00  0.00     0.016 A 
ATOM     36  C   UNL A   1      36.131  30.683  29.018  1.00  0.00     0.010 A 
ATOM     37  C   UNL A   1      37.491  32.680  28.799  1.00  0.00     0.010 A 
ATOM     38  C   UNL A   1      37.380  31.314  29.111  1.00  0.00    -0.014 A 
BRANCH  38  39
ATOM     39  C   UNL A   1      38.512  30.607  29.765  1.00  0.00     0.031 A 
ATOM     40  C   UNL A   1      38.900  31.037  31.156  1.00  0.00     0.074 A 
ATOM     41  C   UNL A   1      39.174  29.603  29.161  1.00  0.00     0.049 A 
ATOM     42  N   UNL A   1      39.847  30.584  31.935  1.00  0.00    -0.248 NA
ATOM     43  C   UNL A   1      38.104  32.128  31.741  1.00  0.00     0.031 C 
ATOM     44  C   UNL A   1      38.879  29.069  27.834  1.00  0.00     0.029 A 
ATOM     45  N   UNL A   1      40.241  28.855  29.596  1.00  0.00    -0.354 N 
ATOM     46  C   UNL A   1      39.748  31.319  33.112  1.00  0.00     0.074 A 
ATOM     47  C   UNL A   1      38.675  32.272  32.925  1.00  0.00     0.031 C 
ATOM     48  C   UNL A   1      39.748  28.079  27.560  1.00  0.00     0.029 A 
ATOM     49  C   UNL A   1      40.685  27.934  28.675  1.00  0.00     0.049 A 
ATOM     50  H   UNL A   1      40.651  28.967  30.484  1.00  0.00     0.167 HD
ATOM     51  C   UNL A   1      40.479  31.208  34.250  1.00  0.00     0.034 A 
ATOM     52  C   UNL A   1      41.739  27.092  28.721  1.00  0.00     0.034 A 
ATOM     53  C   UNL A   1      41.588  30.303  34.409  1.00  0.00     0.049 A 
ATOM     54  C   UNL A   1      42.617  27.071  29.955  1.00  0.00     0.074 A 
ATOM     55  C   UNL A   1      42.418  30.141  35.504  1.00  0.00     0.029 A 
ATOM     56  N   UNL A   1      42.040  29.422  33.436  1.00  0.00    -0.354 N 
ATOM     57  N   UNL A   1      42.504  27.760  31.067  1.00  0.00    -0.248 NA
ATOM     58  C   UNL A   1      43.762  26.148  29.937  1.00  0.00     0.031 C 
ATOM     59  C   UNL A   1      43.412  29.214  35.169  1.00  0.00     0.029 A 
ATOM     60  C   UNL A   1      43.155  28.737  33.894  1.00  0.00     0.049 A 
ATOM     61  H   UNL A   1      41.629  29.302  32.549  1.00  0.00     0.167 HD
ATOM     62  C   UNL A   1      43.540  27.324  31.893  1.00  0.00     0.074 A 
ATOM     63  C   UNL A   1      44.258  26.306  31.155  1.00  0.00     0.031 C 
ATOM     64  C   UNL A   1      43.866  27.723  33.150  1.00  0.00     0.034 A 
BRANCH  51  65
ATOM     65  C   UNL A   1      40.127  32.149  35.375  1.00  0.00     0.023 A 
ATOM     66  C   UNL A   1      39.190  31.792  36.362  1.00  0.00     0.031 A 
ATOM     67  C   UNL A   1      40.684  33.437  35.428  1.00  0.00     0.131 A 
ATOM     68  C   UNL A   1      38.782  32.741  37.313  1.00  0.00     0.055 A 
ATOM     69  C   UNL A   1      40.334  34.348  36.425  1.00  0.00     0.041 A 
ATOM     70  F   UNL A   1      41.562  33.841  34.495  1.00  0.00    -0.206 F 
ATOM     71  C   UNL A   1      39.366  34.008  37.365  1.00  0.00     0.022 A 
BRANCH  68  72
ATOM     72  S   UNL A   1      37.369  32.346  38.378  1.00  0.00     0.124 S 
ATOM     73  O   UNL A   1      37.818  32.862  39.669  1.00  0.00    -0.237 OA
ATOM     74  O   UNL A   1      36.279  33.076  37.741  1.00  0.00    -0.237 OA
ATOM     75  O   UNL A   1      37.275  30.889  38.298  1.00  0.00    -0.744 OA
ENDBRANCH  68  72
ENDBRANCH  51  65
BRANCH  52  76
ATOM     76  C   UNL A   1      42.075  26.220  27.554  1.00  0.00     0.023 A 
ATOM     77  C   UNL A   1      41.645  24.885  27.495  1.00  0.00     0.031 A 
ATOM     78  C   UNL A   1      42.915  26.687  26.528  1.00  0.00     0.131 A 
ATOM     79  C   UNL A   1      42.103  24.047  26.465  1.00  0.00     0.055 A 
ATOM     80  C   UNL A   1      43.322  25.865  25.475  1.00  0.00     0.041 A 
ATOM     81  F   UNL A   1      43.362  27.953  26.538  1.00  0.00    -0.206 F 
ATOM     82  C   UNL A   1      42.928  24.531  25.449  1.00  0.00     0.022 A 
BRANCH  79  83
ATOM     83  S   UNL A   1      41.687  22.281  26.532  1.00  0.00     0.124 S 
ATOM     84  O   UNL A   1      42.223  21.899  27.833  1.00  0.00    -0.237 OA
ATOM     85  O   UNL A   1      40.232  22.309  26.419  1.00  0.00    -0.237 OA
ATOM     86  O   UNL A   1      42.388  21.723  25.377  1.00  0.00    -0.744 OA
ENDBRANCH  79  83
ENDBRANCH  52  76
BRANCH  64  87
ATOM     87  C   UNL A   1      45.012  27.009  33.831  1.00  0.00     0.023 A 
ATOM     88  C   UNL A   1      44.831  25.810  34.543  1.00  0.00     0.031 A 
ATOM     89  C   UNL A   1      46.311  27.549  33.771  1.00  0.00     0.131 A 
ATOM     90  C   UNL A   1      45.915  25.223  35.214  1.00  0.00     0.055 A 
ATOM     91  C   UNL A   1      47.397  26.927  34.388  1.00  0.00     0.041 A 
ATOM     92  F   UNL A   1      46.545  28.691  33.107  1.00  0.00    -0.206 F 
ATOM     93  C   UNL A   1      47.200  25.765  35.128  1.00  0.00     0.022 A 
BRANCH  90  94
ATOM     94  S   UNL A   1      45.609  23.790  36.284  1.00  0.00     0.124 S 
ATOM     95  O   UNL A   1      45.403  24.419  37.585  1.00  0.00    -0.237 OA
ATOM     96  O   UNL A   1      44.427  23.191  35.673  1.00  0.00    -0.237 OA
ATOM     97  O   UNL A   1      46.835  23.003  36.164  1.00  0.00    -0.744 OA
ENDBRANCH  90  94
ENDBRANCH  64  87
ENDBRANCH  38  39
ENDBRANCH  31  33
ENDBRANCH  30  31
ENDBRANCH  29  30
ENDBRANCH  28  29
ENDBRANCH  27  28
ENDBRANCH   1  27
TORSDOF 23
ENDMDL
MODEL 2
REMARK VINA RESULT:     -10.8      4.939     10.372
REMARK SMILES O=C(N[C@@H](C(=O)OCCOCCOCCOC(=O)c1ccc(-c2c3nc(c(-c4cc(S(=O)(=O)[O-])ccc4F)c4ccc([nH]4)c(-c4cc(S(=O)(=O)[O-])ccc4F)c4nc(c(-c5cc(S(=O)(=O)[O-])ccc5F)c5ccc2[nH]5)C=C4)C=C3)cc1)c1ccccc1)c1ccc(Br)nc1
REMARK SMILES IDX 12 1 11 2 10 3 9 4 8 5 7 6 5 7 6 8 4 9 3 10 1 11 2 12 88 14
REMARK SMILES IDX 89 15 94 16 90 17 93 18 91 19 92 20 82 21 83 22 87 23 84 24
REMARK SMILES IDX 86 25 85 26 13 27 14 28 15 29 16 30 17 31 18 32 19 33 20 34
REMARK SMILES IDX 81 35 21 36 80 37 22 38 23 39 24 40 74 41 25 42 79 43 73 44
REMARK SMILES IDX 75 45 26 46 78 47 72 48 71 49 27 51 59 52 39 53 58 54 40 55
REMARK SMILES IDX 43 56 57 57 76 58 41 59 42 60 56 62 77 63 44 64 28 65 29 66
REMARK SMILES IDX 37 67 30 68 36 69 38 70 35 71 31 72 32 73 33 74 34 75 60 76
REMARK SMILES IDX 61 77 69 78 62 79 68 80 70 81 67 82 63 83 64 84 65 85 66 86
REMARK SMILES IDX 45 87 46 88 54 89 47 90 53 91 55 92 52 93 48 94 49 95 50 96
REMARK SMILES IDX 51 97
REMARK H PARENT 3 13 75 50 43 61
REMARK Flexibility Score: inf
ROOT
ATOM      1  C   UNL A   1      34.177  20.950  24.761  1.00  0.00     0.188 C 
ENDROOT
BRANCH   1   2
ATOM      2  C   UNL A   1      33.989  22.293  24.033  1.00  0.00     0.188 C 
BRANCH   2   3
ATOM      3  O   UNL A   1      33.498  22.314  22.697  1.00  0.00    -0.376 OA
BRANCH   3   4
ATOM      4  C   UNL A   1      33.163  23.554  22.096  1.00  0.00     0.202 C 
BRANCH   4   5
ATOM      5  C   UNL A   1      32.370  24.553  22.944  1.00  0.00     0.261 C 
BRANCH   5   6
ATOM      6  O   UNL A   1      31.171  25.055  22.318  1.00  0.00    -0.461 OA
BRANCH   6   7
ATOM      7  C   UNL A   1      31.056  26.413  22.268  1.00  0.00     0.333 C 
ATOM      8  O   UNL A   1      31.359  27.085  21.288  1.00  0.00    -0.249 OA
BRANCH   7   9
ATOM      9  C   UNL A   1      30.586  27.048  23.606  1.00  0.00     0.223 C 
BRANCH   9  10
ATOM     10  N   UNL A   1      30.108  26.194  24.707  1.00  0.00    -0.335 N 
ATOM     11  O   UNL A   1      30.054  25.270  26.768  1.00  0.00    -0.269 OA
ATOM     12  C   UNL A   1      30.545  26.091  26.000  1.00  0.00     0.253 C 
ATOM     13  H   UNL A   1      29.355  25.603  24.476  1.00  0.00     0.165 HD
BRANCH  12  14
ATOM     14  C   UNL A   1      31.651  26.930  26.467  1.00  0.00     0.058 A 
ATOM     15  C   UNL A   1      32.949  26.636  26.059  1.00  0.00     0.018 A 
ATOM     16  C   UNL A   1      31.442  28.030  27.285  1.00  0.00     0.126 A 
ATOM     17  C   UNL A   1      33.976  27.512  26.402  1.00  0.00     0.037 A 
ATOM     18  N   UNL A   1      32.418  28.906  27.617  1.00  0.00    -0.249 NA
ATOM     19  C   UNL A   1      33.660  28.637  27.153  1.00  0.00     0.106 A 
ATOM     20  Br  UNL A   1      35.026  29.899  27.522  1.00  0.00    -0.029 Br
ENDBRANCH  12  14
ENDBRANCH   9  10
BRANCH   9  21
ATOM     21  C   UNL A   1      29.574  28.157  23.365  1.00  0.00    -0.014 A 
ATOM     22  C   UNL A   1      28.205  27.847  23.321  1.00  0.00     0.006 A 
ATOM     23  C   UNL A   1      29.964  29.497  23.201  1.00  0.00     0.006 A 
ATOM     24  C   UNL A   1      27.255  28.848  23.117  1.00  0.00     0.000 A 
ATOM     25  C   UNL A   1      29.010  30.496  23.002  1.00  0.00     0.000 A 
ATOM     26  C   UNL A   1      27.657  30.171  22.961  1.00  0.00     0.000 A 
ENDBRANCH   9  21
ENDBRANCH   7   9
ENDBRANCH   6   7
ENDBRANCH   5   6
ENDBRANCH   4   5
ENDBRANCH   3   4
ENDBRANCH   2   3
ENDBRANCH   1   2
BRANCH   1  27
ATOM     27  O   UNL A   1      35.533  20.619  25.010  1.00  0.00    -0.376 OA
BRANCH  27  28
ATOM     28  C   UNL A   1      36.486  21.588  24.603  1.00  0.00     0.202 C 
BRANCH  28  29
ATOM     29  C   UNL A   1      37.908  21.192  25.011  1.00  0.00     0.261 C 
BRANCH  29  30
ATOM     30  O   UNL A   1      38.328  21.731  26.277  1.00  0.00    -0.460 OA
BRANCH  30  31
ATOM     31  C   UNL A   1      39.657  21.948  26.421  1.00  0.00     0.338 C 
ATOM     32  O   UNL A   1      40.555  21.265  25.958  1.00  0.00    -0.246 OA
BRANCH  31  33
ATOM     33  C   UNL A   1      39.852  23.272  27.053  1.00  0.00     0.060 A 
ATOM     34  C   UNL A   1      38.968  24.308  26.723  1.00  0.00     0.016 A 
ATOM     35  C   UNL A   1      40.900  23.499  27.950  1.00  0.00     0.016 A 
ATOM     36  C   UNL A   1      39.160  25.585  27.256  1.00  0.00     0.010 A 
ATOM     37  C   UNL A   1      41.100  24.783  28.471  1.00  0.00     0.010 A 
ATOM     38  C   UNL A   1      40.250  25.838  28.102  1.00  0.00    -0.014 A 
BRANCH  38  39
ATOM     39  C   UNL A   1      40.637  27.243  28.398  1.00  0.00     0.031 A 
ATOM     40  C   UNL A   1      42.065  27.647  28.140  1.00  0.00     0.074 A 
ATOM     41  C   UNL A   1      39.755  28.144  28.867  1.00  0.00     0.049 A 
ATOM     42  N   UNL A   1      42.649  28.803  28.319  1.00  0.00    -0.248 NA
ATOM     43  C   UNL A   1      42.949  26.598  27.608  1.00  0.00     0.031 C 
ATOM     44  C   UNL A   1      38.340  27.892  29.127  1.00  0.00     0.029 A 
ATOM     45  N   UNL A   1      39.931  29.463  29.210  1.00  0.00    -0.354 N 
ATOM     46  C   UNL A   1      43.964  28.629  27.899  1.00  0.00     0.074 A 
ATOM     47  C   UNL A   1      44.097  27.245  27.498  1.00  0.00     0.031 C 
ATOM     48  C   UNL A   1      37.775  29.021  29.593  1.00  0.00     0.029 A 
ATOM     49  C   UNL A   1      38.795  30.065  29.701  1.00  0.00     0.049 A 
ATOM     50  H   UNL A   1      40.790  29.934  29.115  1.00  0.00     0.167 HD
ATOM     51  C   UNL A   1      44.970  29.537  27.847  1.00  0.00     0.034 A 
ATOM     52  C   UNL A   1      38.611  31.305  30.200  1.00  0.00     0.034 A 
ATOM     53  C   UNL A   1      44.852  30.897  28.309  1.00  0.00     0.049 A 
ATOM     54  C   UNL A   1      39.780  32.267  30.245  1.00  0.00     0.074 A 
ATOM     55  C   UNL A   1      45.820  31.885  28.337  1.00  0.00     0.029 A 
ATOM     56  N   UNL A   1      43.699  31.455  28.847  1.00  0.00    -0.354 N 
ATOM     57  N   UNL A   1      41.014  32.094  29.832  1.00  0.00    -0.248 NA
ATOM     58  C   UNL A   1      39.522  33.596  30.820  1.00  0.00     0.031 C 
ATOM     59  C   UNL A   1      45.274  33.017  28.955  1.00  0.00     0.029 A 
ATOM     60  C   UNL A   1      43.942  32.763  29.239  1.00  0.00     0.049 A 
ATOM     61  H   UNL A   1      42.836  30.989  28.938  1.00  0.00     0.167 HD
ATOM     62  C   UNL A   1      41.667  33.306  30.062  1.00  0.00     0.074 A 
ATOM     63  C   UNL A   1      40.686  34.202  30.638  1.00  0.00     0.031 C 
ATOM     64  C   UNL A   1      42.957  33.650  29.814  1.00  0.00     0.034 A 
BRANCH  51  65
ATOM     65  C   UNL A   1      46.299  29.047  27.330  1.00  0.00     0.023 A 
ATOM     66  C   UNL A   1      46.505  28.794  25.962  1.00  0.00     0.031 A 
ATOM     67  C   UNL A   1      47.351  28.769  28.219  1.00  0.00     0.131 A 
ATOM     68  C   UNL A   1      47.705  28.207  25.533  1.00  0.00     0.055 A 
ATOM     69  C   UNL A   1      48.572  28.261  27.775  1.00  0.00     0.041 A 
ATOM     70  F   UNL A   1      47.200  28.965  29.539  1.00  0.00    -0.206 F 
ATOM     71  C   UNL A   1      48.749  27.961  26.428  1.00  0.00     0.022 A 
BRANCH  68  72
ATOM     72  S   UNL A   1      47.822  27.627  23.819  1.00  0.00     0.124 S 
ATOM     73  O   UNL A   1      46.887  28.521  23.140  1.00  0.00    -0.237 OA
ATOM     74  O   UNL A   1      49.234  27.826  23.513  1.00  0.00    -0.237 OA
ATOM     75  O   UNL A   1      47.391  26.233  23.899  1.00  0.00    -0.744 OA
ENDBRANCH  68  72
ENDBRANCH  51  65
BRANCH  52  76
ATOM     76  C   UNL A   1      37.285  31.721  30.750  1.00  0.00     0.023 A 
ATOM     77  C   UNL A   1      36.359  32.425  29.965  1.00  0.00     0.031 A 
ATOM     78  C   UNL A   1      36.968  31.501  32.102  1.00  0.00     0.131 A 
ATOM     79  C   UNL A   1      35.189  32.937  30.550  1.00  0.00     0.055 A 
ATOM     80  C   UNL A   1      35.776  31.962  32.666  1.00  0.00     0.041 A 
ATOM     81  F   UNL A   1      37.820  30.838  32.901  1.00  0.00    -0.206 F 
ATOM     82  C   UNL A   1      34.886  32.699  31.892  1.00  0.00     0.022 A 
BRANCH  79  83
ATOM     83  S   UNL A   1      34.115  34.010  29.555  1.00  0.00     0.124 S 
ATOM     84  O   UNL A   1      35.090  34.845  28.863  1.00  0.00    -0.237 OA
ATOM     85  O   UNL A   1      33.400  33.040  28.731  1.00  0.00    -0.237 OA
ATOM     86  O   UNL A   1      33.299  34.696  30.555  1.00  0.00    -0.744 OA
ENDBRANCH  79  83
ENDBRANCH  52  76
BRANCH  64  87
ATOM     87  C   UNL A   1      43.365  35.077  30.105  1.00  0.00     0.023 A 
ATOM     88  C   UNL A   1      43.273  36.094  29.139  1.00  0.00     0.031 A 
ATOM     89  C   UNL A   1      43.864  35.419  31.375  1.00  0.00     0.131 A 
ATOM     90  C   UNL A   1      43.727  37.388  29.438  1.00  0.00     0.055 A 
ATOM     91  C   UNL A   1      44.256  36.721  31.687  1.00  0.00     0.041 A 
ATOM     92  F   UNL A   1      43.976  34.491  32.338  1.00  0.00    -0.206 F 
ATOM     93  C   UNL A   1      44.203  37.712  30.711  1.00  0.00     0.022 A 
BRANCH  90  94
ATOM     94  S   UNL A   1      43.779  38.625  28.112  1.00  0.00     0.124 S 
ATOM     95  O   UNL A   1      42.691  39.523  28.488  1.00  0.00    -0.237 OA
ATOM     96  O   UNL A   1      45.127  39.169  28.245  1.00  0.00    -0.237 OA
ATOM     97  O   UNL A   1      43.544  37.841  26.901  1.00  0.00    -0.744 OA
ENDBRANCH  90  94
ENDBRANCH  64  87
ENDBRANCH  38  39
ENDBRANCH  31  33
ENDBRANCH  30  31
ENDBRANCH  29  30
ENDBRANCH  28  29
ENDBRANCH  27  28
ENDBRANCH   1  27
TORSDOF 23
ENDMDL
MODEL 3
REMARK VINA RESULT:     -10.7      0.899      7.345
REMARK SMILES O=C(N[C@@H](C(=O)OCCOCCOCCOC(=O)c1ccc(-c2c3nc(c(-c4cc(S(=O)(=O)[O-])ccc4F)c4ccc([nH]4)c(-c4cc(S(=O)(=O)[O-])ccc4F)c4nc(c(-c5cc(S(=O)(=O)[O-])ccc5F)c5ccc2[nH]5)C=C4)C=C3)cc1)c1ccccc1)c1ccc(Br)nc1
REMARK SMILES IDX 12 1 11 2 10 3 9 4 8 5 7 6 5 7 6 8 4 9 3 10 1 11 2 12 88 14
REMARK SMILES IDX 89 15 94 16 90 17 93 18 91 19 92 20 82 21 83 22 87 23 84 24
REMARK SMILES IDX 86 25 85 26 13 27 14 28 15 29 16 30 17 31 18 32 19 33 20 34
REMARK SMILES IDX 81 35 21 36 80 37 22 38 23 39 24 40 74 41 25 42 79 43 73 44
REMARK SMILES IDX 75 45 26 46 78 47 72 48 71 49 27 51 59 52 39 53 58 54 40 55
REMARK SMILES IDX 43 56 57 57 76 58 41 59 42 60 56 62 77 63 44 64 28 65 29 66
REMARK SMILES IDX 37 67 30 68 36 69 38 70 35 71 31 72 32 73 33 74 34 75 60 76
REMARK SMILES IDX 61 77 69 78 62 79 68 80 70 81 67 82 63 83 64 84 65 85 66 86
REMARK SMILES IDX 45 87 46 88 54 89 47 90 53 91 55 92 52 93 48 94 49 95 50 96
REMARK SMILES IDX 51 97
REMARK H PARENT 3 13 75 50 43 61
REMARK Flexibility Score: inf
ROOT
ATOM      1  C   UNL A   1      31.596  28.869  24.616  1.00  0.00     0.188 C 
ENDROOT
BRANCH   1   2
ATOM      2  C   UNL A   1      30.533  29.330  23.604  1.00  0.00     0.188 C 
BRANCH   2   3
ATOM      3  O   UNL A   1      29.803  28.367  22.853  1.00  0.00    -0.376 OA
BRANCH   3   4
ATOM      4  C   UNL A   1      30.209  27.007  22.880  1.00  0.00     0.202 C 
BRANCH   4   5
ATOM      5  C   UNL A   1      31.419  26.620  22.025  1.00  0.00     0.261 C 
BRANCH   5   6
ATOM      6  O   UNL A   1      31.742  25.215  22.041  1.00  0.00    -0.461 OA
BRANCH   6   7
ATOM      7  C   UNL A   1      33.034  24.909  22.352  1.00  0.00     0.333 C 
ATOM      8  O   UNL A   1      34.002  25.516  21.906  1.00  0.00    -0.249 OA
BRANCH   7   9
ATOM      9  C   UNL A   1      33.177  23.656  23.260  1.00  0.00     0.223 C 
BRANCH   9  10
ATOM     10  N   UNL A   1      32.192  23.393  24.324  1.00  0.00    -0.335 N 
ATOM     11  O   UNL A   1      30.923  22.184  25.750  1.00  0.00    -0.269 OA
ATOM     12  C   UNL A   1      31.813  22.214  24.907  1.00  0.00     0.253 C 
ATOM     13  H   UNL A   1      31.735  24.192  24.672  1.00  0.00     0.165 HD
BRANCH  12  14
ATOM     14  C   UNL A   1      32.435  20.956  24.483  1.00  0.00     0.058 A 
ATOM     15  C   UNL A   1      33.455  20.406  25.254  1.00  0.00     0.018 A 
ATOM     16  C   UNL A   1      32.018  20.281  23.346  1.00  0.00     0.126 A 
ATOM     17  C   UNL A   1      33.950  19.150  24.914  1.00  0.00     0.037 A 
ATOM     18  N   UNL A   1      32.470  19.052  23.004  1.00  0.00    -0.249 NA
ATOM     19  C   UNL A   1      33.413  18.506  23.806  1.00  0.00     0.106 A 
ATOM     20  Br  UNL A   1      33.992  16.745  23.406  1.00  0.00    -0.029 Br
ENDBRANCH  12  14
ENDBRANCH   9  10
BRANCH   9  21
ATOM     21  C   UNL A   1      34.576  23.554  23.845  1.00  0.00    -0.014 A 
ATOM     22  C   UNL A   1      34.873  24.214  25.049  1.00  0.00     0.006 A 
ATOM     23  C   UNL A   1      35.589  22.802  23.225  1.00  0.00     0.006 A 
ATOM     24  C   UNL A   1      36.145  24.124  25.615  1.00  0.00     0.000 A 
ATOM     25  C   UNL A   1      36.858  22.712  23.797  1.00  0.00     0.000 A 
ATOM     26  C   UNL A   1      37.135  23.371  24.991  1.00  0.00     0.000 A 
ENDBRANCH   9  21
ENDBRANCH   7   9
ENDBRANCH   6   7
ENDBRANCH   5   6
ENDBRANCH   4   5
ENDBRANCH   3   4
ENDBRANCH   2   3
ENDBRANCH   1   2
BRANCH   1  27
ATOM     27  O   UNL A   1      31.095  28.684  25.930  1.00  0.00    -0.376 OA
BRANCH  27  28
ATOM     28  C   UNL A   1      31.958  29.097  26.979  1.00  0.00     0.202 C 
BRANCH  28  29
ATOM     29  C   UNL A   1      32.008  30.622  27.104  1.00  0.00     0.261 C 
BRANCH  29  30
ATOM     30  O   UNL A   1      33.248  31.208  26.671  1.00  0.00    -0.460 OA
BRANCH  30  31
ATOM     31  C   UNL A   1      33.793  32.130  27.498  1.00  0.00     0.338 C 
ATOM     32  O   UNL A   1      33.238  33.119  27.945  1.00  0.00    -0.246 OA
BRANCH  31  33
ATOM     33  C   UNL A   1      35.114  31.635  27.951  1.00  0.00     0.060 A 
ATOM     34  C   UNL A   1      35.256  30.270  28.230  1.00  0.00     0.016 A 
ATOM     35  C   UNL A   1      36.197  32.504  28.111  1.00  0.00     0.016 A 
ATOM     36  C   UNL A   1      36.471  29.780  28.715  1.00  0.00     0.010 A 
ATOM     37  C   UNL A   1      37.409  32.015  28.612  1.00  0.00     0.010 A 
ATOM     38  C   UNL A   1      37.541  30.657  28.946  1.00  0.00    -0.014 A 
BRANCH  38  39
ATOM     39  C   UNL A   1      38.701  30.200  29.757  1.00  0.00     0.031 A 
ATOM     40  C   UNL A   1      39.588  29.132  29.174  1.00  0.00     0.074 A 
ATOM     41  C   UNL A   1      38.976  30.719  30.967  1.00  0.00     0.049 A 
ATOM     42  N   UNL A   1      40.653  28.565  29.679  1.00  0.00    -0.248 NA
ATOM     43  C   UNL A   1      39.219  28.642  27.836  1.00  0.00     0.031 C 
ATOM     44  C   UNL A   1      38.219  31.778  31.629  1.00  0.00     0.029 A 
ATOM     45  N   UNL A   1      39.978  30.415  31.856  1.00  0.00    -0.354 N 
ATOM     46  C   UNL A   1      41.095  27.666  28.713  1.00  0.00     0.074 A 
ATOM     47  C   UNL A   1      40.157  27.738  27.612  1.00  0.00     0.031 C 
ATOM     48  C   UNL A   1      38.782  32.034  32.824  1.00  0.00     0.029 A 
ATOM     49  C   UNL A   1      39.916  31.132  33.029  1.00  0.00     0.049 A 
ATOM     50  H   UNL A   1      40.676  29.745  31.672  1.00  0.00     0.167 HD
ATOM     51  C   UNL A   1      42.183  26.858  28.735  1.00  0.00     0.034 A 
ATOM     52  C   UNL A   1      40.673  31.050  34.143  1.00  0.00     0.034 A 
ATOM     53  C   UNL A   1      43.077  26.742  29.859  1.00  0.00     0.049 A 
ATOM     54  C   UNL A   1      41.813  30.052  34.194  1.00  0.00     0.074 A 
ATOM     55  C   UNL A   1      44.185  25.925  29.999  1.00  0.00     0.029 A 
ATOM     56  N   UNL A   1      42.952  27.448  31.048  1.00  0.00    -0.354 N 
ATOM     57  N   UNL A   1      42.228  29.219  33.268  1.00  0.00    -0.248 NA
ATOM     58  C   UNL A   1      42.587  29.995  35.442  1.00  0.00     0.031 C 
ATOM     59  C   UNL A   1      44.688  26.084  31.296  1.00  0.00     0.029 A 
ATOM     60  C   UNL A   1      43.944  27.061  31.938  1.00  0.00     0.049 A 
ATOM     61  H   UNL A   1      42.260  28.123  31.234  1.00  0.00     0.167 HD
ATOM     62  C   UNL A   1      43.336  28.568  33.811  1.00  0.00     0.074 A 
ATOM     63  C   UNL A   1      43.529  29.115  35.137  1.00  0.00     0.031 C 
ATOM     64  C   UNL A   1      44.128  27.611  33.261  1.00  0.00     0.034 A 
BRANCH  51  65
ATOM     65  C   UNL A   1      42.409  25.993  27.521  1.00  0.00     0.023 A 
ATOM     66  C   UNL A   1      41.878  24.693  27.438  1.00  0.00     0.031 A 
ATOM     67  C   UNL A   1      43.214  26.445  26.462  1.00  0.00     0.131 A 
ATOM     68  C   UNL A   1      42.222  23.865  26.359  1.00  0.00     0.055 A 
ATOM     69  C   UNL A   1      43.487  25.645  25.353  1.00  0.00     0.041 A 
ATOM     70  F   UNL A   1      43.770  27.667  26.501  1.00  0.00    -0.206 F 
ATOM     71  C   UNL A   1      43.004  24.340  25.304  1.00  0.00     0.022 A 
BRANCH  68  72
ATOM     72  S   UNL A   1      41.764  22.111  26.433  1.00  0.00     0.124 S 
ATOM     73  O   UNL A   1      42.630  21.536  25.407  1.00  0.00    -0.237 OA
ATOM     74  O   UNL A   1      42.084  21.759  27.811  1.00  0.00    -0.237 OA
ATOM     75  O   UNL A   1      40.340  22.115  26.104  1.00  0.00    -0.744 OA
ENDBRANCH  68  72
ENDBRANCH  51  65
BRANCH  52  76
ATOM     76  C   UNL A   1      40.371  31.893  35.339  1.00  0.00     0.023 A 
ATOM     77  C   UNL A   1      39.393  31.512  36.271  1.00  0.00     0.031 A 
ATOM     78  C   UNL A   1      40.991  33.143  35.511  1.00  0.00     0.131 A 
ATOM     79  C   UNL A   1      39.022  32.395  37.298  1.00  0.00     0.055 A 
ATOM     80  C   UNL A   1      40.659  33.994  36.567  1.00  0.00     0.041 A 
ATOM     81  F   UNL A   1      41.928  33.562  34.645  1.00  0.00    -0.206 F 
ATOM     82  C   UNL A   1      39.657  33.628  37.460  1.00  0.00     0.022 A 
BRANCH  79  83
ATOM     83  S   UNL A   1      37.619  31.952  38.362  1.00  0.00     0.124 S 
ATOM     84  O   UNL A   1      36.672  33.020  38.064  1.00  0.00    -0.237 OA
ATOM     85  O   UNL A   1      37.270  30.625  37.864  1.00  0.00    -0.237 OA
ATOM     86  O   UNL A   1      38.190  31.979  39.708  1.00  0.00    -0.744 OA
ENDBRANCH  79  83
ENDBRANCH  52  76
BRANCH  64  87
ATOM     87  C   UNL A   1      45.314  27.139  34.072  1.00  0.00     0.023 A 
ATOM     88  C   UNL A   1      45.236  26.039  34.944  1.00  0.00     0.031 A 
ATOM     89  C   UNL A   1      46.545  27.814  33.972  1.00  0.00     0.131 A 
ATOM     90  C   UNL A   1      46.348  25.683  35.724  1.00  0.00     0.055 A 
ATOM     91  C   UNL A   1      47.665  27.417  34.704  1.00  0.00     0.041 A 
ATOM     92  F   UNL A   1      46.681  28.871  33.156  1.00  0.00    -0.206 F 
ATOM     93  C   UNL A   1      47.566  26.355  35.598  1.00  0.00     0.022 A 
BRANCH  90  94
ATOM     94  S   UNL A   1      46.155  24.390  36.981  1.00  0.00     0.124 S 
ATOM     95  O   UNL A   1      45.003  24.868  37.739  1.00  0.00    -0.237 OA
ATOM     96  O   UNL A   1      45.933  23.197  36.170  1.00  0.00    -0.237 OA
ATOM     97  O   UNL A   1      47.427  24.420  37.703  1.00  0.00    -0.744 OA
ENDBRANCH  90  94
ENDBRANCH  64  87
ENDBRANCH  38  39
ENDBRANCH  31  33
ENDBRANCH  30  31
ENDBRANCH  29  30
ENDBRANCH  28  29
ENDBRANCH  27  28
ENDBRANCH   1  27
TORSDOF 23
ENDMDL
