MODEL 1
REMARK VINA RESULT:      -8.4      0.000      0.000
REMARK SMILES C[C@@H](C(=O)OCCOCCOCCOC(=O)c1ccc(-c2c3nc(c(-c4cc(S(=O)(=O)[O-])ccc4F)c4ccc([nH]4)c(-c4cc(S(=O)(=O)[O-])ccc4F)c4nc(c(-c5cc(S(=O)(=O)[O-])ccc5F)c5ccc2[nH]5)C=C4)C=C3)cc1)c1ccc(-c2cccc(OC(=O)NCCC3CCCCC3)c2)c(F)c1
REMARK SMILES IDX 7 1 6 2 5 3 3 4 4 5 2 6 1 7 80 8 81 9 104 10 82 11 102 12
REMARK SMILES IDX 83 13 103 14 84 15 85 16 101 17 86 18 88 19 87 20 89 21
REMARK SMILES IDX 90 22 91 23 92 24 93 26 94 27 95 28 96 29 100 30 97 31 99 32
REMARK SMILES IDX 98 33 8 34 9 35 10 36 11 37 12 38 13 39 14 40 15 41 16 42
REMARK SMILES IDX 17 43 18 44 79 45 19 46 78 47 20 48 21 49 22 50 72 51 23 52
REMARK SMILES IDX 77 53 71 54 73 55 24 56 76 57 70 58 69 59 25 61 57 62 37 63
REMARK SMILES IDX 56 64 38 65 41 66 55 67 74 68 39 69 40 70 54 72 75 73 42 74
REMARK SMILES IDX 26 75 27 76 35 77 28 78 34 79 36 80 33 81 29 82 30 83 31 84
REMARK SMILES IDX 32 85 58 86 59 87 67 88 60 89 66 90 68 91 65 92 61 93 62 94
REMARK SMILES IDX 63 95 64 96 43 97 44 98 52 99 45 100 51 101 53 102 50 103
REMARK SMILES IDX 46 104 47 105 48 106 49 107
REMARK H PARENT 92 25 73 60 41 71
REMARK Flexibility Score: inf
ROOT
ATOM      1  C   UNL A   1      34.028  37.616  32.675  1.00  0.00     0.202 C 
ENDROOT
BRANCH   1   2
ATOM      2  C   UNL A   1      34.006  36.300  33.475  1.00  0.00     0.261 C 
BRANCH   2   3
ATOM      3  O   UNL A   1      35.301  35.685  33.642  1.00  0.00    -0.463 OA
BRANCH   3   4
ATOM      4  C   UNL A   1      35.372  34.345  33.424  1.00  0.00     0.313 C 
ATOM      5  O   UNL A   1      35.135  33.504  34.286  1.00  0.00    -0.252 OA
BRANCH   4   6
ATOM      6  C   UNL A   1      35.715  33.969  31.971  1.00  0.00     0.126 C 
ATOM      7  C   UNL A   1      35.088  32.639  31.519  1.00  0.00     0.025 C 
BRANCH   6   8
ATOM      8  C   UNL A   1      37.184  34.181  31.581  1.00  0.00    -0.031 A 
ATOM      9  C   UNL A   1      37.592  34.080  30.241  1.00  0.00     0.005 A 
ATOM     10  C   UNL A   1      38.202  34.328  32.538  1.00  0.00     0.044 A 
ATOM     11  C   UNL A   1      38.949  34.065  29.884  1.00  0.00     0.012 A 
ATOM     12  C   UNL A   1      39.557  34.314  32.174  1.00  0.00     0.131 A 
ATOM     13  C   UNL A   1      39.967  34.139  30.848  1.00  0.00     0.018 A 
ATOM     14  F   UNL A   1      40.466  34.439  33.154  1.00  0.00    -0.206 F 
BRANCH  13  15
ATOM     15  C   UNL A   1      41.379  33.941  30.463  1.00  0.00    -0.012 A 
ATOM     16  C   UNL A   1      42.272  35.019  30.415  1.00  0.00     0.009 A 
ATOM     17  C   UNL A   1      41.854  32.691  30.025  1.00  0.00     0.056 A 
ATOM     18  C   UNL A   1      43.581  34.862  29.957  1.00  0.00     0.004 A 
ATOM     19  C   UNL A   1      43.148  32.557  29.514  1.00  0.00     0.133 A 
ATOM     20  C   UNL A   1      44.026  33.632  29.506  1.00  0.00     0.047 A 
BRANCH  19  21
ATOM     21  O   UNL A   1      43.661  31.375  28.951  1.00  0.00    -0.410 OA
BRANCH  21  22
ATOM     22  C   UNL A   1      44.803  31.425  28.173  1.00  0.00     0.412 C 
ATOM     23  O   UNL A   1      45.189  32.366  27.483  1.00  0.00    -0.224 OA
ATOM     24  N   UNL A   1      45.541  30.280  28.229  1.00  0.00    -0.321 N 
ATOM     25  H   UNL A   1      46.337  30.240  27.651  1.00  0.00     0.167 HD
BRANCH  24  26
ATOM     26  C   UNL A   1      45.279  29.114  29.050  1.00  0.00     0.119 C 
BRANCH  26  27
ATOM     27  C   UNL A   1      46.572  28.533  29.626  1.00  0.00     0.025 C 
BRANCH  27  28
ATOM     28  C   UNL A   1      47.341  27.623  28.646  1.00  0.00    -0.009 C 
ATOM     29  C   UNL A   1      48.322  26.688  29.372  1.00  0.00     0.003 C 
ATOM     30  C   UNL A   1      46.355  26.813  27.790  1.00  0.00     0.003 C 
ATOM     31  C   UNL A   1      49.037  25.750  28.402  1.00  0.00     0.000 C 
ATOM     32  C   UNL A   1      47.088  25.896  26.814  1.00  0.00     0.000 C 
ATOM     33  C   UNL A   1      48.052  24.967  27.542  1.00  0.00     0.000 C 
ENDBRANCH  27  28
ENDBRANCH  26  27
ENDBRANCH  24  26
ENDBRANCH  21  22
ENDBRANCH  19  21
ENDBRANCH  13  15
ENDBRANCH   6   8
ENDBRANCH   4   6
ENDBRANCH   3   4
ENDBRANCH   2   3
ENDBRANCH   1   2
BRANCH   1  34
ATOM     34  O   UNL A   1      33.082  37.802  31.624  1.00  0.00    -0.376 OA
BRANCH  34  35
ATOM     35  C   UNL A   1      32.979  36.793  30.622  1.00  0.00     0.188 C 
BRANCH  35  36
ATOM     36  C   UNL A   1      33.385  37.150  29.183  1.00  0.00     0.188 C 
BRANCH  36  37
ATOM     37  O   UNL A   1      33.705  36.042  28.374  1.00  0.00    -0.376 OA
BRANCH  37  38
ATOM     38  C   UNL A   1      33.533  34.736  28.895  1.00  0.00     0.202 C 
BRANCH  38  39
ATOM     39  C   UNL A   1      33.339  33.520  27.967  1.00  0.00     0.261 C 
BRANCH  39  40
ATOM     40  O   UNL A   1      34.493  32.726  27.657  1.00  0.00    -0.460 OA
BRANCH  40  41
ATOM     41  C   UNL A   1      34.336  31.378  27.659  1.00  0.00     0.338 C 
ATOM     42  O   UNL A   1      33.402  30.758  27.185  1.00  0.00    -0.246 OA
BRANCH  41  43
ATOM     43  C   UNL A   1      35.620  30.789  28.119  1.00  0.00     0.060 A 
ATOM     44  C   UNL A   1      35.619  29.537  28.751  1.00  0.00     0.016 A 
ATOM     45  C   UNL A   1      36.823  31.460  27.891  1.00  0.00     0.016 A 
ATOM     46  C   UNL A   1      36.821  28.959  29.171  1.00  0.00     0.010 A 
ATOM     47  C   UNL A   1      38.021  30.895  28.338  1.00  0.00     0.010 A 
ATOM     48  C   UNL A   1      38.026  29.654  29.003  1.00  0.00    -0.014 A 
BRANCH  48  49
ATOM     49  C   UNL A   1      39.261  29.194  29.691  1.00  0.00     0.031 A 
ATOM     50  C   UNL A   1      40.065  28.103  29.037  1.00  0.00     0.074 A 
ATOM     51  C   UNL A   1      39.635  29.696  30.883  1.00  0.00     0.049 A 
ATOM     52  N   UNL A   1      41.151  27.507  29.453  1.00  0.00    -0.248 NA
ATOM     53  C   UNL A   1      39.548  27.594  27.757  1.00  0.00     0.031 C 
ATOM     54  C   UNL A   1      38.924  30.745  31.606  1.00  0.00     0.029 A 
ATOM     55  N   UNL A   1      40.713  29.405  31.688  1.00  0.00    -0.354 N 
ATOM     56  C   UNL A   1      41.419  26.515  28.513  1.00  0.00     0.074 A 
ATOM     57  C   UNL A   1      40.380  26.596  27.509  1.00  0.00     0.031 C 
ATOM     58  C   UNL A   1      39.609  31.043  32.724  1.00  0.00     0.029 A 
ATOM     59  C   UNL A   1      40.802  30.200  32.812  1.00  0.00     0.049 A 
ATOM     60  H   UNL A   1      41.360  28.694  31.480  1.00  0.00     0.167 HD
ATOM     61  C   UNL A   1      42.424  25.608  28.507  1.00  0.00     0.034 A 
ATOM     62  C   UNL A   1      41.759  30.263  33.766  1.00  0.00     0.034 A 
ATOM     63  C   UNL A   1      43.451  25.548  29.519  1.00  0.00     0.049 A 
ATOM     64  C   UNL A   1      42.916  29.285  33.687  1.00  0.00     0.074 A 
ATOM     65  C   UNL A   1      44.521  24.675  29.609  1.00  0.00     0.029 A 
ATOM     66  N   UNL A   1      43.534  26.390  30.621  1.00  0.00    -0.354 N 
ATOM     67  N   UNL A   1      43.179  28.380  32.771  1.00  0.00    -0.248 NA
ATOM     68  C   UNL A   1      43.902  29.336  34.776  1.00  0.00     0.031 C 
ATOM     69  C   UNL A   1      45.199  24.933  30.805  1.00  0.00     0.029 A 
ATOM     70  C   UNL A   1      44.612  26.030  31.415  1.00  0.00     0.049 A 
ATOM     71  H   UNL A   1      42.917  27.133  30.810  1.00  0.00     0.167 HD
ATOM     72  C   UNL A   1      44.362  27.762  33.174  1.00  0.00     0.074 A 
ATOM     73  C   UNL A   1      44.794  28.442  34.377  1.00  0.00     0.031 C 
ATOM     74  C   UNL A   1      45.019  26.710  32.621  1.00  0.00     0.034 A 
BRANCH  61  75
ATOM     75  C   UNL A   1      42.407  24.554  27.425  1.00  0.00     0.023 A 
ATOM     76  C   UNL A   1      41.746  23.324  27.584  1.00  0.00     0.031 A 
ATOM     77  C   UNL A   1      43.100  24.779  26.221  1.00  0.00     0.131 A 
ATOM     78  C   UNL A   1      41.852  22.342  26.586  1.00  0.00     0.055 A 
ATOM     79  C   UNL A   1      43.127  23.831  25.197  1.00  0.00     0.041 A 
ATOM     80  F   UNL A   1      43.775  25.922  26.023  1.00  0.00    -0.206 F 
ATOM     81  C   UNL A   1      42.513  22.597  25.383  1.00  0.00     0.022 A 
BRANCH  78  82
ATOM     82  S   UNL A   1      41.243  20.671  26.946  1.00  0.00     0.124 S 
ATOM     83  O   UNL A   1      40.947  20.766  28.374  1.00  0.00    -0.237 OA
ATOM     84  O   UNL A   1      40.090  20.558  26.060  1.00  0.00    -0.237 OA
ATOM     85  O   UNL A   1      42.376  19.812  26.608  1.00  0.00    -0.744 OA
ENDBRANCH  78  82
ENDBRANCH  61  75
BRANCH  62  86
ATOM     86  C   UNL A   1      41.736  31.319  34.835  1.00  0.00     0.023 A 
ATOM     87  C   UNL A   1      42.557  32.459  34.729  1.00  0.00     0.031 A 
ATOM     88  C   UNL A   1      40.931  31.216  35.981  1.00  0.00     0.131 A 
ATOM     89  C   UNL A   1      42.577  33.426  35.746  1.00  0.00     0.055 A 
ATOM     90  C   UNL A   1      40.905  32.213  36.962  1.00  0.00     0.041 A 
ATOM     91  F   UNL A   1      40.138  30.147  36.163  1.00  0.00    -0.206 F 
ATOM     92  C   UNL A   1      41.739  33.322  36.854  1.00  0.00     0.022 A 
BRANCH  89  93
ATOM     93  S   UNL A   1      43.795  34.770  35.644  1.00  0.00     0.124 S 
ATOM     94  O   UNL A   1      44.234  34.879  37.030  1.00  0.00    -0.237 OA
ATOM     95  O   UNL A   1      44.770  34.224  34.706  1.00  0.00    -0.237 OA
ATOM     96  O   UNL A   1      43.012  35.898  35.146  1.00  0.00    -0.744 OA
ENDBRANCH  89  93
ENDBRANCH  62  86
BRANCH  74  97
ATOM     97  C   UNL A   1      46.273  26.234  33.321  1.00  0.00     0.023 A 
ATOM     98  C   UNL A   1      47.549  26.679  32.929  1.00  0.00     0.031 A 
ATOM     99  C   UNL A   1      46.194  25.330  34.395  1.00  0.00     0.131 A 
ATOM    100  C   UNL A   1      48.694  26.171  33.558  1.00  0.00     0.055 A 
ATOM    101  C   UNL A   1      47.335  24.882  35.066  1.00  0.00     0.041 A 
ATOM    102  F   UNL A   1      45.005  24.868  34.817  1.00  0.00    -0.206 F 
ATOM    103  C   UNL A   1      48.594  25.290  34.638  1.00  0.00     0.022 A 
BRANCH 100 104
ATOM    104  S   UNL A   1      50.322  26.595  32.879  1.00  0.00     0.124 S 
ATOM    105  O   UNL A   1      51.104  26.828  34.089  1.00  0.00    -0.237 OA
ATOM    106  O   UNL A   1      50.665  25.398  32.119  1.00  0.00    -0.237 OA
ATOM    107  O   UNL A   1      50.058  27.786  32.073  1.00  0.00    -0.744 OA
ENDBRANCH 100 104
ENDBRANCH  74  97
ENDBRANCH  48  49
ENDBRANCH  41  43
ENDBRANCH  40  41
ENDBRANCH  39  40
ENDBRANCH  38  39
ENDBRANCH  37  38
ENDBRANCH  36  37
ENDBRANCH  35  36
ENDBRANCH  34  35
ENDBRANCH   1  34
TORSDOF 27
ENDMDL
MODEL 2
REMARK VINA RESULT:      -8.1      1.812      2.126
REMARK SMILES C[C@@H](C(=O)OCCOCCOCCOC(=O)c1ccc(-c2c3nc(c(-c4cc(S(=O)(=O)[O-])ccc4F)c4ccc([nH]4)c(-c4cc(S(=O)(=O)[O-])ccc4F)c4nc(c(-c5cc(S(=O)(=O)[O-])ccc5F)c5ccc2[nH]5)C=C4)C=C3)cc1)c1ccc(-c2cccc(OC(=O)NCCC3CCCCC3)c2)c(F)c1
REMARK SMILES IDX 7 1 6 2 5 3 3 4 4 5 2 6 1 7 80 8 81 9 104 10 82 11 102 12
REMARK SMILES IDX 83 13 103 14 84 15 85 16 101 17 86 18 88 19 87 20 89 21
REMARK SMILES IDX 90 22 91 23 92 24 93 26 94 27 95 28 96 29 100 30 97 31 99 32
REMARK SMILES IDX 98 33 8 34 9 35 10 36 11 37 12 38 13 39 14 40 15 41 16 42
REMARK SMILES IDX 17 43 18 44 79 45 19 46 78 47 20 48 21 49 22 50 72 51 23 52
REMARK SMILES IDX 77 53 71 54 73 55 24 56 76 57 70 58 69 59 25 61 57 62 37 63
REMARK SMILES IDX 56 64 38 65 41 66 55 67 74 68 39 69 40 70 54 72 75 73 42 74
REMARK SMILES IDX 26 75 27 76 35 77 28 78 34 79 36 80 33 81 29 82 30 83 31 84
REMARK SMILES IDX 32 85 58 86 59 87 67 88 60 89 66 90 68 91 65 92 61 93 62 94
REMARK SMILES IDX 63 95 64 96 43 97 44 98 52 99 45 100 51 101 53 102 50 103
REMARK SMILES IDX 46 104 47 105 48 106 49 107
REMARK H PARENT 92 25 73 60 41 71
REMARK Flexibility Score: inf
ROOT
ATOM      1  C   UNL A   1      33.965  37.668  32.625  1.00  0.00     0.202 C 
ENDROOT
BRANCH   1   2
ATOM      2  C   UNL A   1      33.985  36.287  33.308  1.00  0.00     0.261 C 
BRANCH   2   3
ATOM      3  O   UNL A   1      35.307  35.747  33.517  1.00  0.00    -0.463 OA
BRANCH   3   4
ATOM      4  C   UNL A   1      35.447  34.403  33.373  1.00  0.00     0.313 C 
ATOM      5  O   UNL A   1      35.200  33.596  34.265  1.00  0.00    -0.252 OA
BRANCH   4   6
ATOM      6  C   UNL A   1      35.883  33.971  31.962  1.00  0.00     0.126 C 
ATOM      7  C   UNL A   1      35.294  32.619  31.525  1.00  0.00     0.025 C 
BRANCH   6   8
ATOM      8  C   UNL A   1      37.373  34.179  31.657  1.00  0.00    -0.031 A 
ATOM      9  C   UNL A   1      37.848  34.132  30.336  1.00  0.00     0.005 A 
ATOM     10  C   UNL A   1      38.343  34.266  32.671  1.00  0.00     0.044 A 
ATOM     11  C   UNL A   1      39.222  34.114  30.048  1.00  0.00     0.012 A 
ATOM     12  C   UNL A   1      39.714  34.248  32.375  1.00  0.00     0.131 A 
ATOM     13  C   UNL A   1      40.189  34.128  31.066  1.00  0.00     0.018 A 
ATOM     14  F   UNL A   1      40.573  34.315  33.405  1.00  0.00    -0.206 F 
BRANCH  13  15
ATOM     15  C   UNL A   1      41.617  33.926  30.744  1.00  0.00    -0.012 A 
ATOM     16  C   UNL A   1      42.517  35.000  30.752  1.00  0.00     0.009 A 
ATOM     17  C   UNL A   1      42.105  32.679  30.312  1.00  0.00     0.056 A 
ATOM     18  C   UNL A   1      43.845  34.841  30.353  1.00  0.00     0.004 A 
ATOM     19  C   UNL A   1      43.421  32.544  29.860  1.00  0.00     0.133 A 
ATOM     20  C   UNL A   1      44.304  33.614  29.907  1.00  0.00     0.047 A 
BRANCH  19  21
ATOM     21  O   UNL A   1      43.953  31.367  29.306  1.00  0.00    -0.410 OA
BRANCH  21  22
ATOM     22  C   UNL A   1      45.166  31.407  28.643  1.00  0.00     0.412 C 
ATOM     23  O   UNL A   1      45.680  32.381  28.098  1.00  0.00    -0.224 OA
ATOM     24  N   UNL A   1      45.816  30.208  28.639  1.00  0.00    -0.321 N 
ATOM     25  H   UNL A   1      46.660  30.166  28.134  1.00  0.00     0.167 HD
BRANCH  24  26
ATOM     26  C   UNL A   1      45.397  28.988  29.301  1.00  0.00     0.119 C 
BRANCH  26  27
ATOM     27  C   UNL A   1      46.593  28.210  29.851  1.00  0.00     0.025 C 
BRANCH  27  28
ATOM     28  C   UNL A   1      47.336  27.371  28.790  1.00  0.00    -0.009 C 
ATOM     29  C   UNL A   1      48.186  26.257  29.423  1.00  0.00     0.003 C 
ATOM     30  C   UNL A   1      46.334  26.781  27.785  1.00  0.00     0.003 C 
ATOM     31  C   UNL A   1      48.872  25.394  28.365  1.00  0.00     0.000 C 
ATOM     32  C   UNL A   1      47.039  25.938  26.725  1.00  0.00     0.000 C 
ATOM     33  C   UNL A   1      47.874  24.831  27.360  1.00  0.00     0.000 C 
ENDBRANCH  27  28
ENDBRANCH  26  27
ENDBRANCH  24  26
ENDBRANCH  21  22
ENDBRANCH  19  21
ENDBRANCH  13  15
ENDBRANCH   6   8
ENDBRANCH   4   6
ENDBRANCH   3   4
ENDBRANCH   2   3
ENDBRANCH   1   2
BRANCH   1  34
ATOM     34  O   UNL A   1      33.056  37.892  31.548  1.00  0.00    -0.376 OA
BRANCH  34  35
ATOM     35  C   UNL A   1      32.946  36.893  30.537  1.00  0.00     0.188 C 
BRANCH  35  36
ATOM     36  C   UNL A   1      33.411  37.242  29.114  1.00  0.00     0.188 C 
BRANCH  36  37
ATOM     37  O   UNL A   1      33.706  36.127  28.305  1.00  0.00    -0.376 OA
BRANCH  37  38
ATOM     38  C   UNL A   1      33.508  34.826  28.828  1.00  0.00     0.202 C 
BRANCH  38  39
ATOM     39  C   UNL A   1      33.317  33.609  27.902  1.00  0.00     0.261 C 
BRANCH  39  40
ATOM     40  O   UNL A   1      34.469  32.804  27.609  1.00  0.00    -0.460 OA
BRANCH  40  41
ATOM     41  C   UNL A   1      34.299  31.458  27.606  1.00  0.00     0.338 C 
ATOM     42  O   UNL A   1      33.379  30.845  27.097  1.00  0.00    -0.246 OA
BRANCH  41  43
ATOM     43  C   UNL A   1      35.559  30.858  28.115  1.00  0.00     0.060 A 
ATOM     44  C   UNL A   1      35.523  29.605  28.745  1.00  0.00     0.016 A 
ATOM     45  C   UNL A   1      36.776  31.519  27.936  1.00  0.00     0.016 A 
ATOM     46  C   UNL A   1      36.703  29.017  29.211  1.00  0.00     0.010 A 
ATOM     47  C   UNL A   1      37.951  30.944  28.429  1.00  0.00     0.010 A 
ATOM     48  C   UNL A   1      37.919  29.703  29.091  1.00  0.00    -0.014 A 
BRANCH  48  49
ATOM     49  C   UNL A   1      39.123  29.233  29.827  1.00  0.00     0.031 A 
ATOM     50  C   UNL A   1      39.969  28.168  29.182  1.00  0.00     0.074 A 
ATOM     51  C   UNL A   1      39.432  29.701  31.050  1.00  0.00     0.049 A 
ATOM     52  N   UNL A   1      41.038  27.568  29.634  1.00  0.00    -0.248 NA
ATOM     53  C   UNL A   1      39.522  27.694  27.863  1.00  0.00     0.031 C 
ATOM     54  C   UNL A   1      38.676  30.722  31.767  1.00  0.00     0.029 A 
ATOM     55  N   UNL A   1      40.471  29.395  31.899  1.00  0.00    -0.354 N 
ATOM     56  C   UNL A   1      41.362  26.607  28.680  1.00  0.00     0.074 A 
ATOM     57  C   UNL A   1      40.374  26.710  27.628  1.00  0.00     0.031 C 
ATOM     58  C   UNL A   1      39.301  30.992  32.927  1.00  0.00     0.029 A 
ATOM     59  C   UNL A   1      40.497  30.156  33.049  1.00  0.00     0.049 A 
ATOM     60  H   UNL A   1      41.135  28.696  31.703  1.00  0.00     0.167 HD
ATOM     61  C   UNL A   1      42.375  25.708  28.697  1.00  0.00     0.034 A 
ATOM     62  C   UNL A   1      41.404  30.198  34.052  1.00  0.00     0.034 A 
ATOM     63  C   UNL A   1      43.350  25.626  29.757  1.00  0.00     0.049 A 
ATOM     64  C   UNL A   1      42.573  29.232  34.002  1.00  0.00     0.074 A 
ATOM     65  C   UNL A   1      44.423  24.759  29.875  1.00  0.00     0.029 A 
ATOM     66  N   UNL A   1      43.370  26.435  30.887  1.00  0.00    -0.354 N 
ATOM     67  N   UNL A   1      42.889  28.357  33.074  1.00  0.00    -0.248 NA
ATOM     68  C   UNL A   1      43.503  29.258  35.140  1.00  0.00     0.031 C 
ATOM     69  C   UNL A   1      45.037  24.987  31.111  1.00  0.00     0.029 A 
ATOM     70  C   UNL A   1      44.410  26.061  31.723  1.00  0.00     0.049 A 
ATOM     71  H   UNL A   1      42.737  27.167  31.066  1.00  0.00     0.167 HD
ATOM     72  C   UNL A   1      44.056  27.737  33.518  1.00  0.00     0.074 A 
ATOM     73  C   UNL A   1      44.421  28.384  34.760  1.00  0.00     0.031 C 
ATOM     74  C   UNL A   1      44.751  26.707  32.968  1.00  0.00     0.034 A 
BRANCH  61  75
ATOM     75  C   UNL A   1      42.421  24.688  27.585  1.00  0.00     0.023 A 
ATOM     76  C   UNL A   1      41.766  23.447  27.674  1.00  0.00     0.031 A 
ATOM     77  C   UNL A   1      43.171  24.954  26.424  1.00  0.00     0.131 A 
ATOM     78  C   UNL A   1      41.932  22.497  26.655  1.00  0.00     0.055 A 
ATOM     79  C   UNL A   1      43.258  24.038  25.375  1.00  0.00     0.041 A 
ATOM     80  F   UNL A   1      43.844  26.109  26.294  1.00  0.00    -0.206 F 
ATOM     81  C   UNL A   1      42.648  22.794  25.494  1.00  0.00     0.022 A 
BRANCH  78  82
ATOM     82  S   UNL A   1      41.322  20.811  26.934  1.00  0.00     0.124 S 
ATOM     83  O   UNL A   1      42.527  20.019  26.699  1.00  0.00    -0.237 OA
ATOM     84  O   UNL A   1      40.854  20.868  28.314  1.00  0.00    -0.237 OA
ATOM     85  O   UNL A   1      40.276  20.652  25.926  1.00  0.00    -0.744 OA
ENDBRANCH  78  82
ENDBRANCH  61  75
BRANCH  62  86
ATOM     86  C   UNL A   1      41.317  31.221  35.149  1.00  0.00     0.023 A 
ATOM     87  C   UNL A   1      40.116  31.401  35.863  1.00  0.00     0.031 A 
ATOM     88  C   UNL A   1      42.397  32.049  35.497  1.00  0.00     0.131 A 
ATOM     89  C   UNL A   1      40.011  32.388  36.856  1.00  0.00     0.055 A 
ATOM     90  C   UNL A   1      42.310  32.987  36.532  1.00  0.00     0.041 A 
ATOM     91  F   UNL A   1      43.567  31.950  34.847  1.00  0.00    -0.206 F 
ATOM     92  C   UNL A   1      41.109  33.168  37.211  1.00  0.00     0.022 A 
BRANCH  89  93
ATOM     93  S   UNL A   1      38.385  32.701  37.602  1.00  0.00     0.124 S 
ATOM     94  O   UNL A   1      38.519  34.088  38.033  1.00  0.00    -0.237 OA
ATOM     95  O   UNL A   1      37.486  32.465  36.478  1.00  0.00    -0.237 OA
ATOM     96  O   UNL A   1      38.312  31.717  38.679  1.00  0.00    -0.744 OA
ENDBRANCH  89  93
ENDBRANCH  62  86
BRANCH  74  97
ATOM     97  C   UNL A   1      45.972  26.220  33.715  1.00  0.00     0.023 A 
ATOM     98  C   UNL A   1      45.893  25.169  34.648  1.00  0.00     0.031 A 
ATOM     99  C   UNL A   1      47.230  26.805  33.490  1.00  0.00     0.131 A 
ATOM    100  C   UNL A   1      47.033  24.782  35.368  1.00  0.00     0.055 A 
ATOM    101  C   UNL A   1      48.377  26.367  34.158  1.00  0.00     0.041 A 
ATOM    102  F   UNL A   1      47.371  27.811  32.611  1.00  0.00    -0.206 F 
ATOM    103  C   UNL A   1      48.278  25.361  35.114  1.00  0.00     0.022 A 
BRANCH 100 104
ATOM    104  S   UNL A   1      46.845  23.584  36.717  1.00  0.00     0.124 S 
ATOM    105  O   UNL A   1      48.172  23.602  37.324  1.00  0.00    -0.237 OA
ATOM    106  O   UNL A   1      45.773  24.173  37.512  1.00  0.00    -0.237 OA
ATOM    107  O   UNL A   1      46.496  22.343  36.028  1.00  0.00    -0.744 OA
ENDBRANCH 100 104
ENDBRANCH  74  97
ENDBRANCH  48  49
ENDBRANCH  41  43
ENDBRANCH  40  41
ENDBRANCH  39  40
ENDBRANCH  38  39
ENDBRANCH  37  38
ENDBRANCH  36  37
ENDBRANCH  35  36
ENDBRANCH  34  35
ENDBRANCH   1  34
TORSDOF 27
ENDMDL
MODEL 3
REMARK VINA RESULT:      -7.6      3.279      6.849
REMARK SMILES C[C@@H](C(=O)OCCOCCOCCOC(=O)c1ccc(-c2c3nc(c(-c4cc(S(=O)(=O)[O-])ccc4F)c4ccc([nH]4)c(-c4cc(S(=O)(=O)[O-])ccc4F)c4nc(c(-c5cc(S(=O)(=O)[O-])ccc5F)c5ccc2[nH]5)C=C4)C=C3)cc1)c1ccc(-c2cccc(OC(=O)NCCC3CCCCC3)c2)c(F)c1
REMARK SMILES IDX 7 1 6 2 5 3 3 4 4 5 2 6 1 7 80 8 81 9 104 10 82 11 102 12
REMARK SMILES IDX 83 13 103 14 84 15 85 16 101 17 86 18 88 19 87 20 89 21
REMARK SMILES IDX 90 22 91 23 92 24 93 26 94 27 95 28 96 29 100 30 97 31 99 32
REMARK SMILES IDX 98 33 8 34 9 35 10 36 11 37 12 38 13 39 14 40 15 41 16 42
REMARK SMILES IDX 17 43 18 44 79 45 19 46 78 47 20 48 21 49 22 50 72 51 23 52
REMARK SMILES IDX 77 53 71 54 73 55 24 56 76 57 70 58 69 59 25 61 57 62 37 63
REMARK SMILES IDX 56 64 38 65 41 66 55 67 74 68 39 69 40 70 54 72 75 73 42 74
REMARK SMILES IDX 26 75 27 76 35 77 28 78 34 79 36 80 33 81 29 82 30 83 31 84
REMARK SMILES IDX 32 85 58 86 59 87 67 88 60 89 66 90 68 91 65 92 61 93 62 94
REMARK SMILES IDX 63 95 64 96 43 97 44 98 52 99 45 100 51 101 53 102 50 103
REMARK SMILES IDX 46 104 47 105 48 106 49 107
REMARK H PARENT 92 25 73 60 41 71
REMARK Flexibility Score: inf
ROOT
ATOM      1  C   UNL A   1      32.937  35.470  29.101  1.00  0.00     0.202 C 
ENDROOT
BRANCH   1   2
ATOM      2  C   UNL A   1      33.383  34.274  28.237  1.00  0.00     0.261 C 
BRANCH   2   3
ATOM      3  O   UNL A   1      33.968  33.187  28.986  1.00  0.00    -0.463 OA
BRANCH   3   4
ATOM      4  C   UNL A   1      35.184  32.745  28.568  1.00  0.00     0.313 C 
ATOM      5  O   UNL A   1      35.380  32.241  27.466  1.00  0.00    -0.252 OA
BRANCH   4   6
ATOM      6  C   UNL A   1      36.317  32.992  29.580  1.00  0.00     0.126 C 
ATOM      7  C   UNL A   1      36.873  34.425  29.539  1.00  0.00     0.025 C 
BRANCH   6   8
ATOM      8  C   UNL A   1      37.363  31.872  29.661  1.00  0.00    -0.031 A 
ATOM      9  C   UNL A   1      38.732  32.175  29.750  1.00  0.00     0.005 A 
ATOM     10  C   UNL A   1      37.029  30.518  29.494  1.00  0.00     0.044 A 
ATOM     11  C   UNL A   1      39.715  31.182  29.618  1.00  0.00     0.012 A 
ATOM     12  C   UNL A   1      38.017  29.531  29.365  1.00  0.00     0.131 A 
ATOM     13  C   UNL A   1      39.381  29.840  29.379  1.00  0.00     0.018 A 
ATOM     14  F   UNL A   1      37.611  28.263  29.189  1.00  0.00    -0.206 F 
BRANCH  13  15
ATOM     15  C   UNL A   1      40.433  28.850  29.066  1.00  0.00    -0.012 A 
ATOM     16  C   UNL A   1      40.743  27.820  29.963  1.00  0.00     0.009 A 
ATOM     17  C   UNL A   1      41.235  28.968  27.916  1.00  0.00     0.056 A 
ATOM     18  C   UNL A   1      41.801  26.941  29.725  1.00  0.00     0.004 A 
ATOM     19  C   UNL A   1      42.327  28.118  27.716  1.00  0.00     0.133 A 
ATOM     20  C   UNL A   1      42.596  27.084  28.602  1.00  0.00     0.047 A 
BRANCH  19  21
ATOM     21  O   UNL A   1      43.243  28.240  26.658  1.00  0.00    -0.410 OA
BRANCH  21  22
ATOM     22  C   UNL A   1      42.838  27.969  25.364  1.00  0.00     0.412 C 
ATOM     23  O   UNL A   1      42.147  28.682  24.639  1.00  0.00    -0.224 OA
ATOM     24  N   UNL A   1      43.295  26.771  24.897  1.00  0.00    -0.321 N 
ATOM     25  H   UNL A   1      42.991  26.503  24.000  1.00  0.00     0.167 HD
BRANCH  24  26
ATOM     26  C   UNL A   1      44.183  25.852  25.581  1.00  0.00     0.119 C 
BRANCH  26  27
ATOM     27  C   UNL A   1      44.110  24.449  24.976  1.00  0.00     0.025 C 
BRANCH  27  28
ATOM     28  C   UNL A   1      43.812  23.338  26.004  1.00  0.00    -0.009 C 
ATOM     29  C   UNL A   1      43.483  23.907  27.395  1.00  0.00     0.003 C 
ATOM     30  C   UNL A   1      42.667  22.444  25.501  1.00  0.00     0.003 C 
ATOM     31  C   UNL A   1      43.132  22.804  28.392  1.00  0.00     0.000 C 
ATOM     32  C   UNL A   1      42.344  21.337  26.502  1.00  0.00     0.000 C 
ATOM     33  C   UNL A   1      42.011  21.910  27.876  1.00  0.00     0.000 C 
ENDBRANCH  27  28
ENDBRANCH  26  27
ENDBRANCH  24  26
ENDBRANCH  21  22
ENDBRANCH  19  21
ENDBRANCH  13  15
ENDBRANCH   6   8
ENDBRANCH   4   6
ENDBRANCH   3   4
ENDBRANCH   2   3
ENDBRANCH   1   2
BRANCH   1  34
ATOM     34  O   UNL A   1      33.757  35.873  30.198  1.00  0.00    -0.376 OA
BRANCH  34  35
ATOM     35  C   UNL A   1      33.390  35.446  31.507  1.00  0.00     0.188 C 
BRANCH  35  36
ATOM     36  C   UNL A   1      34.240  34.357  32.184  1.00  0.00     0.188 C 
BRANCH  36  37
ATOM     37  O   UNL A   1      34.134  34.322  33.588  1.00  0.00    -0.376 OA
BRANCH  37  38
ATOM     38  C   UNL A   1      35.314  34.383  34.369  1.00  0.00     0.202 C 
BRANCH  38  39
ATOM     39  C   UNL A   1      36.599  33.646  33.943  1.00  0.00     0.261 C 
BRANCH  39  40
ATOM     40  O   UNL A   1      36.749  32.277  34.347  1.00  0.00    -0.460 OA
BRANCH  40  41
ATOM     41  C   UNL A   1      37.675  32.011  35.302  1.00  0.00     0.338 C 
ATOM     42  O   UNL A   1      37.508  32.066  36.506  1.00  0.00    -0.246 OA
BRANCH  41  43
ATOM     43  C   UNL A   1      38.845  31.402  34.619  1.00  0.00     0.060 A 
ATOM     44  C   UNL A   1      40.141  31.736  35.038  1.00  0.00     0.016 A 
ATOM     45  C   UNL A   1      38.656  30.477  33.590  1.00  0.00     0.016 A 
ATOM     46  C   UNL A   1      41.252  31.156  34.419  1.00  0.00     0.010 A 
ATOM     47  C   UNL A   1      39.768  29.920  32.952  1.00  0.00     0.010 A 
ATOM     48  C   UNL A   1      41.072  30.275  33.344  1.00  0.00    -0.014 A 
BRANCH  48  49
ATOM     49  C   UNL A   1      42.228  29.877  32.497  1.00  0.00     0.031 A 
ATOM     50  C   UNL A   1      42.881  28.551  32.778  1.00  0.00     0.074 A 
ATOM     51  C   UNL A   1      42.713  30.686  31.538  1.00  0.00     0.049 A 
ATOM     52  N   UNL A   1      43.921  27.998  32.211  1.00  0.00    -0.248 NA
ATOM     53  C   UNL A   1      42.301  27.760  33.875  1.00  0.00     0.031 C 
ATOM     54  C   UNL A   1      42.163  31.993  31.192  1.00  0.00     0.029 A 
ATOM     55  N   UNL A   1      43.766  30.525  30.667  1.00  0.00    -0.354 N 
ATOM     56  C   UNL A   1      44.153  26.821  32.916  1.00  0.00     0.074 A 
ATOM     57  C   UNL A   1      43.143  26.743  33.949  1.00  0.00     0.031 C 
ATOM     58  C   UNL A   1      42.852  32.494  30.152  1.00  0.00     0.029 A 
ATOM     59  C   UNL A   1      43.905  31.555  29.760  1.00  0.00     0.049 A 
ATOM     60  H   UNL A   1      44.366  29.745  30.689  1.00  0.00     0.167 HD
ATOM     61  C   UNL A   1      45.134  25.905  32.730  1.00  0.00     0.034 A 
ATOM     62  C   UNL A   1      44.754  31.694  28.716  1.00  0.00     0.034 A 
ATOM     63  C   UNL A   1      46.129  26.003  31.690  1.00  0.00     0.049 A 
ATOM     64  C   UNL A   1      45.791  30.612  28.485  1.00  0.00     0.074 A 
ATOM     65  C   UNL A   1      47.165  25.130  31.405  1.00  0.00     0.029 A 
ATOM     66  N   UNL A   1      46.219  27.037  30.767  1.00  0.00    -0.354 N 
ATOM     67  N   UNL A   1      45.973  29.483  29.133  1.00  0.00    -0.248 NA
ATOM     68  C   UNL A   1      46.740  30.826  27.383  1.00  0.00     0.031 C 
ATOM     69  C   UNL A   1      47.929  25.678  30.369  1.00  0.00     0.029 A 
ATOM     70  C   UNL A   1      47.315  26.844  29.940  1.00  0.00     0.049 A 
ATOM     71  H   UNL A   1      45.595  27.796  30.709  1.00  0.00     0.167 HD
ATOM     72  C   UNL A   1      47.052  28.856  28.512  1.00  0.00     0.074 A 
ATOM     73  C   UNL A   1      47.434  29.699  27.399  1.00  0.00     0.031 C 
ATOM     74  C   UNL A   1      47.691  27.705  28.844  1.00  0.00     0.034 A 
BRANCH  61  75
ATOM     75  C   UNL A   1      45.231  24.774  33.726  1.00  0.00     0.023 A 
ATOM     76  C   UNL A   1      45.936  24.896  34.936  1.00  0.00     0.031 A 
ATOM     77  C   UNL A   1      44.629  23.535  33.436  1.00  0.00     0.131 A 
ATOM     78  C   UNL A   1      46.081  23.779  35.774  1.00  0.00     0.055 A 
ATOM     79  C   UNL A   1      44.704  22.455  34.316  1.00  0.00     0.041 A 
ATOM     80  F   UNL A   1      43.969  23.349  32.283  1.00  0.00    -0.206 F 
ATOM     81  C   UNL A   1      45.446  22.569  35.487  1.00  0.00     0.022 A 
BRANCH  78  82
ATOM     82  S   UNL A   1      47.236  23.885  37.169  1.00  0.00     0.124 S 
ATOM     83  O   UNL A   1      47.423  22.475  37.505  1.00  0.00    -0.237 OA
ATOM     84  O   UNL A   1      48.386  24.559  36.577  1.00  0.00    -0.237 OA
ATOM     85  O   UNL A   1      46.502  24.662  38.164  1.00  0.00    -0.744 OA
ENDBRANCH  78  82
ENDBRANCH  61  75
BRANCH  62  86
ATOM     86  C   UNL A   1      44.634  32.841  27.752  1.00  0.00     0.023 A 
ATOM     87  C   UNL A   1      45.114  34.119  28.101  1.00  0.00     0.031 A 
ATOM     88  C   UNL A   1      44.030  32.708  26.491  1.00  0.00     0.131 A 
ATOM     89  C   UNL A   1      44.962  35.207  27.227  1.00  0.00     0.055 A 
ATOM     90  C   UNL A   1      43.939  33.779  25.595  1.00  0.00     0.041 A 
ATOM     91  F   UNL A   1      43.529  31.526  26.097  1.00  0.00    -0.206 F 
ATOM     92  C   UNL A   1      44.396  35.040  25.965  1.00  0.00     0.022 A 
BRANCH  89  93
ATOM     93  S   UNL A   1      45.425  36.863  27.811  1.00  0.00     0.124 S 
ATOM     94  O   UNL A   1      45.946  36.573  29.142  1.00  0.00    -0.237 OA
ATOM     95  O   UNL A   1      46.409  37.272  26.815  1.00  0.00    -0.237 OA
ATOM     96  O   UNL A   1      44.162  37.597  27.780  1.00  0.00    -0.744 OA
ENDBRANCH  89  93
ENDBRANCH  62  86
BRANCH  74  97
ATOM     97  C   UNL A   1      48.872  27.298  27.990  1.00  0.00     0.023 A 
ATOM     98  C   UNL A   1      50.183  27.700  28.307  1.00  0.00     0.031 A 
ATOM     99  C   UNL A   1      48.689  26.496  26.850  1.00  0.00     0.131 A 
ATOM    100  C   UNL A   1      51.246  27.356  27.461  1.00  0.00     0.055 A 
ATOM    101  C   UNL A   1      49.762  26.097  26.050  1.00  0.00     0.041 A 
ATOM    102  F   UNL A   1      47.462  26.080  26.494  1.00  0.00    -0.206 F 
ATOM    103  C   UNL A   1      51.048  26.540  26.345  1.00  0.00     0.022 A 
BRANCH 100 104
ATOM    104  S   UNL A   1      52.880  28.078  27.779  1.00  0.00     0.124 S 
ATOM    105  O   UNL A   1      52.941  28.056  29.238  1.00  0.00    -0.237 OA
ATOM    106  O   UNL A   1      53.771  27.152  27.090  1.00  0.00    -0.237 OA
ATOM    107  O   UNL A   1      52.790  29.410  27.184  1.00  0.00    -0.744 OA
ENDBRANCH 100 104
ENDBRANCH  74  97
ENDBRANCH  48  49
ENDBRANCH  41  43
ENDBRANCH  40  41
ENDBRANCH  39  40
ENDBRANCH  38  39
ENDBRANCH  37  38
ENDBRANCH  36  37
ENDBRANCH  35  36
ENDBRANCH  34  35
ENDBRANCH   1  34
TORSDOF 27
ENDMDL
