MODEL 1
REMARK VINA RESULT:      -9.6      0.000      0.000
REMARK SMILES O=C(OCCOCCOCCOC(=O)[C@H](Cc1ccccn1)[C@H]1CCS(=O)(=O)C1)c1ccc(-c2c3nc(c(-c4cc(S(=O)(=O)[O-])ccc4F)c4ccc([nH]4)c(-c4cc(S(=O)(=O)[O-])ccc4F)c4nc(c(-c5cc(S(=O)(=O)[O-])ccc5F)c5ccc2[nH]5)C=C4)C=C3)cc1
REMARK SMILES IDX 7 1 6 2 5 3 4 4 3 5 2 6 1 7 30 8 31 9 92 10 32 11 91 12
REMARK SMILES IDX 33 13 34 14 35 15 85 16 36 17 90 18 84 19 86 20 37 21 89 22
REMARK SMILES IDX 83 23 82 24 38 26 70 27 50 28 69 29 51 30 54 31 68 32 87 33
REMARK SMILES IDX 52 34 53 35 67 37 88 38 55 39 39 40 40 41 48 42 41 43 47 44
REMARK SMILES IDX 49 45 46 46 42 47 43 48 44 49 45 50 71 51 72 52 80 53 73 54
REMARK SMILES IDX 79 55 81 56 78 57 74 58 75 59 76 60 77 61 56 62 57 63 65 64
REMARK SMILES IDX 58 65 64 66 66 67 63 68 59 69 60 70 61 71 62 72 8 73 9 74
REMARK SMILES IDX 10 75 11 76 12 77 13 78 14 79 15 80 16 81 17 82 18 83 22 84
REMARK SMILES IDX 19 85 21 86 20 87 23 88 24 89 29 90 25 91 26 92 27 93 28 94
REMARK H PARENT 86 25 54 36
REMARK Flexibility Score: inf
ROOT
ATOM      1  C   UNL A   1      34.503  32.042  28.024  1.00  0.00     0.188 C 
ENDROOT
BRANCH   1   2
ATOM      2  O   UNL A   1      33.307  32.224  27.267  1.00  0.00    -0.376 OA
BRANCH   2   3
ATOM      3  C   UNL A   1      32.465  33.286  27.724  1.00  0.00     0.202 C 
BRANCH   3   4
ATOM      4  C   UNL A   1      33.154  34.541  28.301  1.00  0.00     0.261 C 
BRANCH   4   5
ATOM      5  O   UNL A   1      32.728  34.926  29.624  1.00  0.00    -0.460 OA
BRANCH   5   6
ATOM      6  C   UNL A   1      33.398  34.858  30.802  1.00  0.00     0.338 C 
ATOM      7  O   UNL A   1      33.010  35.561  31.736  1.00  0.00    -0.246 OA
BRANCH   6   8
ATOM      8  C   UNL A   1      34.594  33.990  31.023  1.00  0.00     0.060 A 
ATOM      9  C   UNL A   1      34.563  32.747  31.646  1.00  0.00     0.016 A 
ATOM     10  C   UNL A   1      35.829  34.432  30.517  1.00  0.00     0.016 A 
ATOM     11  C   UNL A   1      35.716  32.020  31.893  1.00  0.00     0.010 A 
ATOM     12  C   UNL A   1      36.992  33.674  30.699  1.00  0.00     0.010 A 
ATOM     13  C   UNL A   1      36.943  32.483  31.435  1.00  0.00    -0.014 A 
BRANCH  13  14
ATOM     14  C   UNL A   1      38.159  31.790  31.907  1.00  0.00     0.031 A 
ATOM     15  C   UNL A   1      38.672  32.125  33.269  1.00  0.00     0.074 A 
ATOM     16  C   UNL A   1      38.677  30.752  31.227  1.00  0.00     0.049 A 
ATOM     17  N   UNL A   1      39.726  31.668  33.885  1.00  0.00    -0.248 NA
ATOM     18  C   UNL A   1      37.870  33.076  34.055  1.00  0.00     0.031 C 
ATOM     19  C   UNL A   1      38.112  30.204  29.997  1.00  0.00     0.029 A 
ATOM     20  N   UNL A   1      39.753  29.942  31.480  1.00  0.00    -0.354 N 
ATOM     21  C   UNL A   1      39.722  32.280  35.128  1.00  0.00     0.074 A 
ATOM     22  C   UNL A   1      38.580  33.167  35.168  1.00  0.00     0.031 C 
ATOM     23  C   UNL A   1      38.845  29.151  29.611  1.00  0.00     0.029 A 
ATOM     24  C   UNL A   1      39.975  29.004  30.499  1.00  0.00     0.049 A 
ATOM     25  H   UNL A   1      40.311  30.022  32.287  1.00  0.00     0.167 HD
ATOM     26  C   UNL A   1      40.601  32.104  36.142  1.00  0.00     0.034 A 
ATOM     27  C   UNL A   1      40.993  28.150  30.295  1.00  0.00     0.034 A 
ATOM     28  C   UNL A   1      41.737  31.224  36.049  1.00  0.00     0.049 A 
ATOM     29  C   UNL A   1      42.067  28.126  31.329  1.00  0.00     0.074 A 
ATOM     30  C   UNL A   1      42.747  31.017  36.969  1.00  0.00     0.029 A 
ATOM     31  N   UNL A   1      42.022  30.407  34.957  1.00  0.00    -0.354 N 
ATOM     32  N   UNL A   1      42.126  28.799  32.453  1.00  0.00    -0.248 NA
ATOM     33  C   UNL A   1      43.195  27.226  31.082  1.00  0.00     0.031 C 
ATOM     34  C   UNL A   1      43.681  30.145  36.403  1.00  0.00     0.029 A 
ATOM     35  C   UNL A   1      43.213  29.730  35.165  1.00  0.00     0.049 A 
ATOM     36  H   UNL A   1      41.458  30.323  34.154  1.00  0.00     0.167 HD
ATOM     37  C   UNL A   1      43.293  28.383  33.069  1.00  0.00     0.074 A 
ATOM     38  C   UNL A   1      43.894  27.392  32.193  1.00  0.00     0.031 C 
ATOM     39  C   UNL A   1      43.808  28.777  34.259  1.00  0.00     0.034 A 
BRANCH  26  40
ATOM     40  C   UNL A   1      40.407  32.976  37.354  1.00  0.00     0.023 A 
ATOM     41  C   UNL A   1      39.741  32.519  38.505  1.00  0.00     0.031 A 
ATOM     42  C   UNL A   1      40.790  34.328  37.304  1.00  0.00     0.131 A 
ATOM     43  C   UNL A   1      39.395  33.428  39.515  1.00  0.00     0.055 A 
ATOM     44  C   UNL A   1      40.525  35.205  38.355  1.00  0.00     0.041 A 
ATOM     45  F   UNL A   1      41.390  34.827  36.212  1.00  0.00    -0.206 F 
ATOM     46  C   UNL A   1      39.806  34.762  39.461  1.00  0.00     0.022 A 
BRANCH  43  47
ATOM     47  S   UNL A   1      38.237  32.892  40.807  1.00  0.00     0.124 S 
ATOM     48  O   UNL A   1      38.623  33.754  41.923  1.00  0.00    -0.237 OA
ATOM     49  O   UNL A   1      36.938  33.172  40.205  1.00  0.00    -0.237 OA
ATOM     50  O   UNL A   1      38.551  31.476  40.984  1.00  0.00    -0.744 OA
ENDBRANCH  43  47
ENDBRANCH  26  40
BRANCH  27  51
ATOM     51  C   UNL A   1      41.125  27.365  29.034  1.00  0.00     0.023 A 
ATOM     52  C   UNL A   1      42.075  27.676  28.049  1.00  0.00     0.031 A 
ATOM     53  C   UNL A   1      40.203  26.338  28.763  1.00  0.00     0.131 A 
ATOM     54  C   UNL A   1      42.063  26.981  26.826  1.00  0.00     0.055 A 
ATOM     55  C   UNL A   1      40.230  25.617  27.568  1.00  0.00     0.041 A 
ATOM     56  F   UNL A   1      39.254  26.029  29.662  1.00  0.00    -0.206 F 
ATOM     57  C   UNL A   1      41.164  25.938  26.589  1.00  0.00     0.022 A 
BRANCH  54  58
ATOM     58  S   UNL A   1      43.161  27.535  25.490  1.00  0.00     0.124 S 
ATOM     59  O   UNL A   1      43.713  26.269  25.020  1.00  0.00    -0.237 OA
ATOM     60  O   UNL A   1      42.241  28.206  24.578  1.00  0.00    -0.237 OA
ATOM     61  O   UNL A   1      44.114  28.414  26.167  1.00  0.00    -0.744 OA
ENDBRANCH  54  58
ENDBRANCH  27  51
BRANCH  39  62
ATOM     62  C   UNL A   1      45.072  28.085  34.678  1.00  0.00     0.023 A 
ATOM     63  C   UNL A   1      46.334  28.594  34.330  1.00  0.00     0.031 A 
ATOM     64  C   UNL A   1      45.006  26.868  35.376  1.00  0.00     0.131 A 
ATOM     65  C   UNL A   1      47.480  27.844  34.613  1.00  0.00     0.055 A 
ATOM     66  C   UNL A   1      46.156  26.169  35.729  1.00  0.00     0.041 A 
ATOM     67  F   UNL A   1      43.820  26.337  35.713  1.00  0.00    -0.206 F 
ATOM     68  C   UNL A   1      47.402  26.647  35.331  1.00  0.00     0.022 A 
BRANCH  65  69
ATOM     69  S   UNL A   1      49.059  28.389  33.911  1.00  0.00     0.124 S 
ATOM     70  O   UNL A   1      48.689  28.679  32.530  1.00  0.00    -0.237 OA
ATOM     71  O   UNL A   1      49.388  29.545  34.739  1.00  0.00    -0.237 OA
ATOM     72  O   UNL A   1      49.930  27.229  34.092  1.00  0.00    -0.744 OA
ENDBRANCH  65  69
ENDBRANCH  39  62
ENDBRANCH  13  14
ENDBRANCH   6   8
ENDBRANCH   5   6
ENDBRANCH   4   5
ENDBRANCH   3   4
ENDBRANCH   2   3
ENDBRANCH   1   2
BRANCH   1  73
ATOM     73  C   UNL A   1      35.360  30.857  27.588  1.00  0.00     0.188 C 
BRANCH  73  74
ATOM     74  O   UNL A   1      34.913  29.547  27.919  1.00  0.00    -0.376 OA
BRANCH  74  75
ATOM     75  C   UNL A   1      34.100  28.868  26.968  1.00  0.00     0.202 C 
BRANCH  75  76
ATOM     76  C   UNL A   1      32.590  28.746  27.231  1.00  0.00     0.261 C 
BRANCH  76  77
ATOM     77  O   UNL A   1      31.756  28.641  26.069  1.00  0.00    -0.463 OA
BRANCH  77  78
ATOM     78  C   UNL A   1      31.249  27.402  25.827  1.00  0.00     0.309 C 
ATOM     79  O   UNL A   1      30.739  26.667  26.666  1.00  0.00    -0.252 OA
BRANCH  78  80
ATOM     80  C   UNL A   1      31.455  26.983  24.379  1.00  0.00     0.109 C 
BRANCH  80  81
ATOM     81  C   UNL A   1      30.059  26.735  23.768  1.00  0.00     0.071 C 
BRANCH  81  82
ATOM     82  C   UNL A   1      29.403  27.877  23.023  1.00  0.00     0.041 A 
ATOM     83  C   UNL A   1      28.066  28.196  23.265  1.00  0.00     0.024 A 
ATOM     84  N   UNL A   1      30.224  28.697  22.324  1.00  0.00    -0.261 NA
ATOM     85  C   UNL A   1      27.568  29.421  22.822  1.00  0.00     0.003 A 
ATOM     86  C   UNL A   1      29.707  29.876  21.896  1.00  0.00     0.111 A 
ATOM     87  C   UNL A   1      28.406  30.287  22.136  1.00  0.00     0.020 A 
ENDBRANCH  81  82
ENDBRANCH  80  81
BRANCH  80  88
ATOM     88  C   UNL A   1      32.401  25.762  24.498  1.00  0.00     0.020 C 
ATOM     89  C   UNL A   1      31.775  24.363  24.463  1.00  0.00     0.021 C 
ATOM     90  C   UNL A   1      33.478  25.740  23.424  1.00  0.00     0.141 C 
ATOM     91  C   UNL A   1      32.950  23.400  24.567  1.00  0.00     0.137 C 
ATOM     92  S   UNL A   1      34.154  24.085  23.460  1.00  0.00     0.150 S 
ATOM     93  O   UNL A   1      35.433  24.122  24.136  1.00  0.00    -0.229 OA
ATOM     94  O   UNL A   1      33.939  23.481  22.168  1.00  0.00    -0.229 OA
ENDBRANCH  80  88
ENDBRANCH  78  80
ENDBRANCH  77  78
ENDBRANCH  76  77
ENDBRANCH  75  76
ENDBRANCH  74  75
ENDBRANCH  73  74
ENDBRANCH   1  73
TORSDOF 23
ENDMDL
MODEL 2
REMARK VINA RESULT:      -9.5      3.655      9.333
REMARK SMILES O=C(OCCOCCOCCOC(=O)[C@H](Cc1ccccn1)[C@H]1CCS(=O)(=O)C1)c1ccc(-c2c3nc(c(-c4cc(S(=O)(=O)[O-])ccc4F)c4ccc([nH]4)c(-c4cc(S(=O)(=O)[O-])ccc4F)c4nc(c(-c5cc(S(=O)(=O)[O-])ccc5F)c5ccc2[nH]5)C=C4)C=C3)cc1
REMARK SMILES IDX 7 1 6 2 5 3 4 4 3 5 2 6 1 7 30 8 31 9 92 10 32 11 91 12
REMARK SMILES IDX 33 13 34 14 35 15 85 16 36 17 90 18 84 19 86 20 37 21 89 22
REMARK SMILES IDX 83 23 82 24 38 26 70 27 50 28 69 29 51 30 54 31 68 32 87 33
REMARK SMILES IDX 52 34 53 35 67 37 88 38 55 39 39 40 40 41 48 42 41 43 47 44
REMARK SMILES IDX 49 45 46 46 42 47 43 48 44 49 45 50 71 51 72 52 80 53 73 54
REMARK SMILES IDX 79 55 81 56 78 57 74 58 75 59 76 60 77 61 56 62 57 63 65 64
REMARK SMILES IDX 58 65 64 66 66 67 63 68 59 69 60 70 61 71 62 72 8 73 9 74
REMARK SMILES IDX 10 75 11 76 12 77 13 78 14 79 15 80 16 81 17 82 18 83 22 84
REMARK SMILES IDX 19 85 21 86 20 87 23 88 24 89 29 90 25 91 26 92 27 93 28 94
REMARK H PARENT 86 25 54 36
REMARK Flexibility Score: inf
ROOT
ATOM      1  C   UNL A   1      42.121  21.282  26.984  1.00  0.00     0.188 C 
ENDROOT
BRANCH   1   2
ATOM      2  O   UNL A   1      42.471  20.986  25.633  1.00  0.00    -0.376 OA
BRANCH   2   3
ATOM      3  C   UNL A   1      43.651  21.644  25.161  1.00  0.00     0.202 C 
BRANCH   3   4
ATOM      4  C   UNL A   1      43.485  23.055  24.558  1.00  0.00     0.261 C 
BRANCH   4   5
ATOM      5  O   UNL A   1      44.521  23.998  24.896  1.00  0.00    -0.460 OA
BRANCH   5   6
ATOM      6  C   UNL A   1      44.968  24.391  26.116  1.00  0.00     0.338 C 
ATOM      7  O   UNL A   1      46.043  23.943  26.516  1.00  0.00    -0.246 OA
BRANCH   6   8
ATOM      8  C   UNL A   1      44.218  25.324  27.009  1.00  0.00     0.060 A 
ATOM      9  C   UNL A   1      44.404  26.702  27.048  1.00  0.00     0.016 A 
ATOM     10  C   UNL A   1      43.212  24.782  27.828  1.00  0.00     0.016 A 
ATOM     11  C   UNL A   1      43.734  27.509  27.953  1.00  0.00     0.010 A 
ATOM     12  C   UNL A   1      42.477  25.597  28.699  1.00  0.00     0.010 A 
ATOM     13  C   UNL A   1      42.775  26.962  28.796  1.00  0.00    -0.014 A 
BRANCH  13  14
ATOM     14  C   UNL A   1      42.249  27.814  29.882  1.00  0.00     0.031 A 
ATOM     15  C   UNL A   1      42.995  27.840  31.176  1.00  0.00     0.074 A 
ATOM     16  C   UNL A   1      41.253  28.690  29.660  1.00  0.00     0.049 A 
ATOM     17  N   UNL A   1      42.716  28.488  32.271  1.00  0.00    -0.248 NA
ATOM     18  C   UNL A   1      44.241  27.058  31.230  1.00  0.00     0.031 C 
ATOM     19  C   UNL A   1      40.609  28.899  28.366  1.00  0.00     0.029 A 
ATOM     20  N   UNL A   1      40.635  29.596  30.481  1.00  0.00    -0.354 N 
ATOM     21  C   UNL A   1      43.744  28.188  33.151  1.00  0.00     0.074 A 
ATOM     22  C   UNL A   1      44.637  27.273  32.473  1.00  0.00     0.031 C 
ATOM     23  C   UNL A   1      39.694  29.871  28.485  1.00  0.00     0.029 A 
ATOM     24  C   UNL A   1      39.617  30.286  29.867  1.00  0.00     0.049 A 
ATOM     25  H   UNL A   1      40.896  29.740  31.419  1.00  0.00     0.167 HD
ATOM     26  C   UNL A   1      43.918  28.647  34.412  1.00  0.00     0.034 A 
ATOM     27  C   UNL A   1      38.685  31.124  30.355  1.00  0.00     0.034 A 
ATOM     28  C   UNL A   1      42.990  29.544  35.054  1.00  0.00     0.049 A 
ATOM     29  C   UNL A   1      38.771  31.452  31.806  1.00  0.00     0.074 A 
ATOM     30  C   UNL A   1      43.006  30.018  36.351  1.00  0.00     0.029 A 
ATOM     31  N   UNL A   1      41.866  30.094  34.443  1.00  0.00    -0.354 N 
ATOM     32  N   UNL A   1      39.678  31.068  32.673  1.00  0.00    -0.248 NA
ATOM     33  C   UNL A   1      37.730  32.330  32.343  1.00  0.00     0.031 C 
ATOM     34  C   UNL A   1      41.852  30.783  36.549  1.00  0.00     0.029 A 
ATOM     35  C   UNL A   1      41.160  30.866  35.350  1.00  0.00     0.049 A 
ATOM     36  H   UNL A   1      41.611  29.954  33.502  1.00  0.00     0.167 HD
ATOM     37  C   UNL A   1      39.333  31.683  33.863  1.00  0.00     0.074 A 
ATOM     38  C   UNL A   1      38.143  32.470  33.593  1.00  0.00     0.031 C 
ATOM     39  C   UNL A   1      39.956  31.611  35.065  1.00  0.00     0.034 A 
BRANCH  26  40
ATOM     40  C   UNL A   1      45.083  28.077  35.177  1.00  0.00     0.023 A 
ATOM     41  C   UNL A   1      44.955  26.941  35.994  1.00  0.00     0.031 A 
ATOM     42  C   UNL A   1      46.311  28.760  35.180  1.00  0.00     0.131 A 
ATOM     43  C   UNL A   1      46.005  26.579  36.852  1.00  0.00     0.055 A 
ATOM     44  C   UNL A   1      47.383  28.339  35.966  1.00  0.00     0.041 A 
ATOM     45  F   UNL A   1      46.474  29.876  34.452  1.00  0.00    -0.206 F 
ATOM     46  C   UNL A   1      47.228  27.254  36.823  1.00  0.00     0.022 A 
BRANCH  43  47
ATOM     47  S   UNL A   1      45.687  25.340  38.140  1.00  0.00     0.124 S 
ATOM     48  O   UNL A   1      45.259  24.192  37.343  1.00  0.00    -0.237 OA
ATOM     49  O   UNL A   1      46.987  25.215  38.789  1.00  0.00    -0.237 OA
ATOM     50  O   UNL A   1      44.639  25.951  38.954  1.00  0.00    -0.744 OA
ENDBRANCH  43  47
ENDBRANCH  26  40
BRANCH  27  51
ATOM     51  C   UNL A   1      37.536  31.595  29.529  1.00  0.00     0.023 A 
ATOM     52  C   UNL A   1      36.542  30.725  29.056  1.00  0.00     0.031 A 
ATOM     53  C   UNL A   1      37.490  32.939  29.118  1.00  0.00     0.131 A 
ATOM     54  C   UNL A   1      35.558  31.207  28.174  1.00  0.00     0.055 A 
ATOM     55  C   UNL A   1      36.480  33.422  28.283  1.00  0.00     0.041 A 
ATOM     56  F   UNL A   1      38.440  33.800  29.517  1.00  0.00    -0.206 F 
ATOM     57  C   UNL A   1      35.505  32.553  27.805  1.00  0.00     0.022 A 
BRANCH  54  58
ATOM     58  S   UNL A   1      34.408  30.026  27.411  1.00  0.00     0.124 S 
ATOM     59  O   UNL A   1      33.241  30.868  27.169  1.00  0.00    -0.237 OA
ATOM     60  O   UNL A   1      35.136  29.592  26.223  1.00  0.00    -0.237 OA
ATOM     61  O   UNL A   1      34.231  29.000  28.439  1.00  0.00    -0.744 OA
ENDBRANCH  54  58
ENDBRANCH  27  51
BRANCH  39  62
ATOM     62  C   UNL A   1      39.359  32.451  36.154  1.00  0.00     0.023 A 
ATOM     63  C   UNL A   1      39.885  33.713  36.477  1.00  0.00     0.031 A 
ATOM     64  C   UNL A   1      38.293  31.950  36.920  1.00  0.00     0.131 A 
ATOM     65  C   UNL A   1      39.394  34.398  37.592  1.00  0.00     0.055 A 
ATOM     66  C   UNL A   1      37.753  32.676  37.977  1.00  0.00     0.041 A 
ATOM     67  F   UNL A   1      37.772  30.741  36.658  1.00  0.00    -0.206 F 
ATOM     68  C   UNL A   1      38.315  33.900  38.330  1.00  0.00     0.022 A 
BRANCH  65  69
ATOM     69  S   UNL A   1      40.272  35.884  38.144  1.00  0.00     0.124 S 
ATOM     70  O   UNL A   1      39.200  36.874  38.168  1.00  0.00    -0.237 OA
ATOM     71  O   UNL A   1      40.792  35.477  39.445  1.00  0.00    -0.237 OA
ATOM     72  O   UNL A   1      41.283  36.086  37.107  1.00  0.00    -0.744 OA
ENDBRANCH  65  69
ENDBRANCH  39  62
ENDBRANCH  13  14
ENDBRANCH   6   8
ENDBRANCH   5   6
ENDBRANCH   4   5
ENDBRANCH   3   4
ENDBRANCH   2   3
ENDBRANCH   1   2
BRANCH   1  73
ATOM     73  C   UNL A   1      40.842  22.097  27.147  1.00  0.00     0.188 C 
BRANCH  73  74
ATOM     74  O   UNL A   1      39.940  22.159  26.047  1.00  0.00    -0.376 OA
BRANCH  74  75
ATOM     75  C   UNL A   1      38.733  21.413  26.142  1.00  0.00     0.202 C 
BRANCH  75  76
ATOM     76  C   UNL A   1      37.672  21.570  25.040  1.00  0.00     0.261 C 
BRANCH  76  77
ATOM     77  O   UNL A   1      36.432  20.884  25.260  1.00  0.00    -0.463 OA
BRANCH  77  78
ATOM     78  C   UNL A   1      35.439  21.636  25.808  1.00  0.00     0.309 C 
ATOM     79  O   UNL A   1      35.595  22.705  26.388  1.00  0.00    -0.252 OA
BRANCH  78  80
ATOM     80  C   UNL A   1      34.085  20.952  25.689  1.00  0.00     0.109 C 
BRANCH  80  81
ATOM     81  C   UNL A   1      34.133  20.053  24.435  1.00  0.00     0.071 C 
BRANCH  81  82
ATOM     82  C   UNL A   1      33.504  18.680  24.527  1.00  0.00     0.041 A 
ATOM     83  C   UNL A   1      33.901  17.667  23.653  1.00  0.00     0.024 A 
ATOM     84  N   UNL A   1      32.750  18.430  25.624  1.00  0.00    -0.261 NA
ATOM     85  C   UNL A   1      33.559  16.347  23.942  1.00  0.00     0.003 A 
ATOM     86  C   UNL A   1      32.423  17.137  25.871  1.00  0.00     0.111 A 
ATOM     87  C   UNL A   1      32.817  16.071  25.081  1.00  0.00     0.020 A 
ENDBRANCH  81  82
ENDBRANCH  80  81
BRANCH  80  88
ATOM     88  C   UNL A   1      33.091  22.140  25.669  1.00  0.00     0.020 C 
ATOM     89  C   UNL A   1      31.864  22.035  24.756  1.00  0.00     0.021 C 
ATOM     90  C   UNL A   1      32.534  22.469  27.045  1.00  0.00     0.141 C 
ATOM     91  C   UNL A   1      31.086  23.324  24.986  1.00  0.00     0.137 C 
ATOM     92  S   UNL A   1      31.123  23.528  26.748  1.00  0.00     0.150 S 
ATOM     93  O   UNL A   1      31.498  24.894  27.046  1.00  0.00    -0.229 OA
ATOM     94  O   UNL A   1      29.950  22.876  27.277  1.00  0.00    -0.229 OA
ENDBRANCH  80  88
ENDBRANCH  78  80
ENDBRANCH  77  78
ENDBRANCH  76  77
ENDBRANCH  75  76
ENDBRANCH  74  75
ENDBRANCH  73  74
ENDBRANCH   1  73
TORSDOF 23
ENDMDL
MODEL 3
REMARK VINA RESULT:      -9.5      5.416      9.744
REMARK SMILES O=C(OCCOCCOCCOC(=O)[C@H](Cc1ccccn1)[C@H]1CCS(=O)(=O)C1)c1ccc(-c2c3nc(c(-c4cc(S(=O)(=O)[O-])ccc4F)c4ccc([nH]4)c(-c4cc(S(=O)(=O)[O-])ccc4F)c4nc(c(-c5cc(S(=O)(=O)[O-])ccc5F)c5ccc2[nH]5)C=C4)C=C3)cc1
REMARK SMILES IDX 7 1 6 2 5 3 4 4 3 5 2 6 1 7 30 8 31 9 92 10 32 11 91 12
REMARK SMILES IDX 33 13 34 14 35 15 85 16 36 17 90 18 84 19 86 20 37 21 89 22
REMARK SMILES IDX 83 23 82 24 38 26 70 27 50 28 69 29 51 30 54 31 68 32 87 33
REMARK SMILES IDX 52 34 53 35 67 37 88 38 55 39 39 40 40 41 48 42 41 43 47 44
REMARK SMILES IDX 49 45 46 46 42 47 43 48 44 49 45 50 71 51 72 52 80 53 73 54
REMARK SMILES IDX 79 55 81 56 78 57 74 58 75 59 76 60 77 61 56 62 57 63 65 64
REMARK SMILES IDX 58 65 64 66 66 67 63 68 59 69 60 70 61 71 62 72 8 73 9 74
REMARK SMILES IDX 10 75 11 76 12 77 13 78 14 79 15 80 16 81 17 82 18 83 22 84
REMARK SMILES IDX 19 85 21 86 20 87 23 88 24 89 29 90 25 91 26 92 27 93 28 94
REMARK H PARENT 86 25 54 36
REMARK Flexibility Score: inf
ROOT
ATOM      1  C   UNL A   1      40.121  22.384  26.728  1.00  0.00     0.188 C 
ENDROOT
BRANCH   1   2
ATOM      2  O   UNL A   1      40.378  21.337  27.663  1.00  0.00    -0.376 OA
BRANCH   2   3
ATOM      3  C   UNL A   1      41.333  20.365  27.226  1.00  0.00     0.202 C 
BRANCH   3   4
ATOM      4  C   UNL A   1      42.114  20.669  25.930  1.00  0.00     0.261 C 
BRANCH   4   5
ATOM      5  O   UNL A   1      43.144  21.671  26.050  1.00  0.00    -0.460 OA
BRANCH   5   6
ATOM      6  C   UNL A   1      43.306  22.831  25.365  1.00  0.00     0.338 C 
ATOM      7  O   UNL A   1      43.607  22.768  24.173  1.00  0.00    -0.246 OA
BRANCH   6   8
ATOM      8  C   UNL A   1      43.158  24.183  25.983  1.00  0.00     0.060 A 
ATOM      9  C   UNL A   1      42.829  25.339  25.284  1.00  0.00     0.016 A 
ATOM     10  C   UNL A   1      43.305  24.287  27.377  1.00  0.00     0.016 A 
ATOM     11  C   UNL A   1      42.782  26.580  25.898  1.00  0.00     0.010 A 
ATOM     12  C   UNL A   1      43.191  25.526  28.022  1.00  0.00     0.010 A 
ATOM     13  C   UNL A   1      42.976  26.687  27.269  1.00  0.00    -0.014 A 
BRANCH  13  14
ATOM     14  C   UNL A   1      43.130  28.042  27.837  1.00  0.00     0.031 A 
ATOM     15  C   UNL A   1      41.918  28.707  28.403  1.00  0.00     0.074 A 
ATOM     16  C   UNL A   1      44.347  28.583  28.026  1.00  0.00     0.049 A 
ATOM     17  N   UNL A   1      41.803  29.893  28.930  1.00  0.00    -0.248 NA
ATOM     18  C   UNL A   1      40.677  27.915  28.404  1.00  0.00     0.031 C 
ATOM     19  C   UNL A   1      45.607  27.915  27.713  1.00  0.00     0.029 A 
ATOM     20  N   UNL A   1      44.738  29.783  28.562  1.00  0.00    -0.354 N 
ATOM     21  C   UNL A   1      40.477  29.997  29.320  1.00  0.00     0.074 A 
ATOM     22  C   UNL A   1      39.818  28.767  28.938  1.00  0.00     0.031 C 
ATOM     23  C   UNL A   1      46.624  28.714  28.065  1.00  0.00     0.029 A 
ATOM     24  C   UNL A   1      46.099  29.975  28.536  1.00  0.00     0.049 A 
ATOM     25  H   UNL A   1      44.106  30.441  28.930  1.00  0.00     0.167 HD
ATOM     26  C   UNL A   1      39.876  31.035  29.947  1.00  0.00     0.034 A 
ATOM     27  C   UNL A   1      46.853  31.054  28.810  1.00  0.00     0.034 A 
ATOM     28  C   UNL A   1      40.569  32.250  30.290  1.00  0.00     0.049 A 
ATOM     29  C   UNL A   1      46.138  32.266  29.302  1.00  0.00     0.074 A 
ATOM     30  C   UNL A   1      40.060  33.406  30.850  1.00  0.00     0.029 A 
ATOM     31  N   UNL A   1      41.930  32.471  30.091  1.00  0.00    -0.354 N 
ATOM     32  N   UNL A   1      44.859  32.406  29.556  1.00  0.00    -0.248 NA
ATOM     33  C   UNL A   1      46.956  33.452  29.557  1.00  0.00     0.031 C 
ATOM     34  C   UNL A   1      41.089  34.351  30.911  1.00  0.00     0.029 A 
ATOM     35  C   UNL A   1      42.266  33.759  30.478  1.00  0.00     0.049 A 
ATOM     36  H   UNL A   1      42.561  31.808  29.729  1.00  0.00     0.167 HD
ATOM     37  C   UNL A   1      44.718  33.697  30.032  1.00  0.00     0.074 A 
ATOM     38  C   UNL A   1      46.046  34.284  30.039  1.00  0.00     0.031 C 
ATOM     39  C   UNL A   1      43.591  34.331  30.440  1.00  0.00     0.034 A 
BRANCH  26  40
ATOM     40  C   UNL A   1      38.392  30.914  30.167  1.00  0.00     0.023 A 
ATOM     41  C   UNL A   1      37.457  31.345  29.210  1.00  0.00     0.031 A 
ATOM     42  C   UNL A   1      37.909  30.472  31.411  1.00  0.00     0.131 A 
ATOM     43  C   UNL A   1      36.097  31.413  29.548  1.00  0.00     0.055 A 
ATOM     44  C   UNL A   1      36.546  30.454  31.707  1.00  0.00     0.041 A 
ATOM     45  F   UNL A   1      38.761  30.090  32.377  1.00  0.00    -0.206 F 
ATOM     46  C   UNL A   1      35.633  30.945  30.780  1.00  0.00     0.022 A 
BRANCH  43  47
ATOM     47  S   UNL A   1      34.969  32.298  28.435  1.00  0.00     0.124 S 
ATOM     48  O   UNL A   1      35.903  33.095  27.643  1.00  0.00    -0.237 OA
ATOM     49  O   UNL A   1      34.302  31.210  27.728  1.00  0.00    -0.237 OA
ATOM     50  O   UNL A   1      34.120  33.065  29.344  1.00  0.00    -0.744 OA
ENDBRANCH  43  47
ENDBRANCH  26  40
BRANCH  27  51
ATOM     51  C   UNL A   1      48.312  31.096  28.507  1.00  0.00     0.023 A 
ATOM     52  C   UNL A   1      49.286  30.681  29.428  1.00  0.00     0.031 A 
ATOM     53  C   UNL A   1      48.748  31.664  27.297  1.00  0.00     0.131 A 
ATOM     54  C   UNL A   1      50.649  30.867  29.133  1.00  0.00     0.055 A 
ATOM     55  C   UNL A   1      50.103  31.799  26.988  1.00  0.00     0.041 A 
ATOM     56  F   UNL A   1      47.852  32.108  26.399  1.00  0.00    -0.206 F 
ATOM     57  C   UNL A   1      51.064  31.400  27.911  1.00  0.00     0.022 A 
BRANCH  54  58
ATOM     58  S   UNL A   1      51.882  30.517  30.420  1.00  0.00     0.124 S 
ATOM     59  O   UNL A   1      51.257  29.406  31.130  1.00  0.00    -0.237 OA
ATOM     60  O   UNL A   1      53.071  30.186  29.642  1.00  0.00    -0.237 OA
ATOM     61  O   UNL A   1      51.962  31.768  31.173  1.00  0.00    -0.744 OA
ENDBRANCH  54  58
ENDBRANCH  27  51
BRANCH  39  62
ATOM     62  C   UNL A   1      43.784  35.723  30.962  1.00  0.00     0.023 A 
ATOM     63  C   UNL A   1      43.773  36.835  30.104  1.00  0.00     0.031 A 
ATOM     64  C   UNL A   1      44.048  35.928  32.326  1.00  0.00     0.131 A 
ATOM     65  C   UNL A   1      44.102  38.097  30.608  1.00  0.00     0.055 A 
ATOM     66  C   UNL A   1      44.291  37.200  32.837  1.00  0.00     0.041 A 
ATOM     67  F   UNL A   1      44.085  34.892  33.179  1.00  0.00    -0.206 F 
ATOM     68  C   UNL A   1      44.337  38.292  31.973  1.00  0.00     0.022 A 
BRANCH  65  69
ATOM     69  S   UNL A   1      44.349  39.455  29.434  1.00  0.00     0.124 S 
ATOM     70  O   UNL A   1      44.692  40.560  30.323  1.00  0.00    -0.237 OA
ATOM     71  O   UNL A   1      45.432  38.952  28.596  1.00  0.00    -0.237 OA
ATOM     72  O   UNL A   1      43.052  39.570  28.770  1.00  0.00    -0.744 OA
ENDBRANCH  65  69
ENDBRANCH  39  62
ENDBRANCH  13  14
ENDBRANCH   6   8
ENDBRANCH   5   6
ENDBRANCH   4   5
ENDBRANCH   3   4
ENDBRANCH   2   3
ENDBRANCH   1   2
BRANCH   1  73
ATOM     73  C   UNL A   1      38.687  22.438  26.209  1.00  0.00     0.188 C 
BRANCH  73  74
ATOM     74  O   UNL A   1      38.081  21.222  25.785  1.00  0.00    -0.376 OA
BRANCH  74  75
ATOM     75  C   UNL A   1      37.350  21.241  24.564  1.00  0.00     0.202 C 
BRANCH  75  76
ATOM     76  C   UNL A   1      35.879  21.687  24.584  1.00  0.00     0.261 C 
BRANCH  76  77
ATOM     77  O   UNL A   1      35.261  21.758  25.877  1.00  0.00    -0.463 OA
BRANCH  77  78
ATOM     78  C   UNL A   1      34.071  21.109  25.989  1.00  0.00     0.309 C 
ATOM     79  O   UNL A   1      33.426  20.982  27.024  1.00  0.00    -0.252 OA
BRANCH  78  80
ATOM     80  C   UNL A   1      33.650  20.473  24.672  1.00  0.00     0.109 C 
BRANCH  80  81
ATOM     81  C   UNL A   1      32.304  21.110  24.263  1.00  0.00     0.071 C 
BRANCH  81  82
ATOM     82  C   UNL A   1      32.321  22.543  23.779  1.00  0.00     0.041 A 
ATOM     83  C   UNL A   1      33.193  22.928  22.759  1.00  0.00     0.024 A 
ATOM     84  N   UNL A   1      31.307  23.338  24.198  1.00  0.00    -0.261 NA
ATOM     85  C   UNL A   1      32.985  24.145  22.110  1.00  0.00     0.003 A 
ATOM     86  C   UNL A   1      31.139  24.521  23.556  1.00  0.00     0.111 A 
ATOM     87  C   UNL A   1      31.930  24.953  22.504  1.00  0.00     0.020 A 
ENDBRANCH  81  82
ENDBRANCH  80  81
BRANCH  80  88
ATOM     88  C   UNL A   1      33.645  18.959  24.998  1.00  0.00     0.020 C 
ATOM     89  C   UNL A   1      32.365  18.166  24.706  1.00  0.00     0.021 C 
ATOM     90  C   UNL A   1      34.753  18.196  24.290  1.00  0.00     0.141 C 
ATOM     91  C   UNL A   1      32.689  16.731  25.100  1.00  0.00     0.137 C 
ATOM     92  S   UNL A   1      34.312  16.469  24.435  1.00  0.00     0.150 S 
ATOM     93  O   UNL A   1      35.138  15.865  25.459  1.00  0.00    -0.229 OA
ATOM     94  O   UNL A   1      34.148  15.932  23.106  1.00  0.00    -0.229 OA
ENDBRANCH  80  88
ENDBRANCH  78  80
ENDBRANCH  77  78
ENDBRANCH  76  77
ENDBRANCH  75  76
ENDBRANCH  74  75
ENDBRANCH  73  74
ENDBRANCH   1  73
TORSDOF 23
ENDMDL
