MODEL 1
REMARK VINA RESULT:     -10.4      0.000      0.000
REMARK SMILES C[C@@H]1SCCC[C@H]1[N@H+]1CCC[C@H](CCC(=O)OCCOCCOCCOC(=O)c2ccc(-c3c4nc(c(-c5cc(S(=O)(=O)[O-])ccc5F)c5ccc([nH]5)c(-c5cc(S(=O)(=O)[O-])ccc5F)c5nc(c(-c6cc(S(=O)(=O)[O-])ccc6F)c6ccc3[nH]6)C=C5)C=C4)cc2)C1
REMARK SMILES IDX 21 1 20 2 19 3 18 4 17 5 15 6 16 7 14 8 13 9 12 10 8 11 9 12
REMARK SMILES IDX 92 13 10 15 11 16 7 17 1 18 2 19 3 20 4 21 6 22 5 23 22 24
REMARK SMILES IDX 23 25 24 26 25 27 26 28 27 29 28 30 29 31 30 32 91 33 31 34
REMARK SMILES IDX 90 35 32 36 33 37 34 38 84 39 35 40 89 41 83 42 85 43 36 44
REMARK SMILES IDX 88 45 82 46 81 47 37 49 69 50 49 51 68 52 50 53 53 54 67 55
REMARK SMILES IDX 86 56 51 57 52 58 66 60 87 61 54 62 38 63 39 64 47 65 40 66
REMARK SMILES IDX 46 67 48 68 45 69 41 70 42 71 43 72 44 73 70 74 71 75 79 76
REMARK SMILES IDX 72 77 78 78 80 79 77 80 73 81 74 82 75 83 76 84 55 85 56 86
REMARK SMILES IDX 64 87 57 88 63 89 65 90 62 91 58 92 59 93 60 94 61 95
REMARK H PARENT 8 14 85 48 53 59
REMARK Flexibility Score: inf
ROOT
ATOM      1  C   UNL A   1      34.356  21.376  25.852  1.00  0.00     0.188 C 
ENDROOT
BRANCH   1   2
ATOM      2  O   UNL A   1      33.906  21.094  27.168  1.00  0.00    -0.376 OA
BRANCH   2   3
ATOM      3  C   UNL A   1      33.610  22.261  27.928  1.00  0.00     0.202 C 
BRANCH   3   4
ATOM      4  C   UNL A   1      33.091  23.424  27.062  1.00  0.00     0.261 C 
BRANCH   4   5
ATOM      5  O   UNL A   1      31.759  23.851  27.432  1.00  0.00    -0.463 OA
BRANCH   5   6
ATOM      6  C   UNL A   1      30.651  23.354  26.830  1.00  0.00     0.305 C 
ATOM      7  O   UNL A   1      29.551  23.305  27.359  1.00  0.00    -0.252 OA
BRANCH   6   8
ATOM      8  C   UNL A   1      30.938  22.875  25.392  1.00  0.00     0.123 C 
BRANCH   8   9
ATOM      9  C   UNL A   1      30.590  23.785  24.174  1.00  0.00     0.021 C 
BRANCH   9  10
ATOM     10  C   UNL A   1      31.707  24.759  23.698  1.00  0.00     0.045 C 
ATOM     11  N   UNL A   1      31.971  26.784  22.111  1.00  0.00    -0.331 N 
ATOM     12  C   UNL A   1      33.190  26.202  21.588  1.00  0.00     0.262 C 
ATOM     13  C   UNL A   1      31.118  25.810  22.771  1.00  0.00     0.265 C 
ATOM     14  H   UNL A   1      31.661  27.085  21.186  1.00  0.00     0.348 HD
ATOM     15  C   UNL A   1      33.861  25.150  22.479  1.00  0.00     0.062 C 
ATOM     16  C   UNL A   1      32.884  24.083  22.990  1.00  0.00     0.015 C 
BRANCH  11  17
ATOM     17  C   UNL A   1      31.847  28.115  22.722  1.00  0.00     0.196 C 
ATOM     18  C   UNL A   1      30.183  29.642  23.900  1.00  0.00     0.026 C 
ATOM     19  C   UNL A   1      30.795  28.238  23.839  1.00  0.00     0.101 C 
ATOM     20  S   UNL A   1      31.344  27.698  25.489  1.00  0.00    -0.153 SA
ATOM     21  C   UNL A   1      33.129  28.048  25.497  1.00  0.00     0.070 C 
ATOM     22  C   UNL A   1      33.151  28.847  23.035  1.00  0.00     0.067 C 
ATOM     23  C   UNL A   1      33.920  28.352  24.232  1.00  0.00     0.017 C 
ENDBRANCH  11  17
ENDBRANCH   9  10
ENDBRANCH   8   9
ENDBRANCH   6   8
ENDBRANCH   5   6
ENDBRANCH   4   5
ENDBRANCH   3   4
ENDBRANCH   2   3
ENDBRANCH   1   2
BRANCH   1  24
ATOM     24  C   UNL A   1      35.848  21.219  25.703  1.00  0.00     0.188 C 
BRANCH  24  25
ATOM     25  O   UNL A   1      36.274  20.071  24.973  1.00  0.00    -0.376 OA
BRANCH  25  26
ATOM     26  C   UNL A   1      37.672  20.050  24.695  1.00  0.00     0.202 C 
BRANCH  26  27
ATOM     27  C   UNL A   1      38.659  20.371  25.844  1.00  0.00     0.261 C 
BRANCH  27  28
ATOM     28  O   UNL A   1      40.021  19.977  25.609  1.00  0.00    -0.460 OA
BRANCH  28  29
ATOM     29  C   UNL A   1      40.836  20.012  26.705  1.00  0.00     0.338 C 
ATOM     30  O   UNL A   1      41.476  19.086  27.149  1.00  0.00    -0.246 OA
BRANCH  29  31
ATOM     31  C   UNL A   1      41.034  21.438  27.115  1.00  0.00     0.060 A 
ATOM     32  C   UNL A   1      40.339  22.431  26.402  1.00  0.00     0.016 A 
ATOM     33  C   UNL A   1      41.795  21.794  28.231  1.00  0.00     0.016 A 
ATOM     34  C   UNL A   1      40.421  23.774  26.786  1.00  0.00     0.010 A 
ATOM     35  C   UNL A   1      41.901  23.141  28.598  1.00  0.00     0.010 A 
ATOM     36  C   UNL A   1      41.243  24.140  27.857  1.00  0.00    -0.014 A 
BRANCH  36  37
ATOM     37  C   UNL A   1      41.647  25.561  28.023  1.00  0.00     0.031 A 
ATOM     38  C   UNL A   1      43.009  25.951  27.506  1.00  0.00     0.074 A 
ATOM     39  C   UNL A   1      40.849  26.486  28.587  1.00  0.00     0.049 A 
ATOM     40  N   UNL A   1      43.648  27.086  27.601  1.00  0.00    -0.248 NA
ATOM     41  C   UNL A   1      43.751  24.899  26.791  1.00  0.00     0.031 C 
ATOM     42  C   UNL A   1      39.486  26.257  29.063  1.00  0.00     0.029 A 
ATOM     43  N   UNL A   1      41.080  27.814  28.859  1.00  0.00    -0.354 N 
ATOM     44  C   UNL A   1      44.867  26.885  26.959  1.00  0.00     0.074 A 
ATOM     45  C   UNL A   1      44.894  25.506  26.525  1.00  0.00     0.031 C 
ATOM     46  C   UNL A   1      39.007  27.404  29.578  1.00  0.00     0.029 A 
ATOM     47  C   UNL A   1      40.039  28.438  29.509  1.00  0.00     0.049 A 
ATOM     48  H   UNL A   1      41.913  28.275  28.611  1.00  0.00     0.167 HD
ATOM     49  C   UNL A   1      45.867  27.772  26.739  1.00  0.00     0.034 A 
ATOM     50  C   UNL A   1      39.948  29.689  30.012  1.00  0.00     0.034 A 
ATOM     51  C   UNL A   1      45.837  29.138  27.196  1.00  0.00     0.049 A 
ATOM     52  C   UNL A   1      41.130  30.626  29.865  1.00  0.00     0.074 A 
ATOM     53  C   UNL A   1      46.801  30.118  27.044  1.00  0.00     0.029 A 
ATOM     54  N   UNL A   1      44.790  29.716  27.903  1.00  0.00    -0.354 N 
ATOM     55  N   UNL A   1      42.283  30.422  29.268  1.00  0.00    -0.248 NA
ATOM     56  C   UNL A   1      40.993  31.965  30.456  1.00  0.00     0.031 C 
ATOM     57  C   UNL A   1      46.372  31.262  27.725  1.00  0.00     0.029 A 
ATOM     58  C   UNL A   1      45.100  31.028  28.221  1.00  0.00     0.049 A 
ATOM     59  H   UNL A   1      43.952  29.259  28.144  1.00  0.00     0.167 HD
ATOM     60  C   UNL A   1      42.986  31.623  29.377  1.00  0.00     0.074 A 
ATOM     61  C   UNL A   1      42.123  32.545  30.082  1.00  0.00     0.031 C 
ATOM     62  C   UNL A   1      44.229  31.938  28.927  1.00  0.00     0.034 A 
BRANCH  49  63
ATOM     63  C   UNL A   1      47.092  27.263  26.021  1.00  0.00     0.023 A 
ATOM     64  C   UNL A   1      48.103  26.556  26.695  1.00  0.00     0.031 A 
ATOM     65  C   UNL A   1      47.273  27.524  24.651  1.00  0.00     0.131 A 
ATOM     66  C   UNL A   1      49.278  26.198  26.017  1.00  0.00     0.055 A 
ATOM     67  C   UNL A   1      48.406  27.089  23.961  1.00  0.00     0.041 A 
ATOM     68  F   UNL A   1      46.358  28.222  23.961  1.00  0.00    -0.206 F 
ATOM     69  C   UNL A   1      49.425  26.435  24.649  1.00  0.00     0.022 A 
BRANCH  66  70
ATOM     70  S   UNL A   1      50.675  25.560  26.982  1.00  0.00     0.124 S 
ATOM     71  O   UNL A   1      51.638  25.239  25.932  1.00  0.00    -0.237 OA
ATOM     72  O   UNL A   1      51.014  26.694  27.835  1.00  0.00    -0.237 OA
ATOM     73  O   UNL A   1      50.113  24.403  27.676  1.00  0.00    -0.744 OA
ENDBRANCH  66  70
ENDBRANCH  49  63
BRANCH  50  74
ATOM     74  C   UNL A   1      38.725  30.138  30.744  1.00  0.00     0.023 A 
ATOM     75  C   UNL A   1      37.667  30.773  30.070  1.00  0.00     0.031 A 
ATOM     76  C   UNL A   1      38.634  30.025  32.144  1.00  0.00     0.131 A 
ATOM     77  C   UNL A   1      36.600  31.324  30.798  1.00  0.00     0.055 A 
ATOM     78  C   UNL A   1      37.538  30.515  32.857  1.00  0.00     0.041 A 
ATOM     79  F   UNL A   1      39.621  29.442  32.843  1.00  0.00    -0.206 F 
ATOM     80  C   UNL A   1      36.520  31.185  32.185  1.00  0.00     0.022 A 
BRANCH  77  81
ATOM     81  S   UNL A   1      35.375  32.333  29.918  1.00  0.00     0.124 S 
ATOM     82  O   UNL A   1      34.413  32.620  30.977  1.00  0.00    -0.237 OA
ATOM     83  O   UNL A   1      36.181  33.460  29.462  1.00  0.00    -0.237 OA
ATOM     84  O   UNL A   1      34.894  31.444  28.862  1.00  0.00    -0.744 OA
ENDBRANCH  77  81
ENDBRANCH  50  74
BRANCH  62  85
ATOM     85  C   UNL A   1      44.701  33.361  29.129  1.00  0.00     0.023 A 
ATOM     86  C   UNL A   1      45.385  33.764  30.289  1.00  0.00     0.031 A 
ATOM     87  C   UNL A   1      44.456  34.331  28.139  1.00  0.00     0.131 A 
ATOM     88  C   UNL A   1      45.744  35.110  30.458  1.00  0.00     0.055 A 
ATOM     89  C   UNL A   1      44.878  35.654  28.282  1.00  0.00     0.041 A 
ATOM     90  F   UNL A   1      43.807  34.006  27.009  1.00  0.00    -0.206 F 
ATOM     91  C   UNL A   1      45.512  36.053  29.453  1.00  0.00     0.022 A 
BRANCH  88  92
ATOM     92  S   UNL A   1      46.423  35.638  32.056  1.00  0.00     0.124 S 
ATOM     93  O   UNL A   1      47.858  35.471  31.845  1.00  0.00    -0.237 OA
ATOM     94  O   UNL A   1      45.949  37.014  32.157  1.00  0.00    -0.237 OA
ATOM     95  O   UNL A   1      45.824  34.704  33.009  1.00  0.00    -0.744 OA
ENDBRANCH  88  92
ENDBRANCH  62  85
ENDBRANCH  36  37
ENDBRANCH  29  31
ENDBRANCH  28  29
ENDBRANCH  27  28
ENDBRANCH  26  27
ENDBRANCH  25  26
ENDBRANCH  24  25
ENDBRANCH   1  24
TORSDOF 23
ENDMDL
MODEL 2
REMARK VINA RESULT:     -10.3      1.694      2.287
REMARK SMILES C[C@@H]1SCCC[C@H]1[N@H+]1CCC[C@H](CCC(=O)OCCOCCOCCOC(=O)c2ccc(-c3c4nc(c(-c5cc(S(=O)(=O)[O-])ccc5F)c5ccc([nH]5)c(-c5cc(S(=O)(=O)[O-])ccc5F)c5nc(c(-c6cc(S(=O)(=O)[O-])ccc6F)c6ccc3[nH]6)C=C5)C=C4)cc2)C1
REMARK SMILES IDX 21 1 20 2 19 3 18 4 17 5 15 6 16 7 14 8 13 9 12 10 8 11 9 12
REMARK SMILES IDX 92 13 10 15 11 16 7 17 1 18 2 19 3 20 4 21 6 22 5 23 22 24
REMARK SMILES IDX 23 25 24 26 25 27 26 28 27 29 28 30 29 31 30 32 91 33 31 34
REMARK SMILES IDX 90 35 32 36 33 37 34 38 84 39 35 40 89 41 83 42 85 43 36 44
REMARK SMILES IDX 88 45 82 46 81 47 37 49 69 50 49 51 68 52 50 53 53 54 67 55
REMARK SMILES IDX 86 56 51 57 52 58 66 60 87 61 54 62 38 63 39 64 47 65 40 66
REMARK SMILES IDX 46 67 48 68 45 69 41 70 42 71 43 72 44 73 70 74 71 75 79 76
REMARK SMILES IDX 72 77 78 78 80 79 77 80 73 81 74 82 75 83 76 84 55 85 56 86
REMARK SMILES IDX 64 87 57 88 63 89 65 90 62 91 58 92 59 93 60 94 61 95
REMARK H PARENT 8 14 85 48 53 59
REMARK Flexibility Score: inf
ROOT
ATOM      1  C   UNL A   1      35.678  21.295  25.263  1.00  0.00     0.188 C 
ENDROOT
BRANCH   1   2
ATOM      2  O   UNL A   1      35.315  21.549  26.612  1.00  0.00    -0.376 OA
BRANCH   2   3
ATOM      3  C   UNL A   1      33.907  21.601  26.820  1.00  0.00     0.202 C 
BRANCH   3   4
ATOM      4  C   UNL A   1      33.139  20.567  25.975  1.00  0.00     0.261 C 
BRANCH   4   5
ATOM      5  O   UNL A   1      32.169  21.174  25.089  1.00  0.00    -0.463 OA
BRANCH   5   6
ATOM      6  C   UNL A   1      32.342  21.202  23.745  1.00  0.00     0.305 C 
ATOM      7  O   UNL A   1      32.148  20.243  23.012  1.00  0.00    -0.252 OA
BRANCH   6   8
ATOM      8  C   UNL A   1      32.794  22.590  23.247  1.00  0.00     0.123 C 
BRANCH   8   9
ATOM      9  C   UNL A   1      31.738  23.673  22.866  1.00  0.00     0.021 C 
BRANCH   9  10
ATOM     10  C   UNL A   1      31.566  24.852  23.867  1.00  0.00     0.045 C 
ATOM     11  N   UNL A   1      32.990  26.167  25.580  1.00  0.00    -0.331 N 
ATOM     12  C   UNL A   1      31.901  26.087  26.532  1.00  0.00     0.262 C 
ATOM     13  C   UNL A   1      32.898  25.167  24.530  1.00  0.00     0.265 C 
ATOM     14  H   UNL A   1      33.693  25.989  26.298  1.00  0.00     0.348 HD
ATOM     15  C   UNL A   1      30.517  25.798  25.937  1.00  0.00     0.062 C 
ATOM     16  C   UNL A   1      30.518  24.617  24.957  1.00  0.00     0.015 C 
BRANCH  11  17
ATOM     17  C   UNL A   1      33.618  27.405  25.096  1.00  0.00     0.196 C 
ATOM     18  C   UNL A   1      34.104  28.716  22.967  1.00  0.00     0.026 C 
ATOM     19  C   UNL A   1      33.042  27.974  23.787  1.00  0.00     0.101 C 
ATOM     20  S   UNL A   1      31.541  28.988  23.972  1.00  0.00    -0.153 SA
ATOM     21  C   UNL A   1      31.719  29.743  25.618  1.00  0.00     0.070 C 
ATOM     22  C   UNL A   1      33.914  28.476  26.144  1.00  0.00     0.067 C 
ATOM     23  C   UNL A   1      32.729  29.257  26.649  1.00  0.00     0.017 C 
ENDBRANCH  11  17
ENDBRANCH   9  10
ENDBRANCH   8   9
ENDBRANCH   6   8
ENDBRANCH   5   6
ENDBRANCH   4   5
ENDBRANCH   3   4
ENDBRANCH   2   3
ENDBRANCH   1   2
BRANCH   1  24
ATOM     24  C   UNL A   1      36.967  21.972  24.871  1.00  0.00     0.188 C 
BRANCH  24  25
ATOM     25  O   UNL A   1      38.156  21.351  25.354  1.00  0.00    -0.376 OA
BRANCH  25  26
ATOM     26  C   UNL A   1      38.272  19.975  25.002  1.00  0.00     0.202 C 
BRANCH  26  27
ATOM     27  C   UNL A   1      39.423  19.147  25.626  1.00  0.00     0.261 C 
BRANCH  27  28
ATOM     28  O   UNL A   1      40.031  19.727  26.792  1.00  0.00    -0.460 OA
BRANCH  28  29
ATOM     29  C   UNL A   1      41.328  20.126  26.636  1.00  0.00     0.338 C 
ATOM     30  O   UNL A   1      42.201  19.512  26.064  1.00  0.00    -0.246 OA
BRANCH  29  31
ATOM     31  C   UNL A   1      41.445  21.562  27.041  1.00  0.00     0.060 A 
ATOM     32  C   UNL A   1      40.906  22.535  26.181  1.00  0.00     0.016 A 
ATOM     33  C   UNL A   1      41.972  21.948  28.276  1.00  0.00     0.016 A 
ATOM     34  C   UNL A   1      40.913  23.887  26.539  1.00  0.00     0.010 A 
ATOM     35  C   UNL A   1      42.007  23.304  28.623  1.00  0.00     0.010 A 
ATOM     36  C   UNL A   1      41.510  24.283  27.742  1.00  0.00    -0.014 A 
BRANCH  36  37
ATOM     37  C   UNL A   1      41.875  25.709  27.948  1.00  0.00     0.031 A 
ATOM     38  C   UNL A   1      43.233  26.145  27.459  1.00  0.00     0.074 A 
ATOM     39  C   UNL A   1      41.047  26.599  28.525  1.00  0.00     0.049 A 
ATOM     40  N   UNL A   1      43.843  27.293  27.589  1.00  0.00    -0.248 NA
ATOM     41  C   UNL A   1      44.010  25.129  26.727  1.00  0.00     0.031 C 
ATOM     42  C   UNL A   1      39.685  26.324  28.977  1.00  0.00     0.029 A 
ATOM     43  N   UNL A   1      41.242  27.925  28.832  1.00  0.00    -0.354 N 
ATOM     44  C   UNL A   1      45.074  27.138  26.959  1.00  0.00     0.074 A 
ATOM     45  C   UNL A   1      45.141  25.771  26.491  1.00  0.00     0.031 C 
ATOM     46  C   UNL A   1      39.171  27.446  29.514  1.00  0.00     0.029 A 
ATOM     47  C   UNL A   1      40.178  28.507  29.484  1.00  0.00     0.049 A 
ATOM     48  H   UNL A   1      42.066  28.413  28.606  1.00  0.00     0.167 HD
ATOM     49  C   UNL A   1      46.054  28.055  26.774  1.00  0.00     0.034 A 
ATOM     50  C   UNL A   1      40.050  29.742  30.017  1.00  0.00     0.034 A 
ATOM     51  C   UNL A   1      45.984  29.407  27.263  1.00  0.00     0.049 A 
ATOM     52  C   UNL A   1      41.209  30.712  29.908  1.00  0.00     0.074 A 
ATOM     53  C   UNL A   1      46.926  30.414  27.149  1.00  0.00     0.029 A 
ATOM     54  N   UNL A   1      44.915  29.941  27.971  1.00  0.00    -0.354 N 
ATOM     55  N   UNL A   1      42.375  30.551  29.321  1.00  0.00    -0.248 NA
ATOM     56  C   UNL A   1      41.032  32.031  30.531  1.00  0.00     0.031 C 
ATOM     57  C   UNL A   1      46.460  31.530  27.852  1.00  0.00     0.029 A 
ATOM     58  C   UNL A   1      45.188  31.252  28.326  1.00  0.00     0.049 A 
ATOM     59  H   UNL A   1      44.086  29.458  28.190  1.00  0.00     0.167 HD
ATOM     60  C   UNL A   1      43.045  31.766  29.469  1.00  0.00     0.074 A 
ATOM     61  C   UNL A   1      42.151  32.648  30.185  1.00  0.00     0.031 C 
ATOM     62  C   UNL A   1      44.286  32.123  29.043  1.00  0.00     0.034 A 
BRANCH  49  63
ATOM     63  C   UNL A   1      47.301  27.594  26.059  1.00  0.00     0.023 A 
ATOM     64  C   UNL A   1      48.403  27.071  26.758  1.00  0.00     0.031 A 
ATOM     65  C   UNL A   1      47.405  27.718  24.662  1.00  0.00     0.131 A 
ATOM     66  C   UNL A   1      49.585  26.760  26.069  1.00  0.00     0.055 A 
ATOM     67  C   UNL A   1      48.554  27.325  23.972  1.00  0.00     0.041 A 
ATOM     68  F   UNL A   1      46.399  28.240  23.944  1.00  0.00    -0.206 F 
ATOM     69  C   UNL A   1      49.659  26.857  24.678  1.00  0.00     0.022 A 
BRANCH  66  70
ATOM     70  S   UNL A   1      51.073  26.377  27.033  1.00  0.00     0.124 S 
ATOM     71  O   UNL A   1      50.674  26.798  28.373  1.00  0.00    -0.237 OA
ATOM     72  O   UNL A   1      51.217  24.939  26.832  1.00  0.00    -0.237 OA
ATOM     73  O   UNL A   1      52.107  27.201  26.410  1.00  0.00    -0.744 OA
ENDBRANCH  66  70
ENDBRANCH  49  63
BRANCH  50  74
ATOM     74  C   UNL A   1      38.807  30.142  30.744  1.00  0.00     0.023 A 
ATOM     75  C   UNL A   1      37.790  30.868  30.100  1.00  0.00     0.031 A 
ATOM     76  C   UNL A   1      38.657  29.889  32.120  1.00  0.00     0.131 A 
ATOM     77  C   UNL A   1      36.705  31.366  30.839  1.00  0.00     0.055 A 
ATOM     78  C   UNL A   1      37.543  30.328  32.837  1.00  0.00     0.041 A 
ATOM     79  F   UNL A   1      39.603  29.213  32.793  1.00  0.00    -0.206 F 
ATOM     80  C   UNL A   1      36.566  31.087  32.200  1.00  0.00     0.022 A 
BRANCH  77  81
ATOM     81  S   UNL A   1      35.536  32.489  30.022  1.00  0.00     0.124 S 
ATOM     82  O   UNL A   1      36.306  33.727  29.967  1.00  0.00    -0.237 OA
ATOM     83  O   UNL A   1      35.311  31.817  28.746  1.00  0.00    -0.237 OA
ATOM     84  O   UNL A   1      34.389  32.506  30.927  1.00  0.00    -0.744 OA
ENDBRANCH  77  81
ENDBRANCH  50  74
BRANCH  62  85
ATOM     85  C   UNL A   1      44.720  33.551  29.286  1.00  0.00     0.023 A 
ATOM     86  C   UNL A   1      44.360  34.599  28.420  1.00  0.00     0.031 A 
ATOM     87  C   UNL A   1      45.511  33.865  30.406  1.00  0.00     0.131 A 
ATOM     88  C   UNL A   1      44.843  35.896  28.654  1.00  0.00     0.055 A 
ATOM     89  C   UNL A   1      45.930  35.169  30.672  1.00  0.00     0.041 A 
ATOM     90  F   UNL A   1      45.887  32.906  31.269  1.00  0.00    -0.206 F 
ATOM     91  C   UNL A   1      45.609  36.191  29.785  1.00  0.00     0.022 A 
BRANCH  88  92
ATOM     92  S   UNL A   1      44.546  37.175  27.402  1.00  0.00     0.124 S 
ATOM     93  O   UNL A   1      43.413  36.622  26.666  1.00  0.00    -0.237 OA
ATOM     94  O   UNL A   1      44.264  38.351  28.218  1.00  0.00    -0.237 OA
ATOM     95  O   UNL A   1      45.804  37.225  26.657  1.00  0.00    -0.744 OA
ENDBRANCH  88  92
ENDBRANCH  62  85
ENDBRANCH  36  37
ENDBRANCH  29  31
ENDBRANCH  28  29
ENDBRANCH  27  28
ENDBRANCH  26  27
ENDBRANCH  25  26
ENDBRANCH  24  25
ENDBRANCH   1  24
TORSDOF 23
ENDMDL
MODEL 3
REMARK VINA RESULT:     -10.2      2.879      4.019
REMARK SMILES C[C@@H]1SCCC[C@H]1[N@H+]1CCC[C@H](CCC(=O)OCCOCCOCCOC(=O)c2ccc(-c3c4nc(c(-c5cc(S(=O)(=O)[O-])ccc5F)c5ccc([nH]5)c(-c5cc(S(=O)(=O)[O-])ccc5F)c5nc(c(-c6cc(S(=O)(=O)[O-])ccc6F)c6ccc3[nH]6)C=C5)C=C4)cc2)C1
REMARK SMILES IDX 21 1 20 2 19 3 18 4 17 5 15 6 16 7 14 8 13 9 12 10 8 11 9 12
REMARK SMILES IDX 92 13 10 15 11 16 7 17 1 18 2 19 3 20 4 21 6 22 5 23 22 24
REMARK SMILES IDX 23 25 24 26 25 27 26 28 27 29 28 30 29 31 30 32 91 33 31 34
REMARK SMILES IDX 90 35 32 36 33 37 34 38 84 39 35 40 89 41 83 42 85 43 36 44
REMARK SMILES IDX 88 45 82 46 81 47 37 49 69 50 49 51 68 52 50 53 53 54 67 55
REMARK SMILES IDX 86 56 51 57 52 58 66 60 87 61 54 62 38 63 39 64 47 65 40 66
REMARK SMILES IDX 46 67 48 68 45 69 41 70 42 71 43 72 44 73 70 74 71 75 79 76
REMARK SMILES IDX 72 77 78 78 80 79 77 80 73 81 74 82 75 83 76 84 55 85 56 86
REMARK SMILES IDX 64 87 57 88 63 89 65 90 62 91 58 92 59 93 60 94 61 95
REMARK H PARENT 8 14 85 48 53 59
REMARK Flexibility Score: inf
ROOT
ATOM      1  C   UNL A   1      33.877  21.111  25.050  1.00  0.00     0.188 C 
ENDROOT
BRANCH   1   2
ATOM      2  O   UNL A   1      33.041  21.692  26.040  1.00  0.00    -0.376 OA
BRANCH   2   3
ATOM      3  C   UNL A   1      32.746  23.064  25.798  1.00  0.00     0.202 C 
BRANCH   3   4
ATOM      4  C   UNL A   1      32.555  23.380  24.302  1.00  0.00     0.261 C 
BRANCH   4   5
ATOM      5  O   UNL A   1      33.664  24.116  23.736  1.00  0.00    -0.463 OA
BRANCH   5   6
ATOM      6  C   UNL A   1      33.484  25.268  23.045  1.00  0.00     0.305 C 
ATOM      7  O   UNL A   1      33.658  25.376  21.840  1.00  0.00    -0.252 OA
BRANCH   6   8
ATOM      8  C   UNL A   1      33.017  26.423  23.954  1.00  0.00     0.123 C 
BRANCH   8   9
ATOM      9  C   UNL A   1      34.037  27.166  24.871  1.00  0.00     0.021 C 
BRANCH   9  10
ATOM     10  C   UNL A   1      33.639  28.601  25.325  1.00  0.00     0.045 C 
ATOM     11  N   UNL A   1      33.715  30.050  27.466  1.00  0.00    -0.331 N 
ATOM     12  C   UNL A   1      32.356  30.483  27.209  1.00  0.00     0.262 C 
ATOM     13  C   UNL A   1      34.058  28.822  26.770  1.00  0.00     0.265 C 
ATOM     14  H   UNL A   1      33.545  29.956  28.468  1.00  0.00     0.348 HD
ATOM     15  C   UNL A   1      31.868  30.318  25.764  1.00  0.00     0.062 C 
ATOM     16  C   UNL A   1      32.149  28.923  25.190  1.00  0.00     0.015 C 
BRANCH  11  17
ATOM     17  C   UNL A   1      34.882  30.930  27.620  1.00  0.00     0.196 C 
ATOM     18  C   UNL A   1      35.532  33.364  28.000  1.00  0.00     0.026 C 
ATOM     19  C   UNL A   1      34.652  32.197  28.464  1.00  0.00     0.101 C 
ATOM     20  S   UNL A   1      34.777  31.967  30.266  1.00  0.00    -0.153 SA
ATOM     21  C   UNL A   1      35.982  30.618  30.455  1.00  0.00     0.070 C 
ATOM     22  C   UNL A   1      36.219  30.248  27.905  1.00  0.00     0.067 C 
ATOM     23  C   UNL A   1      36.411  29.720  29.303  1.00  0.00     0.017 C 
ENDBRANCH  11  17
ENDBRANCH   9  10
ENDBRANCH   8   9
ENDBRANCH   6   8
ENDBRANCH   5   6
ENDBRANCH   4   5
ENDBRANCH   3   4
ENDBRANCH   2   3
ENDBRANCH   1   2
BRANCH   1  24
ATOM     24  C   UNL A   1      35.331  21.102  25.451  1.00  0.00     0.188 C 
BRANCH  24  25
ATOM     25  O   UNL A   1      36.078  19.968  25.017  1.00  0.00    -0.376 OA
BRANCH  25  26
ATOM     26  C   UNL A   1      37.488  20.179  24.999  1.00  0.00     0.202 C 
BRANCH  26  27
ATOM     27  C   UNL A   1      38.021  21.624  25.163  1.00  0.00     0.261 C 
BRANCH  27  28
ATOM     28  O   UNL A   1      38.534  21.943  26.467  1.00  0.00    -0.460 OA
BRANCH  28  29
ATOM     29  C   UNL A   1      39.894  21.899  26.587  1.00  0.00     0.338 C 
ATOM     30  O   UNL A   1      40.617  21.008  26.199  1.00  0.00    -0.246 OA
BRANCH  29  31
ATOM     31  C   UNL A   1      40.385  23.243  27.024  1.00  0.00     0.060 A 
ATOM     32  C   UNL A   1      39.813  24.380  26.426  1.00  0.00     0.016 A 
ATOM     33  C   UNL A   1      41.304  23.398  28.064  1.00  0.00     0.016 A 
ATOM     34  C   UNL A   1      40.173  25.664  26.847  1.00  0.00     0.010 A 
ATOM     35  C   UNL A   1      41.688  24.684  28.466  1.00  0.00     0.010 A 
ATOM     36  C   UNL A   1      41.150  25.822  27.836  1.00  0.00    -0.014 A 
BRANCH  36  37
ATOM     37  C   UNL A   1      41.817  27.139  28.009  1.00  0.00     0.031 A 
ATOM     38  C   UNL A   1      43.190  27.295  27.406  1.00  0.00     0.074 A 
ATOM     39  C   UNL A   1      41.241  28.171  28.652  1.00  0.00     0.049 A 
ATOM     40  N   UNL A   1      44.032  28.291  27.483  1.00  0.00    -0.248 NA
ATOM     41  C   UNL A   1      43.678  26.154  26.613  1.00  0.00     0.031 C 
ATOM     42  C   UNL A   1      39.894  28.174  29.218  1.00  0.00     0.029 A 
ATOM     43  N   UNL A   1      41.729  29.424  28.940  1.00  0.00    -0.354 N 
ATOM     44  C   UNL A   1      45.148  27.898  26.751  1.00  0.00     0.074 A 
ATOM     45  C   UNL A   1      44.894  26.554  26.281  1.00  0.00     0.031 C 
ATOM     46  C   UNL A   1      39.668  29.369  29.796  1.00  0.00     0.029 A 
ATOM     47  C   UNL A   1      40.865  30.201  29.679  1.00  0.00     0.049 A 
ATOM     48  H   UNL A   1      42.614  29.736  28.645  1.00  0.00     0.167 HD
ATOM     49  C   UNL A   1      46.277  28.597  26.483  1.00  0.00     0.034 A 
ATOM     50  C   UNL A   1      41.039  31.427  30.219  1.00  0.00     0.034 A 
ATOM     51  C   UNL A   1      46.528  29.927  26.975  1.00  0.00     0.049 A 
ATOM     52  C   UNL A   1      42.359  32.140  30.012  1.00  0.00     0.074 A 
ATOM     53  C   UNL A   1      47.644  30.721  26.780  1.00  0.00     0.029 A 
ATOM     54  N   UNL A   1      45.654  30.657  27.770  1.00  0.00    -0.354 N 
ATOM     55  N   UNL A   1      43.414  31.754  29.329  1.00  0.00    -0.248 NA
ATOM     56  C   UNL A   1      42.509  33.458  30.645  1.00  0.00     0.031 C 
ATOM     57  C   UNL A   1      47.477  31.897  27.518  1.00  0.00     0.029 A 
ATOM     58  C   UNL A   1      46.219  31.879  28.099  1.00  0.00     0.049 A 
ATOM     59  H   UNL A   1      44.764  30.351  28.059  1.00  0.00     0.167 HD
ATOM     60  C   UNL A   1      44.330  32.803  29.417  1.00  0.00     0.074 A 
ATOM     61  C   UNL A   1      43.700  33.838  30.206  1.00  0.00     0.031 C 
ATOM     62  C   UNL A   1      45.578  32.904  28.888  1.00  0.00     0.034 A 
BRANCH  49  63
ATOM     63  C   UNL A   1      47.339  27.902  25.666  1.00  0.00     0.023 A 
ATOM     64  C   UNL A   1      47.533  28.197  24.304  1.00  0.00     0.031 A 
ATOM     65  C   UNL A   1      48.140  26.903  26.244  1.00  0.00     0.131 A 
ATOM     66  C   UNL A   1      48.452  27.450  23.551  1.00  0.00     0.055 A 
ATOM     67  C   UNL A   1      49.114  26.223  25.510  1.00  0.00     0.041 A 
ATOM     68  F   UNL A   1      47.980  26.556  27.530  1.00  0.00    -0.206 F 
ATOM     69  C   UNL A   1      49.263  26.485  24.151  1.00  0.00     0.022 A 
BRANCH  66  70
ATOM     70  S   UNL A   1      48.459  27.651  21.749  1.00  0.00     0.124 S 
ATOM     71  O   UNL A   1      49.586  28.560  21.557  1.00  0.00    -0.237 OA
ATOM     72  O   UNL A   1      48.655  26.284  21.280  1.00  0.00    -0.237 OA
ATOM     73  O   UNL A   1      47.148  28.227  21.461  1.00  0.00    -0.744 OA
ENDBRANCH  66  70
ENDBRANCH  49  63
BRANCH  50  74
ATOM     74  C   UNL A   1      39.969  32.062  31.048  1.00  0.00     0.023 A 
ATOM     75  C   UNL A   1      39.773  31.690  32.390  1.00  0.00     0.031 A 
ATOM     76  C   UNL A   1      39.064  32.981  30.486  1.00  0.00     0.131 A 
ATOM     77  C   UNL A   1      38.668  32.184  33.102  1.00  0.00     0.055 A 
ATOM     78  C   UNL A   1      38.005  33.521  31.219  1.00  0.00     0.041 A 
ATOM     79  F   UNL A   1      39.191  33.361  29.205  1.00  0.00    -0.206 F 
ATOM     80  C   UNL A   1      37.792  33.109  32.531  1.00  0.00     0.022 A 
BRANCH  77  81
ATOM     81  S   UNL A   1      38.319  31.506  34.749  1.00  0.00     0.124 S 
ATOM     82  O   UNL A   1      37.028  32.114  35.052  1.00  0.00    -0.237 OA
ATOM     83  O   UNL A   1      38.308  30.070  34.490  1.00  0.00    -0.237 OA
ATOM     84  O   UNL A   1      39.439  31.983  35.559  1.00  0.00    -0.744 OA
ENDBRANCH  77  81
ENDBRANCH  50  74
BRANCH  62  85
ATOM     85  C   UNL A   1      46.315  34.209  29.092  1.00  0.00     0.023 A 
ATOM     86  C   UNL A   1      46.261  35.253  28.151  1.00  0.00     0.031 A 
ATOM     87  C   UNL A   1      47.089  34.406  30.250  1.00  0.00     0.131 A 
ATOM     88  C   UNL A   1      47.015  36.418  28.355  1.00  0.00     0.055 A 
ATOM     89  C   UNL A   1      47.781  35.596  30.481  1.00  0.00     0.041 A 
ATOM     90  F   UNL A   1      47.180  33.445  31.184  1.00  0.00    -0.206 F 
ATOM     91  C   UNL A   1      47.759  36.604  29.524  1.00  0.00     0.022 A 
BRANCH  88  92
ATOM     92  S   UNL A   1      47.099  37.648  27.024  1.00  0.00     0.124 S 
ATOM     93  O   UNL A   1      48.399  38.267  27.264  1.00  0.00    -0.237 OA
ATOM     94  O   UNL A   1      46.998  36.819  25.827  1.00  0.00    -0.237 OA
ATOM     95  O   UNL A   1      45.946  38.509  27.279  1.00  0.00    -0.744 OA
ENDBRANCH  88  92
ENDBRANCH  62  85
ENDBRANCH  36  37
ENDBRANCH  29  31
ENDBRANCH  28  29
ENDBRANCH  27  28
ENDBRANCH  26  27
ENDBRANCH  25  26
ENDBRANCH  24  25
ENDBRANCH   1  24
TORSDOF 23
ENDMDL
