MODEL 1
REMARK VINA RESULT:     -10.6      0.000      0.000
REMARK SMILES O=C(OCCOCCOCCOC(=O)[C@@H]1[C@@H](C(=O)NCc2ccccc2Br)[C@H]2C=C[C@@H]1O2)c1ccc(-c2c3nc(c(-c4cc(S(=O)(=O)[O-])ccc4F)c4ccc([nH]4)c(-c4cc(S(=O)(=O)[O-])ccc4F)c4nc(c(-c5cc(S(=O)(=O)[O-])ccc5F)c5ccc2[nH]5)C=C4)C=C3)cc1
REMARK SMILES IDX 7 1 6 2 5 3 4 4 3 5 2 6 1 7 33 8 34 9 95 10 35 11 94 12
REMARK SMILES IDX 36 13 37 14 38 15 88 16 39 17 93 18 87 19 89 20 40 21 92 22
REMARK SMILES IDX 86 23 85 24 41 26 73 27 53 28 72 29 54 30 57 31 71 32 90 33
REMARK SMILES IDX 55 34 56 35 70 37 91 38 58 39 42 40 43 41 51 42 44 43 50 44
REMARK SMILES IDX 52 45 49 46 45 47 46 48 47 49 48 50 74 51 75 52 83 53 76 54
REMARK SMILES IDX 82 55 84 56 81 57 77 58 78 59 79 60 80 61 59 62 60 63 68 64
REMARK SMILES IDX 61 65 67 66 69 67 66 68 62 69 63 70 64 71 65 72 8 73 9 74
REMARK SMILES IDX 10 75 11 76 12 77 13 78 14 79 15 80 16 81 31 82 28 83 30 84
REMARK SMILES IDX 32 85 29 86 17 87 18 88 19 89 20 91 21 92 22 93 26 94 23 95
REMARK SMILES IDX 25 96 27 97 24 98
REMARK H PARENT 89 25 57 36 19 90
REMARK Flexibility Score: inf
ROOT
ATOM      1  C   UNL A   1      31.161  29.090  24.656  1.00  0.00     0.188 C 
ENDROOT
BRANCH   1   2
ATOM      2  O   UNL A   1      31.364  28.354  25.866  1.00  0.00    -0.376 OA
BRANCH   2   3
ATOM      3  C   UNL A   1      32.510  28.791  26.609  1.00  0.00     0.202 C 
BRANCH   3   4
ATOM      4  C   UNL A   1      33.106  30.142  26.179  1.00  0.00     0.261 C 
BRANCH   4   5
ATOM      5  O   UNL A   1      32.956  31.176  27.166  1.00  0.00    -0.460 OA
BRANCH   5   6
ATOM      6  C   UNL A   1      33.907  31.765  27.935  1.00  0.00     0.338 C 
ATOM      7  O   UNL A   1      33.677  32.902  28.351  1.00  0.00    -0.246 OA
BRANCH   6   8
ATOM      8  C   UNL A   1      35.228  31.145  28.290  1.00  0.00     0.060 A 
ATOM      9  C   UNL A   1      35.417  29.850  28.768  1.00  0.00     0.016 A 
ATOM     10  C   UNL A   1      36.380  31.936  28.097  1.00  0.00     0.016 A 
ATOM     11  C   UNL A   1      36.669  29.383  29.142  1.00  0.00     0.010 A 
ATOM     12  C   UNL A   1      37.655  31.456  28.425  1.00  0.00     0.010 A 
ATOM     13  C   UNL A   1      37.794  30.184  28.987  1.00  0.00    -0.014 A 
BRANCH  13  14
ATOM     14  C   UNL A   1      39.058  29.698  29.574  1.00  0.00     0.031 A 
ATOM     15  C   UNL A   1      39.517  30.308  30.856  1.00  0.00     0.074 A 
ATOM     16  C   UNL A   1      39.661  28.598  29.088  1.00  0.00     0.049 A 
ATOM     17  N   UNL A   1      40.536  29.981  31.597  1.00  0.00    -0.248 NA
ATOM     18  C   UNL A   1      38.672  31.378  31.412  1.00  0.00     0.031 C 
ATOM     19  C   UNL A   1      39.134  27.802  27.991  1.00  0.00     0.029 A 
ATOM     20  N   UNL A   1      40.806  27.939  29.441  1.00  0.00    -0.354 N 
ATOM     21  C   UNL A   1      40.421  30.755  32.742  1.00  0.00     0.074 A 
ATOM     22  C   UNL A   1      39.280  31.626  32.559  1.00  0.00     0.031 C 
ATOM     23  C   UNL A   1      39.984  26.809  27.699  1.00  0.00     0.029 A 
ATOM     24  C   UNL A   1      41.125  26.907  28.586  1.00  0.00     0.049 A 
ATOM     25  H   UNL A   1      41.349  28.178  30.228  1.00  0.00     0.167 HD
ATOM     26  C   UNL A   1      41.185  30.703  33.856  1.00  0.00     0.034 A 
ATOM     27  C   UNL A   1      42.226  26.137  28.512  1.00  0.00     0.034 A 
ATOM     28  C   UNL A   1      42.350  29.864  33.963  1.00  0.00     0.049 A 
ATOM     29  C   UNL A   1      43.216  26.287  29.627  1.00  0.00     0.074 A 
ATOM     30  C   UNL A   1      43.292  29.813  34.974  1.00  0.00     0.029 A 
ATOM     31  N   UNL A   1      42.745  28.931  33.005  1.00  0.00    -0.354 N 
ATOM     32  N   UNL A   1      43.145  27.077  30.676  1.00  0.00    -0.248 NA
ATOM     33  C   UNL A   1      44.396  25.422  29.592  1.00  0.00     0.031 C 
ATOM     34  C   UNL A   1      44.288  28.905  34.594  1.00  0.00     0.029 A 
ATOM     35  C   UNL A   1      43.932  28.327  33.384  1.00  0.00     0.049 A 
ATOM     36  H   UNL A   1      42.250  28.732  32.176  1.00  0.00     0.167 HD
ATOM     37  C   UNL A   1      44.246  26.766  31.457  1.00  0.00     0.074 A 
ATOM     38  C   UNL A   1      44.958  25.712  30.756  1.00  0.00     0.031 C 
ATOM     39  C   UNL A   1      44.626  27.293  32.650  1.00  0.00     0.034 A 
BRANCH  26  40
ATOM     40  C   UNL A   1      40.803  31.645  34.966  1.00  0.00     0.023 A 
ATOM     41  C   UNL A   1      39.800  31.312  35.898  1.00  0.00     0.031 A 
ATOM     42  C   UNL A   1      41.355  32.935  35.020  1.00  0.00     0.131 A 
ATOM     43  C   UNL A   1      39.325  32.286  36.789  1.00  0.00     0.055 A 
ATOM     44  C   UNL A   1      40.933  33.873  35.963  1.00  0.00     0.041 A 
ATOM     45  F   UNL A   1      42.283  33.318  34.130  1.00  0.00    -0.206 F 
ATOM     46  C   UNL A   1      39.902  33.558  36.843  1.00  0.00     0.022 A 
BRANCH  43  47
ATOM     47  S   UNL A   1      37.837  31.924  37.763  1.00  0.00     0.124 S 
ATOM     48  O   UNL A   1      38.321  32.127  39.127  1.00  0.00    -0.237 OA
ATOM     49  O   UNL A   1      36.884  32.912  37.272  1.00  0.00    -0.237 OA
ATOM     50  O   UNL A   1      37.531  30.537  37.419  1.00  0.00    -0.744 OA
ENDBRANCH  43  47
ENDBRANCH  26  40
BRANCH  27  51
ATOM     51  C   UNL A   1      42.453  25.226  27.351  1.00  0.00     0.023 A 
ATOM     52  C   UNL A   1      41.961  23.913  27.321  1.00  0.00     0.031 A 
ATOM     53  C   UNL A   1      43.237  25.653  26.259  1.00  0.00     0.131 A 
ATOM     54  C   UNL A   1      42.303  23.057  26.258  1.00  0.00     0.055 A 
ATOM     55  C   UNL A   1      43.534  24.817  25.181  1.00  0.00     0.041 A 
ATOM     56  F   UNL A   1      43.738  26.898  26.227  1.00  0.00    -0.206 F 
ATOM     57  C   UNL A   1      43.080  23.503  25.185  1.00  0.00     0.022 A 
BRANCH  54  58
ATOM     58  S   UNL A   1      41.812  21.312  26.347  1.00  0.00     0.124 S 
ATOM     59  O   UNL A   1      40.474  21.346  25.767  1.00  0.00    -0.237 OA
ATOM     60  O   UNL A   1      42.844  20.668  25.542  1.00  0.00    -0.237 OA
ATOM     61  O   UNL A   1      41.863  21.016  27.777  1.00  0.00    -0.744 OA
ENDBRANCH  54  58
ENDBRANCH  27  51
BRANCH  39  62
ATOM     62  C   UNL A   1      45.856  26.688  33.268  1.00  0.00     0.023 A 
ATOM     63  C   UNL A   1      45.774  25.567  34.108  1.00  0.00     0.031 A 
ATOM     64  C   UNL A   1      47.115  27.274  33.054  1.00  0.00     0.131 A 
ATOM     65  C   UNL A   1      46.920  25.115  34.774  1.00  0.00     0.055 A 
ATOM     66  C   UNL A   1      48.266  26.770  33.657  1.00  0.00     0.041 A 
ATOM     67  F   UNL A   1      47.243  28.352  32.264  1.00  0.00    -0.206 F 
ATOM     68  C   UNL A   1      48.169  25.695  34.537  1.00  0.00     0.022 A 
BRANCH  65  69
ATOM     69  S   UNL A   1      46.727  23.847  36.052  1.00  0.00     0.124 S 
ATOM     70  O   UNL A   1      45.619  24.380  36.840  1.00  0.00    -0.237 OA
ATOM     71  O   UNL A   1      46.434  22.652  35.266  1.00  0.00    -0.237 OA
ATOM     72  O   UNL A   1      48.023  23.841  36.726  1.00  0.00    -0.744 OA
ENDBRANCH  65  69
ENDBRANCH  39  62
ENDBRANCH  13  14
ENDBRANCH   6   8
ENDBRANCH   5   6
ENDBRANCH   4   5
ENDBRANCH   3   4
ENDBRANCH   2   3
ENDBRANCH   1   2
BRANCH   1  73
ATOM     73  C   UNL A   1      30.627  28.244  23.500  1.00  0.00     0.188 C 
BRANCH  73  74
ATOM     74  O   UNL A   1      29.849  27.093  23.815  1.00  0.00    -0.376 OA
BRANCH  74  75
ATOM     75  C   UNL A   1      30.377  25.813  23.491  1.00  0.00     0.202 C 
BRANCH  75  76
ATOM     76  C   UNL A   1      31.800  25.696  22.921  1.00  0.00     0.261 C 
BRANCH  76  77
ATOM     77  O   UNL A   1      32.860  25.712  23.883  1.00  0.00    -0.463 OA
BRANCH  77  78
ATOM     78  C   UNL A   1      32.647  24.894  24.941  1.00  0.00     0.312 C 
ATOM     79  O   UNL A   1      31.841  25.156  25.824  1.00  0.00    -0.252 OA
BRANCH  78  80
ATOM     80  C   UNL A   1      33.425  23.606  24.949  1.00  0.00     0.147 C 
ATOM     81  C   UNL A   1      34.144  23.472  26.329  1.00  0.00     0.128 C 
ATOM     82  C   UNL A   1      34.598  23.664  23.976  1.00  0.00     0.157 C 
ATOM     83  C   UNL A   1      35.619  23.419  25.885  1.00  0.00     0.155 C 
ATOM     84  C   UNL A   1      35.303  22.344  23.902  1.00  0.00     0.004 C 
ATOM     85  O   UNL A   1      35.540  24.398  24.809  1.00  0.00    -0.365 OA
ATOM     86  C   UNL A   1      35.958  22.213  25.061  1.00  0.00     0.004 C 
BRANCH  81  87
ATOM     87  C   UNL A   1      33.727  22.275  27.162  1.00  0.00     0.227 C 
ATOM     88  O   UNL A   1      34.110  22.097  28.319  1.00  0.00    -0.275 OA
ATOM     89  N   UNL A   1      32.869  21.340  26.675  1.00  0.00    -0.352 N 
ATOM     90  H   UNL A   1      32.658  20.625  27.319  1.00  0.00     0.163 HD
BRANCH  89  91
ATOM     91  C   UNL A   1      32.200  21.184  25.389  1.00  0.00     0.152 C 
BRANCH  91  92
ATOM     92  C   UNL A   1      32.470  19.841  24.738  1.00  0.00    -0.015 A 
ATOM     93  C   UNL A   1      32.686  18.696  25.535  1.00  0.00     0.007 A 
ATOM     94  C   UNL A   1      32.455  19.655  23.342  1.00  0.00     0.022 A 
ATOM     95  C   UNL A   1      32.952  17.447  24.970  1.00  0.00     0.000 A 
ATOM     96  C   UNL A   1      32.783  18.414  22.777  1.00  0.00     0.016 A 
ATOM     97  Br  UNL A   1      31.896  21.008  22.121  1.00  0.00    -0.050 Br
ATOM     98  C   UNL A   1      33.033  17.312  23.590  1.00  0.00     0.001 A 
ENDBRANCH  91  92
ENDBRANCH  89  91
ENDBRANCH  81  87
ENDBRANCH  78  80
ENDBRANCH  77  78
ENDBRANCH  76  77
ENDBRANCH  75  76
ENDBRANCH  74  75
ENDBRANCH  73  74
ENDBRANCH   1  73
TORSDOF 23
ENDMDL
MODEL 2
REMARK VINA RESULT:     -10.5      0.976      7.358
REMARK SMILES O=C(OCCOCCOCCOC(=O)[C@@H]1[C@@H](C(=O)NCc2ccccc2Br)[C@H]2C=C[C@@H]1O2)c1ccc(-c2c3nc(c(-c4cc(S(=O)(=O)[O-])ccc4F)c4ccc([nH]4)c(-c4cc(S(=O)(=O)[O-])ccc4F)c4nc(c(-c5cc(S(=O)(=O)[O-])ccc5F)c5ccc2[nH]5)C=C4)C=C3)cc1
REMARK SMILES IDX 7 1 6 2 5 3 4 4 3 5 2 6 1 7 33 8 34 9 95 10 35 11 94 12
REMARK SMILES IDX 36 13 37 14 38 15 88 16 39 17 93 18 87 19 89 20 40 21 92 22
REMARK SMILES IDX 86 23 85 24 41 26 73 27 53 28 72 29 54 30 57 31 71 32 90 33
REMARK SMILES IDX 55 34 56 35 70 37 91 38 58 39 42 40 43 41 51 42 44 43 50 44
REMARK SMILES IDX 52 45 49 46 45 47 46 48 47 49 48 50 74 51 75 52 83 53 76 54
REMARK SMILES IDX 82 55 84 56 81 57 77 58 78 59 79 60 80 61 59 62 60 63 68 64
REMARK SMILES IDX 61 65 67 66 69 67 66 68 62 69 63 70 64 71 65 72 8 73 9 74
REMARK SMILES IDX 10 75 11 76 12 77 13 78 14 79 15 80 16 81 31 82 28 83 30 84
REMARK SMILES IDX 32 85 29 86 17 87 18 88 19 89 20 91 21 92 22 93 26 94 23 95
REMARK SMILES IDX 25 96 27 97 24 98
REMARK H PARENT 89 25 57 36 19 90
REMARK Flexibility Score: inf
ROOT
ATOM      1  C   UNL A   1      31.373  28.837  24.047  1.00  0.00     0.188 C 
ENDROOT
BRANCH   1   2
ATOM      2  O   UNL A   1      30.634  30.049  24.233  1.00  0.00    -0.376 OA
BRANCH   2   3
ATOM      3  C   UNL A   1      31.027  30.775  25.405  1.00  0.00     0.202 C 
BRANCH   3   4
ATOM      4  C   UNL A   1      32.378  30.371  26.017  1.00  0.00     0.261 C 
BRANCH   4   5
ATOM      5  O   UNL A   1      32.694  31.075  27.229  1.00  0.00    -0.460 OA
BRANCH   5   6
ATOM      6  C   UNL A   1      33.814  31.775  27.541  1.00  0.00     0.338 C 
ATOM      7  O   UNL A   1      33.798  32.991  27.344  1.00  0.00    -0.246 OA
BRANCH   6   8
ATOM      8  C   UNL A   1      35.079  31.172  28.083  1.00  0.00     0.060 A 
ATOM      9  C   UNL A   1      35.241  29.848  28.488  1.00  0.00     0.016 A 
ATOM     10  C   UNL A   1      36.207  32.014  28.163  1.00  0.00     0.016 A 
ATOM     11  C   UNL A   1      36.426  29.394  29.046  1.00  0.00     0.010 A 
ATOM     12  C   UNL A   1      37.425  31.551  28.681  1.00  0.00     0.010 A 
ATOM     13  C   UNL A   1      37.522  30.241  29.160  1.00  0.00    -0.014 A 
BRANCH  13  14
ATOM     14  C   UNL A   1      38.682  29.750  29.929  1.00  0.00     0.031 A 
ATOM     15  C   UNL A   1      39.533  28.690  29.314  1.00  0.00     0.074 A 
ATOM     16  C   UNL A   1      39.084  30.386  31.044  1.00  0.00     0.049 A 
ATOM     17  N   UNL A   1      40.644  28.176  29.757  1.00  0.00    -0.248 NA
ATOM     18  C   UNL A   1      39.114  28.198  27.992  1.00  0.00     0.031 C 
ATOM     19  C   UNL A   1      38.449  31.585  31.568  1.00  0.00     0.029 A 
ATOM     20  N   UNL A   1      40.109  30.157  31.920  1.00  0.00    -0.354 N 
ATOM     21  C   UNL A   1      41.097  27.350  28.740  1.00  0.00     0.074 A 
ATOM     22  C   UNL A   1      40.099  27.369  27.693  1.00  0.00     0.031 C 
ATOM     23  C   UNL A   1      39.036  31.948  32.716  1.00  0.00     0.029 A 
ATOM     24  C   UNL A   1      40.086  30.996  33.013  1.00  0.00     0.049 A 
ATOM     25  H   UNL A   1      40.794  29.463  31.784  1.00  0.00     0.167 HD
ATOM     26  C   UNL A   1      42.267  26.674  28.683  1.00  0.00     0.034 A 
ATOM     27  C   UNL A   1      40.818  30.986  34.142  1.00  0.00     0.034 A 
ATOM     28  C   UNL A   1      43.200  26.636  29.780  1.00  0.00     0.049 A 
ATOM     29  C   UNL A   1      41.966  30.022  34.179  1.00  0.00     0.074 A 
ATOM     30  C   UNL A   1      44.351  25.883  29.912  1.00  0.00     0.029 A 
ATOM     31  N   UNL A   1      43.073  27.379  30.952  1.00  0.00    -0.354 N 
ATOM     32  N   UNL A   1      42.353  29.183  33.244  1.00  0.00    -0.248 NA
ATOM     33  C   UNL A   1      42.806  30.032  35.377  1.00  0.00     0.031 C 
ATOM     34  C   UNL A   1      44.879  26.117  31.188  1.00  0.00     0.029 A 
ATOM     35  C   UNL A   1      44.105  27.076  31.825  1.00  0.00     0.049 A 
ATOM     36  H   UNL A   1      42.352  28.026  31.134  1.00  0.00     0.167 HD
ATOM     37  C   UNL A   1      43.516  28.600  33.718  1.00  0.00     0.074 A 
ATOM     38  C   UNL A   1      43.766  29.192  35.021  1.00  0.00     0.031 C 
ATOM     39  C   UNL A   1      44.312  27.671  33.127  1.00  0.00     0.034 A 
BRANCH  26  40
ATOM     40  C   UNL A   1      42.512  25.878  27.429  1.00  0.00     0.023 A 
ATOM     41  C   UNL A   1      42.083  24.541  27.313  1.00  0.00     0.031 A 
ATOM     42  C   UNL A   1      43.289  26.416  26.391  1.00  0.00     0.131 A 
ATOM     43  C   UNL A   1      42.503  23.766  26.222  1.00  0.00     0.055 A 
ATOM     44  C   UNL A   1      43.636  25.662  25.270  1.00  0.00     0.041 A 
ATOM     45  F   UNL A   1      43.760  27.670  26.471  1.00  0.00    -0.206 F 
ATOM     46  C   UNL A   1      43.257  24.325  25.187  1.00  0.00     0.022 A 
BRANCH  43  47
ATOM     47  S   UNL A   1      42.190  21.978  26.251  1.00  0.00     0.124 S 
ATOM     48  O   UNL A   1      42.586  21.631  27.613  1.00  0.00    -0.237 OA
ATOM     49  O   UNL A   1      40.763  21.899  25.962  1.00  0.00    -0.237 OA
ATOM     50  O   UNL A   1      43.068  21.459  25.203  1.00  0.00    -0.744 OA
ENDBRANCH  43  47
ENDBRANCH  26  40
BRANCH  27  51
ATOM     51  C   UNL A   1      40.463  31.859  35.300  1.00  0.00     0.023 A 
ATOM     52  C   UNL A   1      39.462  31.514  36.220  1.00  0.00     0.031 A 
ATOM     53  C   UNL A   1      41.097  33.108  35.464  1.00  0.00     0.131 A 
ATOM     54  C   UNL A   1      39.084  32.426  37.222  1.00  0.00     0.055 A 
ATOM     55  C   UNL A   1      40.754  33.990  36.491  1.00  0.00     0.041 A 
ATOM     56  F   UNL A   1      42.064  33.497  34.617  1.00  0.00    -0.206 F 
ATOM     57  C   UNL A   1      39.728  33.657  37.368  1.00  0.00     0.022 A 
BRANCH  54  58
ATOM     58  S   UNL A   1      37.657  32.029  38.272  1.00  0.00     0.124 S 
ATOM     59  O   UNL A   1      37.369  30.654  37.881  1.00  0.00    -0.237 OA
ATOM     60  O   UNL A   1      38.208  32.213  39.610  1.00  0.00    -0.237 OA
ATOM     61  O   UNL A   1      36.654  33.014  37.871  1.00  0.00    -0.744 OA
ENDBRANCH  54  58
ENDBRANCH  27  51
BRANCH  39  62
ATOM     62  C   UNL A   1      45.546  27.285  33.895  1.00  0.00     0.023 A 
ATOM     63  C   UNL A   1      45.535  26.215  34.802  1.00  0.00     0.031 A 
ATOM     64  C   UNL A   1      46.728  28.031  33.753  1.00  0.00     0.131 A 
ATOM     65  C   UNL A   1      46.660  25.970  35.599  1.00  0.00     0.055 A 
ATOM     66  C   UNL A   1      47.872  27.732  34.491  1.00  0.00     0.041 A 
ATOM     67  F   UNL A   1      46.786  29.068  32.902  1.00  0.00    -0.206 F 
ATOM     68  C   UNL A   1      47.836  26.708  35.434  1.00  0.00     0.022 A 
BRANCH  65  69
ATOM     69  S   UNL A   1      46.516  24.764  36.942  1.00  0.00     0.124 S 
ATOM     70  O   UNL A   1      45.111  24.895  37.314  1.00  0.00    -0.237 OA
ATOM     71  O   UNL A   1      46.888  23.516  36.283  1.00  0.00    -0.237 OA
ATOM     72  O   UNL A   1      47.471  25.247  37.938  1.00  0.00    -0.744 OA
ENDBRANCH  65  69
ENDBRANCH  39  62
ENDBRANCH  13  14
ENDBRANCH   6   8
ENDBRANCH   5   6
ENDBRANCH   4   5
ENDBRANCH   3   4
ENDBRANCH   2   3
ENDBRANCH   1   2
BRANCH   1  73
ATOM     73  C   UNL A   1      30.566  27.717  23.390  1.00  0.00     0.188 C 
BRANCH  73  74
ATOM     74  O   UNL A   1      30.200  26.596  24.189  1.00  0.00    -0.376 OA
BRANCH  74  75
ATOM     75  C   UNL A   1      30.122  25.320  23.566  1.00  0.00     0.202 C 
BRANCH  75  76
ATOM     76  C   UNL A   1      31.340  24.763  22.812  1.00  0.00     0.261 C 
BRANCH  76  77
ATOM     77  O   UNL A   1      31.725  23.426  23.149  1.00  0.00    -0.463 OA
BRANCH  77  78
ATOM     78  C   UNL A   1      33.012  23.137  22.842  1.00  0.00     0.312 C 
ATOM     79  O   UNL A   1      33.449  23.210  21.702  1.00  0.00    -0.252 OA
BRANCH  78  80
ATOM     80  C   UNL A   1      33.900  22.765  23.999  1.00  0.00     0.147 C 
ATOM     81  C   UNL A   1      33.227  23.262  25.318  1.00  0.00     0.128 C 
ATOM     82  C   UNL A   1      35.199  23.563  23.976  1.00  0.00     0.157 C 
ATOM     83  C   UNL A   1      34.306  24.227  25.848  1.00  0.00     0.155 C 
ATOM     84  C   UNL A   1      36.129  23.112  25.061  1.00  0.00     0.004 C 
ATOM     85  O   UNL A   1      34.711  24.798  24.571  1.00  0.00    -0.365 OA
ATOM     86  C   UNL A   1      35.596  23.552  26.207  1.00  0.00     0.004 C 
BRANCH  81  87
ATOM     87  C   UNL A   1      32.861  22.174  26.308  1.00  0.00     0.227 C 
ATOM     88  O   UNL A   1      32.868  22.346  27.527  1.00  0.00    -0.275 OA
ATOM     89  N   UNL A   1      32.468  20.941  25.889  1.00  0.00    -0.352 N 
ATOM     90  H   UNL A   1      32.235  20.330  26.625  1.00  0.00     0.163 HD
BRANCH  89  91
ATOM     91  C   UNL A   1      32.323  20.345  24.567  1.00  0.00     0.152 C 
BRANCH  91  92
ATOM     92  C   UNL A   1      32.678  18.869  24.539  1.00  0.00    -0.015 A 
ATOM     93  C   UNL A   1      32.880  18.166  25.746  1.00  0.00     0.007 A 
ATOM     94  C   UNL A   1      32.756  18.127  23.345  1.00  0.00     0.022 A 
ATOM     95  C   UNL A   1      33.221  16.812  25.758  1.00  0.00     0.000 A 
ATOM     96  C   UNL A   1      33.158  16.784  23.356  1.00  0.00     0.016 A 
ATOM     97  Br  UNL A   1      32.230  18.828  21.652  1.00  0.00    -0.050 Br
ATOM     98  C   UNL A   1      33.393  16.127  24.562  1.00  0.00     0.001 A 
ENDBRANCH  91  92
ENDBRANCH  89  91
ENDBRANCH  81  87
ENDBRANCH  78  80
ENDBRANCH  77  78
ENDBRANCH  76  77
ENDBRANCH  75  76
ENDBRANCH  74  75
ENDBRANCH  73  74
ENDBRANCH   1  73
TORSDOF 23
ENDMDL
MODEL 3
REMARK VINA RESULT:     -10.3      6.466     10.016
REMARK SMILES O=C(OCCOCCOCCOC(=O)[C@@H]1[C@@H](C(=O)NCc2ccccc2Br)[C@H]2C=C[C@@H]1O2)c1ccc(-c2c3nc(c(-c4cc(S(=O)(=O)[O-])ccc4F)c4ccc([nH]4)c(-c4cc(S(=O)(=O)[O-])ccc4F)c4nc(c(-c5cc(S(=O)(=O)[O-])ccc5F)c5ccc2[nH]5)C=C4)C=C3)cc1
REMARK SMILES IDX 7 1 6 2 5 3 4 4 3 5 2 6 1 7 33 8 34 9 95 10 35 11 94 12
REMARK SMILES IDX 36 13 37 14 38 15 88 16 39 17 93 18 87 19 89 20 40 21 92 22
REMARK SMILES IDX 86 23 85 24 41 26 73 27 53 28 72 29 54 30 57 31 71 32 90 33
REMARK SMILES IDX 55 34 56 35 70 37 91 38 58 39 42 40 43 41 51 42 44 43 50 44
REMARK SMILES IDX 52 45 49 46 45 47 46 48 47 49 48 50 74 51 75 52 83 53 76 54
REMARK SMILES IDX 82 55 84 56 81 57 77 58 78 59 79 60 80 61 59 62 60 63 68 64
REMARK SMILES IDX 61 65 67 66 69 67 66 68 62 69 63 70 64 71 65 72 8 73 9 74
REMARK SMILES IDX 10 75 11 76 12 77 13 78 14 79 15 80 16 81 31 82 28 83 30 84
REMARK SMILES IDX 32 85 29 86 17 87 18 88 19 89 20 91 21 92 22 93 26 94 23 95
REMARK SMILES IDX 25 96 27 97 24 98
REMARK H PARENT 89 25 57 36 19 90
REMARK Flexibility Score: inf
ROOT
ATOM      1  C   UNL A   1      41.703  21.574  26.256  1.00  0.00     0.188 C 
ENDROOT
BRANCH   1   2
ATOM      2  O   UNL A   1      41.683  20.265  25.678  1.00  0.00    -0.376 OA
BRANCH   2   3
ATOM      3  C   UNL A   1      42.388  19.291  26.460  1.00  0.00     0.202 C 
BRANCH   3   4
ATOM      4  C   UNL A   1      43.429  18.454  25.699  1.00  0.00     0.261 C 
BRANCH   4   5
ATOM      5  O   UNL A   1      43.942  19.103  24.525  1.00  0.00    -0.460 OA
BRANCH   5   6
ATOM      6  C   UNL A   1      45.059  19.861  24.388  1.00  0.00     0.338 C 
ATOM      7  O   UNL A   1      46.078  19.304  23.977  1.00  0.00    -0.246 OA
BRANCH   6   8
ATOM      8  C   UNL A   1      45.150  21.322  24.729  1.00  0.00     0.060 A 
ATOM      9  C   UNL A   1      44.959  22.378  23.841  1.00  0.00     0.016 A 
ATOM     10  C   UNL A   1      45.429  21.650  26.072  1.00  0.00     0.016 A 
ATOM     11  C   UNL A   1      45.136  23.699  24.226  1.00  0.00     0.010 A 
ATOM     12  C   UNL A   1      45.562  22.984  26.482  1.00  0.00     0.010 A 
ATOM     13  C   UNL A   1      45.452  24.013  25.543  1.00  0.00    -0.014 A 
BRANCH  13  14
ATOM     14  C   UNL A   1      45.807  25.414  25.840  1.00  0.00     0.031 A 
ATOM     15  C   UNL A   1      44.713  26.346  26.237  1.00  0.00     0.074 A 
ATOM     16  C   UNL A   1      47.095  25.784  25.958  1.00  0.00     0.049 A 
ATOM     17  N   UNL A   1      44.798  27.585  26.630  1.00  0.00    -0.248 NA
ATOM     18  C   UNL A   1      43.352  25.785  26.267  1.00  0.00     0.031 C 
ATOM     19  C   UNL A   1      48.217  24.867  25.830  1.00  0.00     0.029 A 
ATOM     20  N   UNL A   1      47.691  26.984  26.232  1.00  0.00    -0.354 N 
ATOM     21  C   UNL A   1      43.514  27.935  27.020  1.00  0.00     0.074 A 
ATOM     22  C   UNL A   1      42.656  26.805  26.739  1.00  0.00     0.031 C 
ATOM     23  C   UNL A   1      49.371  25.540  25.941  1.00  0.00     0.029 A 
ATOM     24  C   UNL A   1      49.066  26.942  26.140  1.00  0.00     0.049 A 
ATOM     25  H   UNL A   1      47.189  27.797  26.472  1.00  0.00     0.167 HD
ATOM     26  C   UNL A   1      43.112  29.089  27.599  1.00  0.00     0.034 A 
ATOM     27  C   UNL A   1      49.978  27.929  26.188  1.00  0.00     0.034 A 
ATOM     28  C   UNL A   1      43.993  30.210  27.799  1.00  0.00     0.049 A 
ATOM     29  C   UNL A   1      49.468  29.286  26.569  1.00  0.00     0.074 A 
ATOM     30  C   UNL A   1      43.690  31.483  28.243  1.00  0.00     0.029 A 
ATOM     31  N   UNL A   1      45.364  30.193  27.546  1.00  0.00    -0.354 N 
ATOM     32  N   UNL A   1      48.237  29.637  26.866  1.00  0.00    -0.248 NA
ATOM     33  C   UNL A   1      50.454  30.362  26.677  1.00  0.00     0.031 C 
ATOM     34  C   UNL A   1      44.859  32.252  28.191  1.00  0.00     0.029 A 
ATOM     35  C   UNL A   1      45.912  31.441  27.791  1.00  0.00     0.049 A 
ATOM     36  H   UNL A   1      45.870  29.407  27.236  1.00  0.00     0.167 HD
ATOM     37  C   UNL A   1      48.306  30.966  27.250  1.00  0.00     0.074 A 
ATOM     38  C   UNL A   1      49.704  31.346  27.151  1.00  0.00     0.031 C 
ATOM     39  C   UNL A   1      47.309  31.792  27.661  1.00  0.00     0.034 A 
BRANCH  26  40
ATOM     40  C   UNL A   1      41.651  29.179  27.951  1.00  0.00     0.023 A 
ATOM     41  C   UNL A   1      41.208  29.050  29.283  1.00  0.00     0.031 A 
ATOM     42  C   UNL A   1      40.683  29.268  26.939  1.00  0.00     0.131 A 
ATOM     43  C   UNL A   1      39.837  28.932  29.553  1.00  0.00     0.055 A 
ATOM     44  C   UNL A   1      39.318  29.231  27.224  1.00  0.00     0.041 A 
ATOM     45  F   UNL A   1      41.050  29.350  25.650  1.00  0.00    -0.206 F 
ATOM     46  C   UNL A   1      38.888  29.046  28.535  1.00  0.00     0.022 A 
BRANCH  43  47
ATOM     47  S   UNL A   1      39.316  28.467  31.229  1.00  0.00     0.124 S 
ATOM     48  O   UNL A   1      38.397  29.552  31.564  1.00  0.00    -0.237 OA
ATOM     49  O   UNL A   1      38.709  27.157  31.023  1.00  0.00    -0.237 OA
ATOM     50  O   UNL A   1      40.566  28.463  31.988  1.00  0.00    -0.744 OA
ENDBRANCH  43  47
ENDBRANCH  26  40
BRANCH  27  51
ATOM     51  C   UNL A   1      51.407  27.676  25.832  1.00  0.00     0.023 A 
ATOM     52  C   UNL A   1      51.865  27.702  24.507  1.00  0.00     0.031 A 
ATOM     53  C   UNL A   1      52.336  27.338  26.838  1.00  0.00     0.131 A 
ATOM     54  C   UNL A   1      53.193  27.340  24.215  1.00  0.00     0.055 A 
ATOM     55  C   UNL A   1      53.667  27.029  26.550  1.00  0.00     0.041 A 
ATOM     56  F   UNL A   1      51.960  27.296  28.126  1.00  0.00    -0.206 F 
ATOM     57  C   UNL A   1      54.098  27.011  25.228  1.00  0.00     0.022 A 
BRANCH  54  58
ATOM     58  S   UNL A   1      53.699  27.196  22.478  1.00  0.00     0.124 S 
ATOM     59  O   UNL A   1      55.094  26.790  22.603  1.00  0.00    -0.237 OA
ATOM     60  O   UNL A   1      52.777  26.181  21.980  1.00  0.00    -0.237 OA
ATOM     61  O   UNL A   1      53.487  28.542  21.948  1.00  0.00    -0.744 OA
ENDBRANCH  54  58
ENDBRANCH  27  51
BRANCH  39  62
ATOM     62  C   UNL A   1      47.733  33.177  28.064  1.00  0.00     0.023 A 
ATOM     63  C   UNL A   1      47.890  34.197  27.114  1.00  0.00     0.031 A 
ATOM     64  C   UNL A   1      48.033  33.460  29.407  1.00  0.00     0.131 A 
ATOM     65  C   UNL A   1      48.417  35.434  27.506  1.00  0.00     0.055 A 
ATOM     66  C   UNL A   1      48.481  34.719  29.805  1.00  0.00     0.041 A 
ATOM     67  F   UNL A   1      47.905  32.515  30.352  1.00  0.00    -0.206 F 
ATOM     68  C   UNL A   1      48.693  35.708  28.848  1.00  0.00     0.022 A 
BRANCH  65  69
ATOM     69  S   UNL A   1      48.860  36.627  26.217  1.00  0.00     0.124 S 
ATOM     70  O   UNL A   1      50.157  37.107  26.686  1.00  0.00    -0.237 OA
ATOM     71  O   UNL A   1      48.884  35.796  25.017  1.00  0.00    -0.237 OA
ATOM     72  O   UNL A   1      47.777  37.606  26.272  1.00  0.00    -0.744 OA
ENDBRANCH  65  69
ENDBRANCH  39  62
ENDBRANCH  13  14
ENDBRANCH   6   8
ENDBRANCH   5   6
ENDBRANCH   4   5
ENDBRANCH   3   4
ENDBRANCH   2   3
ENDBRANCH   1   2
BRANCH   1  73
ATOM     73  C   UNL A   1      40.368  22.002  26.865  1.00  0.00     0.188 C 
BRANCH  73  74
ATOM     74  O   UNL A   1      39.279  22.257  25.983  1.00  0.00    -0.376 OA
BRANCH  74  75
ATOM     75  C   UNL A   1      38.369  23.297  26.317  1.00  0.00     0.202 C 
BRANCH  75  76
ATOM     76  C   UNL A   1      37.248  23.676  25.335  1.00  0.00     0.261 C 
BRANCH  76  77
ATOM     77  O   UNL A   1      35.916  23.369  25.761  1.00  0.00    -0.463 OA
BRANCH  77  78
ATOM     78  C   UNL A   1      34.970  24.155  25.194  1.00  0.00     0.312 C 
ATOM     79  O   UNL A   1      34.789  25.316  25.534  1.00  0.00    -0.252 OA
BRANCH  78  80
ATOM     80  C   UNL A   1      34.177  23.533  24.076  1.00  0.00     0.147 C 
ATOM     81  C   UNL A   1      32.792  24.250  23.995  1.00  0.00     0.128 C 
ATOM     82  C   UNL A   1      33.782  22.099  24.411  1.00  0.00     0.157 C 
ATOM     83  C   UNL A   1      31.837  23.067  24.246  1.00  0.00     0.155 C 
ATOM     84  C   UNL A   1      33.092  21.446  23.253  1.00  0.00     0.004 C 
ATOM     85  O   UNL A   1      32.630  22.378  25.256  1.00  0.00    -0.365 OA
ATOM     86  C   UNL A   1      31.884  22.016  23.176  1.00  0.00     0.004 C 
BRANCH  81  87
ATOM     87  C   UNL A   1      32.515  24.976  22.694  1.00  0.00     0.227 C 
ATOM     88  O   UNL A   1      33.196  24.819  21.680  1.00  0.00    -0.275 OA
ATOM     89  N   UNL A   1      31.461  25.827  22.569  1.00  0.00    -0.352 N 
ATOM     90  H   UNL A   1      31.374  26.219  21.670  1.00  0.00     0.163 HD
BRANCH  89  91
ATOM     91  C   UNL A   1      30.436  26.276  23.503  1.00  0.00     0.152 C 
BRANCH  91  92
ATOM     92  C   UNL A   1      30.919  27.377  24.430  1.00  0.00    -0.015 A 
ATOM     93  C   UNL A   1      31.504  27.053  25.673  1.00  0.00     0.007 A 
ATOM     94  C   UNL A   1      30.871  28.741  24.081  1.00  0.00     0.022 A 
ATOM     95  C   UNL A   1      31.945  28.041  26.556  1.00  0.00     0.000 A 
ATOM     96  C   UNL A   1      31.258  29.732  24.994  1.00  0.00     0.016 A 
ATOM     97  Br  UNL A   1      30.392  29.350  22.339  1.00  0.00    -0.050 Br
ATOM     98  C   UNL A   1      31.792  29.382  26.232  1.00  0.00     0.001 A 
ENDBRANCH  91  92
ENDBRANCH  89  91
ENDBRANCH  81  87
ENDBRANCH  78  80
ENDBRANCH  77  78
ENDBRANCH  76  77
ENDBRANCH  75  76
ENDBRANCH  74  75
ENDBRANCH  73  74
ENDBRANCH   1  73
TORSDOF 23
ENDMDL
