MODEL 1
REMARK VINA RESULT:     -10.8      0.000      0.000
REMARK SMILES COc1ccc(-n2nc(C(=O)OCCOCCOCCOC(=O)c3ccc(-c4c5nc(c(-c6cc(S(=O)(=O)[O-])ccc6F)c6ccc([nH]6)c(-c6cc(S(=O)(=O)[O-])ccc6F)c6nc(c(-c7cc(S(=O)(=O)[O-])ccc7F)c7ccc4[nH]7)C=C6)C=C5)cc3)c(=O)cc2C)cc1
REMARK SMILES IDX 17 1 16 2 15 3 14 4 13 5 12 6 10 7 11 8 9 9 7 10 8 11 90 12
REMARK SMILES IDX 89 13 91 14 87 15 88 16 6 17 3 18 4 19 93 20 5 21 92 22 2 23
REMARK SMILES IDX 1 24 18 25 19 26 20 27 21 28 22 29 23 30 24 31 25 32 86 33
REMARK SMILES IDX 26 34 85 35 27 36 28 37 29 38 79 39 30 40 84 41 78 42 80 43
REMARK SMILES IDX 31 44 83 45 77 46 76 47 32 49 64 50 44 51 63 52 45 53 48 54
REMARK SMILES IDX 62 55 81 56 46 57 47 58 61 60 82 61 49 62 33 63 34 64 42 65
REMARK SMILES IDX 35 66 41 67 43 68 40 69 36 70 37 71 38 72 39 73 65 74 66 75
REMARK SMILES IDX 74 76 67 77 73 78 75 79 72 80 68 81 69 82 70 83 71 84 50 85
REMARK SMILES IDX 51 86 59 87 52 88 58 89 60 90 57 91 53 92 54 93 55 94 56 95
REMARK H PARENT 80 48 48 59
REMARK Flexibility Score: inf
ROOT
ATOM      1  C   UNL A   1      31.389  27.815  26.711  1.00  0.00     0.188 C 
ENDROOT
BRANCH   1   2
ATOM      2  C   UNL A   1      31.212  26.340  26.286  1.00  0.00     0.188 C 
BRANCH   2   3
ATOM      3  O   UNL A   1      30.096  25.967  25.478  1.00  0.00    -0.376 OA
BRANCH   3   4
ATOM      4  C   UNL A   1      30.202  26.046  24.061  1.00  0.00     0.202 C 
BRANCH   4   5
ATOM      5  C   UNL A   1      30.956  24.924  23.338  1.00  0.00     0.261 C 
BRANCH   5   6
ATOM      6  O   UNL A   1      31.455  25.335  22.058  1.00  0.00    -0.458 OA
BRANCH   6   7
ATOM      7  C   UNL A   1      32.799  25.391  21.937  1.00  0.00     0.363 C 
ATOM      8  O   UNL A   1      33.447  25.855  21.027  1.00  0.00    -0.244 OA
BRANCH   7   9
ATOM      9  C   UNL A   1      33.444  24.823  23.187  1.00  0.00     0.216 A 
ATOM     10  N   UNL A   1      34.001  22.994  24.462  1.00  0.00    -0.237 N 
ATOM     11  N   UNL A   1      33.505  23.524  23.294  1.00  0.00    -0.156 NA
ATOM     12  C   UNL A   1      34.455  23.766  25.537  1.00  0.00     0.044 A 
ATOM     13  C   UNL A   1      34.494  25.106  25.476  1.00  0.00     0.078 A 
ATOM     14  C   UNL A   1      34.940  23.106  26.807  1.00  0.00     0.067 C 
ATOM     15  C   UNL A   1      33.976  25.732  24.255  1.00  0.00     0.215 A 
ATOM     16  O   UNL A   1      33.963  26.945  24.111  1.00  0.00    -0.287 OA
BRANCH  10  17
ATOM     17  C   UNL A   1      33.920  21.572  24.512  1.00  0.00     0.065 A 
ATOM     18  C   UNL A   1      33.773  18.758  24.537  1.00  0.00     0.119 A 
ATOM     19  C   UNL A   1      32.636  19.522  24.270  1.00  0.00     0.048 A 
ATOM     20  C   UNL A   1      34.987  19.394  24.783  1.00  0.00     0.048 A 
ATOM     21  C   UNL A   1      32.703  20.919  24.278  1.00  0.00     0.032 A 
ATOM     22  C   UNL A   1      35.059  20.794  24.769  1.00  0.00     0.032 A 
BRANCH  18  23
ATOM     23  O   UNL A   1      33.609  17.403  24.462  1.00  0.00    -0.497 OA
ATOM     24  C   UNL A   1      33.799  16.836  23.165  1.00  0.00     0.278 C 
ENDBRANCH  18  23
ENDBRANCH  10  17
ENDBRANCH   7   9
ENDBRANCH   6   7
ENDBRANCH   5   6
ENDBRANCH   4   5
ENDBRANCH   3   4
ENDBRANCH   2   3
ENDBRANCH   1   2
BRANCH   1  25
ATOM     25  O   UNL A   1      31.391  28.736  25.631  1.00  0.00    -0.376 OA
BRANCH  25  26
ATOM     26  C   UNL A   1      32.417  29.718  25.652  1.00  0.00     0.202 C 
BRANCH  26  27
ATOM     27  C   UNL A   1      32.016  31.118  26.143  1.00  0.00     0.261 C 
BRANCH  27  28
ATOM     28  O   UNL A   1      32.446  31.469  27.468  1.00  0.00    -0.460 OA
BRANCH  28  29
ATOM     29  C   UNL A   1      33.291  32.521  27.572  1.00  0.00     0.338 C 
ATOM     30  O   UNL A   1      32.995  33.699  27.481  1.00  0.00    -0.246 OA
BRANCH  29  31
ATOM     31  C   UNL A   1      34.610  32.014  28.013  1.00  0.00     0.060 A 
ATOM     32  C   UNL A   1      34.724  30.663  28.365  1.00  0.00     0.016 A 
ATOM     33  C   UNL A   1      35.718  32.862  28.102  1.00  0.00     0.016 A 
ATOM     34  C   UNL A   1      35.934  30.170  28.853  1.00  0.00     0.010 A 
ATOM     35  C   UNL A   1      36.927  32.368  28.606  1.00  0.00     0.010 A 
ATOM     36  C   UNL A   1      37.030  31.028  29.020  1.00  0.00    -0.014 A 
BRANCH  36  37
ATOM     37  C   UNL A   1      38.175  30.579  29.855  1.00  0.00     0.031 A 
ATOM     38  C   UNL A   1      39.142  29.593  29.251  1.00  0.00     0.074 A 
ATOM     39  C   UNL A   1      38.396  31.072  31.087  1.00  0.00     0.049 A 
ATOM     40  N   UNL A   1      40.214  29.050  29.767  1.00  0.00    -0.248 NA
ATOM     41  C   UNL A   1      38.855  29.169  27.872  1.00  0.00     0.031 C 
ATOM     42  C   UNL A   1      37.573  32.076  31.759  1.00  0.00     0.029 A 
ATOM     43  N   UNL A   1      39.392  30.796  31.991  1.00  0.00    -0.354 N 
ATOM     44  C   UNL A   1      40.732  28.223  28.776  1.00  0.00     0.074 A 
ATOM     45  C   UNL A   1      39.832  28.306  27.646  1.00  0.00     0.031 C 
ATOM     46  C   UNL A   1      38.097  32.329  32.972  1.00  0.00     0.029 A 
ATOM     47  C   UNL A   1      39.271  31.480  33.178  1.00  0.00     0.049 A 
ATOM     48  H   UNL A   1      40.126  30.166  31.806  1.00  0.00     0.167 HD
ATOM     49  C   UNL A   1      41.860  27.471  28.798  1.00  0.00     0.034 A 
ATOM     50  C   UNL A   1      40.011  31.411  34.304  1.00  0.00     0.034 A 
ATOM     51  C   UNL A   1      42.738  27.377  29.938  1.00  0.00     0.049 A 
ATOM     52  C   UNL A   1      41.210  30.489  34.345  1.00  0.00     0.074 A 
ATOM     53  C   UNL A   1      43.894  26.629  30.076  1.00  0.00     0.029 A 
ATOM     54  N   UNL A   1      42.550  28.042  31.143  1.00  0.00    -0.354 N 
ATOM     55  N   UNL A   1      41.685  29.704  33.404  1.00  0.00    -0.248 NA
ATOM     56  C   UNL A   1      41.977  30.454  35.598  1.00  0.00     0.031 C 
ATOM     57  C   UNL A   1      44.366  26.787  31.384  1.00  0.00     0.029 A 
ATOM     58  C   UNL A   1      43.553  27.700  32.037  1.00  0.00     0.049 A 
ATOM     59  H   UNL A   1      41.813  28.666  31.334  1.00  0.00     0.167 HD
ATOM     60  C   UNL A   1      42.830  29.118  33.942  1.00  0.00     0.074 A 
ATOM     61  C   UNL A   1      42.977  29.644  35.282  1.00  0.00     0.031 C 
ATOM     62  C   UNL A   1      43.689  28.231  33.374  1.00  0.00     0.034 A 
BRANCH  49  63
ATOM     63  C   UNL A   1      42.161  26.647  27.569  1.00  0.00     0.023 A 
ATOM     64  C   UNL A   1      41.750  25.306  27.457  1.00  0.00     0.031 A 
ATOM     65  C   UNL A   1      42.913  27.196  26.517  1.00  0.00     0.131 A 
ATOM     66  C   UNL A   1      42.158  24.540  26.355  1.00  0.00     0.055 A 
ATOM     67  C   UNL A   1      43.246  26.451  25.384  1.00  0.00     0.041 A 
ATOM     68  F   UNL A   1      43.357  28.461  26.580  1.00  0.00    -0.206 F 
ATOM     69  C   UNL A   1      42.882  25.111  25.305  1.00  0.00     0.022 A 
BRANCH  66  70
ATOM     70  S   UNL A   1      41.860  22.751  26.383  1.00  0.00     0.124 S 
ATOM     71  O   UNL A   1      42.504  22.324  25.142  1.00  0.00    -0.237 OA
ATOM     72  O   UNL A   1      42.519  22.341  27.618  1.00  0.00    -0.237 OA
ATOM     73  O   UNL A   1      40.402  22.646  26.388  1.00  0.00    -0.744 OA
ENDBRANCH  66  70
ENDBRANCH  49  63
BRANCH  50  74
ATOM     74  C   UNL A   1      39.632  32.202  35.511  1.00  0.00     0.023 A 
ATOM     75  C   UNL A   1      38.834  31.649  36.525  1.00  0.00     0.031 A 
ATOM     76  C   UNL A   1      40.002  33.555  35.630  1.00  0.00     0.131 A 
ATOM     77  C   UNL A   1      38.389  32.454  37.586  1.00  0.00     0.055 A 
ATOM     78  C   UNL A   1      39.599  34.338  36.714  1.00  0.00     0.041 A 
ATOM     79  F   UNL A   1      40.761  34.137  34.689  1.00  0.00    -0.206 F 
ATOM     80  C   UNL A   1      38.774  33.792  37.693  1.00  0.00     0.022 A 
BRANCH  77  81
ATOM     81  S   UNL A   1      37.233  31.742  38.787  1.00  0.00     0.124 S 
ATOM     82  O   UNL A   1      37.022  30.406  38.242  1.00  0.00    -0.237 OA
ATOM     83  O   UNL A   1      38.005  31.817  40.024  1.00  0.00    -0.237 OA
ATOM     84  O   UNL A   1      36.077  32.634  38.720  1.00  0.00    -0.744 OA
ENDBRANCH  77  81
ENDBRANCH  50  74
BRANCH  62  85
ATOM     85  C   UNL A   1      44.901  27.825  34.180  1.00  0.00     0.023 A 
ATOM     86  C   UNL A   1      44.893  26.709  35.034  1.00  0.00     0.031 A 
ATOM     87  C   UNL A   1      46.086  28.580  34.094  1.00  0.00     0.131 A 
ATOM     88  C   UNL A   1      46.024  26.413  35.812  1.00  0.00     0.055 A 
ATOM     89  C   UNL A   1      47.229  28.243  34.820  1.00  0.00     0.041 A 
ATOM     90  F   UNL A   1      46.154  29.657  33.295  1.00  0.00    -0.206 F 
ATOM     91  C   UNL A   1      47.197  27.163  35.696  1.00  0.00     0.022 A 
BRANCH  88  92
ATOM     92  S   UNL A   1      45.912  25.094  37.052  1.00  0.00     0.124 S 
ATOM     93  O   UNL A   1      44.468  24.952  37.214  1.00  0.00    -0.237 OA
ATOM     94  O   UNL A   1      46.591  23.985  36.390  1.00  0.00    -0.237 OA
ATOM     95  O   UNL A   1      46.614  25.649  38.208  1.00  0.00    -0.744 OA
ENDBRANCH  88  92
ENDBRANCH  62  85
ENDBRANCH  36  37
ENDBRANCH  29  31
ENDBRANCH  28  29
ENDBRANCH  27  28
ENDBRANCH  26  27
ENDBRANCH  25  26
ENDBRANCH   1  25
TORSDOF 22
ENDMDL
MODEL 2
REMARK VINA RESULT:     -10.0      6.257     10.150
REMARK SMILES COc1ccc(-n2nc(C(=O)OCCOCCOCCOC(=O)c3ccc(-c4c5nc(c(-c6cc(S(=O)(=O)[O-])ccc6F)c6ccc([nH]6)c(-c6cc(S(=O)(=O)[O-])ccc6F)c6nc(c(-c7cc(S(=O)(=O)[O-])ccc7F)c7ccc4[nH]7)C=C6)C=C5)cc3)c(=O)cc2C)cc1
REMARK SMILES IDX 17 1 16 2 15 3 14 4 13 5 12 6 10 7 11 8 9 9 7 10 8 11 90 12
REMARK SMILES IDX 89 13 91 14 87 15 88 16 6 17 3 18 4 19 93 20 5 21 92 22 2 23
REMARK SMILES IDX 1 24 18 25 19 26 20 27 21 28 22 29 23 30 24 31 25 32 86 33
REMARK SMILES IDX 26 34 85 35 27 36 28 37 29 38 79 39 30 40 84 41 78 42 80 43
REMARK SMILES IDX 31 44 83 45 77 46 76 47 32 49 64 50 44 51 63 52 45 53 48 54
REMARK SMILES IDX 62 55 81 56 46 57 47 58 61 60 82 61 49 62 33 63 34 64 42 65
REMARK SMILES IDX 35 66 41 67 43 68 40 69 36 70 37 71 38 72 39 73 65 74 66 75
REMARK SMILES IDX 74 76 67 77 73 78 75 79 72 80 68 81 69 82 70 83 71 84 50 85
REMARK SMILES IDX 51 86 59 87 52 88 58 89 60 90 57 91 53 92 54 93 55 94 56 95
REMARK H PARENT 80 48 48 59
REMARK Flexibility Score: inf
ROOT
ATOM      1  C   UNL A   1      41.846  21.762  27.350  1.00  0.00     0.188 C 
ENDROOT
BRANCH   1   2
ATOM      2  C   UNL A   1      41.048  22.326  26.152  1.00  0.00     0.188 C 
BRANCH   2   3
ATOM      3  O   UNL A   1      39.624  22.243  26.151  1.00  0.00    -0.376 OA
BRANCH   3   4
ATOM      4  C   UNL A   1      38.856  23.392  26.489  1.00  0.00     0.202 C 
BRANCH   4   5
ATOM      5  C   UNL A   1      37.638  23.719  25.617  1.00  0.00     0.261 C 
BRANCH   5   6
ATOM      6  O   UNL A   1      37.145  22.572  24.912  1.00  0.00    -0.458 OA
BRANCH   6   7
ATOM      7  C   UNL A   1      36.374  22.827  23.833  1.00  0.00     0.363 C 
ATOM      8  O   UNL A   1      36.730  23.047  22.698  1.00  0.00    -0.244 OA
BRANCH   7   9
ATOM      9  C   UNL A   1      34.912  22.738  24.224  1.00  0.00     0.216 A 
ATOM     10  N   UNL A   1      32.872  23.767  24.482  1.00  0.00    -0.237 N 
ATOM     11  N   UNL A   1      34.177  23.801  24.046  1.00  0.00    -0.156 NA
ATOM     12  C   UNL A   1      32.285  22.654  25.095  1.00  0.00     0.044 A 
ATOM     13  C   UNL A   1      32.952  21.499  25.246  1.00  0.00     0.078 A 
ATOM     14  C   UNL A   1      30.859  22.713  25.591  1.00  0.00     0.067 C 
ATOM     15  C   UNL A   1      34.348  21.473  24.802  1.00  0.00     0.215 A 
ATOM     16  O   UNL A   1      35.038  20.470  24.906  1.00  0.00    -0.287 OA
BRANCH  10  17
ATOM     17  C   UNL A   1      32.199  25.014  24.336  1.00  0.00     0.065 A 
ATOM     18  C   UNL A   1      30.926  27.508  24.015  1.00  0.00     0.119 A 
ATOM     19  C   UNL A   1      31.690  27.247  25.153  1.00  0.00     0.048 A 
ATOM     20  C   UNL A   1      30.802  26.530  23.030  1.00  0.00     0.048 A 
ATOM     21  C   UNL A   1      32.305  26.002  25.324  1.00  0.00     0.032 A 
ATOM     22  C   UNL A   1      31.436  25.290  23.190  1.00  0.00     0.032 A 
BRANCH  18  23
ATOM     23  O   UNL A   1      30.405  28.768  23.925  1.00  0.00    -0.497 OA
ATOM     24  C   UNL A   1      29.998  29.169  22.616  1.00  0.00     0.278 C 
ENDBRANCH  18  23
ENDBRANCH  10  17
ENDBRANCH   7   9
ENDBRANCH   6   7
ENDBRANCH   5   6
ENDBRANCH   4   5
ENDBRANCH   3   4
ENDBRANCH   2   3
ENDBRANCH   1   2
BRANCH   1  25
ATOM     25  O   UNL A   1      41.466  20.450  27.735  1.00  0.00    -0.376 OA
BRANCH  25  26
ATOM     26  C   UNL A   1      41.353  19.500  26.684  1.00  0.00     0.202 C 
BRANCH  26  27
ATOM     27  C   UNL A   1      42.667  19.047  26.027  1.00  0.00     0.261 C 
BRANCH  27  28
ATOM     28  O   UNL A   1      43.007  19.690  24.788  1.00  0.00    -0.460 OA
BRANCH  28  29
ATOM     29  C   UNL A   1      44.322  19.744  24.474  1.00  0.00     0.338 C 
ATOM     30  O   UNL A   1      44.960  18.889  23.886  1.00  0.00    -0.246 OA
BRANCH  29  31
ATOM     31  C   UNL A   1      44.819  21.101  24.788  1.00  0.00     0.060 A 
ATOM     32  C   UNL A   1      45.342  21.344  26.065  1.00  0.00     0.016 A 
ATOM     33  C   UNL A   1      44.750  22.133  23.846  1.00  0.00     0.016 A 
ATOM     34  C   UNL A   1      45.752  22.630  26.417  1.00  0.00     0.010 A 
ATOM     35  C   UNL A   1      45.148  23.426  24.208  1.00  0.00     0.010 A 
ATOM     36  C   UNL A   1      45.615  23.688  25.508  1.00  0.00    -0.014 A 
BRANCH  36  37
ATOM     37  C   UNL A   1      45.721  25.084  26.008  1.00  0.00     0.031 A 
ATOM     38  C   UNL A   1      47.087  25.720  26.035  1.00  0.00     0.074 A 
ATOM     39  C   UNL A   1      44.638  25.797  26.368  1.00  0.00     0.049 A 
ATOM     40  N   UNL A   1      47.444  26.917  26.422  1.00  0.00    -0.248 NA
ATOM     41  C   UNL A   1      48.198  24.886  25.552  1.00  0.00     0.031 C 
ATOM     42  C   UNL A   1      43.257  25.319  26.328  1.00  0.00     0.029 A 
ATOM     43  N   UNL A   1      44.534  27.084  26.833  1.00  0.00    -0.354 N 
ATOM     44  C   UNL A   1      48.820  26.982  26.227  1.00  0.00     0.074 A 
ATOM     45  C   UNL A   1      49.235  25.688  25.727  1.00  0.00     0.031 C 
ATOM     46  C   UNL A   1      42.444  26.301  26.755  1.00  0.00     0.029 A 
ATOM     47  C   UNL A   1      43.247  27.465  27.133  1.00  0.00     0.049 A 
ATOM     48  H   UNL A   1      45.310  27.681  26.942  1.00  0.00     0.167 HD
ATOM     49  C   UNL A   1      49.662  28.024  26.434  1.00  0.00     0.034 A 
ATOM     50  C   UNL A   1      42.778  28.610  27.669  1.00  0.00     0.034 A 
ATOM     51  C   UNL A   1      49.242  29.301  26.955  1.00  0.00     0.049 A 
ATOM     52  C   UNL A   1      43.748  29.728  27.988  1.00  0.00     0.074 A 
ATOM     53  C   UNL A   1      50.013  30.419  27.223  1.00  0.00     0.029 A 
ATOM     54  N   UNL A   1      47.937  29.629  27.299  1.00  0.00    -0.354 N 
ATOM     55  N   UNL A   1      45.048  29.774  27.807  1.00  0.00    -0.248 NA
ATOM     56  C   UNL A   1      43.181  30.952  28.572  1.00  0.00     0.031 C 
ATOM     57  C   UNL A   1      49.190  31.395  27.795  1.00  0.00     0.029 A 
ATOM     58  C   UNL A   1      47.888  30.919  27.804  1.00  0.00     0.049 A 
ATOM     59  H   UNL A   1      47.161  29.032  27.200  1.00  0.00     0.167 HD
ATOM     60  C   UNL A   1      45.444  31.047  28.217  1.00  0.00     0.074 A 
ATOM     61  C   UNL A   1      44.246  31.737  28.645  1.00  0.00     0.031 C 
ATOM     62  C   UNL A   1      46.685  31.598  28.229  1.00  0.00     0.034 A 
BRANCH  49  63
ATOM     63  C   UNL A   1      51.127  27.791  26.153  1.00  0.00     0.023 A 
ATOM     64  C   UNL A   1      51.666  27.933  24.861  1.00  0.00     0.031 A 
ATOM     65  C   UNL A   1      51.986  27.370  27.182  1.00  0.00     0.131 A 
ATOM     66  C   UNL A   1      53.003  27.585  24.620  1.00  0.00     0.055 A 
ATOM     67  C   UNL A   1      53.337  27.105  26.951  1.00  0.00     0.041 A 
ATOM     68  F   UNL A   1      51.523  27.190  28.429  1.00  0.00    -0.206 F 
ATOM     69  C   UNL A   1      53.850  27.196  25.661  1.00  0.00     0.022 A 
BRANCH  66  70
ATOM     70  S   UNL A   1      53.582  27.501  22.902  1.00  0.00     0.124 S 
ATOM     71  O   UNL A   1      53.433  26.077  22.609  1.00  0.00    -0.237 OA
ATOM     72  O   UNL A   1      52.659  28.396  22.214  1.00  0.00    -0.237 OA
ATOM     73  O   UNL A   1      54.964  27.972  22.983  1.00  0.00    -0.744 OA
ENDBRANCH  66  70
ENDBRANCH  49  63
BRANCH  50  74
ATOM     74  C   UNL A   1      41.327  28.765  27.984  1.00  0.00     0.023 A 
ATOM     75  C   UNL A   1      40.836  28.551  29.281  1.00  0.00     0.031 A 
ATOM     76  C   UNL A   1      40.398  29.054  26.968  1.00  0.00     0.131 A 
ATOM     77  C   UNL A   1      39.453  28.579  29.521  1.00  0.00     0.055 A 
ATOM     78  C   UNL A   1      39.026  29.130  27.222  1.00  0.00     0.041 A 
ATOM     79  F   UNL A   1      40.811  29.262  25.708  1.00  0.00    -0.206 F 
ATOM     80  C   UNL A   1      38.545  28.877  28.502  1.00  0.00     0.022 A 
BRANCH  77  81
ATOM     81  S   UNL A   1      38.852  28.143  31.175  1.00  0.00     0.124 S 
ATOM     82  O   UNL A   1      37.697  29.023  31.314  1.00  0.00    -0.237 OA
ATOM     83  O   UNL A   1      38.560  26.720  31.020  1.00  0.00    -0.237 OA
ATOM     84  O   UNL A   1      39.985  28.455  32.044  1.00  0.00    -0.744 OA
ENDBRANCH  77  81
ENDBRANCH  50  74
BRANCH  62  85
ATOM     85  C   UNL A   1      46.798  33.043  28.659  1.00  0.00     0.023 A 
ATOM     86  C   UNL A   1      46.768  34.103  27.737  1.00  0.00     0.031 A 
ATOM     87  C   UNL A   1      46.947  33.360  30.022  1.00  0.00     0.131 A 
ATOM     88  C   UNL A   1      46.943  35.424  28.181  1.00  0.00     0.055 A 
ATOM     89  C   UNL A   1      47.057  34.678  30.465  1.00  0.00     0.041 A 
ATOM     90  F   UNL A   1      46.984  32.389  30.950  1.00  0.00    -0.206 F 
ATOM     91  C   UNL A   1      47.070  35.718  29.541  1.00  0.00     0.022 A 
BRANCH  88  92
ATOM     92  S   UNL A   1      47.104  36.746  26.950  1.00  0.00     0.124 S 
ATOM     93  O   UNL A   1      46.522  37.887  27.650  1.00  0.00    -0.237 OA
ATOM     94  O   UNL A   1      48.546  36.798  26.735  1.00  0.00    -0.237 OA
ATOM     95  O   UNL A   1      46.326  36.253  25.814  1.00  0.00    -0.744 OA
ENDBRANCH  88  92
ENDBRANCH  62  85
ENDBRANCH  36  37
ENDBRANCH  29  31
ENDBRANCH  28  29
ENDBRANCH  27  28
ENDBRANCH  26  27
ENDBRANCH  25  26
ENDBRANCH   1  25
TORSDOF 22
ENDMDL
MODEL 3
REMARK VINA RESULT:      -9.8      3.133      8.452
REMARK SMILES COc1ccc(-n2nc(C(=O)OCCOCCOCCOC(=O)c3ccc(-c4c5nc(c(-c6cc(S(=O)(=O)[O-])ccc6F)c6ccc([nH]6)c(-c6cc(S(=O)(=O)[O-])ccc6F)c6nc(c(-c7cc(S(=O)(=O)[O-])ccc7F)c7ccc4[nH]7)C=C6)C=C5)cc3)c(=O)cc2C)cc1
REMARK SMILES IDX 17 1 16 2 15 3 14 4 13 5 12 6 10 7 11 8 9 9 7 10 8 11 90 12
REMARK SMILES IDX 89 13 91 14 87 15 88 16 6 17 3 18 4 19 93 20 5 21 92 22 2 23
REMARK SMILES IDX 1 24 18 25 19 26 20 27 21 28 22 29 23 30 24 31 25 32 86 33
REMARK SMILES IDX 26 34 85 35 27 36 28 37 29 38 79 39 30 40 84 41 78 42 80 43
REMARK SMILES IDX 31 44 83 45 77 46 76 47 32 49 64 50 44 51 63 52 45 53 48 54
REMARK SMILES IDX 62 55 81 56 46 57 47 58 61 60 82 61 49 62 33 63 34 64 42 65
REMARK SMILES IDX 35 66 41 67 43 68 40 69 36 70 37 71 38 72 39 73 65 74 66 75
REMARK SMILES IDX 74 76 67 77 73 78 75 79 72 80 68 81 69 82 70 83 71 84 50 85
REMARK SMILES IDX 51 86 59 87 52 88 58 89 60 90 57 91 53 92 54 93 55 94 56 95
REMARK H PARENT 80 48 48 59
REMARK Flexibility Score: inf
ROOT
ATOM      1  C   UNL A   1      35.377  32.970  28.061  1.00  0.00     0.188 C 
ENDROOT
BRANCH   1   2
ATOM      2  C   UNL A   1      34.380  31.791  28.130  1.00  0.00     0.188 C 
BRANCH   2   3
ATOM      3  O   UNL A   1      34.518  30.697  27.225  1.00  0.00    -0.376 OA
BRANCH   3   4
ATOM      4  C   UNL A   1      33.404  29.844  26.984  1.00  0.00     0.202 C 
BRANCH   4   5
ATOM      5  C   UNL A   1      32.895  29.725  25.543  1.00  0.00     0.261 C 
BRANCH   5   6
ATOM      6  O   UNL A   1      33.702  28.847  24.747  1.00  0.00    -0.458 OA
BRANCH   6   7
ATOM      7  C   UNL A   1      33.141  28.402  23.603  1.00  0.00     0.363 C 
ATOM      8  O   UNL A   1      32.963  29.012  22.573  1.00  0.00    -0.244 OA
BRANCH   7   9
ATOM      9  C   UNL A   1      32.795  26.933  23.747  1.00  0.00     0.216 A 
ATOM     10  N   UNL A   1      33.484  24.769  24.107  1.00  0.00    -0.237 N 
ATOM     11  N   UNL A   1      33.762  26.116  24.065  1.00  0.00    -0.156 NA
ATOM     12  C   UNL A   1      32.222  24.226  23.841  1.00  0.00     0.044 A 
ATOM     13  C   UNL A   1      31.160  25.004  23.580  1.00  0.00     0.078 A 
ATOM     14  C   UNL A   1      32.010  22.730  23.860  1.00  0.00     0.067 C 
ATOM     15  C   UNL A   1      31.393  26.450  23.519  1.00  0.00     0.215 A 
ATOM     16  O   UNL A   1      30.489  27.237  23.280  1.00  0.00    -0.287 OA
BRANCH  10  17
ATOM     17  C   UNL A   1      34.634  23.967  24.357  1.00  0.00     0.065 A 
ATOM     18  C   UNL A   1      36.952  22.439  24.843  1.00  0.00     0.119 A 
ATOM     19  C   UNL A   1      36.503  22.645  23.538  1.00  0.00     0.048 A 
ATOM     20  C   UNL A   1      36.251  23.001  25.908  1.00  0.00     0.048 A 
ATOM     21  C   UNL A   1      35.341  23.385  23.296  1.00  0.00     0.032 A 
ATOM     22  C   UNL A   1      35.100  23.761  25.665  1.00  0.00     0.032 A 
BRANCH  18  23
ATOM     23  O   UNL A   1      38.119  21.739  24.967  1.00  0.00    -0.497 OA
ATOM     24  C   UNL A   1      38.905  22.061  26.115  1.00  0.00     0.278 C 
ENDBRANCH  18  23
ENDBRANCH  10  17
ENDBRANCH   7   9
ENDBRANCH   6   7
ENDBRANCH   5   6
ENDBRANCH   4   5
ENDBRANCH   3   4
ENDBRANCH   2   3
ENDBRANCH   1   2
BRANCH   1  25
ATOM     25  O   UNL A   1      34.772  34.250  28.141  1.00  0.00    -0.376 OA
BRANCH  25  26
ATOM     26  C   UNL A   1      33.397  34.268  28.502  1.00  0.00     0.202 C 
BRANCH  26  27
ATOM     27  C   UNL A   1      32.901  35.516  29.250  1.00  0.00     0.261 C 
BRANCH  27  28
ATOM     28  O   UNL A   1      33.636  35.876  30.431  1.00  0.00    -0.460 OA
BRANCH  28  29
ATOM     29  C   UNL A   1      33.213  35.332  31.596  1.00  0.00     0.338 C 
ATOM     30  O   UNL A   1      32.057  35.202  31.956  1.00  0.00    -0.246 OA
BRANCH  29  31
ATOM     31  C   UNL A   1      34.382  34.738  32.281  1.00  0.00     0.060 A 
ATOM     32  C   UNL A   1      35.645  35.304  32.062  1.00  0.00     0.016 A 
ATOM     33  C   UNL A   1      34.244  33.622  33.112  1.00  0.00     0.016 A 
ATOM     34  C   UNL A   1      36.777  34.724  32.635  1.00  0.00     0.010 A 
ATOM     35  C   UNL A   1      35.383  33.033  33.674  1.00  0.00     0.010 A 
ATOM     36  C   UNL A   1      36.660  33.559  33.407  1.00  0.00    -0.014 A 
BRANCH  36  37
ATOM     37  C   UNL A   1      37.883  32.769  33.707  1.00  0.00     0.031 A 
ATOM     38  C   UNL A   1      38.635  33.091  34.973  1.00  0.00     0.074 A 
ATOM     39  C   UNL A   1      38.287  31.753  32.923  1.00  0.00     0.049 A 
ATOM     40  N   UNL A   1      39.721  32.552  35.460  1.00  0.00    -0.248 NA
ATOM     41  C   UNL A   1      38.073  34.169  35.802  1.00  0.00     0.031 C 
ATOM     42  C   UNL A   1      37.613  31.302  31.706  1.00  0.00     0.029 A 
ATOM     43  N   UNL A   1      39.365  30.912  33.042  1.00  0.00    -0.354 N 
ATOM     44  C   UNL A   1      39.973  33.221  36.654  1.00  0.00     0.074 A 
ATOM     45  C   UNL A   1      38.948  34.232  36.792  1.00  0.00     0.031 C 
ATOM     46  C   UNL A   1      38.297  30.265  31.190  1.00  0.00     0.029 A 
ATOM     47  C   UNL A   1      39.476  30.002  32.015  1.00  0.00     0.049 A 
ATOM     48  H   UNL A   1      40.000  30.955  33.793  1.00  0.00     0.167 HD
ATOM     49  C   UNL A   1      40.960  33.008  37.558  1.00  0.00     0.034 A 
ATOM     50  C   UNL A   1      40.429  29.081  31.765  1.00  0.00     0.034 A 
ATOM     51  C   UNL A   1      41.992  32.013  37.399  1.00  0.00     0.049 A 
ATOM     52  C   UNL A   1      41.580  28.926  32.736  1.00  0.00     0.074 A 
ATOM     53  C   UNL A   1      43.051  31.726  38.242  1.00  0.00     0.029 A 
ATOM     54  N   UNL A   1      42.102  31.148  36.317  1.00  0.00    -0.354 N 
ATOM     55  N   UNL A   1      41.812  29.571  33.856  1.00  0.00    -0.248 NA
ATOM     56  C   UNL A   1      42.589  27.909  32.411  1.00  0.00     0.031 C 
ATOM     57  C   UNL A   1      43.839  30.740  37.638  1.00  0.00     0.029 A 
ATOM     58  C   UNL A   1      43.226  30.349  36.459  1.00  0.00     0.049 A 
ATOM     59  H   UNL A   1      41.473  31.109  35.560  1.00  0.00     0.167 HD
ATOM     60  C   UNL A   1      42.971  29.006  34.387  1.00  0.00     0.074 A 
ATOM     61  C   UNL A   1      43.383  27.965  33.470  1.00  0.00     0.031 C 
ATOM     62  C   UNL A   1      43.629  29.313  35.535  1.00  0.00     0.034 A 
BRANCH  49  63
ATOM     63  C   UNL A   1      40.996  33.917  38.763  1.00  0.00     0.023 A 
ATOM     64  C   UNL A   1      41.724  35.121  38.762  1.00  0.00     0.031 A 
ATOM     65  C   UNL A   1      40.335  33.549  39.947  1.00  0.00     0.131 A 
ATOM     66  C   UNL A   1      41.834  35.872  39.941  1.00  0.00     0.055 A 
ATOM     67  C   UNL A   1      40.381  34.343  41.093  1.00  0.00     0.041 A 
ATOM     68  F   UNL A   1      39.647  32.398  40.016  1.00  0.00    -0.206 F 
ATOM     69  C   UNL A   1      41.146  35.504  41.101  1.00  0.00     0.022 A 
BRANCH  66  70
ATOM     70  S   UNL A   1      43.010  37.253  39.985  1.00  0.00     0.124 S 
ATOM     71  O   UNL A   1      42.287  38.232  40.795  1.00  0.00    -0.237 OA
ATOM     72  O   UNL A   1      44.183  36.649  40.608  1.00  0.00    -0.237 OA
ATOM     73  O   UNL A   1      43.167  37.614  38.577  1.00  0.00    -0.744 OA
ENDBRANCH  66  70
ENDBRANCH  49  63
BRANCH  50  74
ATOM     74  C   UNL A   1      40.377  28.251  30.526  1.00  0.00     0.023 A 
ATOM     75  C   UNL A   1      41.264  28.473  29.461  1.00  0.00     0.031 A 
ATOM     76  C   UNL A   1      39.382  27.270  30.359  1.00  0.00     0.131 A 
ATOM     77  C   UNL A   1      41.111  27.762  28.260  1.00  0.00     0.055 A 
ATOM     78  C   UNL A   1      39.264  26.530  29.180  1.00  0.00     0.041 A 
ATOM     79  F   UNL A   1      38.503  27.020  31.342  1.00  0.00    -0.206 F 
ATOM     80  C   UNL A   1      40.123  26.786  28.115  1.00  0.00     0.022 A 
BRANCH  77  81
ATOM     81  S   UNL A   1      42.178  28.191  26.858  1.00  0.00     0.124 S 
ATOM     82  O   UNL A   1      42.252  29.643  26.973  1.00  0.00    -0.237 OA
ATOM     83  O   UNL A   1      43.399  27.458  27.180  1.00  0.00    -0.237 OA
ATOM     84  O   UNL A   1      41.439  27.692  25.701  1.00  0.00    -0.744 OA
ENDBRANCH  77  81
ENDBRANCH  50  74
BRANCH  62  85
ATOM     85  C   UNL A   1      44.828  28.467  35.895  1.00  0.00     0.023 A 
ATOM     86  C   UNL A   1      44.713  27.293  36.659  1.00  0.00     0.031 A 
ATOM     87  C   UNL A   1      46.112  28.852  35.469  1.00  0.00     0.131 A 
ATOM     88  C   UNL A   1      45.866  26.578  37.023  1.00  0.00     0.055 A 
ATOM     89  C   UNL A   1      47.248  28.103  35.778  1.00  0.00     0.041 A 
ATOM     90  F   UNL A   1      46.285  29.966  34.737  1.00  0.00    -0.206 F 
ATOM     91  C   UNL A   1      47.130  26.967  36.572  1.00  0.00     0.022 A 
BRANCH  88  92
ATOM     92  S   UNL A   1      45.705  25.187  38.176  1.00  0.00     0.124 S 
ATOM     93  O   UNL A   1      44.511  25.556  38.932  1.00  0.00    -0.237 OA
ATOM     94  O   UNL A   1      45.562  24.049  37.274  1.00  0.00    -0.237 OA
ATOM     95  O   UNL A   1      46.954  25.223  38.935  1.00  0.00    -0.744 OA
ENDBRANCH  88  92
ENDBRANCH  62  85
ENDBRANCH  36  37
ENDBRANCH  29  31
ENDBRANCH  28  29
ENDBRANCH  27  28
ENDBRANCH  26  27
ENDBRANCH  25  26
ENDBRANCH   1  25
TORSDOF 22
ENDMDL
