MODEL 1
REMARK VINA RESULT:     -11.8      0.000      0.000
REMARK SMILES CC1=Nc2ncnn2[C@H](c2ccc(F)cc2)[C@@H]1C(=O)OCCOCCOCCOC(=O)c1ccc(-c2c3nc(c(-c4cc(S(=O)(=O)[O-])ccc4F)c4ccc([nH]4)c(-c4cc(S(=O)(=O)[O-])ccc4F)c4nc(c(-c5cc(S(=O)(=O)[O-])ccc5F)c5ccc2[nH]5)C=C4)C=C3)cc1
REMARK SMILES IDX 25 1 24 2 23 3 22 4 21 5 20 6 18 7 19 8 17 9 1 10 2 11 3 12
REMARK SMILES IDX 4 13 9 14 5 15 8 16 6 17 7 18 10 19 11 20 16 21 12 22 15 23
REMARK SMILES IDX 13 24 14 25 26 26 27 27 28 28 29 29 30 30 31 31 32 32 33 33
REMARK SMILES IDX 94 34 34 35 93 36 35 37 36 38 37 39 87 40 38 41 92 42 86 43
REMARK SMILES IDX 88 44 39 45 91 46 85 47 84 48 40 50 72 51 52 52 71 53 53 54
REMARK SMILES IDX 56 55 70 56 89 57 54 58 55 59 69 61 90 62 57 63 41 64 42 65
REMARK SMILES IDX 50 66 43 67 49 68 51 69 48 70 44 71 45 72 46 73 47 74 73 75
REMARK SMILES IDX 74 76 82 77 75 78 81 79 83 80 80 81 76 82 77 83 78 84 79 85
REMARK SMILES IDX 58 86 59 87 67 88 60 89 66 90 68 91 65 92 61 93 62 94 63 95
REMARK SMILES IDX 64 96
REMARK H PARENT 88 49 56 60
REMARK Flexibility Score: inf
ROOT
ATOM      1  C   UNL A   1      39.236  21.240  25.730  1.00  0.00     0.188 C 
ENDROOT
BRANCH   1   2
ATOM      2  C   UNL A   1      37.717  21.463  25.651  1.00  0.00     0.188 C 
BRANCH   2   3
ATOM      3  O   UNL A   1      37.315  22.608  24.917  1.00  0.00    -0.376 OA
BRANCH   3   4
ATOM      4  C   UNL A   1      36.829  23.701  25.678  1.00  0.00     0.202 C 
BRANCH   4   5
ATOM      5  C   UNL A   1      35.518  24.269  25.139  1.00  0.00     0.261 C 
BRANCH   5   6
ATOM      6  O   UNL A   1      34.475  23.371  24.696  1.00  0.00    -0.463 OA
BRANCH   6   7
ATOM      7  C   UNL A   1      33.953  23.376  23.445  1.00  0.00     0.317 C 
ATOM      8  O   UNL A   1      34.550  23.146  22.404  1.00  0.00    -0.251 OA
BRANCH   7   9
ATOM      9  C   UNL A   1      32.505  23.773  23.510  1.00  0.00     0.173 C 
ATOM     10  C   UNL A   1      32.959  26.340  23.559  1.00  0.00     0.063 C 
ATOM     11  C   UNL A   1      32.320  25.122  24.197  1.00  0.00     0.036 C 
ATOM     12  N   UNL A   1      31.661  25.322  25.295  1.00  0.00    -0.220 NA
ATOM     13  C   UNL A   1      31.055  24.279  25.898  1.00  0.00     0.248 A 
ATOM     14  C   UNL A   1      31.641  22.644  24.111  1.00  0.00     0.161 C 
ATOM     15  N   UNL A   1      30.296  24.279  26.972  1.00  0.00    -0.198 NA
ATOM     16  N   UNL A   1      31.086  23.001  25.406  1.00  0.00    -0.221 N 
ATOM     17  C   UNL A   1      29.843  22.998  27.055  1.00  0.00     0.248 A 
ATOM     18  N   UNL A   1      30.268  22.177  26.094  1.00  0.00    -0.157 NA
BRANCH  14  19
ATOM     19  C   UNL A   1      32.237  21.229  24.131  1.00  0.00    -0.022 A 
ATOM     20  C   UNL A   1      32.126  20.416  22.990  1.00  0.00     0.009 A 
ATOM     21  C   UNL A   1      32.917  20.710  25.252  1.00  0.00     0.009 A 
ATOM     22  C   UNL A   1      32.735  19.159  22.947  1.00  0.00     0.039 A 
ATOM     23  C   UNL A   1      33.570  19.477  25.189  1.00  0.00     0.039 A 
ATOM     24  C   UNL A   1      33.475  18.714  24.035  1.00  0.00     0.123 A 
ATOM     25  F   UNL A   1      34.101  17.532  23.970  1.00  0.00    -0.207 F 
ENDBRANCH  14  19
ENDBRANCH   7   9
ENDBRANCH   6   7
ENDBRANCH   5   6
ENDBRANCH   4   5
ENDBRANCH   3   4
ENDBRANCH   2   3
ENDBRANCH   1   2
BRANCH   1  26
ATOM     26  O   UNL A   1      39.962  21.580  26.906  1.00  0.00    -0.376 OA
BRANCH  26  27
ATOM     27  C   UNL A   1      41.374  21.737  26.857  1.00  0.00     0.202 C 
BRANCH  27  28
ATOM     28  C   UNL A   1      41.910  23.131  26.557  1.00  0.00     0.261 C 
BRANCH  28  29
ATOM     29  O   UNL A   1      40.923  24.125  26.789  1.00  0.00    -0.460 OA
BRANCH  29  30
ATOM     30  C   UNL A   1      41.221  25.354  26.311  1.00  0.00     0.338 C 
ATOM     31  O   UNL A   1      42.035  25.631  25.449  1.00  0.00    -0.246 OA
BRANCH  30  32
ATOM     32  C   UNL A   1      40.370  26.336  27.004  1.00  0.00     0.060 A 
ATOM     33  C   UNL A   1      40.468  27.659  26.572  1.00  0.00     0.016 A 
ATOM     34  C   UNL A   1      39.657  25.987  28.165  1.00  0.00     0.016 A 
ATOM     35  C   UNL A   1      40.092  28.654  27.446  1.00  0.00     0.010 A 
ATOM     36  C   UNL A   1      39.258  26.980  29.027  1.00  0.00     0.010 A 
ATOM     37  C   UNL A   1      39.611  28.287  28.706  1.00  0.00    -0.014 A 
BRANCH  37  38
ATOM     38  C   UNL A   1      39.729  29.270  29.761  1.00  0.00     0.031 A 
ATOM     39  C   UNL A   1      38.580  30.159  29.970  1.00  0.00     0.074 A 
ATOM     40  C   UNL A   1      40.832  29.308  30.533  1.00  0.00     0.049 A 
ATOM     41  N   UNL A   1      38.547  31.443  29.853  1.00  0.00    -0.248 NA
ATOM     42  C   UNL A   1      37.286  29.537  30.278  1.00  0.00     0.031 C 
ATOM     43  C   UNL A   1      41.917  28.321  30.596  1.00  0.00     0.029 A 
ATOM     44  N   UNL A   1      41.151  30.186  31.521  1.00  0.00    -0.354 N 
ATOM     45  C   UNL A   1      37.280  31.821  30.269  1.00  0.00     0.074 A 
ATOM     46  C   UNL A   1      36.504  30.610  30.383  1.00  0.00     0.031 C 
ATOM     47  C   UNL A   1      42.639  28.532  31.717  1.00  0.00     0.029 A 
ATOM     48  C   UNL A   1      42.144  29.728  32.375  1.00  0.00     0.049 A 
ATOM     49  H   UNL A   1      40.718  31.065  31.621  1.00  0.00     0.167 HD
ATOM     50  C   UNL A   1      37.011  33.081  30.697  1.00  0.00     0.034 A 
ATOM     51  C   UNL A   1      42.461  30.245  33.587  1.00  0.00     0.034 A 
ATOM     52  C   UNL A   1      38.005  34.032  30.274  1.00  0.00     0.049 A 
ATOM     53  C   UNL A   1      42.009  31.660  33.585  1.00  0.00     0.074 A 
ATOM     54  C   UNL A   1      38.494  34.429  29.044  1.00  0.00     0.029 A 
ATOM     55  N   UNL A   1      38.921  34.478  31.198  1.00  0.00    -0.354 N 
ATOM     56  N   UNL A   1      42.506  32.582  32.804  1.00  0.00    -0.248 NA
ATOM     57  C   UNL A   1      40.710  31.976  34.159  1.00  0.00     0.031 C 
ATOM     58  C   UNL A   1      39.885  34.662  29.249  1.00  0.00     0.029 A 
ATOM     59  C   UNL A   1      40.158  34.427  30.599  1.00  0.00     0.049 A 
ATOM     60  H   UNL A   1      38.728  34.779  32.115  1.00  0.00     0.167 HD
ATOM     61  C   UNL A   1      41.428  33.386  32.463  1.00  0.00     0.074 A 
ATOM     62  C   UNL A   1      40.382  33.037  33.417  1.00  0.00     0.031 C 
ATOM     63  C   UNL A   1      41.387  34.056  31.274  1.00  0.00     0.034 A 
BRANCH  50  64
ATOM     64  C   UNL A   1      35.976  33.375  31.740  1.00  0.00     0.023 A 
ATOM     65  C   UNL A   1      34.924  34.249  31.433  1.00  0.00     0.031 A 
ATOM     66  C   UNL A   1      36.118  33.010  33.100  1.00  0.00     0.131 A 
ATOM     67  C   UNL A   1      34.071  34.718  32.448  1.00  0.00     0.055 A 
ATOM     68  C   UNL A   1      35.226  33.417  34.091  1.00  0.00     0.041 A 
ATOM     69  F   UNL A   1      37.177  32.316  33.541  1.00  0.00    -0.206 F 
ATOM     70  C   UNL A   1      34.201  34.289  33.769  1.00  0.00     0.022 A 
BRANCH  67  71
ATOM     71  S   UNL A   1      32.878  36.018  32.043  1.00  0.00     0.124 S 
ATOM     72  O   UNL A   1      33.154  36.248  30.628  1.00  0.00    -0.237 OA
ATOM     73  O   UNL A   1      31.608  35.371  32.354  1.00  0.00    -0.237 OA
ATOM     74  O   UNL A   1      33.253  37.113  32.935  1.00  0.00    -0.744 OA
ENDBRANCH  67  71
ENDBRANCH  50  64
BRANCH  51  75
ATOM     75  C   UNL A   1      42.834  29.485  34.810  1.00  0.00     0.023 A 
ATOM     76  C   UNL A   1      42.034  28.430  35.287  1.00  0.00     0.031 A 
ATOM     77  C   UNL A   1      44.110  29.627  35.407  1.00  0.00     0.131 A 
ATOM     78  C   UNL A   1      42.510  27.579  36.308  1.00  0.00     0.055 A 
ATOM     79  C   UNL A   1      44.565  28.801  36.436  1.00  0.00     0.041 A 
ATOM     80  F   UNL A   1      45.005  30.516  34.952  1.00  0.00    -0.206 F 
ATOM     81  C   UNL A   1      43.768  27.763  36.886  1.00  0.00     0.022 A 
BRANCH  78  82
ATOM     82  S   UNL A   1      41.552  26.111  36.796  1.00  0.00     0.124 S 
ATOM     83  O   UNL A   1      42.573  25.279  37.422  1.00  0.00    -0.237 OA
ATOM     84  O   UNL A   1      40.538  26.671  37.683  1.00  0.00    -0.237 OA
ATOM     85  O   UNL A   1      41.039  25.610  35.521  1.00  0.00    -0.744 OA
ENDBRANCH  78  82
ENDBRANCH  51  75
BRANCH  63  86
ATOM     86  C   UNL A   1      42.666  34.192  30.476  1.00  0.00     0.023 A 
ATOM     87  C   UNL A   1      43.029  33.347  29.405  1.00  0.00     0.031 A 
ATOM     88  C   UNL A   1      43.468  35.322  30.720  1.00  0.00     0.131 A 
ATOM     89  C   UNL A   1      44.166  33.645  28.629  1.00  0.00     0.055 A 
ATOM     90  C   UNL A   1      44.583  35.622  29.940  1.00  0.00     0.041 A 
ATOM     91  F   UNL A   1      43.148  36.183  31.702  1.00  0.00    -0.206 F 
ATOM     92  C   UNL A   1      44.938  34.781  28.891  1.00  0.00     0.022 A 
BRANCH  89  93
ATOM     93  S   UNL A   1      44.634  32.568  27.235  1.00  0.00     0.124 S 
ATOM     94  O   UNL A   1      44.196  31.248  27.671  1.00  0.00    -0.237 OA
ATOM     95  O   UNL A   1      43.899  33.154  26.117  1.00  0.00    -0.237 OA
ATOM     96  O   UNL A   1      46.087  32.728  27.151  1.00  0.00    -0.744 OA
ENDBRANCH  89  93
ENDBRANCH  63  86
ENDBRANCH  37  38
ENDBRANCH  30  32
ENDBRANCH  29  30
ENDBRANCH  28  29
ENDBRANCH  27  28
ENDBRANCH  26  27
ENDBRANCH   1  26
TORSDOF 21
ENDMDL
MODEL 2
REMARK VINA RESULT:     -11.7      4.205     10.151
REMARK SMILES CC1=Nc2ncnn2[C@H](c2ccc(F)cc2)[C@@H]1C(=O)OCCOCCOCCOC(=O)c1ccc(-c2c3nc(c(-c4cc(S(=O)(=O)[O-])ccc4F)c4ccc([nH]4)c(-c4cc(S(=O)(=O)[O-])ccc4F)c4nc(c(-c5cc(S(=O)(=O)[O-])ccc5F)c5ccc2[nH]5)C=C4)C=C3)cc1
REMARK SMILES IDX 25 1 24 2 23 3 22 4 21 5 20 6 18 7 19 8 17 9 1 10 2 11 3 12
REMARK SMILES IDX 4 13 9 14 5 15 8 16 6 17 7 18 10 19 11 20 16 21 12 22 15 23
REMARK SMILES IDX 13 24 14 25 26 26 27 27 28 28 29 29 30 30 31 31 32 32 33 33
REMARK SMILES IDX 94 34 34 35 93 36 35 37 36 38 37 39 87 40 38 41 92 42 86 43
REMARK SMILES IDX 88 44 39 45 91 46 85 47 84 48 40 50 72 51 52 52 71 53 53 54
REMARK SMILES IDX 56 55 70 56 89 57 54 58 55 59 69 61 90 62 57 63 41 64 42 65
REMARK SMILES IDX 50 66 43 67 49 68 51 69 48 70 44 71 45 72 46 73 47 74 73 75
REMARK SMILES IDX 74 76 82 77 75 78 81 79 83 80 80 81 76 82 77 83 78 84 79 85
REMARK SMILES IDX 58 86 59 87 67 88 60 89 66 90 68 91 65 92 61 93 62 94 63 95
REMARK SMILES IDX 64 96
REMARK H PARENT 88 49 56 60
REMARK Flexibility Score: inf
ROOT
ATOM      1  C   UNL A   1      35.038  31.507  27.635  1.00  0.00     0.188 C 
ENDROOT
BRANCH   1   2
ATOM      2  C   UNL A   1      33.649  30.852  27.566  1.00  0.00     0.188 C 
BRANCH   2   3
ATOM      3  O   UNL A   1      33.655  29.435  27.527  1.00  0.00    -0.376 OA
BRANCH   3   4
ATOM      4  C   UNL A   1      34.403  28.839  26.481  1.00  0.00     0.202 C 
BRANCH   4   5
ATOM      5  C   UNL A   1      33.598  28.661  25.196  1.00  0.00     0.261 C 
BRANCH   5   6
ATOM      6  O   UNL A   1      32.932  27.405  24.934  1.00  0.00    -0.463 OA
BRANCH   6   7
ATOM      7  C   UNL A   1      32.925  26.789  23.726  1.00  0.00     0.317 C 
ATOM      8  O   UNL A   1      33.673  27.015  22.788  1.00  0.00    -0.251 OA
BRANCH   7   9
ATOM      9  C   UNL A   1      31.796  25.797  23.678  1.00  0.00     0.173 C 
ATOM     10  C   UNL A   1      29.900  27.585  23.728  1.00  0.00     0.063 C 
ATOM     11  C   UNL A   1      30.533  26.347  24.332  1.00  0.00     0.036 C 
ATOM     12  N   UNL A   1      29.949  25.848  25.375  1.00  0.00    -0.220 NA
ATOM     13  C   UNL A   1      30.456  24.736  25.944  1.00  0.00     0.248 A 
ATOM     14  C   UNL A   1      32.234  24.423  24.227  1.00  0.00     0.161 C 
ATOM     15  N   UNL A   1      29.985  24.044  26.958  1.00  0.00    -0.198 NA
ATOM     16  N   UNL A   1      31.566  24.085  25.472  1.00  0.00    -0.221 N 
ATOM     17  C   UNL A   1      30.801  22.957  27.024  1.00  0.00     0.248 A 
ATOM     18  N   UNL A   1      31.769  22.912  26.107  1.00  0.00    -0.157 NA
BRANCH  14  19
ATOM     19  C   UNL A   1      33.741  24.139  24.309  1.00  0.00    -0.022 A 
ATOM     20  C   UNL A   1      34.451  24.503  25.467  1.00  0.00     0.009 A 
ATOM     21  C   UNL A   1      34.449  23.505  23.268  1.00  0.00     0.009 A 
ATOM     22  C   UNL A   1      35.803  24.178  25.606  1.00  0.00     0.039 A 
ATOM     23  C   UNL A   1      35.786  23.134  23.431  1.00  0.00     0.039 A 
ATOM     24  C   UNL A   1      36.450  23.472  24.601  1.00  0.00     0.123 A 
ATOM     25  F   UNL A   1      37.731  23.116  24.761  1.00  0.00    -0.207 F 
ENDBRANCH  14  19
ENDBRANCH   7   9
ENDBRANCH   6   7
ENDBRANCH   5   6
ENDBRANCH   4   5
ENDBRANCH   3   4
ENDBRANCH   2   3
ENDBRANCH   1   2
BRANCH   1  26
ATOM     26  O   UNL A   1      35.273  32.629  28.480  1.00  0.00    -0.376 OA
BRANCH  26  27
ATOM     27  C   UNL A   1      36.578  32.889  28.980  1.00  0.00     0.202 C 
BRANCH  27  28
ATOM     28  C   UNL A   1      36.855  32.519  30.432  1.00  0.00     0.261 C 
BRANCH  28  29
ATOM     29  O   UNL A   1      37.648  31.346  30.523  1.00  0.00    -0.460 OA
BRANCH  29  30
ATOM     30  C   UNL A   1      36.960  30.182  30.501  1.00  0.00     0.338 C 
ATOM     31  O   UNL A   1      35.877  29.958  31.010  1.00  0.00    -0.246 OA
BRANCH  30  32
ATOM     32  C   UNL A   1      37.739  29.201  29.728  1.00  0.00     0.060 A 
ATOM     33  C   UNL A   1      38.185  28.075  30.420  1.00  0.00     0.016 A 
ATOM     34  C   UNL A   1      38.176  29.488  28.422  1.00  0.00     0.016 A 
ATOM     35  C   UNL A   1      39.271  27.395  29.918  1.00  0.00     0.010 A 
ATOM     36  C   UNL A   1      39.244  28.794  27.908  1.00  0.00     0.010 A 
ATOM     37  C   UNL A   1      39.853  27.852  28.732  1.00  0.00    -0.014 A 
BRANCH  37  38
ATOM     38  C   UNL A   1      41.239  27.503  28.508  1.00  0.00     0.031 A 
ATOM     39  C   UNL A   1      41.501  26.214  27.856  1.00  0.00     0.074 A 
ATOM     40  C   UNL A   1      42.219  28.364  28.844  1.00  0.00     0.049 A 
ATOM     41  N   UNL A   1      42.143  25.204  28.338  1.00  0.00    -0.248 NA
ATOM     42  C   UNL A   1      40.913  25.991  26.529  1.00  0.00     0.031 C 
ATOM     43  C   UNL A   1      42.079  29.767  29.250  1.00  0.00     0.029 A 
ATOM     44  N   UNL A   1      43.566  28.194  28.769  1.00  0.00    -0.354 N 
ATOM     45  C   UNL A   1      42.221  24.286  27.304  1.00  0.00     0.074 A 
ATOM     46  C   UNL A   1      41.334  24.754  26.267  1.00  0.00     0.031 C 
ATOM     47  C   UNL A   1      43.281  30.374  29.159  1.00  0.00     0.029 A 
ATOM     48  C   UNL A   1      44.281  29.381  28.808  1.00  0.00     0.049 A 
ATOM     49  H   UNL A   1      43.993  27.310  28.695  1.00  0.00     0.167 HD
ATOM     50  C   UNL A   1      43.168  23.314  27.277  1.00  0.00     0.034 A 
ATOM     51  C   UNL A   1      45.584  29.545  28.475  1.00  0.00     0.034 A 
ATOM     52  C   UNL A   1      43.755  23.078  28.570  1.00  0.00     0.049 A 
ATOM     53  C   UNL A   1      46.239  28.220  28.630  1.00  0.00     0.074 A 
ATOM     54  C   UNL A   1      43.249  22.714  29.803  1.00  0.00     0.029 A 
ATOM     55  N   UNL A   1      45.016  23.568  28.817  1.00  0.00    -0.354 N 
ATOM     56  N   UNL A   1      46.370  27.603  29.773  1.00  0.00    -0.248 NA
ATOM     57  C   UNL A   1      46.387  27.375  27.454  1.00  0.00     0.031 C 
ATOM     58  C   UNL A   1      44.025  23.435  30.756  1.00  0.00     0.029 A 
ATOM     59  C   UNL A   1      44.980  24.172  30.052  1.00  0.00     0.049 A 
ATOM     60  H   UNL A   1      45.797  23.499  28.223  1.00  0.00     0.167 HD
ATOM     61  C   UNL A   1      46.202  26.258  29.479  1.00  0.00     0.074 A 
ATOM     62  C   UNL A   1      46.336  26.171  28.030  1.00  0.00     0.031 C 
ATOM     63  C   UNL A   1      45.697  25.384  30.400  1.00  0.00     0.034 A 
BRANCH  50  64
ATOM     64  C   UNL A   1      43.742  22.781  25.999  1.00  0.00     0.023 A 
ATOM     65  C   UNL A   1      43.879  21.395  25.835  1.00  0.00     0.031 A 
ATOM     66  C   UNL A   1      44.376  23.598  25.033  1.00  0.00     0.131 A 
ATOM     67  C   UNL A   1      44.614  20.878  24.754  1.00  0.00     0.055 A 
ATOM     68  C   UNL A   1      45.039  23.081  23.921  1.00  0.00     0.041 A 
ATOM     69  F   UNL A   1      44.455  24.929  25.171  1.00  0.00    -0.206 F 
ATOM     70  C   UNL A   1      45.173  21.710  23.783  1.00  0.00     0.022 A 
BRANCH  67  71
ATOM     71  S   UNL A   1      44.956  19.101  24.713  1.00  0.00     0.124 S 
ATOM     72  O   UNL A   1      44.843  18.806  23.288  1.00  0.00    -0.237 OA
ATOM     73  O   UNL A   1      46.300  19.038  25.278  1.00  0.00    -0.237 OA
ATOM     74  O   UNL A   1      43.902  18.532  25.551  1.00  0.00    -0.744 OA
ENDBRANCH  67  71
ENDBRANCH  50  64
BRANCH  51  75
ATOM     75  C   UNL A   1      46.179  30.694  27.741  1.00  0.00     0.023 A 
ATOM     76  C   UNL A   1      45.406  31.487  26.872  1.00  0.00     0.031 A 
ATOM     77  C   UNL A   1      47.470  31.183  28.058  1.00  0.00     0.131 A 
ATOM     78  C   UNL A   1      45.921  32.697  26.362  1.00  0.00     0.055 A 
ATOM     79  C   UNL A   1      47.987  32.366  27.527  1.00  0.00     0.041 A 
ATOM     80  F   UNL A   1      48.248  30.579  28.967  1.00  0.00    -0.206 F 
ATOM     81  C   UNL A   1      47.207  33.137  26.682  1.00  0.00     0.022 A 
BRANCH  78  82
ATOM     82  S   UNL A   1      44.858  33.805  25.387  1.00  0.00     0.124 S 
ATOM     83  O   UNL A   1      44.128  32.862  24.548  1.00  0.00    -0.237 OA
ATOM     84  O   UNL A   1      44.084  34.493  26.415  1.00  0.00    -0.237 OA
ATOM     85  O   UNL A   1      45.819  34.651  24.680  1.00  0.00    -0.744 OA
ENDBRANCH  78  82
ENDBRANCH  51  75
BRANCH  63  86
ATOM     86  C   UNL A   1      45.639  25.816  31.849  1.00  0.00     0.023 A 
ATOM     87  C   UNL A   1      46.712  25.691  32.759  1.00  0.00     0.031 A 
ATOM     88  C   UNL A   1      44.499  26.521  32.273  1.00  0.00     0.131 A 
ATOM     89  C   UNL A   1      46.612  26.257  34.045  1.00  0.00     0.055 A 
ATOM     90  C   UNL A   1      44.410  27.093  33.541  1.00  0.00     0.041 A 
ATOM     91  F   UNL A   1      43.463  26.704  31.435  1.00  0.00    -0.206 F 
ATOM     92  C   UNL A   1      45.467  26.961  34.434  1.00  0.00     0.022 A 
BRANCH  89  93
ATOM     93  S   UNL A   1      47.996  26.116  35.221  1.00  0.00     0.124 S 
ATOM     94  O   UNL A   1      47.875  27.326  36.026  1.00  0.00    -0.237 OA
ATOM     95  O   UNL A   1      47.710  24.857  35.904  1.00  0.00    -0.237 OA
ATOM     96  O   UNL A   1      49.178  26.079  34.357  1.00  0.00    -0.744 OA
ENDBRANCH  89  93
ENDBRANCH  63  86
ENDBRANCH  37  38
ENDBRANCH  30  32
ENDBRANCH  29  30
ENDBRANCH  28  29
ENDBRANCH  27  28
ENDBRANCH  26  27
ENDBRANCH   1  26
TORSDOF 21
ENDMDL
MODEL 3
REMARK VINA RESULT:     -11.6      1.792      3.060
REMARK SMILES CC1=Nc2ncnn2[C@H](c2ccc(F)cc2)[C@@H]1C(=O)OCCOCCOCCOC(=O)c1ccc(-c2c3nc(c(-c4cc(S(=O)(=O)[O-])ccc4F)c4ccc([nH]4)c(-c4cc(S(=O)(=O)[O-])ccc4F)c4nc(c(-c5cc(S(=O)(=O)[O-])ccc5F)c5ccc2[nH]5)C=C4)C=C3)cc1
REMARK SMILES IDX 25 1 24 2 23 3 22 4 21 5 20 6 18 7 19 8 17 9 1 10 2 11 3 12
REMARK SMILES IDX 4 13 9 14 5 15 8 16 6 17 7 18 10 19 11 20 16 21 12 22 15 23
REMARK SMILES IDX 13 24 14 25 26 26 27 27 28 28 29 29 30 30 31 31 32 32 33 33
REMARK SMILES IDX 94 34 34 35 93 36 35 37 36 38 37 39 87 40 38 41 92 42 86 43
REMARK SMILES IDX 88 44 39 45 91 46 85 47 84 48 40 50 72 51 52 52 71 53 53 54
REMARK SMILES IDX 56 55 70 56 89 57 54 58 55 59 69 61 90 62 57 63 41 64 42 65
REMARK SMILES IDX 50 66 43 67 49 68 51 69 48 70 44 71 45 72 46 73 47 74 73 75
REMARK SMILES IDX 74 76 82 77 75 78 81 79 83 80 80 81 76 82 77 83 78 84 79 85
REMARK SMILES IDX 58 86 59 87 67 88 60 89 66 90 68 91 65 92 61 93 62 94 63 95
REMARK SMILES IDX 64 96
REMARK H PARENT 88 49 56 60
REMARK Flexibility Score: inf
ROOT
ATOM      1  C   UNL A   1      39.088  21.396  25.796  1.00  0.00     0.188 C 
ENDROOT
BRANCH   1   2
ATOM      2  C   UNL A   1      37.618  21.711  25.478  1.00  0.00     0.188 C 
BRANCH   2   3
ATOM      3  O   UNL A   1      37.355  22.048  24.125  1.00  0.00    -0.376 OA
BRANCH   3   4
ATOM      4  C   UNL A   1      36.352  23.026  23.906  1.00  0.00     0.202 C 
BRANCH   4   5
ATOM      5  C   UNL A   1      35.932  23.749  25.183  1.00  0.00     0.261 C 
BRANCH   5   6
ATOM      6  O   UNL A   1      34.674  24.461  25.224  1.00  0.00    -0.463 OA
BRANCH   6   7
ATOM      7  C   UNL A   1      33.598  24.056  25.942  1.00  0.00     0.317 C 
ATOM      8  O   UNL A   1      33.591  23.709  27.113  1.00  0.00    -0.251 OA
BRANCH   7   9
ATOM      9  C   UNL A   1      32.385  24.035  25.055  1.00  0.00     0.173 C 
ATOM     10  C   UNL A   1      32.885  21.697  24.014  1.00  0.00     0.063 C 
ATOM     11  C   UNL A   1      32.607  23.174  23.815  1.00  0.00     0.036 C 
ATOM     12  N   UNL A   1      32.584  23.600  22.592  1.00  0.00    -0.220 NA
ATOM     13  C   UNL A   1      32.322  24.900  22.352  1.00  0.00     0.248 A 
ATOM     14  C   UNL A   1      31.896  25.465  24.741  1.00  0.00     0.161 C 
ATOM     15  N   UNL A   1      32.194  25.513  21.195  1.00  0.00    -0.198 NA
ATOM     16  N   UNL A   1      32.065  25.813  23.341  1.00  0.00    -0.221 N 
ATOM     17  C   UNL A   1      31.801  26.773  21.530  1.00  0.00     0.248 A 
ATOM     18  N   UNL A   1      31.668  27.001  22.838  1.00  0.00    -0.157 NA
BRANCH  14  19
ATOM     19  C   UNL A   1      32.378  26.597  25.660  1.00  0.00    -0.022 A 
ATOM     20  C   UNL A   1      33.597  27.239  25.383  1.00  0.00     0.009 A 
ATOM     21  C   UNL A   1      31.632  27.039  26.772  1.00  0.00     0.009 A 
ATOM     22  C   UNL A   1      34.018  28.330  26.148  1.00  0.00     0.039 A 
ATOM     23  C   UNL A   1      32.028  28.162  27.502  1.00  0.00     0.039 A 
ATOM     24  C   UNL A   1      33.216  28.799  27.181  1.00  0.00     0.123 A 
ATOM     25  F   UNL A   1      33.598  29.877  27.877  1.00  0.00    -0.207 F 
ENDBRANCH  14  19
ENDBRANCH   7   9
ENDBRANCH   6   7
ENDBRANCH   5   6
ENDBRANCH   4   5
ENDBRANCH   3   4
ENDBRANCH   2   3
ENDBRANCH   1   2
BRANCH   1  26
ATOM     26  O   UNL A   1      39.769  22.080  26.842  1.00  0.00    -0.376 OA
BRANCH  26  27
ATOM     27  C   UNL A   1      41.189  22.051  26.913  1.00  0.00     0.202 C 
BRANCH  27  28
ATOM     28  C   UNL A   1      41.942  23.209  26.269  1.00  0.00     0.261 C 
BRANCH  28  29
ATOM     29  O   UNL A   1      41.094  24.330  26.070  1.00  0.00    -0.460 OA
BRANCH  29  30
ATOM     30  C   UNL A   1      41.701  25.534  26.167  1.00  0.00     0.338 C 
ATOM     31  O   UNL A   1      42.810  25.835  25.763  1.00  0.00    -0.246 OA
BRANCH  30  32
ATOM     32  C   UNL A   1      40.779  26.461  26.844  1.00  0.00     0.060 A 
ATOM     33  C   UNL A   1      40.846  27.800  26.457  1.00  0.00     0.016 A 
ATOM     34  C   UNL A   1      40.022  26.049  27.956  1.00  0.00     0.016 A 
ATOM     35  C   UNL A   1      40.389  28.752  27.339  1.00  0.00     0.010 A 
ATOM     36  C   UNL A   1      39.542  26.998  28.825  1.00  0.00     0.010 A 
ATOM     37  C   UNL A   1      39.859  28.328  28.562  1.00  0.00    -0.014 A 
BRANCH  37  38
ATOM     38  C   UNL A   1      39.886  29.280  29.650  1.00  0.00     0.031 A 
ATOM     39  C   UNL A   1      38.714  30.153  29.795  1.00  0.00     0.074 A 
ATOM     40  C   UNL A   1      40.925  29.305  30.506  1.00  0.00     0.049 A 
ATOM     41  N   UNL A   1      38.676  31.440  29.713  1.00  0.00    -0.248 NA
ATOM     42  C   UNL A   1      37.407  29.511  29.984  1.00  0.00     0.031 C 
ATOM     43  C   UNL A   1      42.013  28.326  30.624  1.00  0.00     0.029 A 
ATOM     44  N   UNL A   1      41.158  30.156  31.540  1.00  0.00    -0.354 N 
ATOM     45  C   UNL A   1      37.378  31.794  30.040  1.00  0.00     0.074 A 
ATOM     46  C   UNL A   1      36.608  30.574  30.060  1.00  0.00     0.031 C 
ATOM     47  C   UNL A   1      42.644  28.511  31.802  1.00  0.00     0.029 A 
ATOM     48  C   UNL A   1      42.087  29.683  32.454  1.00  0.00     0.049 A 
ATOM     49  H   UNL A   1      40.710  31.028  31.630  1.00  0.00     0.167 HD
ATOM     50  C   UNL A   1      37.063  33.039  30.482  1.00  0.00     0.034 A 
ATOM     51  C   UNL A   1      42.305  30.167  33.701  1.00  0.00     0.034 A 
ATOM     52  C   UNL A   1      38.076  34.010  30.164  1.00  0.00     0.049 A 
ATOM     53  C   UNL A   1      41.840  31.578  33.704  1.00  0.00     0.074 A 
ATOM     54  C   UNL A   1      38.653  34.447  28.986  1.00  0.00     0.029 A 
ATOM     55  N   UNL A   1      38.914  34.437  31.167  1.00  0.00    -0.354 N 
ATOM     56  N   UNL A   1      42.384  32.526  32.991  1.00  0.00    -0.248 NA
ATOM     57  C   UNL A   1      40.496  31.865  34.186  1.00  0.00     0.031 C 
ATOM     58  C   UNL A   1      40.022  34.686  29.305  1.00  0.00     0.029 A 
ATOM     59  C   UNL A   1      40.194  34.414  30.664  1.00  0.00     0.049 A 
ATOM     60  H   UNL A   1      38.648  34.709  32.075  1.00  0.00     0.167 HD
ATOM     61  C   UNL A   1      41.328  33.330  32.590  1.00  0.00     0.074 A 
ATOM     62  C   UNL A   1      40.216  32.945  33.451  1.00  0.00     0.031 C 
ATOM     63  C   UNL A   1      41.371  34.034  31.421  1.00  0.00     0.034 A 
BRANCH  50  64
ATOM     64  C   UNL A   1      35.948  33.294  31.450  1.00  0.00     0.023 A 
ATOM     65  C   UNL A   1      34.898  34.145  31.076  1.00  0.00     0.031 A 
ATOM     66  C   UNL A   1      36.001  32.916  32.812  1.00  0.00     0.131 A 
ATOM     67  C   UNL A   1      33.962  34.579  32.031  1.00  0.00     0.055 A 
ATOM     68  C   UNL A   1      35.029  33.288  33.741  1.00  0.00     0.041 A 
ATOM     69  F   UNL A   1      37.043  32.244  33.322  1.00  0.00    -0.206 F 
ATOM     70  C   UNL A   1      34.007  34.137  33.354  1.00  0.00     0.022 A 
BRANCH  67  71
ATOM     71  S   UNL A   1      32.767  35.853  31.554  1.00  0.00     0.124 S 
ATOM     72  O   UNL A   1      31.643  35.556  32.436  1.00  0.00    -0.237 OA
ATOM     73  O   UNL A   1      33.502  37.081  31.840  1.00  0.00    -0.237 OA
ATOM     74  O   UNL A   1      32.532  35.584  30.137  1.00  0.00    -0.744 OA
ENDBRANCH  67  71
ENDBRANCH  50  64
BRANCH  51  75
ATOM     75  C   UNL A   1      42.591  29.374  34.927  1.00  0.00     0.023 A 
ATOM     76  C   UNL A   1      41.855  28.216  35.237  1.00  0.00     0.031 A 
ATOM     77  C   UNL A   1      43.752  29.609  35.703  1.00  0.00     0.131 A 
ATOM     78  C   UNL A   1      42.280  27.357  36.273  1.00  0.00     0.055 A 
ATOM     79  C   UNL A   1      44.152  28.772  36.746  1.00  0.00     0.041 A 
ATOM     80  F   UNL A   1      44.597  30.612  35.421  1.00  0.00    -0.206 F 
ATOM     81  C   UNL A   1      43.421  27.632  37.030  1.00  0.00     0.022 A 
BRANCH  78  82
ATOM     82  S   UNL A   1      41.432  25.772  36.553  1.00  0.00     0.124 S 
ATOM     83  O   UNL A   1      40.769  25.554  35.272  1.00  0.00    -0.237 OA
ATOM     84  O   UNL A   1      42.534  24.871  36.874  1.00  0.00    -0.237 OA
ATOM     85  O   UNL A   1      40.538  26.065  37.673  1.00  0.00    -0.744 OA
ENDBRANCH  78  82
ENDBRANCH  51  75
BRANCH  63  86
ATOM     86  C   UNL A   1      42.706  34.204  30.729  1.00  0.00     0.023 A 
ATOM     87  C   UNL A   1      43.188  33.353  29.711  1.00  0.00     0.031 A 
ATOM     88  C   UNL A   1      43.442  35.369  31.011  1.00  0.00     0.131 A 
ATOM     89  C   UNL A   1      44.374  33.679  29.024  1.00  0.00     0.055 A 
ATOM     90  C   UNL A   1      44.607  35.696  30.319  1.00  0.00     0.041 A 
ATOM     91  F   UNL A   1      43.010  36.236  31.944  1.00  0.00    -0.206 F 
ATOM     92  C   UNL A   1      45.079  34.850  29.322  1.00  0.00     0.022 A 
BRANCH  89  93
ATOM     93  S   UNL A   1      44.996  32.595  27.698  1.00  0.00     0.124 S 
ATOM     94  O   UNL A   1      43.917  31.629  27.524  1.00  0.00    -0.237 OA
ATOM     95  O   UNL A   1      45.209  33.527  26.594  1.00  0.00    -0.237 OA
ATOM     96  O   UNL A   1      46.226  32.035  28.261  1.00  0.00    -0.744 OA
ENDBRANCH  89  93
ENDBRANCH  63  86
ENDBRANCH  37  38
ENDBRANCH  30  32
ENDBRANCH  29  30
ENDBRANCH  28  29
ENDBRANCH  27  28
ENDBRANCH  26  27
ENDBRANCH   1  26
TORSDOF 21
ENDMDL
