MODEL 1
REMARK VINA RESULT:      -9.8      0.000      0.000
REMARK SMILES Cc1coc2cc3c(cc12)[C@@H](C)[C@H](CCC(=O)N[C@@H](Cc1c[nH]c2ccccc12)C(=O)OCCOCCOCCOC(=O)c1ccc(-c2c4nc(c(-c5cc(S(=O)(=O)[O-])ccc5F)c5ccc([nH]5)c(-c5cc(S(=O)(=O)[O-])ccc5F)c5nc(c(-c6cc(S(=O)(=O)[O-])ccc6F)c6ccc2[nH]6)C=C5)C=C4)cc1)C(=O)O3
REMARK SMILES IDX 36 1 35 2 34 3 33 4 32 5 30 6 31 7 19 8 18 9 16 10 17 11
REMARK SMILES IDX 15 13 14 14 13 15 1 16 2 17 3 18 10 19 4 20 5 21 9 22 6 23
REMARK SMILES IDX 8 24 7 25 11 26 109 27 12 28 107 29 108 30 20 31 21 32 22 33
REMARK SMILES IDX 29 34 23 35 24 36 28 37 25 39 27 40 26 41 37 42 38 43 39 44
REMARK SMILES IDX 40 45 41 46 42 47 43 48 44 49 45 50 106 51 46 52 105 53
REMARK SMILES IDX 47 54 48 55 49 56 99 57 50 58 104 59 98 60 100 61 51 62
REMARK SMILES IDX 103 63 97 64 96 65 52 67 84 68 64 69 83 70 65 71 68 72 82 73
REMARK SMILES IDX 101 74 66 75 67 76 81 78 102 79 69 80 53 81 54 82 62 83
REMARK SMILES IDX 55 84 61 85 63 86 60 87 56 88 57 89 58 90 59 91 85 92 86 93
REMARK SMILES IDX 94 94 87 95 93 96 95 97 92 98 88 99 89 100 90 101 91 102
REMARK SMILES IDX 70 103 71 104 79 105 72 106 78 107 80 108 77 109 73 110
REMARK SMILES IDX 74 111 75 112 76 113
REMARK H PARENT 18 12 23 38 100 66 68 77
REMARK Flexibility Score: inf
ROOT
ATOM      1  C   UNL A   1      44.663  24.820  29.666  1.00  0.00     0.188 C 
ENDROOT
BRANCH   1   2
ATOM      2  O   UNL A   1      45.823  24.679  28.883  1.00  0.00    -0.376 OA
BRANCH   2   3
ATOM      3  C   UNL A   1      45.671  24.141  27.588  1.00  0.00     0.202 C 
BRANCH   3   4
ATOM      4  C   UNL A   1      44.721  22.971  27.300  1.00  0.00     0.261 C 
BRANCH   4   5
ATOM      5  O   UNL A   1      44.044  22.982  26.017  1.00  0.00    -0.462 OA
BRANCH   5   6
ATOM      6  C   UNL A   1      42.979  23.821  25.985  1.00  0.00     0.329 C 
ATOM      7  O   UNL A   1      43.072  24.943  25.478  1.00  0.00    -0.250 OA
BRANCH   6   8
ATOM      8  C   UNL A   1      41.610  23.378  26.586  1.00  0.00     0.196 C 
BRANCH   8   9
ATOM      9  N   UNL A   1      40.786  22.006  26.368  1.00  0.00    -0.342 N 
ATOM     10  C   UNL A   1      39.512  21.490  26.008  1.00  0.00     0.220 C 
ATOM     11  O   UNL A   1      39.552  20.256  25.802  1.00  0.00    -0.275 OA
ATOM     12  H   UNL A   1      41.387  21.248  26.550  1.00  0.00     0.164 HD
BRANCH  10  13
ATOM     13  C   UNL A   1      37.933  22.132  25.767  1.00  0.00     0.101 C 
BRANCH  13  14
ATOM     14  C   UNL A   1      36.439  21.563  25.282  1.00  0.00     0.026 C 
BRANCH  14  15
ATOM     15  C   UNL A   1      35.229  21.613  26.260  1.00  0.00     0.107 C 
ATOM     16  C   UNL A   1      32.671  28.169  25.850  1.00  0.00     0.048 C 
ATOM     17  C   UNL A   1      33.179  27.351  24.727  1.00  0.00    -0.005 A 
ATOM     18  C   UNL A   1      33.277  27.640  23.385  1.00  0.00     0.199 A 
ATOM     19  C   UNL A   1      33.698  26.046  24.868  1.00  0.00     0.024 A 
ATOM     20  O   UNL A   1      33.716  26.565  22.678  1.00  0.00    -0.464 OA
ATOM     21  C   UNL A   1      33.943  25.578  23.583  1.00  0.00     0.137 A 
ATOM     22  C   UNL A   1      33.919  25.214  25.966  1.00  0.00     0.020 A 
ATOM     23  C   UNL A   1      34.272  24.273  23.286  1.00  0.00     0.095 A 
ATOM     24  C   UNL A   1      34.347  23.932  25.715  1.00  0.00    -0.001 A 
ATOM     25  C   UNL A   1      34.347  23.490  24.420  1.00  0.00     0.138 A 
ATOM     26  C   UNL A   1      34.485  22.879  26.738  1.00  0.00     0.034 C 
ATOM     27  O   UNL A   1      34.081  22.115  24.312  1.00  0.00    -0.426 OA
ATOM     28  C   UNL A   1      33.034  22.568  27.089  1.00  0.00     0.014 C 
ATOM     29  C   UNL A   1      34.303  21.126  25.285  1.00  0.00     0.314 C 
ATOM     30  O   UNL A   1      34.086  19.953  25.141  1.00  0.00    -0.251 OA
ENDBRANCH  14  15
ENDBRANCH  13  14
ENDBRANCH  10  13
ENDBRANCH   8   9
BRANCH   8  31
ATOM     31  C   UNL A   1      41.629  24.094  27.982  1.00  0.00     0.074 C 
BRANCH  31  32
ATOM     32  C   UNL A   1      40.817  25.311  28.204  1.00  0.00    -0.020 A 
ATOM     33  C   UNL A   1      39.444  25.368  28.097  1.00  0.00     0.087 A 
ATOM     34  C   UNL A   1      41.260  26.636  28.448  1.00  0.00     0.003 A 
ATOM     35  N   UNL A   1      39.053  26.569  28.606  1.00  0.00    -0.361 N 
ATOM     36  C   UNL A   1      40.161  27.282  28.999  1.00  0.00     0.046 A 
ATOM     37  C   UNL A   1      42.492  27.311  28.401  1.00  0.00     0.010 A 
ATOM     38  H   UNL A   1      38.123  26.880  28.681  1.00  0.00     0.166 HD
ATOM     39  C   UNL A   1      40.300  28.425  29.784  1.00  0.00     0.026 A 
ATOM     40  C   UNL A   1      42.656  28.452  29.184  1.00  0.00     0.001 A 
ATOM     41  C   UNL A   1      41.589  28.949  29.927  1.00  0.00     0.002 A 
ENDBRANCH  31  32
ENDBRANCH   8  31
ENDBRANCH   6   8
ENDBRANCH   5   6
ENDBRANCH   4   5
ENDBRANCH   3   4
ENDBRANCH   2   3
ENDBRANCH   1   2
BRANCH   1  42
ATOM     42  C   UNL A   1      44.786  24.350  31.129  1.00  0.00     0.188 C 
BRANCH  42  43
ATOM     43  O   UNL A   1      43.910  24.898  32.088  1.00  0.00    -0.376 OA
BRANCH  43  44
ATOM     44  C   UNL A   1      44.585  25.221  33.301  1.00  0.00     0.202 C 
BRANCH  44  45
ATOM     45  C   UNL A   1      46.130  24.935  33.425  1.00  0.00     0.261 C 
BRANCH  45  46
ATOM     46  O   UNL A   1      47.014  26.064  33.816  1.00  0.00    -0.460 OA
BRANCH  46  47
ATOM     47  C   UNL A   1      46.885  27.284  33.170  1.00  0.00     0.338 C 
ATOM     48  O   UNL A   1      46.992  27.408  31.958  1.00  0.00    -0.246 OA
BRANCH  47  49
ATOM     49  C   UNL A   1      46.163  28.343  34.051  1.00  0.00     0.060 A 
ATOM     50  C   UNL A   1      45.583  28.186  35.322  1.00  0.00     0.016 A 
ATOM     51  C   UNL A   1      45.795  29.507  33.394  1.00  0.00     0.016 A 
ATOM     52  C   UNL A   1      44.467  29.027  35.781  1.00  0.00     0.010 A 
ATOM     53  C   UNL A   1      44.716  30.300  33.871  1.00  0.00     0.010 A 
ATOM     54  C   UNL A   1      43.900  30.040  34.984  1.00  0.00    -0.014 A 
BRANCH  54  55
ATOM     55  C   UNL A   1      42.871  31.181  35.323  1.00  0.00     0.031 A 
ATOM     56  C   UNL A   1      41.781  31.069  34.330  1.00  0.00     0.074 A 
ATOM     57  C   UNL A   1      42.593  32.102  36.336  1.00  0.00     0.049 A 
ATOM     58  N   UNL A   1      41.821  31.680  33.193  1.00  0.00    -0.248 NA
ATOM     59  C   UNL A   1      40.735  30.047  34.428  1.00  0.00     0.031 C 
ATOM     60  C   UNL A   1      43.426  32.570  37.447  1.00  0.00     0.029 A 
ATOM     61  N   UNL A   1      41.398  32.830  36.627  1.00  0.00    -0.354 N 
ATOM     62  C   UNL A   1      40.641  31.339  32.567  1.00  0.00     0.074 A 
ATOM     63  C   UNL A   1      40.215  30.119  33.201  1.00  0.00     0.031 C 
ATOM     64  C   UNL A   1      42.731  33.348  38.329  1.00  0.00     0.029 A 
ATOM     65  C   UNL A   1      41.324  33.482  37.914  1.00  0.00     0.049 A 
ATOM     66  H   UNL A   1      40.658  32.884  35.979  1.00  0.00     0.167 HD
ATOM     67  C   UNL A   1      39.959  32.265  31.839  1.00  0.00     0.034 A 
ATOM     68  C   UNL A   1      40.398  34.368  38.509  1.00  0.00     0.034 A 
ATOM     69  C   UNL A   1      40.712  33.506  31.778  1.00  0.00     0.049 A 
ATOM     70  C   UNL A   1      39.927  35.150  37.353  1.00  0.00     0.074 A 
ATOM     71  C   UNL A   1      41.965  33.876  31.327  1.00  0.00     0.029 A 
ATOM     72  N   UNL A   1      40.309  34.513  32.625  1.00  0.00    -0.354 N 
ATOM     73  N   UNL A   1      40.693  35.979  36.708  1.00  0.00    -0.248 NA
ATOM     74  C   UNL A   1      38.795  34.598  36.632  1.00  0.00     0.031 C 
ATOM     75  C   UNL A   1      42.434  34.849  32.253  1.00  0.00     0.029 A 
ATOM     76  C   UNL A   1      41.417  35.110  33.166  1.00  0.00     0.049 A 
ATOM     77  H   UNL A   1      39.376  34.764  32.812  1.00  0.00     0.167 HD
ATOM     78  C   UNL A   1      40.457  35.654  35.385  1.00  0.00     0.074 A 
ATOM     79  C   UNL A   1      39.232  34.844  35.397  1.00  0.00     0.031 C 
ATOM     80  C   UNL A   1      41.433  35.781  34.442  1.00  0.00     0.034 A 
BRANCH  67  81
ATOM     81  C   UNL A   1      38.481  32.213  31.539  1.00  0.00     0.023 A 
ATOM     82  C   UNL A   1      37.474  32.756  32.358  1.00  0.00     0.031 A 
ATOM     83  C   UNL A   1      38.057  31.732  30.284  1.00  0.00     0.131 A 
ATOM     84  C   UNL A   1      36.141  32.829  31.930  1.00  0.00     0.055 A 
ATOM     85  C   UNL A   1      36.743  31.862  29.830  1.00  0.00     0.041 A 
ATOM     86  F   UNL A   1      38.924  31.161  29.432  1.00  0.00    -0.206 F 
ATOM     87  C   UNL A   1      35.775  32.419  30.653  1.00  0.00     0.022 A 
BRANCH  84  88
ATOM     88  S   UNL A   1      34.850  33.472  33.030  1.00  0.00     0.124 S 
ATOM     89  O   UNL A   1      35.310  33.012  34.335  1.00  0.00    -0.237 OA
ATOM     90  O   UNL A   1      34.954  34.910  32.792  1.00  0.00    -0.237 OA
ATOM     91  O   UNL A   1      33.630  32.847  32.529  1.00  0.00    -0.744 OA
ENDBRANCH  84  88
ENDBRANCH  67  81
BRANCH  68  92
ATOM     92  C   UNL A   1      39.276  34.195  39.654  1.00  0.00     0.023 A 
ATOM     93  C   UNL A   1      38.461  33.027  39.880  1.00  0.00     0.031 A 
ATOM     94  C   UNL A   1      38.920  35.279  40.492  1.00  0.00     0.131 A 
ATOM     95  C   UNL A   1      37.587  32.892  41.006  1.00  0.00     0.055 A 
ATOM     96  C   UNL A   1      37.961  35.182  41.538  1.00  0.00     0.041 A 
ATOM     97  F   UNL A   1      39.470  36.488  40.306  1.00  0.00    -0.206 F 
ATOM     98  C   UNL A   1      37.340  33.976  41.836  1.00  0.00     0.022 A 
BRANCH  95  99
ATOM     99  S   UNL A   1      36.782  31.319  41.552  1.00  0.00     0.124 S 
ATOM    100  O   UNL A   1      37.039  31.336  42.993  1.00  0.00    -0.237 OA
ATOM    101  O   UNL A   1      35.390  31.532  41.179  1.00  0.00    -0.237 OA
ATOM    102  O   UNL A   1      37.471  30.277  40.810  1.00  0.00    -0.744 OA
ENDBRANCH  95  99
ENDBRANCH  68  92
BRANCH  80 103
ATOM    103  C   UNL A   1      42.732  36.461  34.822  1.00  0.00     0.023 A 
ATOM    104  C   UNL A   1      42.859  37.830  34.601  1.00  0.00     0.031 A 
ATOM    105  C   UNL A   1      43.922  35.752  35.055  1.00  0.00     0.131 A 
ATOM    106  C   UNL A   1      44.136  38.415  34.593  1.00  0.00     0.055 A 
ATOM    107  C   UNL A   1      45.173  36.355  35.212  1.00  0.00     0.041 A 
ATOM    108  F   UNL A   1      43.935  34.434  34.917  1.00  0.00    -0.206 F 
ATOM    109  C   UNL A   1      45.285  37.708  34.966  1.00  0.00     0.022 A 
BRANCH 106 110
ATOM    110  S   UNL A   1      44.382  39.991  33.735  1.00  0.00     0.124 S 
ATOM    111  O   UNL A   1      45.605  39.744  32.978  1.00  0.00    -0.237 OA
ATOM    112  O   UNL A   1      43.161  40.097  32.939  1.00  0.00    -0.237 OA
ATOM    113  O   UNL A   1      44.496  40.964  34.819  1.00  0.00    -0.744 OA
ENDBRANCH 106 110
ENDBRANCH  80 103
ENDBRANCH  54  55
ENDBRANCH  47  49
ENDBRANCH  46  47
ENDBRANCH  45  46
ENDBRANCH  44  45
ENDBRANCH  43  44
ENDBRANCH  42  43
ENDBRANCH   1  42
TORSDOF 26
ENDMDL
MODEL 2
REMARK VINA RESULT:      -9.7      3.780      6.053
REMARK SMILES Cc1coc2cc3c(cc12)[C@@H](C)[C@H](CCC(=O)N[C@@H](Cc1c[nH]c2ccccc12)C(=O)OCCOCCOCCOC(=O)c1ccc(-c2c4nc(c(-c5cc(S(=O)(=O)[O-])ccc5F)c5ccc([nH]5)c(-c5cc(S(=O)(=O)[O-])ccc5F)c5nc(c(-c6cc(S(=O)(=O)[O-])ccc6F)c6ccc2[nH]6)C=C5)C=C4)cc1)C(=O)O3
REMARK SMILES IDX 36 1 35 2 34 3 33 4 32 5 30 6 31 7 19 8 18 9 16 10 17 11
REMARK SMILES IDX 15 13 14 14 13 15 1 16 2 17 3 18 10 19 4 20 5 21 9 22 6 23
REMARK SMILES IDX 8 24 7 25 11 26 109 27 12 28 107 29 108 30 20 31 21 32 22 33
REMARK SMILES IDX 29 34 23 35 24 36 28 37 25 39 27 40 26 41 37 42 38 43 39 44
REMARK SMILES IDX 40 45 41 46 42 47 43 48 44 49 45 50 106 51 46 52 105 53
REMARK SMILES IDX 47 54 48 55 49 56 99 57 50 58 104 59 98 60 100 61 51 62
REMARK SMILES IDX 103 63 97 64 96 65 52 67 84 68 64 69 83 70 65 71 68 72 82 73
REMARK SMILES IDX 101 74 66 75 67 76 81 78 102 79 69 80 53 81 54 82 62 83
REMARK SMILES IDX 55 84 61 85 63 86 60 87 56 88 57 89 58 90 59 91 85 92 86 93
REMARK SMILES IDX 94 94 87 95 93 96 95 97 92 98 88 99 89 100 90 101 91 102
REMARK SMILES IDX 70 103 71 104 79 105 72 106 78 107 80 108 77 109 73 110
REMARK SMILES IDX 74 111 75 112 76 113
REMARK H PARENT 18 12 23 38 100 66 68 77
REMARK Flexibility Score: inf
ROOT
ATOM      1  C   UNL A   1      51.490  28.159  29.601  1.00  0.00     0.188 C 
ENDROOT
BRANCH   1   2
ATOM      2  O   UNL A   1      50.718  28.507  28.478  1.00  0.00    -0.376 OA
BRANCH   2   3
ATOM      3  C   UNL A   1      50.623  27.561  27.435  1.00  0.00     0.202 C 
BRANCH   3   4
ATOM      4  C   UNL A   1      49.752  27.801  26.196  1.00  0.00     0.261 C 
BRANCH   4   5
ATOM      5  O   UNL A   1      48.438  28.372  26.425  1.00  0.00    -0.462 OA
BRANCH   5   6
ATOM      6  C   UNL A   1      47.509  27.939  25.537  1.00  0.00     0.329 C 
ATOM      7  O   UNL A   1      47.298  28.558  24.489  1.00  0.00    -0.250 OA
BRANCH   6   8
ATOM      8  C   UNL A   1      46.691  26.643  25.823  1.00  0.00     0.196 C 
BRANCH   8   9
ATOM      9  N   UNL A   1      46.600  25.759  27.173  1.00  0.00    -0.342 N 
ATOM     10  C   UNL A   1      45.800  25.518  28.321  1.00  0.00     0.220 C 
ATOM     11  O   UNL A   1      46.177  24.499  28.943  1.00  0.00    -0.275 OA
ATOM     12  H   UNL A   1      47.390  25.172  27.215  1.00  0.00     0.164 HD
BRANCH  10  13
ATOM     13  C   UNL A   1      44.436  26.258  29.066  1.00  0.00     0.101 C 
BRANCH  13  14
ATOM     14  C   UNL A   1      43.630  27.719  28.973  1.00  0.00     0.026 C 
BRANCH  14  15
ATOM     15  C   UNL A   1      43.684  28.717  30.165  1.00  0.00     0.107 C 
ATOM     16  C   UNL A   1      47.324  34.297  27.861  1.00  0.00     0.048 C 
ATOM     17  C   UNL A   1      46.333  33.513  27.092  1.00  0.00    -0.005 A 
ATOM     18  C   UNL A   1      45.888  33.664  25.797  1.00  0.00     0.199 A 
ATOM     19  C   UNL A   1      45.644  32.391  27.597  1.00  0.00     0.024 A 
ATOM     20  O   UNL A   1      44.894  32.781  25.511  1.00  0.00    -0.464 OA
ATOM     21  C   UNL A   1      44.723  32.023  26.624  1.00  0.00     0.137 A 
ATOM     22  C   UNL A   1      45.686  31.705  28.811  1.00  0.00     0.020 A 
ATOM     23  C   UNL A   1      43.726  31.091  26.818  1.00  0.00     0.095 A 
ATOM     24  C   UNL A   1      44.771  30.696  29.003  1.00  0.00    -0.001 A 
ATOM     25  C   UNL A   1      43.764  30.552  28.088  1.00  0.00     0.138 A 
ATOM     26  C   UNL A   1      44.576  29.973  30.273  1.00  0.00     0.034 C 
ATOM     27  O   UNL A   1      42.570  30.082  28.660  1.00  0.00    -0.426 OA
ATOM     28  C   UNL A   1      43.933  31.033  31.161  1.00  0.00     0.014 C 
ATOM     29  C   UNL A   1      42.431  29.322  29.834  1.00  0.00     0.314 C 
ATOM     30  O   UNL A   1      41.390  28.916  30.274  1.00  0.00    -0.251 OA
ENDBRANCH  14  15
ENDBRANCH  13  14
ENDBRANCH  10  13
ENDBRANCH   8   9
BRANCH   8  31
ATOM     31  C   UNL A   1      45.433  26.853  24.910  1.00  0.00     0.074 C 
BRANCH  31  32
ATOM     32  C   UNL A   1      44.163  26.162  25.223  1.00  0.00    -0.020 A 
ATOM     33  C   UNL A   1      43.993  24.794  25.221  1.00  0.00     0.087 A 
ATOM     34  C   UNL A   1      42.885  26.729  25.466  1.00  0.00     0.003 A 
ATOM     35  N   UNL A   1      42.780  24.541  25.788  1.00  0.00    -0.361 N 
ATOM     36  C   UNL A   1      42.171  25.730  26.114  1.00  0.00     0.046 A 
ATOM     37  C   UNL A   1      42.310  28.005  25.343  1.00  0.00     0.010 A 
ATOM     38  H   UNL A   1      42.399  23.647  25.940  1.00  0.00     0.166 HD
ATOM     39  C   UNL A   1      41.068  26.019  26.914  1.00  0.00     0.026 A 
ATOM     40  C   UNL A   1      41.210  28.319  26.139  1.00  0.00     0.001 A 
ATOM     41  C   UNL A   1      40.652  27.354  26.972  1.00  0.00     0.002 A 
ENDBRANCH  31  32
ENDBRANCH   8  31
ENDBRANCH   6   8
ENDBRANCH   5   6
ENDBRANCH   4   5
ENDBRANCH   3   4
ENDBRANCH   2   3
ENDBRANCH   1   2
BRANCH   1  42
ATOM     42  C   UNL A   1      50.698  27.664  30.827  1.00  0.00     0.188 C 
BRANCH  42  43
ATOM     43  O   UNL A   1      50.098  26.390  30.773  1.00  0.00    -0.376 OA
BRANCH  43  44
ATOM     44  C   UNL A   1      48.678  26.472  30.687  1.00  0.00     0.202 C 
BRANCH  44  45
ATOM     45  C   UNL A   1      47.840  26.748  31.993  1.00  0.00     0.261 C 
BRANCH  45  46
ATOM     46  O   UNL A   1      46.366  26.877  31.855  1.00  0.00    -0.460 OA
BRANCH  46  47
ATOM     47  C   UNL A   1      45.537  26.086  32.634  1.00  0.00     0.338 C 
ATOM     48  O   UNL A   1      45.810  24.932  32.934  1.00  0.00    -0.246 OA
BRANCH  47  49
ATOM     49  C   UNL A   1      44.503  26.926  33.435  1.00  0.00     0.060 A 
ATOM     50  C   UNL A   1      43.122  26.709  33.594  1.00  0.00     0.016 A 
ATOM     51  C   UNL A   1      44.927  28.194  33.804  1.00  0.00     0.016 A 
ATOM     52  C   UNL A   1      42.180  27.810  33.845  1.00  0.00     0.010 A 
ATOM     53  C   UNL A   1      43.988  29.233  34.046  1.00  0.00     0.010 A 
ATOM     54  C   UNL A   1      42.589  29.154  33.938  1.00  0.00    -0.014 A 
BRANCH  54  55
ATOM     55  C   UNL A   1      41.823  30.448  34.398  1.00  0.00     0.031 A 
ATOM     56  C   UNL A   1      40.650  30.579  33.508  1.00  0.00     0.074 A 
ATOM     57  C   UNL A   1      41.809  31.363  35.454  1.00  0.00     0.049 A 
ATOM     58  N   UNL A   1      40.704  31.219  32.387  1.00  0.00    -0.248 NA
ATOM     59  C   UNL A   1      39.444  29.762  33.677  1.00  0.00     0.031 C 
ATOM     60  C   UNL A   1      42.807  31.624  36.495  1.00  0.00     0.029 A 
ATOM     61  N   UNL A   1      40.800  32.284  35.872  1.00  0.00    -0.354 N 
ATOM     62  C   UNL A   1      39.432  31.125  31.865  1.00  0.00     0.074 A 
ATOM     63  C   UNL A   1      38.843  29.978  32.505  1.00  0.00     0.031 C 
ATOM     64  C   UNL A   1      42.348  32.480  37.456  1.00  0.00     0.029 A 
ATOM     65  C   UNL A   1      40.960  32.885  37.177  1.00  0.00     0.049 A 
ATOM     66  H   UNL A   1      40.030  32.499  35.297  1.00  0.00     0.167 HD
ATOM     67  C   UNL A   1      38.874  32.190  31.225  1.00  0.00     0.034 A 
ATOM     68  C   UNL A   1      40.269  33.900  37.876  1.00  0.00     0.034 A 
ATOM     69  C   UNL A   1      39.836  33.273  31.125  1.00  0.00     0.049 A 
ATOM     70  C   UNL A   1      39.854  34.802  36.788  1.00  0.00     0.074 A 
ATOM     71  C   UNL A   1      41.092  33.426  30.570  1.00  0.00     0.029 A 
ATOM     72  N   UNL A   1      39.702  34.301  32.031  1.00  0.00    -0.354 N 
ATOM     73  N   UNL A   1      40.702  35.503  36.096  1.00  0.00    -0.248 NA
ATOM     74  C   UNL A   1      38.581  34.496  36.161  1.00  0.00     0.031 C 
ATOM     75  C   UNL A   1      41.812  34.258  31.472  1.00  0.00     0.029 A 
ATOM     76  C   UNL A   1      40.944  34.662  32.481  1.00  0.00     0.049 A 
ATOM     77  H   UNL A   1      38.851  34.711  32.309  1.00  0.00     0.167 HD
ATOM     78  C   UNL A   1      40.296  35.281  34.792  1.00  0.00     0.074 A 
ATOM     79  C   UNL A   1      38.947  34.709  34.897  1.00  0.00     0.031 C 
ATOM     80  C   UNL A   1      41.194  35.267  33.766  1.00  0.00     0.034 A 
BRANCH  67  81
ATOM     81  C   UNL A   1      37.392  32.420  31.062  1.00  0.00     0.023 A 
ATOM     82  C   UNL A   1      36.562  33.028  32.021  1.00  0.00     0.031 A 
ATOM     83  C   UNL A   1      36.796  32.164  29.811  1.00  0.00     0.131 A 
ATOM     84  C   UNL A   1      35.234  33.372  31.730  1.00  0.00     0.055 A 
ATOM     85  C   UNL A   1      35.495  32.563  29.497  1.00  0.00     0.041 A 
ATOM     86  F   UNL A   1      37.481  31.556  28.829  1.00  0.00    -0.206 F 
ATOM     87  C   UNL A   1      34.706  33.177  30.459  1.00  0.00     0.022 A 
BRANCH  84  88
ATOM     88  S   UNL A   1      34.164  34.094  33.005  1.00  0.00     0.124 S 
ATOM     89  O   UNL A   1      33.205  33.020  33.235  1.00  0.00    -0.237 OA
ATOM     90  O   UNL A   1      35.118  34.333  34.085  1.00  0.00    -0.237 OA
ATOM     91  O   UNL A   1      33.634  35.295  32.367  1.00  0.00    -0.744 OA
ENDBRANCH  84  88
ENDBRANCH  67  81
BRANCH  68  92
ATOM     92  C   UNL A   1      39.237  33.888  39.115  1.00  0.00     0.023 A 
ATOM     93  C   UNL A   1      38.246  32.877  39.389  1.00  0.00     0.031 A 
ATOM     94  C   UNL A   1      39.158  34.986  40.005  1.00  0.00     0.131 A 
ATOM     95  C   UNL A   1      37.462  32.860  40.588  1.00  0.00     0.055 A 
ATOM     96  C   UNL A   1      38.292  35.023  41.133  1.00  0.00     0.041 A 
ATOM     97  F   UNL A   1      39.902  36.083  39.796  1.00  0.00    -0.206 F 
ATOM     98  C   UNL A   1      37.489  33.938  41.460  1.00  0.00     0.022 A 
BRANCH  95  99
ATOM     99  S   UNL A   1      36.434  31.437  41.171  1.00  0.00     0.124 S 
ATOM    100  O   UNL A   1      35.964  31.921  42.470  1.00  0.00    -0.237 OA
ATOM    101  O   UNL A   1      35.404  31.351  40.144  1.00  0.00    -0.237 OA
ATOM    102  O   UNL A   1      37.356  30.315  41.223  1.00  0.00    -0.744 OA
ENDBRANCH  95  99
ENDBRANCH  68  92
BRANCH  80 103
ATOM    103  C   UNL A   1      42.624  35.682  34.041  1.00  0.00     0.023 A 
ATOM    104  C   UNL A   1      42.998  36.999  33.790  1.00  0.00     0.031 A 
ATOM    105  C   UNL A   1      43.668  34.754  34.201  1.00  0.00     0.131 A 
ATOM    106  C   UNL A   1      44.360  37.324  33.681  1.00  0.00     0.055 A 
ATOM    107  C   UNL A   1      45.020  35.103  34.258  1.00  0.00     0.041 A 
ATOM    108  F   UNL A   1      43.416  33.459  34.084  1.00  0.00    -0.206 F 
ATOM    109  C   UNL A   1      45.375  36.408  33.982  1.00  0.00     0.022 A 
BRANCH 106 110
ATOM    110  S   UNL A   1      44.844  38.820  32.782  1.00  0.00     0.124 S 
ATOM    111  O   UNL A   1      43.554  39.420  32.460  1.00  0.00    -0.237 OA
ATOM    112  O   UNL A   1      45.636  39.532  33.783  1.00  0.00    -0.237 OA
ATOM    113  O   UNL A   1      45.606  38.312  31.644  1.00  0.00    -0.744 OA
ENDBRANCH 106 110
ENDBRANCH  80 103
ENDBRANCH  54  55
ENDBRANCH  47  49
ENDBRANCH  46  47
ENDBRANCH  45  46
ENDBRANCH  44  45
ENDBRANCH  43  44
ENDBRANCH  42  43
ENDBRANCH   1  42
TORSDOF 26
ENDMDL
MODEL 3
REMARK VINA RESULT:      -9.4      5.551     13.599
REMARK SMILES Cc1coc2cc3c(cc12)[C@@H](C)[C@H](CCC(=O)N[C@@H](Cc1c[nH]c2ccccc12)C(=O)OCCOCCOCCOC(=O)c1ccc(-c2c4nc(c(-c5cc(S(=O)(=O)[O-])ccc5F)c5ccc([nH]5)c(-c5cc(S(=O)(=O)[O-])ccc5F)c5nc(c(-c6cc(S(=O)(=O)[O-])ccc6F)c6ccc2[nH]6)C=C5)C=C4)cc1)C(=O)O3
REMARK SMILES IDX 36 1 35 2 34 3 33 4 32 5 30 6 31 7 19 8 18 9 16 10 17 11
REMARK SMILES IDX 15 13 14 14 13 15 1 16 2 17 3 18 10 19 4 20 5 21 9 22 6 23
REMARK SMILES IDX 8 24 7 25 11 26 109 27 12 28 107 29 108 30 20 31 21 32 22 33
REMARK SMILES IDX 29 34 23 35 24 36 28 37 25 39 27 40 26 41 37 42 38 43 39 44
REMARK SMILES IDX 40 45 41 46 42 47 43 48 44 49 45 50 106 51 46 52 105 53
REMARK SMILES IDX 47 54 48 55 49 56 99 57 50 58 104 59 98 60 100 61 51 62
REMARK SMILES IDX 103 63 97 64 96 65 52 67 84 68 64 69 83 70 65 71 68 72 82 73
REMARK SMILES IDX 101 74 66 75 67 76 81 78 102 79 69 80 53 81 54 82 62 83
REMARK SMILES IDX 55 84 61 85 63 86 60 87 56 88 57 89 58 90 59 91 85 92 86 93
REMARK SMILES IDX 94 94 87 95 93 96 95 97 92 98 88 99 89 100 90 101 91 102
REMARK SMILES IDX 70 103 71 104 79 105 72 106 78 107 80 108 77 109 73 110
REMARK SMILES IDX 74 111 75 112 76 113
REMARK H PARENT 18 12 23 38 100 66 68 77
REMARK Flexibility Score: inf
ROOT
ATOM      1  C   UNL A   1      43.909  33.654  25.654  1.00  0.00     0.188 C 
ENDROOT
BRANCH   1   2
ATOM      2  O   UNL A   1      42.989  34.696  25.442  1.00  0.00    -0.376 OA
BRANCH   2   3
ATOM      3  C   UNL A   1      43.140  35.864  26.220  1.00  0.00     0.202 C 
BRANCH   3   4
ATOM      4  C   UNL A   1      42.387  36.063  27.541  1.00  0.00     0.261 C 
BRANCH   4   5
ATOM      5  O   UNL A   1      42.267  34.903  28.404  1.00  0.00    -0.462 OA
BRANCH   5   6
ATOM      6  C   UNL A   1      42.547  35.175  29.702  1.00  0.00     0.329 C 
ATOM      7  O   UNL A   1      43.015  36.269  30.033  1.00  0.00    -0.250 OA
BRANCH   6   8
ATOM      8  C   UNL A   1      42.275  34.107  30.806  1.00  0.00     0.196 C 
BRANCH   8   9
ATOM      9  N   UNL A   1      42.893  33.985  32.294  1.00  0.00    -0.342 N 
ATOM     10  C   UNL A   1      44.110  33.824  33.009  1.00  0.00     0.220 C 
ATOM     11  O   UNL A   1      43.956  34.023  34.235  1.00  0.00    -0.275 OA
ATOM     12  H   UNL A   1      42.156  34.044  32.943  1.00  0.00     0.164 HD
BRANCH  10  13
ATOM     13  C   UNL A   1      45.742  33.441  32.618  1.00  0.00     0.101 C 
BRANCH  13  14
ATOM     14  C   UNL A   1      46.892  32.332  33.105  1.00  0.00     0.026 C 
BRANCH  14  15
ATOM     15  C   UNL A   1      46.454  30.983  33.745  1.00  0.00     0.107 C 
ATOM     16  C   UNL A   1      51.967  26.640  33.087  1.00  0.00     0.048 C 
ATOM     17  C   UNL A   1      52.016  28.080  33.418  1.00  0.00    -0.005 A 
ATOM     18  C   UNL A   1      53.092  28.901  33.671  1.00  0.00     0.199 A 
ATOM     19  C   UNL A   1      50.880  28.909  33.520  1.00  0.00     0.024 A 
ATOM     20  O   UNL A   1      52.688  30.149  34.030  1.00  0.00    -0.464 OA
ATOM     21  C   UNL A   1      51.332  30.145  33.968  1.00  0.00     0.137 A 
ATOM     22  C   UNL A   1      49.515  28.696  33.329  1.00  0.00     0.020 A 
ATOM     23  C   UNL A   1      50.504  31.168  34.379  1.00  0.00     0.095 A 
ATOM     24  C   UNL A   1      48.661  29.731  33.632  1.00  0.00    -0.001 A 
ATOM     25  C   UNL A   1      49.171  30.825  34.274  1.00  0.00     0.138 A 
ATOM     26  C   UNL A   1      47.190  29.629  33.633  1.00  0.00     0.034 C 
ATOM     27  O   UNL A   1      48.246  31.428  35.143  1.00  0.00    -0.426 OA
ATOM     28  C   UNL A   1      46.920  28.751  34.850  1.00  0.00     0.014 C 
ATOM     29  C   UNL A   1      46.845  31.377  35.063  1.00  0.00     0.314 C 
ATOM     30  O   UNL A   1      46.089  31.932  35.814  1.00  0.00    -0.251 OA
ENDBRANCH  14  15
ENDBRANCH  13  14
ENDBRANCH  10  13
ENDBRANCH   8   9
BRANCH   8  31
ATOM     31  C   UNL A   1      40.781  33.727  30.519  1.00  0.00     0.074 C 
BRANCH  31  32
ATOM     32  C   UNL A   1      39.824  33.575  31.637  1.00  0.00    -0.020 A 
ATOM     33  C   UNL A   1      39.005  34.578  32.110  1.00  0.00     0.087 A 
ATOM     34  C   UNL A   1      39.634  32.460  32.492  1.00  0.00     0.003 A 
ATOM     35  N   UNL A   1      38.113  33.998  32.961  1.00  0.00    -0.361 N 
ATOM     36  C   UNL A   1      38.380  32.652  33.055  1.00  0.00     0.046 A 
ATOM     37  C   UNL A   1      40.312  31.253  32.738  1.00  0.00     0.010 A 
ATOM     38  H   UNL A   1      37.390  34.468  33.434  1.00  0.00     0.166 HD
ATOM     39  C   UNL A   1      37.640  31.593  33.577  1.00  0.00     0.026 A 
ATOM     40  C   UNL A   1      39.590  30.178  33.253  1.00  0.00     0.001 A 
ATOM     41  C   UNL A   1      38.249  30.333  33.590  1.00  0.00     0.002 A 
ENDBRANCH  31  32
ENDBRANCH   8  31
ENDBRANCH   6   8
ENDBRANCH   5   6
ENDBRANCH   4   5
ENDBRANCH   3   4
ENDBRANCH   2   3
ENDBRANCH   1   2
BRANCH   1  42
ATOM     42  C   UNL A   1      45.288  34.081  26.194  1.00  0.00     0.188 C 
BRANCH  42  43
ATOM     43  O   UNL A   1      46.234  34.604  25.289  1.00  0.00    -0.376 OA
BRANCH  43  44
ATOM     44  C   UNL A   1      47.563  34.509  25.794  1.00  0.00     0.202 C 
BRANCH  44  45
ATOM     45  C   UNL A   1      48.051  35.542  26.880  1.00  0.00     0.261 C 
BRANCH  45  46
ATOM     46  O   UNL A   1      48.169  35.066  28.284  1.00  0.00    -0.460 OA
BRANCH  46  47
ATOM     47  C   UNL A   1      49.281  34.332  28.662  1.00  0.00     0.338 C 
ATOM     48  O   UNL A   1      50.228  34.823  29.262  1.00  0.00    -0.246 OA
BRANCH  47  49
ATOM     49  C   UNL A   1      49.007  32.802  28.660  1.00  0.00     0.060 A 
ATOM     50  C   UNL A   1      49.401  31.835  27.717  1.00  0.00     0.016 A 
ATOM     51  C   UNL A   1      48.020  32.376  29.537  1.00  0.00     0.016 A 
ATOM     52  C   UNL A   1      48.632  30.601  27.495  1.00  0.00     0.010 A 
ATOM     53  C   UNL A   1      47.302  31.173  29.293  1.00  0.00     0.010 A 
ATOM     54  C   UNL A   1      47.452  30.302  28.201  1.00  0.00    -0.014 A 
BRANCH  54  55
ATOM     55  C   UNL A   1      46.594  28.987  28.290  1.00  0.00     0.031 A 
ATOM     56  C   UNL A   1      45.178  29.409  28.272  1.00  0.00     0.074 A 
ATOM     57  C   UNL A   1      46.750  27.602  28.198  1.00  0.00     0.049 A 
ATOM     58  N   UNL A   1      44.531  29.697  29.352  1.00  0.00    -0.248 NA
ATOM     59  C   UNL A   1      44.497  29.812  27.037  1.00  0.00     0.031 C 
ATOM     60  C   UNL A   1      47.960  26.777  28.267  1.00  0.00     0.029 A 
ATOM     61  N   UNL A   1      45.789  26.572  27.959  1.00  0.00    -0.354 N 
ATOM     62  C   UNL A   1      43.263  30.030  28.927  1.00  0.00     0.074 A 
ATOM     63  C   UNL A   1      43.411  30.401  27.544  1.00  0.00     0.031 C 
ATOM     64  C   UNL A   1      47.718  25.468  27.958  1.00  0.00     0.029 A 
ATOM     65  C   UNL A   1      46.299  25.262  27.624  1.00  0.00     0.049 A 
ATOM     66  H   UNL A   1      44.822  26.748  28.019  1.00  0.00     0.167 HD
ATOM     67  C   UNL A   1      42.174  29.639  29.646  1.00  0.00     0.034 A 
ATOM     68  C   UNL A   1      45.698  23.995  27.444  1.00  0.00     0.034 A 
ATOM     69  C   UNL A   1      42.595  28.976  30.868  1.00  0.00     0.049 A 
ATOM     70  C   UNL A   1      44.587  24.037  28.410  1.00  0.00     0.074 A 
ATOM     71  C   UNL A   1      43.362  29.325  31.963  1.00  0.00     0.029 A 
ATOM     72  N   UNL A   1      42.549  27.600  30.871  1.00  0.00    -0.354 N 
ATOM     73  N   UNL A   1      44.776  24.046  29.696  1.00  0.00    -0.248 NA
ATOM     74  C   UNL A   1      43.340  24.596  27.920  1.00  0.00     0.031 C 
ATOM     75  C   UNL A   1      44.096  28.155  32.308  1.00  0.00     0.029 A 
ATOM     76  C   UNL A   1      43.675  27.117  31.482  1.00  0.00     0.049 A 
ATOM     77  H   UNL A   1      41.822  27.052  30.494  1.00  0.00     0.167 HD
ATOM     78  C   UNL A   1      43.938  25.060  30.124  1.00  0.00     0.074 A 
ATOM     79  C   UNL A   1      43.031  25.316  28.998  1.00  0.00     0.031 C 
ATOM     80  C   UNL A   1      44.252  25.824  31.209  1.00  0.00     0.034 A 
BRANCH  67  81
ATOM     81  C   UNL A   1      40.782  29.476  29.088  1.00  0.00     0.023 A 
ATOM     82  C   UNL A   1      39.690  30.307  29.398  1.00  0.00     0.031 A 
ATOM     83  C   UNL A   1      40.564  28.535  28.063  1.00  0.00     0.131 A 
ATOM     84  C   UNL A   1      38.474  30.207  28.708  1.00  0.00     0.055 A 
ATOM     85  C   UNL A   1      39.377  28.477  27.330  1.00  0.00     0.041 A 
ATOM     86  F   UNL A   1      41.523  27.666  27.705  1.00  0.00    -0.206 F 
ATOM     87  C   UNL A   1      38.323  29.321  27.647  1.00  0.00     0.022 A 
BRANCH  84  88
ATOM     88  S   UNL A   1      37.058  31.243  29.171  1.00  0.00     0.124 S 
ATOM     89  O   UNL A   1      36.196  31.116  28.003  1.00  0.00    -0.237 OA
ATOM     90  O   UNL A   1      36.590  30.572  30.381  1.00  0.00    -0.237 OA
ATOM     91  O   UNL A   1      37.653  32.560  29.383  1.00  0.00    -0.744 OA
ENDBRANCH  84  88
ENDBRANCH  67  81
BRANCH  68  92
ATOM     92  C   UNL A   1      45.373  23.098  26.144  1.00  0.00     0.023 A 
ATOM     93  C   UNL A   1      45.649  21.691  25.989  1.00  0.00     0.031 A 
ATOM     94  C   UNL A   1      44.864  23.689  24.963  1.00  0.00     0.131 A 
ATOM     95  C   UNL A   1      45.201  20.929  24.862  1.00  0.00     0.055 A 
ATOM     96  C   UNL A   1      44.529  22.948  23.796  1.00  0.00     0.041 A 
ATOM     97  F   UNL A   1      44.701  25.018  24.886  1.00  0.00    -0.206 F 
ATOM     98  C   UNL A   1      44.638  21.564  23.765  1.00  0.00     0.022 A 
BRANCH  95  99
ATOM     99  S   UNL A   1      45.210  19.083  24.749  1.00  0.00     0.124 S 
ATOM    100  O   UNL A   1      46.528  18.757  25.296  1.00  0.00    -0.237 OA
ATOM    101  O   UNL A   1      44.088  18.710  25.599  1.00  0.00    -0.237 OA
ATOM    102  O   UNL A   1      45.038  18.802  23.333  1.00  0.00    -0.744 OA
ENDBRANCH  95  99
ENDBRANCH  68  92
BRANCH  80 103
ATOM    103  C   UNL A   1      45.443  25.433  32.059  1.00  0.00     0.023 A 
ATOM    104  C   UNL A   1      45.227  24.667  33.201  1.00  0.00     0.031 A 
ATOM    105  C   UNL A   1      46.690  26.074  31.961  1.00  0.00     0.131 A 
ATOM    106  C   UNL A   1      46.224  24.598  34.188  1.00  0.00     0.055 A 
ATOM    107  C   UNL A   1      47.743  25.874  32.858  1.00  0.00     0.041 A 
ATOM    108  F   UNL A   1      46.843  27.082  31.115  1.00  0.00    -0.206 F 
ATOM    109  C   UNL A   1      47.504  25.132  33.998  1.00  0.00     0.022 A 
BRANCH 106 110
ATOM    110  S   UNL A   1      45.765  24.149  35.882  1.00  0.00     0.124 S 
ATOM    111  O   UNL A   1      46.404  22.847  36.042  1.00  0.00    -0.237 OA
ATOM    112  O   UNL A   1      46.357  25.240  36.655  1.00  0.00    -0.237 OA
ATOM    113  O   UNL A   1      44.304  24.137  35.855  1.00  0.00    -0.744 OA
ENDBRANCH 106 110
ENDBRANCH  80 103
ENDBRANCH  54  55
ENDBRANCH  47  49
ENDBRANCH  46  47
ENDBRANCH  45  46
ENDBRANCH  44  45
ENDBRANCH  43  44
ENDBRANCH  42  43
ENDBRANCH   1  42
TORSDOF 26
ENDMDL
