MODEL 1
REMARK VINA RESULT:     -11.2      0.000      0.000
REMARK SMILES O=C(OCCOCCOCCOC(=O)C1CC[NH+]([C@H]2CC(=O)N(c3ccc4c(c3)OCCO4)C2=O)CC1)c1ccc(-c2c3nc(c(-c4cc(S(=O)(=O)[O-])ccc4F)c4ccc([nH]4)c(-c4cc(S(=O)(=O)[O-])ccc4F)c4nc(c(-c5cc(S(=O)(=O)[O-])ccc5F)c5ccc2[nH]5)C=C4)C=C3)cc1
REMARK SMILES IDX 7 1 6 2 5 3 4 4 3 5 2 6 1 7 38 8 39 9 100 10 40 11 99 12
REMARK SMILES IDX 41 13 42 14 43 15 93 16 44 17 98 18 92 19 94 20 45 21 97 22
REMARK SMILES IDX 91 23 90 24 46 26 78 27 58 28 77 29 59 30 62 31 76 32 95 33
REMARK SMILES IDX 60 34 61 35 75 37 96 38 63 39 47 40 48 41 56 42 49 43 55 44
REMARK SMILES IDX 57 45 54 46 50 47 51 48 52 49 53 50 79 51 80 52 88 53 81 54
REMARK SMILES IDX 87 55 89 56 86 57 82 58 83 59 84 60 85 61 64 62 65 63 73 64
REMARK SMILES IDX 66 65 72 66 74 67 71 68 67 69 68 70 69 71 70 72 8 73 9 74
REMARK SMILES IDX 10 75 11 76 12 77 13 78 14 79 15 80 16 81 37 82 17 83 36 84
REMARK SMILES IDX 18 85 19 87 20 88 34 89 21 90 23 91 35 92 22 93 24 94 25 95
REMARK SMILES IDX 29 96 26 97 28 98 27 99 30 100 33 101 31 102 32 103
REMARK H PARENT 94 25 62 36 18 86
REMARK Flexibility Score: inf
ROOT
ATOM      1  C   UNL A   1      35.529  34.324  28.860  1.00  0.00     0.188 C 
ENDROOT
BRANCH   1   2
ATOM      2  O   UNL A   1      35.852  34.274  30.256  1.00  0.00    -0.376 OA
BRANCH   2   3
ATOM      3  C   UNL A   1      34.831  34.823  31.095  1.00  0.00     0.202 C 
BRANCH   3   4
ATOM      4  C   UNL A   1      34.041  33.811  31.935  1.00  0.00     0.261 C 
BRANCH   4   5
ATOM      5  O   UNL A   1      34.663  32.527  32.026  1.00  0.00    -0.460 OA
BRANCH   5   6
ATOM      6  C   UNL A   1      35.774  32.175  32.716  1.00  0.00     0.338 C 
ATOM      7  O   UNL A   1      35.864  32.591  33.873  1.00  0.00    -0.246 OA
BRANCH   6   8
ATOM      8  C   UNL A   1      36.898  31.333  32.176  1.00  0.00     0.060 A 
ATOM      9  C   UNL A   1      37.767  30.491  32.888  1.00  0.00     0.016 A 
ATOM     10  C   UNL A   1      37.069  31.387  30.789  1.00  0.00     0.016 A 
ATOM     11  C   UNL A   1      38.769  29.726  32.263  1.00  0.00     0.010 A 
ATOM     12  C   UNL A   1      38.057  30.625  30.163  1.00  0.00     0.010 A 
ATOM     13  C   UNL A   1      38.917  29.771  30.886  1.00  0.00    -0.014 A 
BRANCH  13  14
ATOM     14  C   UNL A   1      40.096  29.200  30.179  1.00  0.00     0.031 A 
ATOM     15  C   UNL A   1      41.187  30.180  29.892  1.00  0.00     0.074 A 
ATOM     16  C   UNL A   1      40.222  27.926  29.748  1.00  0.00     0.049 A 
ATOM     17  N   UNL A   1      42.238  30.058  29.134  1.00  0.00    -0.248 NA
ATOM     18  C   UNL A   1      41.097  31.465  30.610  1.00  0.00     0.031 C 
ATOM     19  C   UNL A   1      39.448  26.769  30.173  1.00  0.00     0.029 A 
ATOM     20  N   UNL A   1      41.012  27.401  28.750  1.00  0.00    -0.354 N 
ATOM     21  C   UNL A   1      42.952  31.230  29.321  1.00  0.00     0.074 A 
ATOM     22  C   UNL A   1      42.151  32.104  30.145  1.00  0.00     0.031 C 
ATOM     23  C   UNL A   1      39.571  25.774  29.279  1.00  0.00     0.029 A 
ATOM     24  C   UNL A   1      40.558  26.177  28.294  1.00  0.00     0.049 A 
ATOM     25  H   UNL A   1      41.814  27.849  28.399  1.00  0.00     0.167 HD
ATOM     26  C   UNL A   1      44.205  31.509  28.903  1.00  0.00     0.034 A 
ATOM     27  C   UNL A   1      40.915  25.449  27.217  1.00  0.00     0.034 A 
ATOM     28  C   UNL A   1      44.936  30.620  28.041  1.00  0.00     0.049 A 
ATOM     29  C   UNL A   1      42.184  25.866  26.535  1.00  0.00     0.074 A 
ATOM     30  C   UNL A   1      46.202  30.767  27.515  1.00  0.00     0.029 A 
ATOM     31  N   UNL A   1      44.429  29.419  27.547  1.00  0.00    -0.354 N 
ATOM     32  N   UNL A   1      42.892  26.954  26.740  1.00  0.00    -0.248 NA
ATOM     33  C   UNL A   1      42.776  24.922  25.587  1.00  0.00     0.031 C 
ATOM     34  C   UNL A   1      46.425  29.701  26.635  1.00  0.00     0.029 A 
ATOM     35  C   UNL A   1      45.338  28.839  26.683  1.00  0.00     0.049 A 
ATOM     36  H   UNL A   1      43.550  29.040  27.779  1.00  0.00     0.167 HD
ATOM     37  C   UNL A   1      44.067  26.781  26.027  1.00  0.00     0.074 A 
ATOM     38  C   UNL A   1      43.941  25.506  25.339  1.00  0.00     0.031 C 
ATOM     39  C   UNL A   1      45.168  27.575  25.997  1.00  0.00     0.034 A 
BRANCH  26  40
ATOM     40  C   UNL A   1      44.765  32.838  29.342  1.00  0.00     0.023 A 
ATOM     41  C   UNL A   1      44.849  33.927  28.447  1.00  0.00     0.031 A 
ATOM     42  C   UNL A   1      45.390  32.961  30.590  1.00  0.00     0.131 A 
ATOM     43  C   UNL A   1      45.662  35.025  28.760  1.00  0.00     0.055 A 
ATOM     44  C   UNL A   1      46.108  34.106  30.938  1.00  0.00     0.041 A 
ATOM     45  F   UNL A   1      45.373  31.946  31.468  1.00  0.00    -0.206 F 
ATOM     46  C   UNL A   1      46.273  35.134  30.011  1.00  0.00     0.022 A 
BRANCH  43  47
ATOM     47  S   UNL A   1      46.106  36.183  27.431  1.00  0.00     0.124 S 
ATOM     48  O   UNL A   1      47.295  35.546  26.867  1.00  0.00    -0.237 OA
ATOM     49  O   UNL A   1      44.916  36.169  26.587  1.00  0.00    -0.237 OA
ATOM     50  O   UNL A   1      46.356  37.437  28.136  1.00  0.00    -0.744 OA
ENDBRANCH  43  47
ENDBRANCH  26  40
BRANCH  27  51
ATOM     51  C   UNL A   1      40.125  24.252  26.809  1.00  0.00     0.023 A 
ATOM     52  C   UNL A   1      38.908  24.352  26.115  1.00  0.00     0.031 A 
ATOM     53  C   UNL A   1      40.619  22.961  27.082  1.00  0.00     0.131 A 
ATOM     54  C   UNL A   1      38.223  23.184  25.728  1.00  0.00     0.055 A 
ATOM     55  C   UNL A   1      39.939  21.804  26.688  1.00  0.00     0.041 A 
ATOM     56  F   UNL A   1      41.790  22.805  27.721  1.00  0.00    -0.206 F 
ATOM     57  C   UNL A   1      38.732  21.912  26.008  1.00  0.00     0.022 A 
BRANCH  54  58
ATOM     58  S   UNL A   1      36.639  23.344  24.854  1.00  0.00     0.124 S 
ATOM     59  O   UNL A   1      35.995  22.074  25.161  1.00  0.00    -0.237 OA
ATOM     60  O   UNL A   1      36.068  24.527  25.491  1.00  0.00    -0.237 OA
ATOM     61  O   UNL A   1      37.035  23.523  23.459  1.00  0.00    -0.744 OA
ENDBRANCH  54  58
ENDBRANCH  27  51
BRANCH  39  62
ATOM     62  C   UNL A   1      46.349  27.055  25.230  1.00  0.00     0.023 A 
ATOM     63  C   UNL A   1      46.749  27.633  24.018  1.00  0.00     0.031 A 
ATOM     64  C   UNL A   1      47.103  25.988  25.750  1.00  0.00     0.131 A 
ATOM     65  C   UNL A   1      47.855  27.111  23.339  1.00  0.00     0.055 A 
ATOM     66  C   UNL A   1      48.245  25.520  25.105  1.00  0.00     0.041 A 
ATOM     67  F   UNL A   1      46.750  25.399  26.905  1.00  0.00    -0.206 F 
ATOM     68  C   UNL A   1      48.621  26.077  23.887  1.00  0.00     0.022 A 
BRANCH  65  69
ATOM     69  S   UNL A   1      48.233  27.753  21.689  1.00  0.00     0.124 S 
ATOM     70  O   UNL A   1      48.606  26.536  20.974  1.00  0.00    -0.237 OA
ATOM     71  O   UNL A   1      46.968  28.363  21.292  1.00  0.00    -0.237 OA
ATOM     72  O   UNL A   1      49.326  28.692  21.930  1.00  0.00    -0.744 OA
ENDBRANCH  65  69
ENDBRANCH  39  62
ENDBRANCH  13  14
ENDBRANCH   6   8
ENDBRANCH   5   6
ENDBRANCH   4   5
ENDBRANCH   3   4
ENDBRANCH   2   3
ENDBRANCH   1   2
BRANCH   1  73
ATOM     73  C   UNL A   1      35.675  32.961  28.182  1.00  0.00     0.188 C 
BRANCH  73  74
ATOM     74  O   UNL A   1      34.692  31.974  28.495  1.00  0.00    -0.376 OA
BRANCH  74  75
ATOM     75  C   UNL A   1      33.609  31.824  27.587  1.00  0.00     0.202 C 
BRANCH  75  76
ATOM     76  C   UNL A   1      33.007  30.427  27.392  1.00  0.00     0.261 C 
BRANCH  76  77
ATOM     77  O   UNL A   1      33.100  29.888  26.067  1.00  0.00    -0.463 OA
BRANCH  77  78
ATOM     78  C   UNL A   1      31.966  29.966  25.316  1.00  0.00     0.309 C 
ATOM     79  O   UNL A   1      31.073  30.788  25.485  1.00  0.00    -0.252 OA
BRANCH  78  80
ATOM     80  C   UNL A   1      31.912  28.912  24.219  1.00  0.00     0.110 C 
ATOM     81  C   UNL A   1      30.797  27.901  24.481  1.00  0.00     0.077 C 
ATOM     82  C   UNL A   1      33.299  28.305  23.885  1.00  0.00     0.077 C 
ATOM     83  C   UNL A   1      31.368  26.670  25.147  1.00  0.00     0.263 C 
ATOM     84  C   UNL A   1      33.554  26.850  24.320  1.00  0.00     0.263 C 
ATOM     85  N   UNL A   1      32.375  26.000  24.328  1.00  0.00    -0.324 N 
ATOM     86  H   UNL A   1      32.688  25.117  24.732  1.00  0.00     0.348 HD
BRANCH  85  87
ATOM     87  C   UNL A   1      31.853  25.410  23.064  1.00  0.00     0.284 C 
ATOM     88  C   UNL A   1      32.807  25.181  21.907  1.00  0.00     0.176 C 
ATOM     89  C   UNL A   1      31.327  23.984  23.250  1.00  0.00     0.292 C 
ATOM     90  C   UNL A   1      33.302  23.792  22.162  1.00  0.00     0.240 C 
ATOM     91  N   UNL A   1      32.324  23.125  22.853  1.00  0.00    -0.245 N 
ATOM     92  O   UNL A   1      30.222  23.679  23.667  1.00  0.00    -0.267 OA
ATOM     93  O   UNL A   1      34.363  23.365  21.719  1.00  0.00    -0.274 OA
BRANCH  91  94
ATOM     94  C   UNL A   1      32.304  21.730  23.054  1.00  0.00     0.056 A 
ATOM     95  C   UNL A   1      32.127  20.846  21.979  1.00  0.00     0.031 A 
ATOM     96  C   UNL A   1      32.473  21.212  24.342  1.00  0.00     0.077 A 
ATOM     97  C   UNL A   1      32.170  19.464  22.183  1.00  0.00     0.052 A 
ATOM     98  C   UNL A   1      32.469  19.835  24.551  1.00  0.00     0.163 A 
ATOM     99  C   UNL A   1      32.328  18.959  23.470  1.00  0.00     0.161 A 
ATOM    100  O   UNL A   1      32.591  19.415  25.851  1.00  0.00    -0.486 OA
ATOM    101  O   UNL A   1      32.346  17.595  23.602  1.00  0.00    -0.486 OA
ATOM    102  C   UNL A   1      32.947  18.034  25.919  1.00  0.00     0.271 C 
ATOM    103  C   UNL A   1      32.116  17.201  24.956  1.00  0.00     0.271 C 
ENDBRANCH  91  94
ENDBRANCH  85  87
ENDBRANCH  78  80
ENDBRANCH  77  78
ENDBRANCH  76  77
ENDBRANCH  75  76
ENDBRANCH  74  75
ENDBRANCH  73  74
ENDBRANCH   1  73
TORSDOF 22
ENDMDL
MODEL 2
REMARK VINA RESULT:     -10.4      5.486     11.728
REMARK SMILES O=C(OCCOCCOCCOC(=O)C1CC[NH+]([C@H]2CC(=O)N(c3ccc4c(c3)OCCO4)C2=O)CC1)c1ccc(-c2c3nc(c(-c4cc(S(=O)(=O)[O-])ccc4F)c4ccc([nH]4)c(-c4cc(S(=O)(=O)[O-])ccc4F)c4nc(c(-c5cc(S(=O)(=O)[O-])ccc5F)c5ccc2[nH]5)C=C4)C=C3)cc1
REMARK SMILES IDX 7 1 6 2 5 3 4 4 3 5 2 6 1 7 38 8 39 9 100 10 40 11 99 12
REMARK SMILES IDX 41 13 42 14 43 15 93 16 44 17 98 18 92 19 94 20 45 21 97 22
REMARK SMILES IDX 91 23 90 24 46 26 78 27 58 28 77 29 59 30 62 31 76 32 95 33
REMARK SMILES IDX 60 34 61 35 75 37 96 38 63 39 47 40 48 41 56 42 49 43 55 44
REMARK SMILES IDX 57 45 54 46 50 47 51 48 52 49 53 50 79 51 80 52 88 53 81 54
REMARK SMILES IDX 87 55 89 56 86 57 82 58 83 59 84 60 85 61 64 62 65 63 73 64
REMARK SMILES IDX 66 65 72 66 74 67 71 68 67 69 68 70 69 71 70 72 8 73 9 74
REMARK SMILES IDX 10 75 11 76 12 77 13 78 14 79 15 80 16 81 37 82 17 83 36 84
REMARK SMILES IDX 18 85 19 87 20 88 34 89 21 90 23 91 35 92 22 93 24 94 25 95
REMARK SMILES IDX 29 96 26 97 28 98 27 99 30 100 33 101 31 102 32 103
REMARK H PARENT 94 25 62 36 18 86
REMARK Flexibility Score: inf
ROOT
ATOM      1  C   UNL A   1      42.395  22.923  28.219  1.00  0.00     0.188 C 
ENDROOT
BRANCH   1   2
ATOM      2  O   UNL A   1      42.401  24.333  27.957  1.00  0.00    -0.376 OA
BRANCH   2   3
ATOM      3  C   UNL A   1      42.482  24.650  26.564  1.00  0.00     0.202 C 
BRANCH   3   4
ATOM      4  C   UNL A   1      41.436  25.644  26.044  1.00  0.00     0.261 C 
BRANCH   4   5
ATOM      5  O   UNL A   1      41.996  26.756  25.341  1.00  0.00    -0.460 OA
BRANCH   5   6
ATOM      6  C   UNL A   1      41.881  28.076  25.621  1.00  0.00     0.338 C 
ATOM      7  O   UNL A   1      42.130  28.861  24.703  1.00  0.00    -0.246 OA
BRANCH   6   8
ATOM      8  C   UNL A   1      41.489  28.648  26.956  1.00  0.00     0.060 A 
ATOM      9  C   UNL A   1      40.280  28.479  27.648  1.00  0.00     0.016 A 
ATOM     10  C   UNL A   1      42.472  29.421  27.584  1.00  0.00     0.016 A 
ATOM     11  C   UNL A   1      40.041  29.046  28.914  1.00  0.00     0.010 A 
ATOM     12  C   UNL A   1      42.242  29.980  28.842  1.00  0.00     0.010 A 
ATOM     13  C   UNL A   1      41.028  29.793  29.536  1.00  0.00    -0.014 A 
BRANCH  13  14
ATOM     14  C   UNL A   1      40.773  30.628  30.743  1.00  0.00     0.031 A 
ATOM     15  C   UNL A   1      41.578  30.251  31.943  1.00  0.00     0.074 A 
ATOM     16  C   UNL A   1      39.865  31.624  30.841  1.00  0.00     0.049 A 
ATOM     17  N   UNL A   1      41.457  30.636  33.181  1.00  0.00    -0.248 NA
ATOM     18  C   UNL A   1      42.714  29.345  31.693  1.00  0.00     0.031 C 
ATOM     19  C   UNL A   1      39.217  32.338  29.751  1.00  0.00     0.029 A 
ATOM     20  N   UNL A   1      39.244  32.151  31.950  1.00  0.00    -0.354 N 
ATOM     21  C   UNL A   1      42.527  30.055  33.842  1.00  0.00     0.074 A 
ATOM     22  C   UNL A   1      43.198  29.183  32.908  1.00  0.00     0.031 C 
ATOM     23  C   UNL A   1      38.117  32.968  30.198  1.00  0.00     0.029 A 
ATOM     24  C   UNL A   1      38.075  32.822  31.642  1.00  0.00     0.049 A 
ATOM     25  H   UNL A   1      39.595  32.061  32.865  1.00  0.00     0.167 HD
ATOM     26  C   UNL A   1      42.953  30.302  35.100  1.00  0.00     0.034 A 
ATOM     27  C   UNL A   1      37.091  33.290  32.436  1.00  0.00     0.034 A 
ATOM     28  C   UNL A   1      42.215  31.143  36.003  1.00  0.00     0.049 A 
ATOM     29  C   UNL A   1      37.404  33.352  33.901  1.00  0.00     0.074 A 
ATOM     30  C   UNL A   1      42.500  31.474  37.310  1.00  0.00     0.029 A 
ATOM     31  N   UNL A   1      41.005  31.758  35.683  1.00  0.00    -0.354 N 
ATOM     32  N   UNL A   1      38.441  32.844  34.528  1.00  0.00    -0.248 NA
ATOM     33  C   UNL A   1      36.511  34.149  34.743  1.00  0.00     0.031 C 
ATOM     34  C   UNL A   1      41.422  32.215  37.808  1.00  0.00     0.029 A 
ATOM     35  C   UNL A   1      40.507  32.427  36.785  1.00  0.00     0.049 A 
ATOM     36  H   UNL A   1      40.569  31.721  34.801  1.00  0.00     0.167 HD
ATOM     37  C   UNL A   1      38.385  33.344  35.819  1.00  0.00     0.074 A 
ATOM     38  C   UNL A   1      37.175  34.148  35.892  1.00  0.00     0.031 C 
ATOM     39  C   UNL A   1      39.283  33.201  36.826  1.00  0.00     0.034 A 
BRANCH  26  40
ATOM     40  C   UNL A   1      44.213  29.589  35.519  1.00  0.00     0.023 A 
ATOM     41  C   UNL A   1      44.174  28.507  36.425  1.00  0.00     0.031 A 
ATOM     42  C   UNL A   1      45.467  30.109  35.169  1.00  0.00     0.131 A 
ATOM     43  C   UNL A   1      45.352  28.081  37.055  1.00  0.00     0.055 A 
ATOM     44  C   UNL A   1      46.646  29.606  35.719  1.00  0.00     0.041 A 
ATOM     45  F   UNL A   1      45.564  31.160  34.339  1.00  0.00    -0.206 F 
ATOM     46  C   UNL A   1      46.592  28.607  36.689  1.00  0.00     0.022 A 
BRANCH  43  47
ATOM     47  S   UNL A   1      45.215  27.015  38.520  1.00  0.00     0.124 S 
ATOM     48  O   UNL A   1      46.576  26.494  38.637  1.00  0.00    -0.237 OA
ATOM     49  O   UNL A   1      44.802  27.952  39.559  1.00  0.00    -0.237 OA
ATOM     50  O   UNL A   1      44.210  26.027  38.135  1.00  0.00    -0.744 OA
ENDBRANCH  43  47
ENDBRANCH  26  40
BRANCH  27  51
ATOM     51  C   UNL A   1      35.813  33.791  31.852  1.00  0.00     0.023 A 
ATOM     52  C   UNL A   1      35.271  35.042  32.184  1.00  0.00     0.031 A 
ATOM     53  C   UNL A   1      35.128  33.012  30.898  1.00  0.00     0.131 A 
ATOM     54  C   UNL A   1      34.077  35.475  31.575  1.00  0.00     0.055 A 
ATOM     55  C   UNL A   1      33.946  33.450  30.290  1.00  0.00     0.041 A 
ATOM     56  F   UNL A   1      35.613  31.818  30.523  1.00  0.00    -0.206 F 
ATOM     57  C   UNL A   1      33.413  34.688  30.630  1.00  0.00     0.022 A 
BRANCH  54  58
ATOM     58  S   UNL A   1      33.387  37.088  32.043  1.00  0.00     0.124 S 
ATOM     59  O   UNL A   1      32.166  36.704  32.740  1.00  0.00    -0.237 OA
ATOM     60  O   UNL A   1      34.456  37.638  32.871  1.00  0.00    -0.237 OA
ATOM     61  O   UNL A   1      33.189  37.760  30.761  1.00  0.00    -0.744 OA
ENDBRANCH  54  58
ENDBRANCH  27  51
BRANCH  39  62
ATOM     62  C   UNL A   1      39.014  33.976  38.082  1.00  0.00     0.023 A 
ATOM     63  C   UNL A   1      38.359  33.397  39.177  1.00  0.00     0.031 A 
ATOM     64  C   UNL A   1      39.457  35.307  38.189  1.00  0.00     0.131 A 
ATOM     65  C   UNL A   1      38.128  34.162  40.325  1.00  0.00     0.055 A 
ATOM     66  C   UNL A   1      39.287  36.040  39.360  1.00  0.00     0.041 A 
ATOM     67  F   UNL A   1      40.082  35.905  37.161  1.00  0.00    -0.206 F 
ATOM     68  C   UNL A   1      38.611  35.470  40.434  1.00  0.00     0.022 A 
BRANCH  65  69
ATOM     69  S   UNL A   1      37.117  33.447  41.646  1.00  0.00     0.124 S 
ATOM     70  O   UNL A   1      38.100  32.650  42.374  1.00  0.00    -0.237 OA
ATOM     71  O   UNL A   1      36.619  34.632  42.337  1.00  0.00    -0.237 OA
ATOM     72  O   UNL A   1      36.105  32.679  40.923  1.00  0.00    -0.744 OA
ENDBRANCH  65  69
ENDBRANCH  39  62
ENDBRANCH  13  14
ENDBRANCH   6   8
ENDBRANCH   5   6
ENDBRANCH   4   5
ENDBRANCH   3   4
ENDBRANCH   2   3
ENDBRANCH   1   2
BRANCH   1  73
ATOM     73  C   UNL A   1      42.258  22.097  26.940  1.00  0.00     0.188 C 
BRANCH  73  74
ATOM     74  O   UNL A   1      41.042  21.370  26.766  1.00  0.00    -0.376 OA
BRANCH  74  75
ATOM     75  C   UNL A   1      39.828  22.056  27.044  1.00  0.00     0.202 C 
BRANCH  75  76
ATOM     76  C   UNL A   1      38.984  22.556  25.866  1.00  0.00     0.261 C 
BRANCH  76  77
ATOM     77  O   UNL A   1      37.567  22.388  26.000  1.00  0.00    -0.463 OA
BRANCH  77  78
ATOM     78  C   UNL A   1      37.029  21.341  25.313  1.00  0.00     0.309 C 
ATOM     79  O   UNL A   1      37.676  20.431  24.809  1.00  0.00    -0.252 OA
BRANCH  78  80
ATOM     80  C   UNL A   1      35.510  21.410  25.229  1.00  0.00     0.110 C 
ATOM     81  C   UNL A   1      35.061  22.134  23.960  1.00  0.00     0.077 C 
ATOM     82  C   UNL A   1      34.846  21.892  26.544  1.00  0.00     0.077 C 
ATOM     83  C   UNL A   1      34.756  23.580  24.277  1.00  0.00     0.263 C 
ATOM     84  C   UNL A   1      34.223  23.300  26.544  1.00  0.00     0.263 C 
ATOM     85  N   UNL A   1      33.688  23.729  25.262  1.00  0.00    -0.324 N 
ATOM     86  H   UNL A   1      33.413  24.703  25.402  1.00  0.00     0.348 HD
BRANCH  85  87
ATOM     87  C   UNL A   1      32.350  23.262  24.801  1.00  0.00     0.284 C 
ATOM     88  C   UNL A   1      31.255  23.030  25.825  1.00  0.00     0.176 C 
ATOM     89  C   UNL A   1      31.647  24.280  23.899  1.00  0.00     0.292 C 
ATOM     90  C   UNL A   1      30.585  24.367  25.895  1.00  0.00     0.240 C 
ATOM     91  N   UNL A   1      30.765  24.984  24.685  1.00  0.00    -0.245 N 
ATOM     92  O   UNL A   1      31.837  24.426  22.702  1.00  0.00    -0.267 OA
ATOM     93  O   UNL A   1      29.929  24.739  26.862  1.00  0.00    -0.274 OA
BRANCH  91  94
ATOM     94  C   UNL A   1      30.072  26.138  24.270  1.00  0.00     0.056 A 
ATOM     95  C   UNL A   1      28.736  26.068  23.846  1.00  0.00     0.031 A 
ATOM     96  C   UNL A   1      30.715  27.380  24.291  1.00  0.00     0.077 A 
ATOM     97  C   UNL A   1      28.041  27.228  23.496  1.00  0.00     0.052 A 
ATOM     98  C   UNL A   1      30.035  28.529  23.897  1.00  0.00     0.163 A 
ATOM     99  C   UNL A   1      28.694  28.457  23.509  1.00  0.00     0.161 A 
ATOM    100  O   UNL A   1      30.757  29.696  23.899  1.00  0.00    -0.486 OA
ATOM    101  O   UNL A   1      27.958  29.553  23.140  1.00  0.00    -0.486 OA
ATOM    102  C   UNL A   1      29.900  30.837  23.849  1.00  0.00     0.271 C 
ATOM    103  C   UNL A   1      28.803  30.658  22.813  1.00  0.00     0.271 C 
ENDBRANCH  91  94
ENDBRANCH  85  87
ENDBRANCH  78  80
ENDBRANCH  77  78
ENDBRANCH  76  77
ENDBRANCH  75  76
ENDBRANCH  74  75
ENDBRANCH  73  74
ENDBRANCH   1  73
TORSDOF 22
ENDMDL
MODEL 3
REMARK VINA RESULT:     -10.4      2.992     10.023
REMARK SMILES O=C(OCCOCCOCCOC(=O)C1CC[NH+]([C@H]2CC(=O)N(c3ccc4c(c3)OCCO4)C2=O)CC1)c1ccc(-c2c3nc(c(-c4cc(S(=O)(=O)[O-])ccc4F)c4ccc([nH]4)c(-c4cc(S(=O)(=O)[O-])ccc4F)c4nc(c(-c5cc(S(=O)(=O)[O-])ccc5F)c5ccc2[nH]5)C=C4)C=C3)cc1
REMARK SMILES IDX 7 1 6 2 5 3 4 4 3 5 2 6 1 7 38 8 39 9 100 10 40 11 99 12
REMARK SMILES IDX 41 13 42 14 43 15 93 16 44 17 98 18 92 19 94 20 45 21 97 22
REMARK SMILES IDX 91 23 90 24 46 26 78 27 58 28 77 29 59 30 62 31 76 32 95 33
REMARK SMILES IDX 60 34 61 35 75 37 96 38 63 39 47 40 48 41 56 42 49 43 55 44
REMARK SMILES IDX 57 45 54 46 50 47 51 48 52 49 53 50 79 51 80 52 88 53 81 54
REMARK SMILES IDX 87 55 89 56 86 57 82 58 83 59 84 60 85 61 64 62 65 63 73 64
REMARK SMILES IDX 66 65 72 66 74 67 71 68 67 69 68 70 69 71 70 72 8 73 9 74
REMARK SMILES IDX 10 75 11 76 12 77 13 78 14 79 15 80 16 81 37 82 17 83 36 84
REMARK SMILES IDX 18 85 19 87 20 88 34 89 21 90 23 91 35 92 22 93 24 94 25 95
REMARK SMILES IDX 29 96 26 97 28 98 27 99 30 100 33 101 31 102 32 103
REMARK H PARENT 94 25 62 36 18 86
REMARK Flexibility Score: inf
ROOT
ATOM      1  C   UNL A   1      37.026  22.028  25.228  1.00  0.00     0.188 C 
ENDROOT
BRANCH   1   2
ATOM      2  O   UNL A   1      38.062  21.967  26.218  1.00  0.00    -0.376 OA
BRANCH   2   3
ATOM      3  C   UNL A   1      39.316  21.513  25.698  1.00  0.00     0.202 C 
BRANCH   3   4
ATOM      4  C   UNL A   1      39.640  20.031  25.933  1.00  0.00     0.261 C 
BRANCH   4   5
ATOM      5  O   UNL A   1      40.881  19.614  25.362  1.00  0.00    -0.460 OA
BRANCH   5   6
ATOM      6  C   UNL A   1      42.132  19.765  25.859  1.00  0.00     0.338 C 
ATOM      7  O   UNL A   1      42.884  18.792  25.774  1.00  0.00    -0.246 OA
BRANCH   6   8
ATOM      8  C   UNL A   1      42.662  21.015  26.509  1.00  0.00     0.060 A 
ATOM      9  C   UNL A   1      42.519  21.421  27.845  1.00  0.00     0.016 A 
ATOM     10  C   UNL A   1      43.406  21.851  25.672  1.00  0.00     0.016 A 
ATOM     11  C   UNL A   1      43.089  22.606  28.346  1.00  0.00     0.010 A 
ATOM     12  C   UNL A   1      43.979  23.025  26.165  1.00  0.00     0.010 A 
ATOM     13  C   UNL A   1      43.842  23.419  27.514  1.00  0.00    -0.014 A 
BRANCH  13  14
ATOM     14  C   UNL A   1      44.261  24.797  27.889  1.00  0.00     0.031 A 
ATOM     15  C   UNL A   1      43.136  25.724  28.215  1.00  0.00     0.074 A 
ATOM     16  C   UNL A   1      45.528  25.265  27.903  1.00  0.00     0.049 A 
ATOM     17  N   UNL A   1      43.142  27.015  28.382  1.00  0.00    -0.248 NA
ATOM     18  C   UNL A   1      41.823  25.086  28.431  1.00  0.00     0.031 C 
ATOM     19  C   UNL A   1      46.757  24.485  27.920  1.00  0.00     0.029 A 
ATOM     20  N   UNL A   1      45.999  26.554  27.801  1.00  0.00    -0.354 N 
ATOM     21  C   UNL A   1      41.850  27.332  28.766  1.00  0.00     0.074 A 
ATOM     22  C   UNL A   1      41.056  26.131  28.668  1.00  0.00     0.031 C 
ATOM     23  C   UNL A   1      47.796  25.248  27.543  1.00  0.00     0.029 A 
ATOM     24  C   UNL A   1      47.322  26.613  27.404  1.00  0.00     0.049 A 
ATOM     25  H   UNL A   1      45.452  27.350  27.991  1.00  0.00     0.167 HD
ATOM     26  C   UNL A   1      41.395  28.513  29.239  1.00  0.00     0.034 A 
ATOM     27  C   UNL A   1      48.075  27.654  26.998  1.00  0.00     0.034 A 
ATOM     28  C   UNL A   1      42.219  29.691  29.266  1.00  0.00     0.049 A 
ATOM     29  C   UNL A   1      47.508  29.017  27.262  1.00  0.00     0.074 A 
ATOM     30  C   UNL A   1      41.902  30.962  29.693  1.00  0.00     0.029 A 
ATOM     31  N   UNL A   1      43.533  29.735  28.802  1.00  0.00    -0.354 N 
ATOM     32  N   UNL A   1      46.298  29.323  27.671  1.00  0.00    -0.248 NA
ATOM     33  C   UNL A   1      48.420  30.156  27.146  1.00  0.00     0.031 C 
ATOM     34  C   UNL A   1      42.992  31.793  29.406  1.00  0.00     0.029 A 
ATOM     35  C   UNL A   1      44.024  31.024  28.886  1.00  0.00     0.049 A 
ATOM     36  H   UNL A   1      44.037  28.960  28.462  1.00  0.00     0.167 HD
ATOM     37  C   UNL A   1      46.328  30.677  27.963  1.00  0.00     0.074 A 
ATOM     38  C   UNL A   1      47.665  31.137  27.625  1.00  0.00     0.031 C 
ATOM     39  C   UNL A   1      45.359  31.449  28.518  1.00  0.00     0.034 A 
BRANCH  26  40
ATOM     40  C   UNL A   1      39.952  28.536  29.673  1.00  0.00     0.023 A 
ATOM     41  C   UNL A   1      38.941  29.040  28.826  1.00  0.00     0.031 A 
ATOM     42  C   UNL A   1      39.610  28.236  30.999  1.00  0.00     0.131 A 
ATOM     43  C   UNL A   1      37.684  29.363  29.356  1.00  0.00     0.055 A 
ATOM     44  C   UNL A   1      38.323  28.459  31.491  1.00  0.00     0.041 A 
ATOM     45  F   UNL A   1      40.538  27.787  31.860  1.00  0.00    -0.206 F 
ATOM     46  C   UNL A   1      37.360  29.052  30.678  1.00  0.00     0.022 A 
BRANCH  43  47
ATOM     47  S   UNL A   1      36.570  30.408  28.371  1.00  0.00     0.124 S 
ATOM     48  O   UNL A   1      37.287  31.683  28.364  1.00  0.00    -0.237 OA
ATOM     49  O   UNL A   1      36.516  29.703  27.095  1.00  0.00    -0.237 OA
ATOM     50  O   UNL A   1      35.327  30.406  29.138  1.00  0.00    -0.744 OA
ENDBRANCH  43  47
ENDBRANCH  26  40
BRANCH  27  51
ATOM     51  C   UNL A   1      49.427  27.433  26.407  1.00  0.00     0.023 A 
ATOM     52  C   UNL A   1      50.593  27.386  27.187  1.00  0.00     0.031 A 
ATOM     53  C   UNL A   1      49.557  27.221  25.020  1.00  0.00     0.131 A 
ATOM     54  C   UNL A   1      51.838  27.143  26.575  1.00  0.00     0.055 A 
ATOM     55  C   UNL A   1      50.795  26.971  24.418  1.00  0.00     0.041 A 
ATOM     56  F   UNL A   1      48.473  27.230  24.228  1.00  0.00    -0.206 F 
ATOM     57  C   UNL A   1      51.945  26.932  25.197  1.00  0.00     0.022 A 
BRANCH  54  58
ATOM     58  S   UNL A   1      53.333  27.111  27.606  1.00  0.00     0.124 S 
ATOM     59  O   UNL A   1      54.285  26.433  26.736  1.00  0.00    -0.237 OA
ATOM     60  O   UNL A   1      53.567  28.535  27.831  1.00  0.00    -0.237 OA
ATOM     61  O   UNL A   1      52.918  26.359  28.787  1.00  0.00    -0.744 OA
ENDBRANCH  54  58
ENDBRANCH  27  51
BRANCH  39  62
ATOM     62  C   UNL A   1      45.732  32.865  28.842  1.00  0.00     0.023 A 
ATOM     63  C   UNL A   1      45.458  33.917  27.957  1.00  0.00     0.031 A 
ATOM     64  C   UNL A   1      46.338  33.163  30.076  1.00  0.00     0.131 A 
ATOM     65  C   UNL A   1      45.829  35.222  28.303  1.00  0.00     0.055 A 
ATOM     66  C   UNL A   1      46.638  34.471  30.444  1.00  0.00     0.041 A 
ATOM     67  F   UNL A   1      46.625  32.184  30.950  1.00  0.00    -0.206 F 
ATOM     68  C   UNL A   1      46.392  35.509  29.551  1.00  0.00     0.022 A 
BRANCH  65  69
ATOM     69  S   UNL A   1      45.635  36.528  27.065  1.00  0.00     0.124 S 
ATOM     70  O   UNL A   1      46.298  37.655  27.714  1.00  0.00    -0.237 OA
ATOM     71  O   UNL A   1      46.321  35.967  25.905  1.00  0.00    -0.237 OA
ATOM     72  O   UNL A   1      44.185  36.655  26.927  1.00  0.00    -0.744 OA
ENDBRANCH  65  69
ENDBRANCH  39  62
ENDBRANCH  13  14
ENDBRANCH   6   8
ENDBRANCH   5   6
ENDBRANCH   4   5
ENDBRANCH   3   4
ENDBRANCH   2   3
ENDBRANCH   1   2
BRANCH   1  73
ATOM     73  C   UNL A   1      36.018  20.888  25.373  1.00  0.00     0.188 C 
BRANCH  73  74
ATOM     74  O   UNL A   1      36.243  19.721  24.581  1.00  0.00    -0.376 OA
BRANCH  74  75
ATOM     75  C   UNL A   1      35.573  18.530  24.973  1.00  0.00     0.202 C 
BRANCH  75  76
ATOM     76  C   UNL A   1      34.293  18.133  24.227  1.00  0.00     0.261 C 
BRANCH  76  77
ATOM     77  O   UNL A   1      33.099  18.811  24.636  1.00  0.00    -0.463 OA
BRANCH  77  78
ATOM     78  C   UNL A   1      32.630  19.755  23.772  1.00  0.00     0.309 C 
ATOM     79  O   UNL A   1      32.060  19.511  22.715  1.00  0.00    -0.252 OA
BRANCH  78  80
ATOM     80  C   UNL A   1      32.886  21.175  24.257  1.00  0.00     0.110 C 
ATOM     81  C   UNL A   1      32.254  21.412  25.628  1.00  0.00     0.077 C 
ATOM     82  C   UNL A   1      32.579  22.253  23.185  1.00  0.00     0.077 C 
ATOM     83  C   UNL A   1      30.913  22.088  25.464  1.00  0.00     0.263 C 
ATOM     84  C   UNL A   1      31.337  23.135  23.409  1.00  0.00     0.263 C 
ATOM     85  N   UNL A   1      31.011  23.387  24.803  1.00  0.00    -0.324 N 
ATOM     86  H   UNL A   1      30.122  23.888  24.781  1.00  0.00     0.348 HD
BRANCH  85  87
ATOM     87  C   UNL A   1      31.747  24.423  25.582  1.00  0.00     0.284 C 
ATOM     88  C   UNL A   1      33.062  24.956  25.043  1.00  0.00     0.176 C 
ATOM     89  C   UNL A   1      30.967  25.735  25.702  1.00  0.00     0.292 C 
ATOM     90  C   UNL A   1      32.625  26.121  24.212  1.00  0.00     0.240 C 
ATOM     91  N   UNL A   1      31.450  26.589  24.738  1.00  0.00    -0.245 N 
ATOM     92  O   UNL A   1      30.087  25.972  26.514  1.00  0.00    -0.267 OA
ATOM     93  O   UNL A   1      33.298  26.581  23.295  1.00  0.00    -0.274 OA
BRANCH  91  94
ATOM     94  C   UNL A   1      30.861  27.823  24.397  1.00  0.00     0.056 A 
ATOM     95  C   UNL A   1      31.346  29.028  24.928  1.00  0.00     0.031 A 
ATOM     96  C   UNL A   1      29.783  27.855  23.506  1.00  0.00     0.077 A 
ATOM     97  C   UNL A   1      30.793  30.249  24.534  1.00  0.00     0.052 A 
ATOM     98  C   UNL A   1      29.203  29.069  23.151  1.00  0.00     0.163 A 
ATOM     99  C   UNL A   1      29.713  30.269  23.655  1.00  0.00     0.161 A 
ATOM    100  O   UNL A   1      28.119  29.005  22.312  1.00  0.00    -0.486 OA
ATOM    101  O   UNL A   1      29.209  31.500  23.322  1.00  0.00    -0.486 OA
ATOM    102  C   UNL A   1      27.842  30.276  21.723  1.00  0.00     0.271 C 
ATOM    103  C   UNL A   1      27.901  31.388  22.757  1.00  0.00     0.271 C 
ENDBRANCH  91  94
ENDBRANCH  85  87
ENDBRANCH  78  80
ENDBRANCH  77  78
ENDBRANCH  76  77
ENDBRANCH  75  76
ENDBRANCH  74  75
ENDBRANCH  73  74
ENDBRANCH   1  73
TORSDOF 22
ENDMDL
