MODEL 1
REMARK VINA RESULT:      -9.5      0.000      0.000
REMARK SMILES C[C@@H](NC(=O)/C(=C/c1ccc(Cl)cc1)NC(=O)c1ccc(C(C)(C)C)cc1)C(=O)OCCOCCOCCOC(=O)c1ccc(-c2c3nc(c(-c4cc(S(=O)(=O)[O-])ccc4F)c4ccc([nH]4)c(-c4cc(S(=O)(=O)[O-])ccc4F)c4nc(c(-c5cc(S(=O)(=O)[O-])ccc5F)c5ccc2[nH]5)C=C4)C=C3)cc1
REMARK SMILES IDX 34 1 33 2 32 3 31 4 30 5 28 6 29 7 2 8 1 9 3 10 4 11 5 13
REMARK SMILES IDX 6 14 7 15 15 16 16 17 17 19 18 20 19 21 27 22 20 23 26 24
REMARK SMILES IDX 21 25 22 26 23 27 24 28 25 29 8 30 9 31 14 32 10 33 13 34
REMARK SMILES IDX 11 35 12 36 35 37 36 38 37 39 38 40 39 41 40 42 41 43 42 44
REMARK SMILES IDX 43 45 104 46 44 47 103 48 45 49 46 50 47 51 97 52 48 53
REMARK SMILES IDX 102 54 96 55 98 56 49 57 101 58 95 59 94 60 50 62 82 63
REMARK SMILES IDX 62 64 81 65 63 66 66 67 80 68 99 69 64 70 65 71 79 73 100 74
REMARK SMILES IDX 67 75 51 76 52 77 60 78 53 79 59 80 61 81 58 82 54 83 55 84
REMARK SMILES IDX 56 85 57 86 83 87 84 88 92 89 85 90 91 91 93 92 90 93 86 94
REMARK SMILES IDX 87 95 88 96 89 97 68 98 69 99 77 100 70 101 76 102 78 103
REMARK SMILES IDX 75 104 71 105 72 106 73 107 74 108
REMARK H PARENT 3 12 15 18 98 61 66 72
REMARK Flexibility Score: inf
ROOT
ATOM      1  C   UNL A   1      40.060  24.462  27.577  1.00  0.00     0.188 C 
ENDROOT
BRANCH   1   2
ATOM      2  O   UNL A   1      39.794  23.571  26.508  1.00  0.00    -0.376 OA
BRANCH   2   3
ATOM      3  C   UNL A   1      38.420  23.454  26.196  1.00  0.00     0.202 C 
BRANCH   3   4
ATOM      4  C   UNL A   1      37.884  22.115  25.682  1.00  0.00     0.261 C 
BRANCH   4   5
ATOM      5  O   UNL A   1      36.864  21.981  24.670  1.00  0.00    -0.462 OA
BRANCH   5   6
ATOM      6  C   UNL A   1      35.637  21.438  24.799  1.00  0.00     0.328 C 
ATOM      7  O   UNL A   1      35.366  20.261  24.973  1.00  0.00    -0.250 OA
BRANCH   6   8
ATOM      8  C   UNL A   1      34.553  22.471  24.571  1.00  0.00     0.189 C 
ATOM      9  C   UNL A   1      34.970  23.444  23.461  1.00  0.00     0.043 C 
BRANCH   8  10
ATOM     10  N   UNL A   1      33.273  21.795  24.322  1.00  0.00    -0.338 N 
ATOM     11  C   UNL A   1      32.302  22.280  23.463  1.00  0.00     0.268 C 
ATOM     12  H   UNL A   1      33.096  20.948  24.792  1.00  0.00     0.164 HD
ATOM     13  O   UNL A   1      32.073  21.704  22.405  1.00  0.00    -0.268 OA
BRANCH  11  14
ATOM     14  C   UNL A   1      31.389  23.391  23.963  1.00  0.00     0.107 C 
ATOM     15  C   UNL A   1      31.151  24.420  23.120  1.00  0.00     0.040 C 
BRANCH  14  16
ATOM     16  N   UNL A   1      30.737  23.307  25.173  1.00  0.00    -0.317 N 
ATOM     17  C   UNL A   1      30.672  24.088  26.292  1.00  0.00     0.255 C 
ATOM     18  H   UNL A   1      30.190  22.492  25.250  1.00  0.00     0.170 HD
ATOM     19  O   UNL A   1      30.018  23.714  27.264  1.00  0.00    -0.269 OA
BRANCH  17  20
ATOM     20  C   UNL A   1      31.409  25.342  26.384  1.00  0.00     0.040 A 
ATOM     21  C   UNL A   1      32.773  25.321  26.118  1.00  0.00     0.014 A 
ATOM     22  C   UNL A   1      30.757  26.523  26.728  1.00  0.00     0.014 A 
ATOM     23  C   UNL A   1      33.478  26.519  26.110  1.00  0.00     0.005 A 
ATOM     24  C   UNL A   1      31.469  27.722  26.701  1.00  0.00     0.005 A 
ATOM     25  C   UNL A   1      32.835  27.750  26.359  1.00  0.00    -0.043 A 
BRANCH  25  26
ATOM     26  C   UNL A   1      33.638  29.056  26.267  1.00  0.00    -0.013 C 
ATOM     27  C   UNL A   1      33.877  29.370  24.779  1.00  0.00     0.016 C 
ATOM     28  C   UNL A   1      32.862  30.220  26.924  1.00  0.00     0.016 C 
ATOM     29  C   UNL A   1      35.009  28.986  26.975  1.00  0.00     0.016 C 
ENDBRANCH  25  26
ENDBRANCH  17  20
ENDBRANCH  14  16
BRANCH  15  30
ATOM     30  C   UNL A   1      30.522  25.763  23.321  1.00  0.00    -0.023 A 
ATOM     31  C   UNL A   1      31.138  26.999  23.044  1.00  0.00     0.010 A 
ATOM     32  C   UNL A   1      29.132  25.792  23.572  1.00  0.00     0.010 A 
ATOM     33  C   UNL A   1      30.415  28.204  23.046  1.00  0.00     0.021 A 
ATOM     34  C   UNL A   1      28.399  26.990  23.536  1.00  0.00     0.021 A 
ATOM     35  C   UNL A   1      29.046  28.192  23.277  1.00  0.00     0.041 A 
ATOM     36  Cl  UNL A   1      28.151  29.656  23.161  1.00  0.00    -0.084 Cl
ENDBRANCH  15  30
ENDBRANCH  11  14
ENDBRANCH   8  10
ENDBRANCH   6   8
ENDBRANCH   5   6
ENDBRANCH   4   5
ENDBRANCH   3   4
ENDBRANCH   2   3
ENDBRANCH   1   2
BRANCH   1  37
ATOM     37  C   UNL A   1      39.484  25.851  27.294  1.00  0.00     0.188 C 
BRANCH  37  38
ATOM     38  O   UNL A   1      40.377  26.897  26.961  1.00  0.00    -0.376 OA
BRANCH  38  39
ATOM     39  C   UNL A   1      41.184  26.787  25.800  1.00  0.00     0.202 C 
BRANCH  39  40
ATOM     40  C   UNL A   1      42.222  27.846  25.350  1.00  0.00     0.261 C 
BRANCH  40  41
ATOM     41  O   UNL A   1      43.521  27.890  25.956  1.00  0.00    -0.460 OA
BRANCH  41  42
ATOM     42  C   UNL A   1      43.872  26.899  26.804  1.00  0.00     0.338 C 
ATOM     43  O   UNL A   1      44.377  25.829  26.493  1.00  0.00    -0.246 OA
BRANCH  42  44
ATOM     44  C   UNL A   1      43.794  27.445  28.190  1.00  0.00     0.060 A 
ATOM     45  C   UNL A   1      43.141  26.701  29.191  1.00  0.00     0.016 A 
ATOM     46  C   UNL A   1      44.399  28.660  28.515  1.00  0.00     0.016 A 
ATOM     47  C   UNL A   1      43.067  27.173  30.504  1.00  0.00     0.010 A 
ATOM     48  C   UNL A   1      44.274  29.162  29.814  1.00  0.00     0.010 A 
ATOM     49  C   UNL A   1      43.572  28.440  30.800  1.00  0.00    -0.014 A 
BRANCH  49  50
ATOM     50  C   UNL A   1      43.091  29.166  32.002  1.00  0.00     0.031 A 
ATOM     51  C   UNL A   1      41.947  30.122  31.802  1.00  0.00     0.074 A 
ATOM     52  C   UNL A   1      43.654  29.025  33.213  1.00  0.00     0.049 A 
ATOM     53  N   UNL A   1      41.478  31.047  32.594  1.00  0.00    -0.248 NA
ATOM     54  C   UNL A   1      41.257  30.028  30.505  1.00  0.00     0.031 C 
ATOM     55  C   UNL A   1      44.704  28.071  33.554  1.00  0.00     0.029 A 
ATOM     56  N   UNL A   1      43.435  29.722  34.376  1.00  0.00    -0.354 N 
ATOM     57  C   UNL A   1      40.464  31.673  31.876  1.00  0.00     0.074 A 
ATOM     58  C   UNL A   1      40.407  31.037  30.579  1.00  0.00     0.031 C 
ATOM     59  C   UNL A   1      45.071  28.271  34.833  1.00  0.00     0.029 A 
ATOM     60  C   UNL A   1      44.323  29.406  35.377  1.00  0.00     0.049 A 
ATOM     61  H   UNL A   1      42.712  30.382  34.483  1.00  0.00     0.167 HD
ATOM     62  C   UNL A   1      39.659  32.693  32.264  1.00  0.00     0.034 A 
ATOM     63  C   UNL A   1      44.545  30.003  36.566  1.00  0.00     0.034 A 
ATOM     64  C   UNL A   1      39.753  33.323  33.557  1.00  0.00     0.049 A 
ATOM     65  C   UNL A   1      43.714  31.206  36.952  1.00  0.00     0.074 A 
ATOM     66  C   UNL A   1      38.991  34.355  34.070  1.00  0.00     0.029 A 
ATOM     67  N   UNL A   1      40.683  32.988  34.536  1.00  0.00    -0.354 N 
ATOM     68  N   UNL A   1      42.771  31.815  36.266  1.00  0.00    -0.248 NA
ATOM     69  C   UNL A   1      43.974  31.804  38.268  1.00  0.00     0.031 C 
ATOM     70  C   UNL A   1      39.516  34.706  35.318  1.00  0.00     0.029 A 
ATOM     71  C   UNL A   1      40.538  33.822  35.633  1.00  0.00     0.049 A 
ATOM     72  H   UNL A   1      41.346  32.266  34.461  1.00  0.00     0.167 HD
ATOM     73  C   UNL A   1      42.301  32.841  37.086  1.00  0.00     0.074 A 
ATOM     74  C   UNL A   1      43.068  32.771  38.313  1.00  0.00     0.031 C 
ATOM     75  C   UNL A   1      41.313  33.743  36.852  1.00  0.00     0.034 A 
BRANCH  62  76
ATOM     76  C   UNL A   1      38.686  33.230  31.240  1.00  0.00     0.023 A 
ATOM     77  C   UNL A   1      37.321  32.893  31.262  1.00  0.00     0.031 A 
ATOM     78  C   UNL A   1      39.147  34.023  30.175  1.00  0.00     0.131 A 
ATOM     79  C   UNL A   1      36.493  33.254  30.188  1.00  0.00     0.055 A 
ATOM     80  C   UNL A   1      38.295  34.467  29.163  1.00  0.00     0.041 A 
ATOM     81  F   UNL A   1      40.445  34.354  30.079  1.00  0.00    -0.206 F 
ATOM     82  C   UNL A   1      36.963  34.064  29.153  1.00  0.00     0.022 A 
BRANCH  79  83
ATOM     83  S   UNL A   1      34.856  32.480  30.062  1.00  0.00     0.124 S 
ATOM     84  O   UNL A   1      34.183  33.366  29.115  1.00  0.00    -0.237 OA
ATOM     85  O   UNL A   1      35.176  31.145  29.571  1.00  0.00    -0.237 OA
ATOM     86  O   UNL A   1      34.343  32.539  31.429  1.00  0.00    -0.744 OA
ENDBRANCH  79  83
ENDBRANCH  62  76
BRANCH  63  87
ATOM     87  C   UNL A   1      45.642  29.514  37.450  1.00  0.00     0.023 A 
ATOM     88  C   UNL A   1      45.435  28.465  38.358  1.00  0.00     0.031 A 
ATOM     89  C   UNL A   1      46.920  30.103  37.403  1.00  0.00     0.131 A 
ATOM     90  C   UNL A   1      46.483  28.050  39.198  1.00  0.00     0.055 A 
ATOM     91  C   UNL A   1      47.971  29.653  38.202  1.00  0.00     0.041 A 
ATOM     92  F   UNL A   1      47.170  31.114  36.555  1.00  0.00    -0.206 F 
ATOM     93  C   UNL A   1      47.753  28.624  39.113  1.00  0.00     0.022 A 
BRANCH  90  94
ATOM     94  S   UNL A   1      46.145  26.780  40.448  1.00  0.00     0.124 S 
ATOM     95  O   UNL A   1      45.389  27.534  41.440  1.00  0.00    -0.237 OA
ATOM     96  O   UNL A   1      45.394  25.792  39.682  1.00  0.00    -0.237 OA
ATOM     97  O   UNL A   1      47.479  26.356  40.870  1.00  0.00    -0.744 OA
ENDBRANCH  90  94
ENDBRANCH  63  87
BRANCH  75  98
ATOM     98  C   UNL A   1      40.942  34.686  37.974  1.00  0.00     0.023 A 
ATOM     99  C   UNL A   1      40.133  34.292  39.053  1.00  0.00     0.031 A 
ATOM    100  C   UNL A   1      41.446  36.000  37.972  1.00  0.00     0.131 A 
ATOM    101  C   UNL A   1      39.825  35.214  40.067  1.00  0.00     0.055 A 
ATOM    102  C   UNL A   1      41.188  36.892  39.012  1.00  0.00     0.041 A 
ATOM    103  F   UNL A   1      42.220  36.433  36.962  1.00  0.00    -0.206 F 
ATOM    104  C   UNL A   1      40.366  36.504  40.065  1.00  0.00     0.022 A 
BRANCH 101 105
ATOM    105  S   UNL A   1      38.642  34.737  41.357  1.00  0.00     0.124 S 
ATOM    106  O   UNL A   1      37.760  33.826  40.636  1.00  0.00    -0.237 OA
ATOM    107  O   UNL A   1      39.505  34.129  42.364  1.00  0.00    -0.237 OA
ATOM    108  O   UNL A   1      38.032  36.006  41.751  1.00  0.00    -0.744 OA
ENDBRANCH 101 105
ENDBRANCH  75  98
ENDBRANCH  49  50
ENDBRANCH  42  44
ENDBRANCH  41  42
ENDBRANCH  40  41
ENDBRANCH  39  40
ENDBRANCH  38  39
ENDBRANCH  37  38
ENDBRANCH   1  37
TORSDOF 26
ENDMDL
MODEL 2
REMARK VINA RESULT:      -9.3      5.490      8.776
REMARK SMILES C[C@@H](NC(=O)/C(=C/c1ccc(Cl)cc1)NC(=O)c1ccc(C(C)(C)C)cc1)C(=O)OCCOCCOCCOC(=O)c1ccc(-c2c3nc(c(-c4cc(S(=O)(=O)[O-])ccc4F)c4ccc([nH]4)c(-c4cc(S(=O)(=O)[O-])ccc4F)c4nc(c(-c5cc(S(=O)(=O)[O-])ccc5F)c5ccc2[nH]5)C=C4)C=C3)cc1
REMARK SMILES IDX 34 1 33 2 32 3 31 4 30 5 28 6 29 7 2 8 1 9 3 10 4 11 5 13
REMARK SMILES IDX 6 14 7 15 15 16 16 17 17 19 18 20 19 21 27 22 20 23 26 24
REMARK SMILES IDX 21 25 22 26 23 27 24 28 25 29 8 30 9 31 14 32 10 33 13 34
REMARK SMILES IDX 11 35 12 36 35 37 36 38 37 39 38 40 39 41 40 42 41 43 42 44
REMARK SMILES IDX 43 45 104 46 44 47 103 48 45 49 46 50 47 51 97 52 48 53
REMARK SMILES IDX 102 54 96 55 98 56 49 57 101 58 95 59 94 60 50 62 82 63
REMARK SMILES IDX 62 64 81 65 63 66 66 67 80 68 99 69 64 70 65 71 79 73 100 74
REMARK SMILES IDX 67 75 51 76 52 77 60 78 53 79 59 80 61 81 58 82 54 83 55 84
REMARK SMILES IDX 56 85 57 86 83 87 84 88 92 89 85 90 91 91 93 92 90 93 86 94
REMARK SMILES IDX 87 95 88 96 89 97 68 98 69 99 77 100 70 101 76 102 78 103
REMARK SMILES IDX 75 104 71 105 72 106 73 107 74 108
REMARK H PARENT 3 12 15 18 98 61 66 72
REMARK Flexibility Score: inf
ROOT
ATOM      1  C   UNL A   1      40.048  22.414  26.834  1.00  0.00     0.188 C 
ENDROOT
BRANCH   1   2
ATOM      2  O   UNL A   1      39.336  23.592  27.171  1.00  0.00    -0.376 OA
BRANCH   2   3
ATOM      3  C   UNL A   1      40.120  24.555  27.844  1.00  0.00     0.202 C 
BRANCH   3   4
ATOM      4  C   UNL A   1      39.571  25.973  28.020  1.00  0.00     0.261 C 
BRANCH   4   5
ATOM      5  O   UNL A   1      39.961  26.873  29.080  1.00  0.00    -0.462 OA
BRANCH   5   6
ATOM      6  C   UNL A   1      39.160  27.554  29.923  1.00  0.00     0.328 C 
ATOM      7  O   UNL A   1      38.730  27.174  31.000  1.00  0.00    -0.250 OA
BRANCH   6   8
ATOM      8  C   UNL A   1      38.714  28.868  29.316  1.00  0.00     0.189 C 
ATOM      9  C   UNL A   1      37.570  29.474  30.139  1.00  0.00     0.043 C 
BRANCH   8  10
ATOM     10  N   UNL A   1      39.873  29.757  29.160  1.00  0.00    -0.338 N 
ATOM     11  C   UNL A   1      40.915  29.826  30.068  1.00  0.00     0.268 C 
ATOM     12  H   UNL A   1      39.910  30.337  28.365  1.00  0.00     0.164 HD
ATOM     13  O   UNL A   1      42.023  29.394  29.767  1.00  0.00    -0.268 OA
BRANCH  11  14
ATOM     14  C   UNL A   1      40.712  30.641  31.337  1.00  0.00     0.107 C 
ATOM     15  C   UNL A   1      40.232  29.989  32.420  1.00  0.00     0.040 C 
BRANCH  14  16
ATOM     16  N   UNL A   1      41.102  31.959  31.426  1.00  0.00    -0.317 N 
ATOM     17  C   UNL A   1      40.495  33.164  31.211  1.00  0.00     0.255 C 
ATOM     18  H   UNL A   1      42.040  32.055  31.709  1.00  0.00     0.170 HD
ATOM     19  O   UNL A   1      41.138  34.205  31.332  1.00  0.00    -0.269 OA
BRANCH  17  20
ATOM     20  C   UNL A   1      39.104  33.245  30.784  1.00  0.00     0.040 A 
ATOM     21  C   UNL A   1      38.151  33.620  31.725  1.00  0.00     0.014 A 
ATOM     22  C   UNL A   1      38.749  32.955  29.470  1.00  0.00     0.014 A 
ATOM     23  C   UNL A   1      36.833  33.792  31.318  1.00  0.00     0.005 A 
ATOM     24  C   UNL A   1      37.426  33.147  29.068  1.00  0.00     0.005 A 
ATOM     25  C   UNL A   1      36.449  33.601  29.974  1.00  0.00    -0.043 A 
BRANCH  25  26
ATOM     26  C   UNL A   1      34.997  33.875  29.556  1.00  0.00    -0.013 C 
ATOM     27  C   UNL A   1      34.393  32.562  29.024  1.00  0.00     0.016 C 
ATOM     28  C   UNL A   1      34.168  34.374  30.762  1.00  0.00     0.016 C 
ATOM     29  C   UNL A   1      34.866  34.950  28.455  1.00  0.00     0.016 C 
ENDBRANCH  25  26
ENDBRANCH  17  20
ENDBRANCH  14  16
BRANCH  15  30
ATOM     30  C   UNL A   1      39.697  30.471  33.732  1.00  0.00    -0.023 A 
ATOM     31  C   UNL A   1      40.479  30.804  34.855  1.00  0.00     0.010 A 
ATOM     32  C   UNL A   1      38.338  30.851  33.773  1.00  0.00     0.010 A 
ATOM     33  C   UNL A   1      39.931  31.457  35.972  1.00  0.00     0.021 A 
ATOM     34  C   UNL A   1      37.795  31.539  34.872  1.00  0.00     0.021 A 
ATOM     35  C   UNL A   1      38.595  31.835  35.969  1.00  0.00     0.041 A 
ATOM     36  Cl  UNL A   1      37.963  32.736  37.290  1.00  0.00    -0.084 Cl
ENDBRANCH  15  30
ENDBRANCH  11  14
ENDBRANCH   8  10
ENDBRANCH   6   8
ENDBRANCH   5   6
ENDBRANCH   4   5
ENDBRANCH   3   4
ENDBRANCH   2   3
ENDBRANCH   1   2
BRANCH   1  37
ATOM     37  C   UNL A   1      41.173  22.144  27.835  1.00  0.00     0.188 C 
BRANCH  37  38
ATOM     38  O   UNL A   1      42.272  21.355  27.420  1.00  0.00    -0.376 OA
BRANCH  38  39
ATOM     39  C   UNL A   1      42.479  21.114  26.037  1.00  0.00     0.202 C 
BRANCH  39  40
ATOM     40  C   UNL A   1      43.871  20.943  25.377  1.00  0.00     0.261 C 
BRANCH  40  41
ATOM     41  O   UNL A   1      44.446  22.012  24.614  1.00  0.00    -0.460 OA
BRANCH  41  42
ATOM     42  C   UNL A   1      45.673  22.463  24.957  1.00  0.00     0.338 C 
ATOM     43  O   UNL A   1      46.740  22.035  24.542  1.00  0.00    -0.246 OA
BRANCH  42  44
ATOM     44  C   UNL A   1      45.488  23.740  25.705  1.00  0.00     0.060 A 
ATOM     45  C   UNL A   1      46.494  24.176  26.590  1.00  0.00     0.016 A 
ATOM     46  C   UNL A   1      44.355  24.530  25.505  1.00  0.00     0.016 A 
ATOM     47  C   UNL A   1      46.363  25.377  27.290  1.00  0.00     0.010 A 
ATOM     48  C   UNL A   1      44.195  25.702  26.250  1.00  0.00     0.010 A 
ATOM     49  C   UNL A   1      45.178  26.106  27.176  1.00  0.00    -0.014 A 
BRANCH  49  50
ATOM     50  C   UNL A   1      44.800  27.075  28.234  1.00  0.00     0.031 A 
ATOM     51  C   UNL A   1      44.973  28.533  27.908  1.00  0.00     0.074 A 
ATOM     52  C   UNL A   1      44.357  26.698  29.444  1.00  0.00     0.049 A 
ATOM     53  N   UNL A   1      44.952  29.576  28.692  1.00  0.00    -0.248 NA
ATOM     54  C   UNL A   1      45.236  28.844  26.493  1.00  0.00     0.031 C 
ATOM     55  C   UNL A   1      44.063  25.327  29.850  1.00  0.00     0.029 A 
ATOM     56  N   UNL A   1      44.113  27.447  30.569  1.00  0.00    -0.354 N 
ATOM     57  C   UNL A   1      45.238  30.664  27.873  1.00  0.00     0.074 A 
ATOM     58  C   UNL A   1      45.453  30.146  26.540  1.00  0.00     0.031 C 
ATOM     59  C   UNL A   1      43.718  25.327  31.151  1.00  0.00     0.029 A 
ATOM     60  C   UNL A   1      43.827  26.688  31.679  1.00  0.00     0.049 A 
ATOM     61  H   UNL A   1      44.138  28.431  30.579  1.00  0.00     0.167 HD
ATOM     62  C   UNL A   1      45.320  31.975  28.207  1.00  0.00     0.034 A 
ATOM     63  C   UNL A   1      43.725  27.044  32.976  1.00  0.00     0.034 A 
ATOM     64  C   UNL A   1      45.122  32.460  29.550  1.00  0.00     0.049 A 
ATOM     65  C   UNL A   1      43.921  28.494  33.359  1.00  0.00     0.074 A 
ATOM     66  C   UNL A   1      45.169  33.763  30.011  1.00  0.00     0.029 A 
ATOM     67  N   UNL A   1      44.855  31.656  30.652  1.00  0.00    -0.354 N 
ATOM     68  N   UNL A   1      44.215  29.520  32.591  1.00  0.00    -0.248 NA
ATOM     69  C   UNL A   1      43.773  28.835  34.780  1.00  0.00     0.031 C 
ATOM     70  C   UNL A   1      45.024  33.737  31.402  1.00  0.00     0.029 A 
ATOM     71  C   UNL A   1      44.777  32.430  31.798  1.00  0.00     0.049 A 
ATOM     72  H   UNL A   1      44.741  30.679  30.623  1.00  0.00     0.167 HD
ATOM     73  C   UNL A   1      44.246  30.632  33.432  1.00  0.00     0.074 A 
ATOM     74  C   UNL A   1      43.948  30.150  34.764  1.00  0.00     0.031 C 
ATOM     75  C   UNL A   1      44.481  31.934  33.125  1.00  0.00     0.034 A 
BRANCH  62  76
ATOM     76  C   UNL A   1      45.726  32.939  27.116  1.00  0.00     0.023 A 
ATOM     77  C   UNL A   1      47.075  33.223  26.837  1.00  0.00     0.031 A 
ATOM     78  C   UNL A   1      44.746  33.651  26.401  1.00  0.00     0.131 A 
ATOM     79  C   UNL A   1      47.403  34.263  25.954  1.00  0.00     0.055 A 
ATOM     80  C   UNL A   1      45.082  34.611  25.446  1.00  0.00     0.041 A 
ATOM     81  F   UNL A   1      43.441  33.448  26.643  1.00  0.00    -0.206 F 
ATOM     82  C   UNL A   1      46.417  34.939  25.234  1.00  0.00     0.022 A 
BRANCH  79  83
ATOM     83  S   UNL A   1      49.119  34.853  25.916  1.00  0.00     0.124 S 
ATOM     84  O   UNL A   1      49.168  35.535  24.624  1.00  0.00    -0.237 OA
ATOM     85  O   UNL A   1      49.183  35.711  27.093  1.00  0.00    -0.237 OA
ATOM     86  O   UNL A   1      49.906  33.624  25.992  1.00  0.00    -0.744 OA
ENDBRANCH  79  83
ENDBRANCH  62  76
BRANCH  63  87
ATOM     87  C   UNL A   1      43.489  26.002  34.016  1.00  0.00     0.023 A 
ATOM     88  C   UNL A   1      44.485  25.076  34.362  1.00  0.00     0.031 A 
ATOM     89  C   UNL A   1      42.249  25.912  34.676  1.00  0.00     0.131 A 
ATOM     90  C   UNL A   1      44.218  24.088  35.325  1.00  0.00     0.055 A 
ATOM     91  C   UNL A   1      42.004  24.962  35.667  1.00  0.00     0.041 A 
ATOM     92  F   UNL A   1      41.259  26.771  34.379  1.00  0.00    -0.206 F 
ATOM     93  C   UNL A   1      42.991  24.036  35.992  1.00  0.00     0.022 A 
BRANCH  90  94
ATOM     94  S   UNL A   1      45.481  22.829  35.655  1.00  0.00     0.124 S 
ATOM     95  O   UNL A   1      45.269  22.562  37.072  1.00  0.00    -0.237 OA
ATOM     96  O   UNL A   1      45.095  21.764  34.736  1.00  0.00    -0.237 OA
ATOM     97  O   UNL A   1      46.732  23.509  35.327  1.00  0.00    -0.744 OA
ENDBRANCH  90  94
ENDBRANCH  63  87
BRANCH  75  98
ATOM     98  C   UNL A   1      44.348  32.953  34.233  1.00  0.00     0.023 A 
ATOM     99  C   UNL A   1      43.152  33.647  34.481  1.00  0.00     0.031 A 
ATOM    100  C   UNL A   1      45.443  33.202  35.082  1.00  0.00     0.131 A 
ATOM    101  C   UNL A   1      43.090  34.581  35.528  1.00  0.00     0.055 A 
ATOM    102  C   UNL A   1      45.358  34.083  36.160  1.00  0.00     0.041 A 
ATOM    103  F   UNL A   1      46.613  32.571  34.889  1.00  0.00    -0.206 F 
ATOM    104  C   UNL A   1      44.178  34.786  36.383  1.00  0.00     0.022 A 
BRANCH 101 105
ATOM    105  S   UNL A   1      41.594  35.588  35.720  1.00  0.00     0.124 S 
ATOM    106  O   UNL A   1      42.123  36.803  36.331  1.00  0.00    -0.237 OA
ATOM    107  O   UNL A   1      41.124  35.717  34.345  1.00  0.00    -0.237 OA
ATOM    108  O   UNL A   1      40.743  34.778  36.591  1.00  0.00    -0.744 OA
ENDBRANCH 101 105
ENDBRANCH  75  98
ENDBRANCH  49  50
ENDBRANCH  42  44
ENDBRANCH  41  42
ENDBRANCH  40  41
ENDBRANCH  39  40
ENDBRANCH  38  39
ENDBRANCH  37  38
ENDBRANCH   1  37
TORSDOF 26
ENDMDL
MODEL 3
REMARK VINA RESULT:      -9.2      3.611      5.637
REMARK SMILES C[C@@H](NC(=O)/C(=C/c1ccc(Cl)cc1)NC(=O)c1ccc(C(C)(C)C)cc1)C(=O)OCCOCCOCCOC(=O)c1ccc(-c2c3nc(c(-c4cc(S(=O)(=O)[O-])ccc4F)c4ccc([nH]4)c(-c4cc(S(=O)(=O)[O-])ccc4F)c4nc(c(-c5cc(S(=O)(=O)[O-])ccc5F)c5ccc2[nH]5)C=C4)C=C3)cc1
REMARK SMILES IDX 34 1 33 2 32 3 31 4 30 5 28 6 29 7 2 8 1 9 3 10 4 11 5 13
REMARK SMILES IDX 6 14 7 15 15 16 16 17 17 19 18 20 19 21 27 22 20 23 26 24
REMARK SMILES IDX 21 25 22 26 23 27 24 28 25 29 8 30 9 31 14 32 10 33 13 34
REMARK SMILES IDX 11 35 12 36 35 37 36 38 37 39 38 40 39 41 40 42 41 43 42 44
REMARK SMILES IDX 43 45 104 46 44 47 103 48 45 49 46 50 47 51 97 52 48 53
REMARK SMILES IDX 102 54 96 55 98 56 49 57 101 58 95 59 94 60 50 62 82 63
REMARK SMILES IDX 62 64 81 65 63 66 66 67 80 68 99 69 64 70 65 71 79 73 100 74
REMARK SMILES IDX 67 75 51 76 52 77 60 78 53 79 59 80 61 81 58 82 54 83 55 84
REMARK SMILES IDX 56 85 57 86 83 87 84 88 92 89 85 90 91 91 93 92 90 93 86 94
REMARK SMILES IDX 87 95 88 96 89 97 68 98 69 99 77 100 70 101 76 102 78 103
REMARK SMILES IDX 75 104 71 105 72 106 73 107 74 108
REMARK H PARENT 3 12 15 18 98 61 66 72
REMARK Flexibility Score: inf
ROOT
ATOM      1  C   UNL A   1      39.153  24.176  27.424  1.00  0.00     0.188 C 
ENDROOT
BRANCH   1   2
ATOM      2  O   UNL A   1      38.859  24.309  26.045  1.00  0.00    -0.376 OA
BRANCH   2   3
ATOM      3  C   UNL A   1      37.509  24.041  25.724  1.00  0.00     0.202 C 
BRANCH   3   4
ATOM      4  C   UNL A   1      36.908  22.685  26.101  1.00  0.00     0.261 C 
BRANCH   4   5
ATOM      5  O   UNL A   1      36.638  21.623  25.161  1.00  0.00    -0.462 OA
BRANCH   5   6
ATOM      6  C   UNL A   1      35.446  21.077  24.850  1.00  0.00     0.328 C 
ATOM      7  O   UNL A   1      35.179  19.888  24.767  1.00  0.00    -0.250 OA
BRANCH   6   8
ATOM      8  C   UNL A   1      34.437  22.139  24.468  1.00  0.00     0.189 C 
ATOM      9  C   UNL A   1      34.945  22.948  23.267  1.00  0.00     0.043 C 
BRANCH   8  10
ATOM     10  N   UNL A   1      33.124  21.517  24.255  1.00  0.00    -0.338 N 
ATOM     11  C   UNL A   1      32.148  22.046  23.428  1.00  0.00     0.268 C 
ATOM     12  H   UNL A   1      32.926  20.677  24.728  1.00  0.00     0.164 HD
ATOM     13  O   UNL A   1      31.864  21.484  22.375  1.00  0.00    -0.268 OA
BRANCH  11  14
ATOM     14  C   UNL A   1      31.297  23.191  23.958  1.00  0.00     0.107 C 
ATOM     15  C   UNL A   1      31.039  24.212  23.110  1.00  0.00     0.040 C 
BRANCH  14  16
ATOM     16  N   UNL A   1      30.716  23.149  25.205  1.00  0.00    -0.317 N 
ATOM     17  C   UNL A   1      30.717  23.965  26.301  1.00  0.00     0.255 C 
ATOM     18  H   UNL A   1      30.173  22.338  25.340  1.00  0.00     0.170 HD
ATOM     19  O   UNL A   1      30.120  23.624  27.320  1.00  0.00    -0.269 OA
BRANCH  17  20
ATOM     20  C   UNL A   1      31.461  25.218  26.311  1.00  0.00     0.040 A 
ATOM     21  C   UNL A   1      32.802  25.187  25.945  1.00  0.00     0.014 A 
ATOM     22  C   UNL A   1      30.837  26.408  26.676  1.00  0.00     0.014 A 
ATOM     23  C   UNL A   1      33.505  26.383  25.859  1.00  0.00     0.005 A 
ATOM     24  C   UNL A   1      31.548  27.605  26.570  1.00  0.00     0.005 A 
ATOM     25  C   UNL A   1      32.884  27.621  26.128  1.00  0.00    -0.043 A 
BRANCH  25  26
ATOM     26  C   UNL A   1      33.681  28.922  25.948  1.00  0.00    -0.013 C 
ATOM     27  C   UNL A   1      34.811  28.943  26.993  1.00  0.00     0.016 C 
ATOM     28  C   UNL A   1      34.289  28.996  24.527  1.00  0.00     0.016 C 
ATOM     29  C   UNL A   1      32.827  30.196  26.128  1.00  0.00     0.016 C 
ENDBRANCH  25  26
ENDBRANCH  17  20
ENDBRANCH  14  16
BRANCH  15  30
ATOM     30  C   UNL A   1      30.460  25.576  23.321  1.00  0.00    -0.023 A 
ATOM     31  C   UNL A   1      31.082  26.788  22.962  1.00  0.00     0.010 A 
ATOM     32  C   UNL A   1      29.096  25.648  23.679  1.00  0.00     0.010 A 
ATOM     33  C   UNL A   1      30.391  28.010  22.986  1.00  0.00     0.021 A 
ATOM     34  C   UNL A   1      28.391  26.864  23.666  1.00  0.00     0.021 A 
ATOM     35  C   UNL A   1      29.044  28.041  23.323  1.00  0.00     0.041 A 
ATOM     36  Cl  UNL A   1      28.179  29.524  23.235  1.00  0.00    -0.084 Cl
ENDBRANCH  15  30
ENDBRANCH  11  14
ENDBRANCH   8  10
ENDBRANCH   6   8
ENDBRANCH   5   6
ENDBRANCH   4   5
ENDBRANCH   3   4
ENDBRANCH   2   3
ENDBRANCH   1   2
BRANCH   1  37
ATOM     37  C   UNL A   1      39.651  25.498  28.012  1.00  0.00     0.188 C 
BRANCH  37  38
ATOM     38  O   UNL A   1      40.995  25.875  27.784  1.00  0.00    -0.376 OA
BRANCH  38  39
ATOM     39  C   UNL A   1      41.612  25.561  26.545  1.00  0.00     0.202 C 
BRANCH  39  40
ATOM     40  C   UNL A   1      43.089  25.871  26.198  1.00  0.00     0.261 C 
BRANCH  40  41
ATOM     41  O   UNL A   1      44.141  25.030  26.692  1.00  0.00    -0.460 OA
BRANCH  41  42
ATOM     42  C   UNL A   1      43.811  23.857  27.273  1.00  0.00     0.338 C 
ATOM     43  O   UNL A   1      43.504  22.825  26.692  1.00  0.00    -0.246 OA
BRANCH  42  44
ATOM     44  C   UNL A   1      44.154  23.961  28.722  1.00  0.00     0.060 A 
ATOM     45  C   UNL A   1      43.392  23.247  29.666  1.00  0.00     0.016 A 
ATOM     46  C   UNL A   1      45.246  24.719  29.146  1.00  0.00     0.016 A 
ATOM     47  C   UNL A   1      43.698  23.305  31.027  1.00  0.00     0.010 A 
ATOM     48  C   UNL A   1      45.517  24.826  30.513  1.00  0.00     0.010 A 
ATOM     49  C   UNL A   1      44.718  24.154  31.460  1.00  0.00    -0.014 A 
BRANCH  49  50
ATOM     50  C   UNL A   1      44.748  24.618  32.870  1.00  0.00     0.031 A 
ATOM     51  C   UNL A   1      44.337  26.043  33.121  1.00  0.00     0.074 A 
ATOM     52  C   UNL A   1      45.151  23.838  33.885  1.00  0.00     0.049 A 
ATOM     53  N   UNL A   1      44.484  26.782  34.187  1.00  0.00    -0.248 NA
ATOM     54  C   UNL A   1      43.695  26.731  31.990  1.00  0.00     0.031 C 
ATOM     55  C   UNL A   1      45.487  22.421  33.785  1.00  0.00     0.029 A 
ATOM     56  N   UNL A   1      45.381  24.151  35.203  1.00  0.00    -0.354 N 
ATOM     57  C   UNL A   1      43.988  28.035  33.842  1.00  0.00     0.074 A 
ATOM     58  C   UNL A   1      43.562  27.957  32.462  1.00  0.00     0.031 C 
ATOM     59  C   UNL A   1      45.923  21.995  34.984  1.00  0.00     0.029 A 
ATOM     60  C   UNL A   1      45.953  23.123  35.916  1.00  0.00     0.049 A 
ATOM     61  H   UNL A   1      45.157  25.024  35.598  1.00  0.00     0.167 HD
ATOM     62  C   UNL A   1      43.903  29.151  34.607  1.00  0.00     0.034 A 
ATOM     63  C   UNL A   1      46.490  23.115  37.153  1.00  0.00     0.034 A 
ATOM     64  C   UNL A   1      44.355  29.204  35.975  1.00  0.00     0.049 A 
ATOM     65  C   UNL A   1      46.487  24.390  37.966  1.00  0.00     0.074 A 
ATOM     66  C   UNL A   1      44.314  30.270  36.855  1.00  0.00     0.029 A 
ATOM     67  N   UNL A   1      44.950  28.147  36.655  1.00  0.00    -0.354 N 
ATOM     68  N   UNL A   1      46.041  25.582  37.634  1.00  0.00    -0.248 NA
ATOM     69  C   UNL A   1      47.059  24.322  39.317  1.00  0.00     0.031 C 
ATOM     70  C   UNL A   1      44.966  29.887  38.032  1.00  0.00     0.029 A 
ATOM     71  C   UNL A   1      45.317  28.549  37.929  1.00  0.00     0.049 A 
ATOM     72  H   UNL A   1      45.090  27.247  36.286  1.00  0.00     0.167 HD
ATOM     73  C   UNL A   1      46.243  26.392  38.751  1.00  0.00     0.074 A 
ATOM     74  C   UNL A   1      46.855  25.555  39.761  1.00  0.00     0.031 C 
ATOM     75  C   UNL A   1      45.931  27.702  38.929  1.00  0.00     0.034 A 
BRANCH  62  76
ATOM     76  C   UNL A   1      43.385  30.405  33.941  1.00  0.00     0.023 A 
ATOM     77  C   UNL A   1      42.010  30.676  33.830  1.00  0.00     0.031 A 
ATOM     78  C   UNL A   1      44.281  31.302  33.333  1.00  0.00     0.131 A 
ATOM     79  C   UNL A   1      41.570  31.748  33.039  1.00  0.00     0.055 A 
ATOM     80  C   UNL A   1      43.837  32.427  32.635  1.00  0.00     0.041 A 
ATOM     81  F   UNL A   1      45.605  31.084  33.376  1.00  0.00    -0.206 F 
ATOM     82  C   UNL A   1      42.473  32.643  32.465  1.00  0.00     0.022 A 
BRANCH  79  83
ATOM     83  S   UNL A   1      39.809  31.833  32.605  1.00  0.00     0.124 S 
ATOM     84  O   UNL A   1      39.626  30.582  31.871  1.00  0.00    -0.237 OA
ATOM     85  O   UNL A   1      39.165  31.906  33.912  1.00  0.00    -0.237 OA
ATOM     86  O   UNL A   1      39.715  33.043  31.791  1.00  0.00    -0.744 OA
ENDBRANCH  79  83
ENDBRANCH  62  76
BRANCH  63  87
ATOM     87  C   UNL A   1      47.135  21.875  37.674  1.00  0.00     0.023 A 
ATOM     88  C   UNL A   1      46.422  20.957  38.460  1.00  0.00     0.031 A 
ATOM     89  C   UNL A   1      48.486  21.597  37.399  1.00  0.00     0.131 A 
ATOM     90  C   UNL A   1      47.069  19.814  38.961  1.00  0.00     0.055 A 
ATOM     91  C   UNL A   1      49.111  20.436  37.855  1.00  0.00     0.041 A 
ATOM     92  F   UNL A   1      49.216  22.446  36.656  1.00  0.00    -0.206 F 
ATOM     93  C   UNL A   1      48.403  19.539  38.648  1.00  0.00     0.022 A 
BRANCH  90  94
ATOM     94  S   UNL A   1      46.156  18.715  40.077  1.00  0.00     0.124 S 
ATOM     95  O   UNL A   1      45.485  17.827  39.135  1.00  0.00    -0.237 OA
ATOM     96  O   UNL A   1      47.230  18.122  40.865  1.00  0.00    -0.237 OA
ATOM     97  O   UNL A   1      45.279  19.627  40.810  1.00  0.00    -0.744 OA
ENDBRANCH  90  94
ENDBRANCH  63  87
BRANCH  75  98
ATOM     98  C   UNL A   1      46.172  28.303  40.294  1.00  0.00     0.023 A 
ATOM     99  C   UNL A   1      45.141  28.488  41.230  1.00  0.00     0.031 A 
ATOM    100  C   UNL A   1      47.479  28.663  40.674  1.00  0.00     0.131 A 
ATOM    101  C   UNL A   1      45.429  29.050  42.485  1.00  0.00     0.055 A 
ATOM    102  C   UNL A   1      47.770  29.161  41.944  1.00  0.00     0.041 A 
ATOM    103  F   UNL A   1      48.504  28.513  39.818  1.00  0.00    -0.206 F 
ATOM    104  C   UNL A   1      46.739  29.366  42.855  1.00  0.00     0.022 A 
BRANCH 101 105
ATOM    105  S   UNL A   1      44.058  29.437  43.609  1.00  0.00     0.124 S 
ATOM    106  O   UNL A   1      42.987  29.768  42.675  1.00  0.00    -0.237 OA
ATOM    107  O   UNL A   1      43.897  28.191  44.349  1.00  0.00    -0.237 OA
ATOM    108  O   UNL A   1      44.564  30.563  44.393  1.00  0.00    -0.744 OA
ENDBRANCH 101 105
ENDBRANCH  75  98
ENDBRANCH  49  50
ENDBRANCH  42  44
ENDBRANCH  41  42
ENDBRANCH  40  41
ENDBRANCH  39  40
ENDBRANCH  38  39
ENDBRANCH  37  38
ENDBRANCH   1  37
TORSDOF 26
ENDMDL
