MODEL 1
REMARK VINA RESULT:     -11.1      0.000      0.000
REMARK SMILES Cc1ncc(CO)c([C@H]2[NH2+][C@@H](C(=O)OCCOCCOCCOC(=O)c3ccc(-c4c5nc(c(-c6cc(S(=O)(=O)[O-])ccc6F)c6ccc([nH]6)c(-c6cc(S(=O)(=O)[O-])ccc6F)c6nc(c(-c7cc(S(=O)(=O)[O-])ccc7F)c7ccc4[nH]7)C=C6)C=C5)cc3)Cc3[nH]cnc32)c1O
REMARK SMILES IDX 18 1 17 2 16 3 15 4 14 5 12 6 13 7 11 8 9 9 10 10 94 11
REMARK SMILES IDX 90 14 93 15 89 16 91 17 92 18 8 20 1 21 2 22 3 23 95 24 4 25
REMARK SMILES IDX 5 26 96 27 6 29 7 30 19 32 20 33 21 34 22 35 23 36 24 37
REMARK SMILES IDX 25 38 26 39 27 40 88 41 28 42 87 43 29 44 30 45 31 46 81 47
REMARK SMILES IDX 32 48 86 49 80 50 82 51 33 52 85 53 79 54 78 55 34 57 66 58
REMARK SMILES IDX 46 59 65 60 47 61 50 62 64 63 83 64 48 65 49 66 63 68 84 69
REMARK SMILES IDX 51 70 35 71 36 72 44 73 37 74 43 75 45 76 42 77 38 78 39 79
REMARK SMILES IDX 40 80 41 81 67 82 68 83 76 84 69 85 75 86 77 87 74 88 70 89
REMARK SMILES IDX 71 90 72 91 73 92 52 93 53 94 61 95 54 96 60 97 62 98 59 99
REMARK SMILES IDX 55 100 56 101 57 102 58 103
REMARK H PARENT 10 12 10 13 91 19 96 28 7 31 82 56 50 67
REMARK Flexibility Score: inf
ROOT
ATOM      1  C   UNL A   1      35.357  33.088  28.249  1.00  0.00     0.188 C 
ENDROOT
BRANCH   1   2
ATOM      2  O   UNL A   1      34.178  32.547  27.669  1.00  0.00    -0.376 OA
BRANCH   2   3
ATOM      3  C   UNL A   1      34.082  31.157  27.431  1.00  0.00     0.202 C 
BRANCH   3   4
ATOM      4  C   UNL A   1      32.678  30.610  27.157  1.00  0.00     0.261 C 
BRANCH   4   5
ATOM      5  O   UNL A   1      32.616  29.180  27.024  1.00  0.00    -0.459 OA
BRANCH   5   6
ATOM      6  C   UNL A   1      33.673  28.555  26.418  1.00  0.00     0.365 C 
ATOM      7  O   UNL A   1      34.737  28.299  26.964  1.00  0.00    -0.245 OA
BRANCH   6   8
ATOM      8  C   UNL A   1      33.330  28.248  24.950  1.00  0.00     0.300 C 
ATOM      9  C   UNL A   1      31.565  28.136  23.261  1.00  0.00     0.270 C 
ATOM     10  N   UNL A   1      31.848  28.214  24.721  1.00  0.00    -0.323 N 
ATOM     11  C   UNL A   1      32.169  26.863  22.753  1.00  0.00     0.124 A 
ATOM     12  H   UNL A   1      31.452  27.397  25.187  1.00  0.00     0.347 HD
ATOM     13  H   UNL A   1      31.429  29.063  25.100  1.00  0.00     0.347 HD
ATOM     14  C   UNL A   1      33.324  26.356  23.325  1.00  0.00     0.051 A 
ATOM     15  N   UNL A   1      31.814  26.110  21.666  1.00  0.00    -0.235 NA
ATOM     16  C   UNL A   1      34.017  26.915  24.522  1.00  0.00     0.133 C 
ATOM     17  N   UNL A   1      33.644  25.247  22.607  1.00  0.00    -0.348 N 
ATOM     18  C   UNL A   1      32.701  25.136  21.620  1.00  0.00     0.197 A 
ATOM     19  H   UNL A   1      34.403  24.641  22.767  1.00  0.00     0.167 HD
BRANCH   9  20
ATOM     20  C   UNL A   1      30.097  28.379  22.970  1.00  0.00     0.066 A 
ATOM     21  C   UNL A   1      28.130  31.098  21.088  1.00  0.00     0.071 C 
ATOM     22  C   UNL A   1      28.463  29.896  21.925  1.00  0.00     0.079 A 
ATOM     23  N   UNL A   1      27.424  29.205  22.428  1.00  0.00    -0.257 NA
ATOM     24  C   UNL A   1      29.785  29.507  22.158  1.00  0.00     0.146 A 
ATOM     25  C   UNL A   1      27.710  28.121  23.181  1.00  0.00     0.118 A 
ATOM     26  C   UNL A   1      28.998  27.678  23.517  1.00  0.00     0.009 A 
BRANCH  24  27
ATOM     27  O   UNL A   1      30.766  30.260  21.562  1.00  0.00    -0.505 OA
ATOM     28  H   UNL A   1      30.823  30.301  20.627  1.00  0.00     0.293 HD
ENDBRANCH  24  27
BRANCH  26  29
ATOM     29  C   UNL A   1      29.092  26.442  24.371  1.00  0.00     0.194 C 
BRANCH  29  30
ATOM     30  O   UNL A   1      29.314  25.272  23.580  1.00  0.00    -0.392 OA
ATOM     31  H   UNL A   1      30.252  25.220  23.335  1.00  0.00     0.211 HD
ENDBRANCH  29  30
ENDBRANCH  26  29
ENDBRANCH   9  20
ENDBRANCH   6   8
ENDBRANCH   5   6
ENDBRANCH   4   5
ENDBRANCH   3   4
ENDBRANCH   2   3
ENDBRANCH   1   2
BRANCH   1  32
ATOM     32  C   UNL A   1      35.319  34.207  29.319  1.00  0.00     0.188 C 
BRANCH  32  33
ATOM     33  O   UNL A   1      35.192  33.788  30.669  1.00  0.00    -0.376 OA
BRANCH  33  34
ATOM     34  C   UNL A   1      36.353  33.959  31.476  1.00  0.00     0.202 C 
BRANCH  34  35
ATOM     35  C   UNL A   1      36.840  32.631  32.043  1.00  0.00     0.261 C 
BRANCH  35  36
ATOM     36  O   UNL A   1      37.660  31.892  31.141  1.00  0.00    -0.460 OA
BRANCH  36  37
ATOM     37  C   UNL A   1      37.065  30.842  30.535  1.00  0.00     0.338 C 
ATOM     38  O   UNL A   1      35.907  30.494  30.654  1.00  0.00    -0.246 OA
BRANCH  37  39
ATOM     39  C   UNL A   1      38.054  30.142  29.709  1.00  0.00     0.060 A 
ATOM     40  C   UNL A   1      37.881  28.767  29.539  1.00  0.00     0.016 A 
ATOM     41  C   UNL A   1      39.243  30.792  29.351  1.00  0.00     0.016 A 
ATOM     42  C   UNL A   1      38.983  27.997  29.245  1.00  0.00     0.010 A 
ATOM     43  C   UNL A   1      40.344  30.023  29.064  1.00  0.00     0.010 A 
ATOM     44  C   UNL A   1      40.217  28.633  29.125  1.00  0.00    -0.014 A 
BRANCH  44  45
ATOM     45  C   UNL A   1      41.411  27.821  29.245  1.00  0.00     0.031 A 
ATOM     46  C   UNL A   1      42.153  27.917  30.512  1.00  0.00     0.074 A 
ATOM     47  C   UNL A   1      41.710  26.926  28.282  1.00  0.00     0.049 A 
ATOM     48  N   UNL A   1      43.408  28.167  30.671  1.00  0.00    -0.248 NA
ATOM     49  C   UNL A   1      41.397  27.789  31.765  1.00  0.00     0.031 C 
ATOM     50  C   UNL A   1      40.884  26.572  27.122  1.00  0.00     0.029 A 
ATOM     51  N   UNL A   1      42.738  26.034  28.221  1.00  0.00    -0.354 N 
ATOM     52  C   UNL A   1      43.651  28.030  32.030  1.00  0.00     0.074 A 
ATOM     53  C   UNL A   1      42.363  27.949  32.668  1.00  0.00     0.031 C 
ATOM     54  C   UNL A   1      41.311  25.393  26.626  1.00  0.00     0.029 A 
ATOM     55  C   UNL A   1      42.486  24.968  27.367  1.00  0.00     0.049 A 
ATOM     56  H   UNL A   1      43.573  26.135  28.732  1.00  0.00     0.167 HD
ATOM     57  C   UNL A   1      44.899  27.785  32.506  1.00  0.00     0.034 A 
ATOM     58  C   UNL A   1      43.124  23.771  27.341  1.00  0.00     0.034 A 
ATOM     59  C   UNL A   1      45.916  28.139  31.545  1.00  0.00     0.049 A 
ATOM     60  C   UNL A   1      44.447  23.953  27.987  1.00  0.00     0.074 A 
ATOM     61  C   UNL A   1      46.234  29.304  30.870  1.00  0.00     0.029 A 
ATOM     62  N   UNL A   1      46.589  27.135  30.886  1.00  0.00    -0.354 N 
ATOM     63  N   UNL A   1      45.406  24.681  27.483  1.00  0.00    -0.248 NA
ATOM     64  C   UNL A   1      44.572  23.682  29.413  1.00  0.00     0.031 C 
ATOM     65  C   UNL A   1      46.675  28.883  29.585  1.00  0.00     0.029 A 
ATOM     66  C   UNL A   1      46.644  27.488  29.560  1.00  0.00     0.049 A 
ATOM     67  H   UNL A   1      46.961  26.318  31.290  1.00  0.00     0.167 HD
ATOM     68  C   UNL A   1      45.991  25.310  28.570  1.00  0.00     0.074 A 
ATOM     69  C   UNL A   1      45.528  24.559  29.732  1.00  0.00     0.031 C 
ATOM     70  C   UNL A   1      46.554  26.551  28.455  1.00  0.00     0.034 A 
BRANCH  57  71
ATOM     71  C   UNL A   1      45.184  26.961  33.733  1.00  0.00     0.023 A 
ATOM     72  C   UNL A   1      44.900  25.585  33.677  1.00  0.00     0.031 A 
ATOM     73  C   UNL A   1      45.459  27.484  35.018  1.00  0.00     0.131 A 
ATOM     74  C   UNL A   1      44.835  24.815  34.850  1.00  0.00     0.055 A 
ATOM     75  C   UNL A   1      45.477  26.697  36.172  1.00  0.00     0.041 A 
ATOM     76  F   UNL A   1      45.623  28.794  35.243  1.00  0.00    -0.206 F 
ATOM     77  C   UNL A   1      45.137  25.358  36.096  1.00  0.00     0.022 A 
BRANCH  74  78
ATOM     78  S   UNL A   1      44.149  23.143  34.741  1.00  0.00     0.124 S 
ATOM     79  O   UNL A   1      44.640  22.704  33.439  1.00  0.00    -0.237 OA
ATOM     80  O   UNL A   1      44.747  22.498  35.907  1.00  0.00    -0.237 OA
ATOM     81  O   UNL A   1      42.707  23.364  34.820  1.00  0.00    -0.744 OA
ENDBRANCH  74  78
ENDBRANCH  57  71
BRANCH  58  82
ATOM     82  C   UNL A   1      42.519  22.454  27.010  1.00  0.00     0.023 A 
ATOM     83  C   UNL A   1      43.219  21.464  26.297  1.00  0.00     0.031 A 
ATOM     84  C   UNL A   1      41.276  22.071  27.569  1.00  0.00     0.131 A 
ATOM     85  C   UNL A   1      42.663  20.173  26.144  1.00  0.00     0.055 A 
ATOM     86  C   UNL A   1      40.715  20.807  27.385  1.00  0.00     0.041 A 
ATOM     87  F   UNL A   1      40.596  22.887  28.390  1.00  0.00    -0.206 F 
ATOM     88  C   UNL A   1      41.411  19.848  26.671  1.00  0.00     0.022 A 
BRANCH  85  89
ATOM     89  S   UNL A   1      43.633  18.851  25.359  1.00  0.00     0.124 S 
ATOM     90  O   UNL A   1      44.936  19.003  25.993  1.00  0.00    -0.237 OA
ATOM     91  O   UNL A   1      42.874  17.654  25.708  1.00  0.00    -0.237 OA
ATOM     92  O   UNL A   1      43.595  19.201  23.938  1.00  0.00    -0.744 OA
ENDBRANCH  85  89
ENDBRANCH  58  82
BRANCH  70  93
ATOM     93  C   UNL A   1      46.835  27.099  27.070  1.00  0.00     0.023 A 
ATOM     94  C   UNL A   1      48.085  27.008  26.418  1.00  0.00     0.031 A 
ATOM     95  C   UNL A   1      45.753  27.610  26.332  1.00  0.00     0.131 A 
ATOM     96  C   UNL A   1      48.220  27.435  25.084  1.00  0.00     0.055 A 
ATOM     97  C   UNL A   1      45.884  28.012  25.002  1.00  0.00     0.041 A 
ATOM     98  F   UNL A   1      44.529  27.693  26.881  1.00  0.00    -0.206 F 
ATOM     99  C   UNL A   1      47.122  27.932  24.374  1.00  0.00     0.022 A 
BRANCH  96 100
ATOM    100  S   UNL A   1      49.838  27.360  24.254  1.00  0.00     0.124 S 
ATOM    101  O   UNL A   1      49.497  27.382  22.837  1.00  0.00    -0.237 OA
ATOM    102  O   UNL A   1      50.513  28.547  24.770  1.00  0.00    -0.237 OA
ATOM    103  O   UNL A   1      50.401  26.091  24.722  1.00  0.00    -0.744 OA
ENDBRANCH  96 100
ENDBRANCH  70  93
ENDBRANCH  44  45
ENDBRANCH  37  39
ENDBRANCH  36  37
ENDBRANCH  35  36
ENDBRANCH  34  35
ENDBRANCH  33  34
ENDBRANCH  32  33
ENDBRANCH   1  32
TORSDOF 24
ENDMDL
MODEL 2
REMARK VINA RESULT:     -11.0      1.960      3.390
REMARK SMILES Cc1ncc(CO)c([C@H]2[NH2+][C@@H](C(=O)OCCOCCOCCOC(=O)c3ccc(-c4c5nc(c(-c6cc(S(=O)(=O)[O-])ccc6F)c6ccc([nH]6)c(-c6cc(S(=O)(=O)[O-])ccc6F)c6nc(c(-c7cc(S(=O)(=O)[O-])ccc7F)c7ccc4[nH]7)C=C6)C=C5)cc3)Cc3[nH]cnc32)c1O
REMARK SMILES IDX 18 1 17 2 16 3 15 4 14 5 12 6 13 7 11 8 9 9 10 10 94 11
REMARK SMILES IDX 90 14 93 15 89 16 91 17 92 18 8 20 1 21 2 22 3 23 95 24 4 25
REMARK SMILES IDX 5 26 96 27 6 29 7 30 19 32 20 33 21 34 22 35 23 36 24 37
REMARK SMILES IDX 25 38 26 39 27 40 88 41 28 42 87 43 29 44 30 45 31 46 81 47
REMARK SMILES IDX 32 48 86 49 80 50 82 51 33 52 85 53 79 54 78 55 34 57 66 58
REMARK SMILES IDX 46 59 65 60 47 61 50 62 64 63 83 64 48 65 49 66 63 68 84 69
REMARK SMILES IDX 51 70 35 71 36 72 44 73 37 74 43 75 45 76 42 77 38 78 39 79
REMARK SMILES IDX 40 80 41 81 67 82 68 83 76 84 69 85 75 86 77 87 74 88 70 89
REMARK SMILES IDX 71 90 72 91 73 92 52 93 53 94 61 95 54 96 60 97 62 98 59 99
REMARK SMILES IDX 55 100 56 101 57 102 58 103
REMARK H PARENT 10 12 10 13 91 19 96 28 7 31 82 56 50 67
REMARK Flexibility Score: inf
ROOT
ATOM      1  C   UNL A   1      34.640  32.983  28.460  1.00  0.00     0.188 C 
ENDROOT
BRANCH   1   2
ATOM      2  O   UNL A   1      34.094  31.711  28.140  1.00  0.00    -0.376 OA
BRANCH   2   3
ATOM      3  C   UNL A   1      34.808  30.828  27.299  1.00  0.00     0.202 C 
BRANCH   3   4
ATOM      4  C   UNL A   1      34.426  29.347  27.388  1.00  0.00     0.261 C 
BRANCH   4   5
ATOM      5  O   UNL A   1      34.039  28.759  26.135  1.00  0.00    -0.459 OA
BRANCH   5   6
ATOM      6  C   UNL A   1      32.757  28.289  26.027  1.00  0.00     0.365 C 
ATOM      7  O   UNL A   1      31.785  28.972  25.738  1.00  0.00    -0.245 OA
BRANCH   6   8
ATOM      8  C   UNL A   1      32.722  26.784  26.348  1.00  0.00     0.300 C 
ATOM      9  C   UNL A   1      33.591  24.569  25.779  1.00  0.00     0.270 C 
ATOM     10  N   UNL A   1      33.459  25.979  25.318  1.00  0.00    -0.323 N 
ATOM     11  C   UNL A   1      32.207  24.016  25.935  1.00  0.00     0.124 A 
ATOM     12  H   UNL A   1      32.944  26.001  24.438  1.00  0.00     0.347 HD
ATOM     13  H   UNL A   1      34.389  26.377  25.182  1.00  0.00     0.347 HD
ATOM     14  C   UNL A   1      31.160  24.840  26.315  1.00  0.00     0.051 A 
ATOM     15  N   UNL A   1      31.781  22.717  25.869  1.00  0.00    -0.235 NA
ATOM     16  C   UNL A   1      31.242  26.317  26.501  1.00  0.00     0.133 C 
ATOM     17  N   UNL A   1      30.070  24.035  26.428  1.00  0.00    -0.348 N 
ATOM     18  C   UNL A   1      30.493  22.763  26.143  1.00  0.00     0.197 A 
ATOM     19  H   UNL A   1      29.155  24.312  26.665  1.00  0.00     0.167 HD
BRANCH   9  20
ATOM     20  C   UNL A   1      34.561  23.793  24.911  1.00  0.00     0.066 A 
ATOM     21  C   UNL A   1      37.952  22.078  25.516  1.00  0.00     0.071 C 
ATOM     22  C   UNL A   1      36.728  22.627  24.839  1.00  0.00     0.079 A 
ATOM     23  N   UNL A   1      36.656  22.470  23.505  1.00  0.00    -0.257 NA
ATOM     24  C   UNL A   1      35.709  23.255  25.560  1.00  0.00     0.146 A 
ATOM     25  C   UNL A   1      35.560  22.956  22.884  1.00  0.00     0.118 A 
ATOM     26  C   UNL A   1      34.510  23.648  23.506  1.00  0.00     0.009 A 
BRANCH  24  27
ATOM     27  O   UNL A   1      35.867  23.323  26.922  1.00  0.00    -0.505 OA
ATOM     28  H   UNL A   1      36.696  23.563  27.287  1.00  0.00     0.293 HD
ENDBRANCH  24  27
BRANCH  26  29
ATOM     29  C   UNL A   1      33.379  24.107  22.624  1.00  0.00     0.194 C 
BRANCH  29  30
ATOM     30  O   UNL A   1      33.361  23.399  21.382  1.00  0.00    -0.392 OA
ATOM     31  H   UNL A   1      32.915  22.546  21.503  1.00  0.00     0.211 HD
ENDBRANCH  29  30
ENDBRANCH  26  29
ENDBRANCH   9  20
ENDBRANCH   6   8
ENDBRANCH   5   6
ENDBRANCH   4   5
ENDBRANCH   3   4
ENDBRANCH   2   3
ENDBRANCH   1   2
BRANCH   1  32
ATOM     32  C   UNL A   1      34.165  33.808  29.681  1.00  0.00     0.188 C 
BRANCH  32  33
ATOM     33  O   UNL A   1      34.540  33.321  30.960  1.00  0.00    -0.376 OA
BRANCH  33  34
ATOM     34  C   UNL A   1      35.793  33.788  31.451  1.00  0.00     0.202 C 
BRANCH  34  35
ATOM     35  C   UNL A   1      36.755  32.635  31.715  1.00  0.00     0.261 C 
BRANCH  35  36
ATOM     36  O   UNL A   1      37.194  31.976  30.529  1.00  0.00    -0.460 OA
BRANCH  36  37
ATOM     37  C   UNL A   1      36.862  30.671  30.428  1.00  0.00     0.338 C 
ATOM     38  O   UNL A   1      35.904  30.122  30.937  1.00  0.00    -0.246 OA
BRANCH  37  39
ATOM     39  C   UNL A   1      37.869  29.982  29.614  1.00  0.00     0.060 A 
ATOM     40  C   UNL A   1      37.743  28.597  29.487  1.00  0.00     0.016 A 
ATOM     41  C   UNL A   1      39.030  30.663  29.226  1.00  0.00     0.016 A 
ATOM     42  C   UNL A   1      38.869  27.858  29.205  1.00  0.00     0.010 A 
ATOM     43  C   UNL A   1      40.156  29.924  28.952  1.00  0.00     0.010 A 
ATOM     44  C   UNL A   1      40.079  28.534  29.055  1.00  0.00    -0.014 A 
BRANCH  44  45
ATOM     45  C   UNL A   1      41.301  27.768  29.188  1.00  0.00     0.031 A 
ATOM     46  C   UNL A   1      42.027  27.894  30.462  1.00  0.00     0.074 A 
ATOM     47  C   UNL A   1      41.644  26.884  28.230  1.00  0.00     0.049 A 
ATOM     48  N   UNL A   1      43.270  28.193  30.632  1.00  0.00    -0.248 NA
ATOM     49  C   UNL A   1      41.264  27.739  31.708  1.00  0.00     0.031 C 
ATOM     50  C   UNL A   1      40.844  26.496  27.062  1.00  0.00     0.029 A 
ATOM     51  N   UNL A   1      42.706  26.032  28.181  1.00  0.00    -0.354 N 
ATOM     52  C   UNL A   1      43.505  28.067  31.994  1.00  0.00     0.074 A 
ATOM     53  C   UNL A   1      42.215  27.938  32.620  1.00  0.00     0.031 C 
ATOM     54  C   UNL A   1      41.320  25.334  26.573  1.00  0.00     0.029 A 
ATOM     55  C   UNL A   1      42.504  24.955  27.326  1.00  0.00     0.049 A 
ATOM     56  H   UNL A   1      43.532  26.165  28.699  1.00  0.00     0.167 HD
ATOM     57  C   UNL A   1      44.757  27.871  32.482  1.00  0.00     0.034 A 
ATOM     58  C   UNL A   1      43.187  23.784  27.309  1.00  0.00     0.034 A 
ATOM     59  C   UNL A   1      45.769  28.263  31.530  1.00  0.00     0.049 A 
ATOM     60  C   UNL A   1      44.495  24.018  27.967  1.00  0.00     0.074 A 
ATOM     61  C   UNL A   1      46.048  29.437  30.857  1.00  0.00     0.029 A 
ATOM     62  N   UNL A   1      46.486  27.284  30.880  1.00  0.00    -0.354 N 
ATOM     63  N   UNL A   1      45.431  24.781  27.471  1.00  0.00    -0.248 NA
ATOM     64  C   UNL A   1      44.618  23.754  29.395  1.00  0.00     0.031 C 
ATOM     65  C   UNL A   1      46.518  29.032  29.576  1.00  0.00     0.029 A 
ATOM     66  C   UNL A   1      46.540  27.637  29.554  1.00  0.00     0.049 A 
ATOM     67  H   UNL A   1      46.886  26.483  31.289  1.00  0.00     0.167 HD
ATOM     68  C   UNL A   1      45.981  25.433  28.562  1.00  0.00     0.074 A 
ATOM     69  C   UNL A   1      45.536  24.667  29.721  1.00  0.00     0.031 C 
ATOM     70  C   UNL A   1      46.497  26.695  28.450  1.00  0.00     0.034 A 
BRANCH  57  71
ATOM     71  C   UNL A   1      45.061  27.061  33.714  1.00  0.00     0.023 A 
ATOM     72  C   UNL A   1      45.197  25.670  33.563  1.00  0.00     0.031 A 
ATOM     73  C   UNL A   1      44.961  27.533  35.044  1.00  0.00     0.131 A 
ATOM     74  C   UNL A   1      45.164  24.818  34.681  1.00  0.00     0.055 A 
ATOM     75  C   UNL A   1      45.015  26.690  36.156  1.00  0.00     0.041 A 
ATOM     76  F   UNL A   1      44.704  28.814  35.336  1.00  0.00    -0.206 F 
ATOM     77  C   UNL A   1      45.090  25.320  35.978  1.00  0.00     0.022 A 
BRANCH  74  78
ATOM     78  S   UNL A   1      45.014  23.036  34.397  1.00  0.00     0.124 S 
ATOM     79  O   UNL A   1      46.405  22.604  34.476  1.00  0.00    -0.237 OA
ATOM     80  O   UNL A   1      44.148  22.630  35.500  1.00  0.00    -0.237 OA
ATOM     81  O   UNL A   1      44.413  22.956  33.067  1.00  0.00    -0.744 OA
ENDBRANCH  74  78
ENDBRANCH  57  71
BRANCH  58  82
ATOM     82  C   UNL A   1      42.636  22.444  26.975  1.00  0.00     0.023 A 
ATOM     83  C   UNL A   1      43.385  21.476  26.281  1.00  0.00     0.031 A 
ATOM     84  C   UNL A   1      41.398  22.019  27.513  1.00  0.00     0.131 A 
ATOM     85  C   UNL A   1      42.878  20.165  26.125  1.00  0.00     0.055 A 
ATOM     86  C   UNL A   1      40.886  20.735  27.326  1.00  0.00     0.041 A 
ATOM     87  F   UNL A   1      40.673  22.814  28.316  1.00  0.00    -0.206 F 
ATOM     88  C   UNL A   1      41.630  19.798  26.631  1.00  0.00     0.022 A 
BRANCH  85  89
ATOM     89  S   UNL A   1      43.911  18.874  25.366  1.00  0.00     0.124 S 
ATOM     90  O   UNL A   1      43.628  17.717  26.206  1.00  0.00    -0.237 OA
ATOM     91  O   UNL A   1      43.401  18.829  24.000  1.00  0.00    -0.237 OA
ATOM     92  O   UNL A   1      45.268  19.409  25.491  1.00  0.00    -0.744 OA
ENDBRANCH  85  89
ENDBRANCH  58  82
BRANCH  70  93
ATOM     93  C   UNL A   1      46.770  27.251  27.067  1.00  0.00     0.023 A 
ATOM     94  C   UNL A   1      48.016  27.163  26.406  1.00  0.00     0.031 A 
ATOM     95  C   UNL A   1      45.684  27.769  26.338  1.00  0.00     0.131 A 
ATOM     96  C   UNL A   1      48.143  27.597  25.074  1.00  0.00     0.055 A 
ATOM     97  C   UNL A   1      45.808  28.179  25.010  1.00  0.00     0.041 A 
ATOM     98  F   UNL A   1      44.464  27.849  26.896  1.00  0.00    -0.206 F 
ATOM     99  C   UNL A   1      47.042  28.100  24.374  1.00  0.00     0.022 A 
BRANCH  96 100
ATOM    100  S   UNL A   1      49.756  27.525  24.233  1.00  0.00     0.124 S 
ATOM    101  O   UNL A   1      49.425  27.773  22.836  1.00  0.00    -0.237 OA
ATOM    102  O   UNL A   1      50.511  28.576  24.909  1.00  0.00    -0.237 OA
ATOM    103  O   UNL A   1      50.224  26.166  24.515  1.00  0.00    -0.744 OA
ENDBRANCH  96 100
ENDBRANCH  70  93
ENDBRANCH  44  45
ENDBRANCH  37  39
ENDBRANCH  36  37
ENDBRANCH  35  36
ENDBRANCH  34  35
ENDBRANCH  33  34
ENDBRANCH  32  33
ENDBRANCH   1  32
TORSDOF 24
ENDMDL
MODEL 3
REMARK VINA RESULT:     -10.2      2.088      3.203
REMARK SMILES Cc1ncc(CO)c([C@H]2[NH2+][C@@H](C(=O)OCCOCCOCCOC(=O)c3ccc(-c4c5nc(c(-c6cc(S(=O)(=O)[O-])ccc6F)c6ccc([nH]6)c(-c6cc(S(=O)(=O)[O-])ccc6F)c6nc(c(-c7cc(S(=O)(=O)[O-])ccc7F)c7ccc4[nH]7)C=C6)C=C5)cc3)Cc3[nH]cnc32)c1O
REMARK SMILES IDX 18 1 17 2 16 3 15 4 14 5 12 6 13 7 11 8 9 9 10 10 94 11
REMARK SMILES IDX 90 14 93 15 89 16 91 17 92 18 8 20 1 21 2 22 3 23 95 24 4 25
REMARK SMILES IDX 5 26 96 27 6 29 7 30 19 32 20 33 21 34 22 35 23 36 24 37
REMARK SMILES IDX 25 38 26 39 27 40 88 41 28 42 87 43 29 44 30 45 31 46 81 47
REMARK SMILES IDX 32 48 86 49 80 50 82 51 33 52 85 53 79 54 78 55 34 57 66 58
REMARK SMILES IDX 46 59 65 60 47 61 50 62 64 63 83 64 48 65 49 66 63 68 84 69
REMARK SMILES IDX 51 70 35 71 36 72 44 73 37 74 43 75 45 76 42 77 38 78 39 79
REMARK SMILES IDX 40 80 41 81 67 82 68 83 76 84 69 85 75 86 77 87 74 88 70 89
REMARK SMILES IDX 71 90 72 91 73 92 52 93 53 94 61 95 54 96 60 97 62 98 59 99
REMARK SMILES IDX 55 100 56 101 57 102 58 103
REMARK H PARENT 10 12 10 13 91 19 96 28 7 31 82 56 50 67
REMARK Flexibility Score: inf
ROOT
ATOM      1  C   UNL A   1      35.249  32.328  27.711  1.00  0.00     0.188 C 
ENDROOT
BRANCH   1   2
ATOM      2  O   UNL A   1      34.978  30.999  28.135  1.00  0.00    -0.376 OA
BRANCH   2   3
ATOM      3  C   UNL A   1      33.703  30.433  27.909  1.00  0.00     0.202 C 
BRANCH   3   4
ATOM      4  C   UNL A   1      33.533  29.642  26.609  1.00  0.00     0.261 C 
BRANCH   4   5
ATOM      5  O   UNL A   1      32.167  29.367  26.257  1.00  0.00    -0.459 OA
BRANCH   5   6
ATOM      6  C   UNL A   1      31.593  28.240  26.783  1.00  0.00     0.365 C 
ATOM      7  O   UNL A   1      31.353  28.069  27.969  1.00  0.00    -0.245 OA
BRANCH   6   8
ATOM      8  C   UNL A   1      31.323  27.218  25.665  1.00  0.00     0.300 C 
ATOM      9  C   UNL A   1      31.873  25.015  24.755  1.00  0.00     0.270 C 
ATOM     10  N   UNL A   1      32.302  26.082  25.702  1.00  0.00    -0.323 N 
ATOM     11  C   UNL A   1      31.866  25.612  23.380  1.00  0.00     0.124 A 
ATOM     12  H   UNL A   1      33.226  26.421  25.435  1.00  0.00     0.347 HD
ATOM     13  H   UNL A   1      32.337  25.698  26.646  1.00  0.00     0.347 HD
ATOM     14  C   UNL A   1      31.562  26.951  23.197  1.00  0.00     0.051 A 
ATOM     15  N   UNL A   1      32.012  24.994  22.168  1.00  0.00    -0.235 NA
ATOM     16  C   UNL A   1      31.325  27.943  24.284  1.00  0.00     0.133 C 
ATOM     17  N   UNL A   1      31.578  27.160  21.853  1.00  0.00    -0.348 N 
ATOM     18  C   UNL A   1      31.859  25.951  21.274  1.00  0.00     0.197 A 
ATOM     19  H   UNL A   1      31.420  28.013  21.388  1.00  0.00     0.167 HD
BRANCH   9  20
ATOM     20  C   UNL A   1      32.669  23.742  24.961  1.00  0.00     0.066 A 
ATOM     21  C   UNL A   1      36.204  22.577  23.984  1.00  0.00     0.071 C 
ATOM     22  C   UNL A   1      34.796  22.587  24.509  1.00  0.00     0.079 A 
ATOM     23  N   UNL A   1      34.335  21.431  25.019  1.00  0.00    -0.257 NA
ATOM     24  C   UNL A   1      34.010  23.742  24.482  1.00  0.00     0.146 A 
ATOM     25  C   UNL A   1      33.072  21.427  25.497  1.00  0.00     0.118 A 
ATOM     26  C   UNL A   1      32.185  22.514  25.468  1.00  0.00     0.009 A 
BRANCH  24  27
ATOM     27  O   UNL A   1      34.596  24.877  23.977  1.00  0.00    -0.505 OA
ATOM     28  H   UNL A   1      35.516  24.890  23.797  1.00  0.00     0.293 HD
ENDBRANCH  24  27
BRANCH  26  29
ATOM     29  C   UNL A   1      30.817  22.294  26.056  1.00  0.00     0.194 C 
BRANCH  29  30
ATOM     30  O   UNL A   1      30.725  22.816  27.383  1.00  0.00    -0.392 OA
ATOM     31  H   UNL A   1      29.826  22.680  27.722  1.00  0.00     0.211 HD
ENDBRANCH  29  30
ENDBRANCH  26  29
ENDBRANCH   9  20
ENDBRANCH   6   8
ENDBRANCH   5   6
ENDBRANCH   4   5
ENDBRANCH   3   4
ENDBRANCH   2   3
ENDBRANCH   1   2
BRANCH   1  32
ATOM     32  C   UNL A   1      34.927  33.563  28.588  1.00  0.00     0.188 C 
BRANCH  32  33
ATOM     33  O   UNL A   1      34.954  33.367  29.993  1.00  0.00    -0.376 OA
BRANCH  33  34
ATOM     34  C   UNL A   1      36.063  33.949  30.671  1.00  0.00     0.202 C 
BRANCH  34  35
ATOM     35  C   UNL A   1      36.605  33.022  31.754  1.00  0.00     0.261 C 
BRANCH  35  36
ATOM     36  O   UNL A   1      37.543  32.065  31.269  1.00  0.00    -0.460 OA
BRANCH  36  37
ATOM     37  C   UNL A   1      37.035  30.853  30.960  1.00  0.00     0.338 C 
ATOM     38  O   UNL A   1      35.976  30.390  31.334  1.00  0.00    -0.246 OA
BRANCH  37  39
ATOM     39  C   UNL A   1      37.987  30.140  30.101  1.00  0.00     0.060 A 
ATOM     40  C   UNL A   1      37.815  28.760  29.972  1.00  0.00     0.016 A 
ATOM     41  C   UNL A   1      39.152  30.788  29.670  1.00  0.00     0.016 A 
ATOM     42  C   UNL A   1      38.907  27.990  29.641  1.00  0.00     0.010 A 
ATOM     43  C   UNL A   1      40.244  30.019  29.346  1.00  0.00     0.010 A 
ATOM     44  C   UNL A   1      40.129  28.630  29.446  1.00  0.00    -0.014 A 
BRANCH  44  45
ATOM     45  C   UNL A   1      41.333  27.828  29.525  1.00  0.00     0.031 A 
ATOM     46  C   UNL A   1      42.077  27.873  30.794  1.00  0.00     0.074 A 
ATOM     47  C   UNL A   1      41.641  26.984  28.520  1.00  0.00     0.049 A 
ATOM     48  N   UNL A   1      43.329  28.131  30.962  1.00  0.00    -0.248 NA
ATOM     49  C   UNL A   1      41.325  27.676  32.041  1.00  0.00     0.031 C 
ATOM     50  C   UNL A   1      40.817  26.675  27.346  1.00  0.00     0.029 A 
ATOM     51  N   UNL A   1      42.679  26.108  28.416  1.00  0.00    -0.354 N 
ATOM     52  C   UNL A   1      43.576  27.932  32.313  1.00  0.00     0.074 A 
ATOM     53  C   UNL A   1      42.292  27.805  32.949  1.00  0.00     0.031 C 
ATOM     54  C   UNL A   1      41.257  25.526  26.794  1.00  0.00     0.029 A 
ATOM     55  C   UNL A   1      42.439  25.080  27.512  1.00  0.00     0.049 A 
ATOM     56  H   UNL A   1      43.515  26.195  28.929  1.00  0.00     0.167 HD
ATOM     57  C   UNL A   1      44.829  27.681  32.775  1.00  0.00     0.034 A 
ATOM     58  C   UNL A   1      43.091  23.894  27.429  1.00  0.00     0.034 A 
ATOM     59  C   UNL A   1      45.839  28.092  31.830  1.00  0.00     0.049 A 
ATOM     60  C   UNL A   1      44.413  24.062  28.080  1.00  0.00     0.074 A 
ATOM     61  C   UNL A   1      46.141  29.292  31.211  1.00  0.00     0.029 A 
ATOM     62  N   UNL A   1      46.523  27.129  31.123  1.00  0.00    -0.354 N 
ATOM     63  N   UNL A   1      45.362  24.825  27.610  1.00  0.00    -0.248 NA
ATOM     64  C   UNL A   1      44.545  23.726  29.491  1.00  0.00     0.031 C 
ATOM     65  C   UNL A   1      46.585  28.938  29.906  1.00  0.00     0.029 A 
ATOM     66  C   UNL A   1      46.571  27.546  29.815  1.00  0.00     0.049 A 
ATOM     67  H   UNL A   1      46.906  26.299  31.487  1.00  0.00     0.167 HD
ATOM     68  C   UNL A   1      45.942  25.408  28.724  1.00  0.00     0.074 A 
ATOM     69  C   UNL A   1      45.491  24.598  29.850  1.00  0.00     0.031 C 
ATOM     70  C   UNL A   1      46.490  26.660  28.667  1.00  0.00     0.034 A 
BRANCH  57  71
ATOM     71  C   UNL A   1      45.127  26.803  33.961  1.00  0.00     0.023 A 
ATOM     72  C   UNL A   1      45.913  27.345  34.993  1.00  0.00     0.031 A 
ATOM     73  C   UNL A   1      44.914  25.406  34.013  1.00  0.00     0.131 A 
ATOM     74  C   UNL A   1      46.494  26.514  35.967  1.00  0.00     0.055 A 
ATOM     75  C   UNL A   1      45.423  24.596  35.031  1.00  0.00     0.041 A 
ATOM     76  F   UNL A   1      44.293  24.734  33.034  1.00  0.00    -0.206 F 
ATOM     77  C   UNL A   1      46.242  25.145  36.002  1.00  0.00     0.022 A 
BRANCH  74  78
ATOM     78  S   UNL A   1      47.748  27.226  37.062  1.00  0.00     0.124 S 
ATOM     79  O   UNL A   1      48.940  27.179  36.221  1.00  0.00    -0.237 OA
ATOM     80  O   UNL A   1      47.196  28.551  37.326  1.00  0.00    -0.237 OA
ATOM     81  O   UNL A   1      47.756  26.313  38.203  1.00  0.00    -0.744 OA
ENDBRANCH  74  78
ENDBRANCH  57  71
BRANCH  58  82
ATOM     82  C   UNL A   1      42.502  22.587  27.037  1.00  0.00     0.023 A 
ATOM     83  C   UNL A   1      43.224  21.626  26.307  1.00  0.00     0.031 A 
ATOM     84  C   UNL A   1      41.248  22.179  27.551  1.00  0.00     0.131 A 
ATOM     85  C   UNL A   1      42.679  20.339  26.095  1.00  0.00     0.055 A 
ATOM     86  C   UNL A   1      40.698  20.920  27.308  1.00  0.00     0.041 A 
ATOM     87  F   UNL A   1      40.543  22.962  28.383  1.00  0.00    -0.206 F 
ATOM     88  C   UNL A   1      41.417  19.990  26.579  1.00  0.00     0.022 A 
BRANCH  85  89
ATOM     89  S   UNL A   1      43.676  19.049  25.287  1.00  0.00     0.124 S 
ATOM     90  O   UNL A   1      43.561  19.404  23.878  1.00  0.00    -0.237 OA
ATOM     91  O   UNL A   1      44.987  19.236  25.901  1.00  0.00    -0.237 OA
ATOM     92  O   UNL A   1      42.997  17.809  25.668  1.00  0.00    -0.744 OA
ENDBRANCH  85  89
ENDBRANCH  58  82
BRANCH  70  93
ATOM     93  C   UNL A   1      46.761  27.277  27.309  1.00  0.00     0.023 A 
ATOM     94  C   UNL A   1      47.986  27.164  26.616  1.00  0.00     0.031 A 
ATOM     95  C   UNL A   1      45.687  27.885  26.635  1.00  0.00     0.131 A 
ATOM     96  C   UNL A   1      48.107  27.664  25.306  1.00  0.00     0.055 A 
ATOM     97  C   UNL A   1      45.802  28.360  25.328  1.00  0.00     0.041 A 
ATOM     98  F   UNL A   1      44.484  27.994  27.225  1.00  0.00    -0.206 F 
ATOM     99  C   UNL A   1      47.017  28.256  24.660  1.00  0.00     0.022 A 
BRANCH  96 100
ATOM    100  S   UNL A   1      49.696  27.560  24.425  1.00  0.00     0.124 S 
ATOM    101  O   UNL A   1      49.331  27.783  23.032  1.00  0.00    -0.237 OA
ATOM    102  O   UNL A   1      50.479  28.616  25.060  1.00  0.00    -0.237 OA
ATOM    103  O   UNL A   1      50.159  26.202  24.720  1.00  0.00    -0.744 OA
ENDBRANCH  96 100
ENDBRANCH  70  93
ENDBRANCH  44  45
ENDBRANCH  37  39
ENDBRANCH  36  37
ENDBRANCH  35  36
ENDBRANCH  34  35
ENDBRANCH  33  34
ENDBRANCH  32  33
ENDBRANCH   1  32
TORSDOF 24
ENDMDL
