MODEL 1
REMARK VINA RESULT:     -10.9      0.000      0.000
REMARK SMILES COCc1cccc(C(=O)N2C[C@@H](O)C[C@@H]2C(=O)OCCOCCOCCOC(=O)c2ccc(-c3c4nc(c(-c5cc(S(=O)(=O)[O-])ccc5F)c5ccc([nH]5)c(-c5cc(S(=O)(=O)[O-])ccc5F)c5nc(c(-c6cc(S(=O)(=O)[O-])ccc6F)c6ccc3[nH]6)C=C5)C=C4)cc2)c1
REMARK SMILES IDX 23 1 22 2 21 3 20 4 19 5 17 6 18 7 16 8 11 9 12 10 13 11
REMARK SMILES IDX 15 12 9 13 10 14 8 15 4 16 5 17 94 18 6 19 7 20 3 21 2 22
REMARK SMILES IDX 1 23 14 24 24 26 25 27 26 28 27 29 28 30 29 31 30 32 31 33
REMARK SMILES IDX 32 34 93 35 33 36 92 37 34 38 35 39 36 40 86 41 37 42 91 43
REMARK SMILES IDX 85 44 87 45 38 46 90 47 84 48 83 49 39 51 71 52 51 53 70 54
REMARK SMILES IDX 52 55 55 56 69 57 88 58 53 59 54 60 68 62 89 63 56 64 40 65
REMARK SMILES IDX 41 66 49 67 42 68 48 69 50 70 47 71 43 72 44 73 45 74 46 75
REMARK SMILES IDX 72 76 73 77 81 78 74 79 80 80 82 81 79 82 75 83 76 84 77 85
REMARK SMILES IDX 78 86 57 87 58 88 66 89 59 90 65 91 67 92 64 93 60 94 61 95
REMARK SMILES IDX 62 96 63 97
REMARK H PARENT 14 25 87 50 55 61
REMARK Flexibility Score: inf
ROOT
ATOM      1  C   UNL A   1      33.480  28.150  22.485  1.00  0.00     0.188 C 
ENDROOT
BRANCH   1   2
ATOM      2  O   UNL A   1      33.958  26.967  21.853  1.00  0.00    -0.376 OA
BRANCH   2   3
ATOM      3  C   UNL A   1      33.146  25.811  21.796  1.00  0.00     0.202 C 
BRANCH   3   4
ATOM      4  C   UNL A   1      33.426  24.676  22.787  1.00  0.00     0.261 C 
BRANCH   4   5
ATOM      5  O   UNL A   1      34.371  24.926  23.840  1.00  0.00    -0.462 OA
BRANCH   5   6
ATOM      6  C   UNL A   1      34.442  23.980  24.825  1.00  0.00     0.329 C 
ATOM      7  O   UNL A   1      33.819  24.037  25.878  1.00  0.00    -0.250 OA
BRANCH   6   8
ATOM      8  C   UNL A   1      35.315  22.771  24.429  1.00  0.00     0.198 C 
ATOM      9  N   UNL A   1      35.287  21.725  25.450  1.00  0.00    -0.322 N 
ATOM     10  C   UNL A   1      36.615  21.187  25.675  1.00  0.00     0.152 C 
ATOM     11  C   UNL A   1      37.489  22.414  25.467  1.00  0.00     0.136 C 
ATOM     12  C   UNL A   1      36.810  23.097  24.268  1.00  0.00     0.071 C 
BRANCH   9  13
ATOM     13  C   UNL A   1      34.102  21.062  25.675  1.00  0.00     0.254 C 
ATOM     14  O   UNL A   1      33.563  21.058  26.777  1.00  0.00    -0.269 OA
BRANCH  13  15
ATOM     15  C   UNL A   1      33.652  20.098  24.625  1.00  0.00     0.040 A 
ATOM     16  C   UNL A   1      33.528  17.871  23.640  1.00  0.00    -0.022 A 
ATOM     17  C   UNL A   1      32.501  18.316  22.796  1.00  0.00     0.006 A 
ATOM     18  C   UNL A   1      34.074  18.764  24.571  1.00  0.00     0.020 A 
ATOM     19  C   UNL A   1      32.066  19.638  22.845  1.00  0.00     0.001 A 
ATOM     20  C   UNL A   1      32.647  20.528  23.747  1.00  0.00     0.014 A 
BRANCH  16  21
ATOM     21  C   UNL A   1      34.064  16.464  23.534  1.00  0.00     0.195 C 
BRANCH  21  22
ATOM     22  O   UNL A   1      34.103  15.806  24.802  1.00  0.00    -0.380 OA
ATOM     23  C   UNL A   1      32.834  15.344  25.244  1.00  0.00     0.195 C 
ENDBRANCH  21  22
ENDBRANCH  16  21
ENDBRANCH  13  15
ENDBRANCH   9  13
BRANCH  11  24
ATOM     24  O   UNL A   1      38.851  22.116  25.243  1.00  0.00    -0.391 OA
ATOM     25  H   UNL A   1      39.180  21.544  25.955  1.00  0.00     0.211 HD
ENDBRANCH  11  24
ENDBRANCH   6   8
ENDBRANCH   5   6
ENDBRANCH   4   5
ENDBRANCH   3   4
ENDBRANCH   2   3
ENDBRANCH   1   2
BRANCH   1  26
ATOM     26  C   UNL A   1      32.456  28.051  23.631  1.00  0.00     0.188 C 
BRANCH  26  27
ATOM     27  O   UNL A   1      31.316  28.859  23.423  1.00  0.00    -0.376 OA
BRANCH  27  28
ATOM     28  C   UNL A   1      30.906  29.717  24.462  1.00  0.00     0.202 C 
BRANCH  28  29
ATOM     29  C   UNL A   1      31.632  29.653  25.815  1.00  0.00     0.261 C 
BRANCH  29  30
ATOM     30  O   UNL A   1      32.919  30.283  25.906  1.00  0.00    -0.460 OA
BRANCH  30  31
ATOM     31  C   UNL A   1      33.107  31.184  26.897  1.00  0.00     0.338 C 
ATOM     32  O   UNL A   1      32.275  31.971  27.325  1.00  0.00    -0.246 OA
BRANCH  31  33
ATOM     33  C   UNL A   1      34.436  30.943  27.507  1.00  0.00     0.060 A 
ATOM     34  C   UNL A   1      34.846  29.626  27.764  1.00  0.00     0.016 A 
ATOM     35  C   UNL A   1      35.279  32.011  27.829  1.00  0.00     0.016 A 
ATOM     36  C   UNL A   1      36.085  29.378  28.369  1.00  0.00     0.010 A 
ATOM     37  C   UNL A   1      36.509  31.760  28.452  1.00  0.00     0.010 A 
ATOM     38  C   UNL A   1      36.910  30.445  28.752  1.00  0.00    -0.014 A 
BRANCH  38  39
ATOM     39  C   UNL A   1      38.095  30.213  29.627  1.00  0.00     0.031 A 
ATOM     40  C   UNL A   1      39.178  29.288  29.137  1.00  0.00     0.074 A 
ATOM     41  C   UNL A   1      38.217  30.797  30.833  1.00  0.00     0.049 A 
ATOM     42  N   UNL A   1      40.241  28.840  29.755  1.00  0.00    -0.248 NA
ATOM     43  C   UNL A   1      39.028  28.795  27.760  1.00  0.00     0.031 C 
ATOM     44  C   UNL A   1      37.271  31.748  31.411  1.00  0.00     0.029 A 
ATOM     45  N   UNL A   1      39.186  30.657  31.800  1.00  0.00    -0.354 N 
ATOM     46  C   UNL A   1      40.886  28.009  28.845  1.00  0.00     0.074 A 
ATOM     47  C   UNL A   1      40.065  27.980  27.652  1.00  0.00     0.031 C 
ATOM     48  C   UNL A   1      37.693  32.088  32.642  1.00  0.00     0.029 A 
ATOM     49  C   UNL A   1      38.913  31.346  32.960  1.00  0.00     0.049 A 
ATOM     50  H   UNL A   1      39.998  30.116  31.674  1.00  0.00     0.167 HD
ATOM     51  C   UNL A   1      42.058  27.338  28.985  1.00  0.00     0.034 A 
ATOM     52  C   UNL A   1      39.548  31.346  34.152  1.00  0.00     0.034 A 
ATOM     53  C   UNL A   1      42.854  27.352  30.189  1.00  0.00     0.049 A 
ATOM     54  C   UNL A   1      40.794  30.507  34.330  1.00  0.00     0.074 A 
ATOM     55  C   UNL A   1      44.054  26.707  30.436  1.00  0.00     0.029 A 
ATOM     56  N   UNL A   1      42.524  28.030  31.356  1.00  0.00    -0.354 N 
ATOM     57  N   UNL A   1      41.396  29.723  33.464  1.00  0.00    -0.248 NA
ATOM     58  C   UNL A   1      41.449  30.557  35.645  1.00  0.00     0.031 C 
ATOM     59  C   UNL A   1      44.405  26.926  31.773  1.00  0.00     0.029 A 
ATOM     60  C   UNL A   1      43.477  27.788  32.335  1.00  0.00     0.049 A 
ATOM     61  H   UNL A   1      41.729  28.599  31.471  1.00  0.00     0.167 HD
ATOM     62  C   UNL A   1      42.516  29.215  34.122  1.00  0.00     0.074 A 
ATOM     63  C   UNL A   1      42.512  29.791  35.450  1.00  0.00     0.031 C 
ATOM     64  C   UNL A   1      43.465  28.356  33.664  1.00  0.00     0.034 A 
BRANCH  51  65
ATOM     65  C   UNL A   1      42.509  26.492  27.816  1.00  0.00     0.023 A 
ATOM     66  C   UNL A   1      42.249  25.111  27.759  1.00  0.00     0.031 A 
ATOM     67  C   UNL A   1      43.257  27.061  26.769  1.00  0.00     0.131 A 
ATOM     68  C   UNL A   1      42.809  24.333  26.736  1.00  0.00     0.055 A 
ATOM     69  C   UNL A   1      43.730  26.295  25.702  1.00  0.00     0.041 A 
ATOM     70  F   UNL A   1      43.559  28.368  26.775  1.00  0.00    -0.206 F 
ATOM     71  C   UNL A   1      43.525  24.919  25.690  1.00  0.00     0.022 A 
BRANCH  68  72
ATOM     72  S   UNL A   1      42.742  22.526  26.890  1.00  0.00     0.124 S 
ATOM     73  O   UNL A   1      42.213  22.366  28.244  1.00  0.00    -0.237 OA
ATOM     74  O   UNL A   1      41.844  22.150  25.806  1.00  0.00    -0.237 OA
ATOM     75  O   UNL A   1      44.134  22.116  26.722  1.00  0.00    -0.744 OA
ENDBRANCH  68  72
ENDBRANCH  51  65
BRANCH  52  76
ATOM     76  C   UNL A   1      38.987  32.117  35.303  1.00  0.00     0.023 A 
ATOM     77  C   UNL A   1      38.436  31.473  36.422  1.00  0.00     0.031 A 
ATOM     78  C   UNL A   1      38.947  33.524  35.270  1.00  0.00     0.131 A 
ATOM     79  C   UNL A   1      37.836  32.230  37.442  1.00  0.00     0.055 A 
ATOM     80  C   UNL A   1      38.404  34.274  36.313  1.00  0.00     0.041 A 
ATOM     81  F   UNL A   1      39.447  34.193  34.218  1.00  0.00    -0.206 F 
ATOM     82  C   UNL A   1      37.833  33.626  37.403  1.00  0.00     0.022 A 
BRANCH  79  83
ATOM     83  S   UNL A   1      36.976  31.361  38.784  1.00  0.00     0.124 S 
ATOM     84  O   UNL A   1      36.861  30.014  38.238  1.00  0.00    -0.237 OA
ATOM     85  O   UNL A   1      37.907  31.524  39.896  1.00  0.00    -0.237 OA
ATOM     86  O   UNL A   1      35.719  32.093  38.913  1.00  0.00    -0.744 OA
ENDBRANCH  79  83
ENDBRANCH  52  76
BRANCH  64  87
ATOM     87  C   UNL A   1      44.614  28.028  34.593  1.00  0.00     0.023 A 
ATOM     88  C   UNL A   1      44.482  27.118  35.657  1.00  0.00     0.031 A 
ATOM     89  C   UNL A   1      45.868  28.639  34.404  1.00  0.00     0.131 A 
ATOM     90  C   UNL A   1      45.563  26.890  36.523  1.00  0.00     0.055 A 
ATOM     91  C   UNL A   1      46.960  28.357  35.226  1.00  0.00     0.041 A 
ATOM     92  F   UNL A   1      46.057  29.520  33.408  1.00  0.00    -0.206 F 
ATOM     93  C   UNL A   1      46.807  27.488  36.302  1.00  0.00     0.022 A 
BRANCH  90  94
ATOM     94  S   UNL A   1      45.299  25.877  38.005  1.00  0.00     0.124 S 
ATOM     95  O   UNL A   1      46.667  25.614  38.440  1.00  0.00    -0.237 OA
ATOM     96  O   UNL A   1      44.517  26.766  38.856  1.00  0.00    -0.237 OA
ATOM     97  O   UNL A   1      44.576  24.710  37.499  1.00  0.00    -0.744 OA
ENDBRANCH  90  94
ENDBRANCH  64  87
ENDBRANCH  38  39
ENDBRANCH  31  33
ENDBRANCH  30  31
ENDBRANCH  29  30
ENDBRANCH  28  29
ENDBRANCH  27  28
ENDBRANCH  26  27
ENDBRANCH   1  26
TORSDOF 25
ENDMDL
MODEL 2
REMARK VINA RESULT:     -10.5      4.678      8.834
REMARK SMILES COCc1cccc(C(=O)N2C[C@@H](O)C[C@@H]2C(=O)OCCOCCOCCOC(=O)c2ccc(-c3c4nc(c(-c5cc(S(=O)(=O)[O-])ccc5F)c5ccc([nH]5)c(-c5cc(S(=O)(=O)[O-])ccc5F)c5nc(c(-c6cc(S(=O)(=O)[O-])ccc6F)c6ccc3[nH]6)C=C5)C=C4)cc2)c1
REMARK SMILES IDX 23 1 22 2 21 3 20 4 19 5 17 6 18 7 16 8 11 9 12 10 13 11
REMARK SMILES IDX 15 12 9 13 10 14 8 15 4 16 5 17 94 18 6 19 7 20 3 21 2 22
REMARK SMILES IDX 1 23 14 24 24 26 25 27 26 28 27 29 28 30 29 31 30 32 31 33
REMARK SMILES IDX 32 34 93 35 33 36 92 37 34 38 35 39 36 40 86 41 37 42 91 43
REMARK SMILES IDX 85 44 87 45 38 46 90 47 84 48 83 49 39 51 71 52 51 53 70 54
REMARK SMILES IDX 52 55 55 56 69 57 88 58 53 59 54 60 68 62 89 63 56 64 40 65
REMARK SMILES IDX 41 66 49 67 42 68 48 69 50 70 47 71 43 72 44 73 45 74 46 75
REMARK SMILES IDX 72 76 73 77 81 78 74 79 80 80 82 81 79 82 75 83 76 84 77 85
REMARK SMILES IDX 78 86 57 87 58 88 66 89 59 90 65 91 67 92 64 93 60 94 61 95
REMARK SMILES IDX 62 96 63 97
REMARK H PARENT 14 25 87 50 55 61
REMARK Flexibility Score: inf
ROOT
ATOM      1  C   UNL A   1      34.089  32.275  28.012  1.00  0.00     0.188 C 
ENDROOT
BRANCH   1   2
ATOM      2  O   UNL A   1      33.527  30.981  27.822  1.00  0.00    -0.376 OA
BRANCH   2   3
ATOM      3  C   UNL A   1      32.779  30.692  26.658  1.00  0.00     0.202 C 
BRANCH   3   4
ATOM      4  C   UNL A   1      32.526  29.222  26.301  1.00  0.00     0.261 C 
BRANCH   4   5
ATOM      5  O   UNL A   1      32.293  28.900  24.921  1.00  0.00    -0.462 OA
BRANCH   5   6
ATOM      6  C   UNL A   1      32.832  27.725  24.476  1.00  0.00     0.329 C 
ATOM      7  O   UNL A   1      33.851  27.221  24.932  1.00  0.00    -0.250 OA
BRANCH   6   8
ATOM      8  C   UNL A   1      31.964  27.039  23.401  1.00  0.00     0.198 C 
ATOM      9  N   UNL A   1      31.927  25.588  23.578  1.00  0.00    -0.322 N 
ATOM     10  C   UNL A   1      32.061  24.909  22.303  1.00  0.00     0.152 C 
ATOM     11  C   UNL A   1      32.994  25.842  21.547  1.00  0.00     0.136 C 
ATOM     12  C   UNL A   1      32.473  27.229  21.961  1.00  0.00     0.071 C 
BRANCH   9  13
ATOM     13  C   UNL A   1      31.312  25.081  24.699  1.00  0.00     0.254 C 
ATOM     14  O   UNL A   1      30.457  25.715  25.310  1.00  0.00    -0.269 OA
BRANCH  13  15
ATOM     15  C   UNL A   1      31.929  23.873  25.326  1.00  0.00     0.040 A 
ATOM     16  C   UNL A   1      32.503  21.503  25.358  1.00  0.00    -0.022 A 
ATOM     17  C   UNL A   1      33.384  21.745  26.421  1.00  0.00     0.006 A 
ATOM     18  C   UNL A   1      31.804  22.582  24.800  1.00  0.00     0.020 A 
ATOM     19  C   UNL A   1      33.525  23.027  26.948  1.00  0.00     0.001 A 
ATOM     20  C   UNL A   1      32.792  24.083  26.411  1.00  0.00     0.014 A 
BRANCH  16  21
ATOM     21  C   UNL A   1      32.280  20.105  24.837  1.00  0.00     0.195 C 
BRANCH  21  22
ATOM     22  O   UNL A   1      33.442  19.285  24.977  1.00  0.00    -0.380 OA
ATOM     23  C   UNL A   1      33.172  17.893  24.891  1.00  0.00     0.195 C 
ENDBRANCH  21  22
ENDBRANCH  16  21
ENDBRANCH  13  15
ENDBRANCH   9  13
BRANCH  11  24
ATOM     24  O   UNL A   1      32.996  25.641  20.149  1.00  0.00    -0.391 OA
ATOM     25  H   UNL A   1      32.148  25.259  19.875  1.00  0.00     0.211 HD
ENDBRANCH  11  24
ENDBRANCH   6   8
ENDBRANCH   5   6
ENDBRANCH   4   5
ENDBRANCH   3   4
ENDBRANCH   2   3
ENDBRANCH   1   2
BRANCH   1  26
ATOM     26  C   UNL A   1      33.190  33.524  27.936  1.00  0.00     0.188 C 
BRANCH  26  27
ATOM     27  O   UNL A   1      32.835  34.025  29.208  1.00  0.00    -0.376 OA
BRANCH  27  28
ATOM     28  C   UNL A   1      33.759  34.843  29.887  1.00  0.00     0.202 C 
BRANCH  28  29
ATOM     29  C   UNL A   1      34.369  34.346  31.207  1.00  0.00     0.261 C 
BRANCH  29  30
ATOM     30  O   UNL A   1      34.551  32.930  31.361  1.00  0.00    -0.460 OA
BRANCH  30  31
ATOM     31  C   UNL A   1      35.391  32.509  32.333  1.00  0.00     0.338 C 
ATOM     32  O   UNL A   1      35.221  32.632  33.538  1.00  0.00    -0.246 OA
BRANCH  31  33
ATOM     33  C   UNL A   1      36.470  31.708  31.708  1.00  0.00     0.060 A 
ATOM     34  C   UNL A   1      37.305  30.927  32.519  1.00  0.00     0.016 A 
ATOM     35  C   UNL A   1      36.662  31.727  30.323  1.00  0.00     0.016 A 
ATOM     36  C   UNL A   1      38.351  30.187  31.951  1.00  0.00     0.010 A 
ATOM     37  C   UNL A   1      37.721  31.001  29.760  1.00  0.00     0.010 A 
ATOM     38  C   UNL A   1      38.591  30.248  30.571  1.00  0.00    -0.014 A 
BRANCH  38  39
ATOM     39  C   UNL A   1      39.845  29.689  29.992  1.00  0.00     0.031 A 
ATOM     40  C   UNL A   1      41.055  30.584  29.903  1.00  0.00     0.074 A 
ATOM     41  C   UNL A   1      39.923  28.422  29.546  1.00  0.00     0.049 A 
ATOM     42  N   UNL A   1      42.216  30.368  29.340  1.00  0.00    -0.248 NA
ATOM     43  C   UNL A   1      40.923  31.907  30.529  1.00  0.00     0.031 C 
ATOM     44  C   UNL A   1      38.849  27.435  29.613  1.00  0.00     0.029 A 
ATOM     45  N   UNL A   1      40.954  27.754  28.926  1.00  0.00    -0.354 N 
ATOM     46  C   UNL A   1      42.954  31.531  29.539  1.00  0.00     0.074 A 
ATOM     47  C   UNL A   1      42.087  32.461  30.232  1.00  0.00     0.031 C 
ATOM     48  C   UNL A   1      39.268  26.295  29.036  1.00  0.00     0.029 A 
ATOM     49  C   UNL A   1      40.623  26.484  28.515  1.00  0.00     0.049 A 
ATOM     50  H   UNL A   1      41.846  28.148  28.789  1.00  0.00     0.167 HD
ATOM     51  C   UNL A   1      44.237  31.797  29.186  1.00  0.00     0.034 A 
ATOM     52  C   UNL A   1      41.312  25.591  27.771  1.00  0.00     0.034 A 
ATOM     53  C   UNL A   1      45.083  30.872  28.470  1.00  0.00     0.049 A 
ATOM     54  C   UNL A   1      42.702  25.944  27.290  1.00  0.00     0.074 A 
ATOM     55  C   UNL A   1      46.396  31.042  28.064  1.00  0.00     0.029 A 
ATOM     56  N   UNL A   1      44.698  29.609  28.038  1.00  0.00    -0.354 N 
ATOM     57  N   UNL A   1      43.391  27.046  27.482  1.00  0.00    -0.248 NA
ATOM     58  C   UNL A   1      43.409  24.929  26.496  1.00  0.00     0.031 C 
ATOM     59  C   UNL A   1      46.775  29.921  27.316  1.00  0.00     0.029 A 
ATOM     60  C   UNL A   1      45.733  29.007  27.337  1.00  0.00     0.049 A 
ATOM     61  H   UNL A   1      43.818  29.201  28.204  1.00  0.00     0.167 HD
ATOM     62  C   UNL A   1      44.622  26.841  26.860  1.00  0.00     0.074 A 
ATOM     63  C   UNL A   1      44.585  25.507  26.299  1.00  0.00     0.031 C 
ATOM     64  C   UNL A   1      45.689  27.679  26.769  1.00  0.00     0.034 A 
BRANCH  51  65
ATOM     65  C   UNL A   1      44.774  33.169  29.527  1.00  0.00     0.023 A 
ATOM     66  C   UNL A   1      44.588  34.268  28.670  1.00  0.00     0.031 A 
ATOM     67  C   UNL A   1      45.528  33.370  30.698  1.00  0.00     0.131 A 
ATOM     68  C   UNL A   1      45.224  35.487  28.945  1.00  0.00     0.055 A 
ATOM     69  C   UNL A   1      46.078  34.614  31.014  1.00  0.00     0.041 A 
ATOM     70  F   UNL A   1      45.761  32.356  31.545  1.00  0.00    -0.206 F 
ATOM     71  C   UNL A   1      45.946  35.677  30.126  1.00  0.00     0.022 A 
BRANCH  68  72
ATOM     72  S   UNL A   1      45.246  36.761  27.653  1.00  0.00     0.124 S 
ATOM     73  O   UNL A   1      45.374  37.982  28.446  1.00  0.00    -0.237 OA
ATOM     74  O   UNL A   1      46.413  36.388  26.863  1.00  0.00    -0.237 OA
ATOM     75  O   UNL A   1      43.958  36.593  26.985  1.00  0.00    -0.744 OA
ENDBRANCH  68  72
ENDBRANCH  51  65
BRANCH  52  76
ATOM     76  C   UNL A   1      40.682  24.296  27.373  1.00  0.00     0.023 A 
ATOM     77  C   UNL A   1      39.516  24.254  26.593  1.00  0.00     0.031 A 
ATOM     78  C   UNL A   1      41.216  23.074  27.822  1.00  0.00     0.131 A 
ATOM     79  C   UNL A   1      38.902  23.021  26.316  1.00  0.00     0.055 A 
ATOM     80  C   UNL A   1      40.636  21.848  27.495  1.00  0.00     0.041 A 
ATOM     81  F   UNL A   1      42.322  23.054  28.584  1.00  0.00    -0.206 F 
ATOM     82  C   UNL A   1      39.464  21.817  26.747  1.00  0.00     0.022 A 
BRANCH  79  83
ATOM     83  S   UNL A   1      37.302  23.015  25.458  1.00  0.00     0.124 S 
ATOM     84  O   UNL A   1      36.589  24.081  26.153  1.00  0.00    -0.237 OA
ATOM     85  O   UNL A   1      37.694  23.298  24.083  1.00  0.00    -0.237 OA
ATOM     86  O   UNL A   1      36.793  21.666  25.695  1.00  0.00    -0.744 OA
ENDBRANCH  79  83
ENDBRANCH  52  76
BRANCH  64  87
ATOM     87  C   UNL A   1      46.931  27.154  26.080  1.00  0.00     0.023 A 
ATOM     88  C   UNL A   1      47.950  26.484  26.780  1.00  0.00     0.031 A 
ATOM     89  C   UNL A   1      47.093  27.328  24.692  1.00  0.00     0.131 A 
ATOM     90  C   UNL A   1      49.107  26.065  26.104  1.00  0.00     0.055 A 
ATOM     91  C   UNL A   1      48.214  26.849  24.013  1.00  0.00     0.041 A 
ATOM     92  F   UNL A   1      46.157  27.963  23.969  1.00  0.00    -0.206 F 
ATOM     93  C   UNL A   1      49.236  26.225  24.721  1.00  0.00     0.022 A 
BRANCH  90  94
ATOM     94  S   UNL A   1      50.490  25.395  27.068  1.00  0.00     0.124 S 
ATOM     95  O   UNL A   1      50.975  26.582  27.766  1.00  0.00    -0.237 OA
ATOM     96  O   UNL A   1      49.836  24.389  27.897  1.00  0.00    -0.237 OA
ATOM     97  O   UNL A   1      51.394  24.864  26.049  1.00  0.00    -0.744 OA
ENDBRANCH  90  94
ENDBRANCH  64  87
ENDBRANCH  38  39
ENDBRANCH  31  33
ENDBRANCH  30  31
ENDBRANCH  29  30
ENDBRANCH  28  29
ENDBRANCH  27  28
ENDBRANCH  26  27
ENDBRANCH   1  26
TORSDOF 25
ENDMDL
MODEL 3
REMARK VINA RESULT:     -10.4      2.035      2.348
REMARK SMILES COCc1cccc(C(=O)N2C[C@@H](O)C[C@@H]2C(=O)OCCOCCOCCOC(=O)c2ccc(-c3c4nc(c(-c5cc(S(=O)(=O)[O-])ccc5F)c5ccc([nH]5)c(-c5cc(S(=O)(=O)[O-])ccc5F)c5nc(c(-c6cc(S(=O)(=O)[O-])ccc6F)c6ccc3[nH]6)C=C5)C=C4)cc2)c1
REMARK SMILES IDX 23 1 22 2 21 3 20 4 19 5 17 6 18 7 16 8 11 9 12 10 13 11
REMARK SMILES IDX 15 12 9 13 10 14 8 15 4 16 5 17 94 18 6 19 7 20 3 21 2 22
REMARK SMILES IDX 1 23 14 24 24 26 25 27 26 28 27 29 28 30 29 31 30 32 31 33
REMARK SMILES IDX 32 34 93 35 33 36 92 37 34 38 35 39 36 40 86 41 37 42 91 43
REMARK SMILES IDX 85 44 87 45 38 46 90 47 84 48 83 49 39 51 71 52 51 53 70 54
REMARK SMILES IDX 52 55 55 56 69 57 88 58 53 59 54 60 68 62 89 63 56 64 40 65
REMARK SMILES IDX 41 66 49 67 42 68 48 69 50 70 47 71 43 72 44 73 45 74 46 75
REMARK SMILES IDX 72 76 73 77 81 78 74 79 80 80 82 81 79 82 75 83 76 84 77 85
REMARK SMILES IDX 78 86 57 87 58 88 66 89 59 90 65 91 67 92 64 93 60 94 61 95
REMARK SMILES IDX 62 96 63 97
REMARK H PARENT 14 25 87 50 55 61
REMARK Flexibility Score: inf
ROOT
ATOM      1  C   UNL A   1      31.321  28.342  22.882  1.00  0.00     0.188 C 
ENDROOT
BRANCH   1   2
ATOM      2  O   UNL A   1      32.180  27.214  23.012  1.00  0.00    -0.376 OA
BRANCH   2   3
ATOM      3  C   UNL A   1      32.155  26.429  24.188  1.00  0.00     0.202 C 
BRANCH   3   4
ATOM      4  C   UNL A   1      33.452  25.747  24.636  1.00  0.00     0.261 C 
BRANCH   4   5
ATOM      5  O   UNL A   1      34.153  24.945  23.672  1.00  0.00    -0.462 OA
BRANCH   5   6
ATOM      6  C   UNL A   1      33.608  23.722  23.393  1.00  0.00     0.329 C 
ATOM      7  O   UNL A   1      32.573  23.561  22.760  1.00  0.00    -0.250 OA
BRANCH   6   8
ATOM      8  C   UNL A   1      34.491  22.552  23.875  1.00  0.00     0.198 C 
ATOM      9  N   UNL A   1      33.966  21.945  25.097  1.00  0.00    -0.322 N 
ATOM     10  C   UNL A   1      35.036  21.669  26.037  1.00  0.00     0.152 C 
ATOM     11  C   UNL A   1      35.989  22.825  25.775  1.00  0.00     0.136 C 
ATOM     12  C   UNL A   1      35.929  22.956  24.244  1.00  0.00     0.071 C 
BRANCH   9  13
ATOM     13  C   UNL A   1      32.760  21.286  25.035  1.00  0.00     0.254 C 
ATOM     14  O   UNL A   1      31.762  21.707  25.612  1.00  0.00    -0.269 OA
BRANCH  13  15
ATOM     15  C   UNL A   1      32.775  19.889  24.503  1.00  0.00     0.040 A 
ATOM     16  C   UNL A   1      32.783  17.466  24.781  1.00  0.00    -0.022 A 
ATOM     17  C   UNL A   1      32.482  17.323  23.420  1.00  0.00     0.006 A 
ATOM     18  C   UNL A   1      32.897  18.756  25.317  1.00  0.00     0.020 A 
ATOM     19  C   UNL A   1      32.350  18.443  22.601  1.00  0.00     0.001 A 
ATOM     20  C   UNL A   1      32.508  19.718  23.138  1.00  0.00     0.014 A 
BRANCH  16  21
ATOM     21  C   UNL A   1      33.012  16.259  25.657  1.00  0.00     0.195 C 
BRANCH  21  22
ATOM     22  O   UNL A   1      33.984  15.369  25.105  1.00  0.00    -0.380 OA
ATOM     23  C   UNL A   1      35.324  15.807  25.284  1.00  0.00     0.195 C 
ENDBRANCH  21  22
ENDBRANCH  16  21
ENDBRANCH  13  15
ENDBRANCH   9  13
BRANCH  11  24
ATOM     24  O   UNL A   1      37.296  22.612  26.267  1.00  0.00    -0.391 OA
ATOM     25  H   UNL A   1      37.274  21.939  26.966  1.00  0.00     0.211 HD
ENDBRANCH  11  24
ENDBRANCH   6   8
ENDBRANCH   5   6
ENDBRANCH   4   5
ENDBRANCH   3   4
ENDBRANCH   2   3
ENDBRANCH   1   2
BRANCH   1  26
ATOM     26  C   UNL A   1      30.443  28.782  24.069  1.00  0.00     0.188 C 
BRANCH  26  27
ATOM     27  O   UNL A   1      30.308  30.185  24.164  1.00  0.00    -0.376 OA
BRANCH  27  28
ATOM     28  C   UNL A   1      30.833  30.832  25.300  1.00  0.00     0.202 C 
BRANCH  28  29
ATOM     29  C   UNL A   1      31.808  30.069  26.211  1.00  0.00     0.261 C 
BRANCH  29  30
ATOM     30  O   UNL A   1      33.169  30.526  26.254  1.00  0.00    -0.460 OA
BRANCH  30  31
ATOM     31  C   UNL A   1      33.474  31.503  27.138  1.00  0.00     0.338 C 
ATOM     32  O   UNL A   1      32.739  32.415  27.489  1.00  0.00    -0.246 OA
BRANCH  31  33
ATOM     33  C   UNL A   1      34.785  31.187  27.754  1.00  0.00     0.060 A 
ATOM     34  C   UNL A   1      35.060  29.870  28.148  1.00  0.00     0.016 A 
ATOM     35  C   UNL A   1      35.743  32.187  27.946  1.00  0.00     0.016 A 
ATOM     36  C   UNL A   1      36.281  29.556  28.761  1.00  0.00     0.010 A 
ATOM     37  C   UNL A   1      36.955  31.874  28.576  1.00  0.00     0.010 A 
ATOM     38  C   UNL A   1      37.223  30.563  29.014  1.00  0.00    -0.014 A 
BRANCH  38  39
ATOM     39  C   UNL A   1      38.397  30.301  29.894  1.00  0.00     0.031 A 
ATOM     40  C   UNL A   1      39.429  29.304  29.434  1.00  0.00     0.074 A 
ATOM     41  C   UNL A   1      38.555  30.921  31.078  1.00  0.00     0.049 A 
ATOM     42  N   UNL A   1      40.469  28.824  30.065  1.00  0.00    -0.248 NA
ATOM     43  C   UNL A   1      39.247  28.771  28.076  1.00  0.00     0.031 C 
ATOM     44  C   UNL A   1      37.662  31.940  31.624  1.00  0.00     0.029 A 
ATOM     45  N   UNL A   1      39.520  30.766  32.047  1.00  0.00    -0.354 N 
ATOM     46  C   UNL A   1      41.066  27.928  29.184  1.00  0.00     0.074 A 
ATOM     47  C   UNL A   1      40.240  27.900  27.995  1.00  0.00     0.031 C 
ATOM     48  C   UNL A   1      38.107  32.301  32.841  1.00  0.00     0.029 A 
ATOM     49  C   UNL A   1      39.288  31.508  33.182  1.00  0.00     0.049 A 
ATOM     50  H   UNL A   1      40.302  30.178  31.938  1.00  0.00     0.167 HD
ATOM     51  C   UNL A   1      42.202  27.203  29.345  1.00  0.00     0.034 A 
ATOM     52  C   UNL A   1      39.927  31.518  34.372  1.00  0.00     0.034 A 
ATOM     53  C   UNL A   1      43.003  27.217  30.546  1.00  0.00     0.049 A 
ATOM     54  C   UNL A   1      41.129  30.621  34.576  1.00  0.00     0.074 A 
ATOM     55  C   UNL A   1      44.169  26.520  30.813  1.00  0.00     0.029 A 
ATOM     56  N   UNL A   1      42.714  27.953  31.689  1.00  0.00    -0.354 N 
ATOM     57  N   UNL A   1      41.685  29.776  33.738  1.00  0.00    -0.248 NA
ATOM     58  C   UNL A   1      41.791  30.684  35.887  1.00  0.00     0.031 C 
ATOM     59  C   UNL A   1      44.537  26.768  32.140  1.00  0.00     0.029 A 
ATOM     60  C   UNL A   1      43.657  27.696  32.674  1.00  0.00     0.049 A 
ATOM     61  H   UNL A   1      41.950  28.566  31.785  1.00  0.00     0.167 HD
ATOM     62  C   UNL A   1      42.779  29.235  34.411  1.00  0.00     0.074 A 
ATOM     63  C   UNL A   1      42.812  29.857  35.717  1.00  0.00     0.031 C 
ATOM     64  C   UNL A   1      43.680  28.311  33.982  1.00  0.00     0.034 A 
BRANCH  51  65
ATOM     65  C   UNL A   1      42.603  26.292  28.206  1.00  0.00     0.023 A 
ATOM     66  C   UNL A   1      42.034  25.017  28.044  1.00  0.00     0.031 A 
ATOM     67  C   UNL A   1      43.608  26.682  27.301  1.00  0.00     0.131 A 
ATOM     68  C   UNL A   1      42.535  24.144  27.068  1.00  0.00     0.055 A 
ATOM     69  C   UNL A   1      44.035  25.843  26.270  1.00  0.00     0.041 A 
ATOM     70  F   UNL A   1      44.207  27.877  27.416  1.00  0.00    -0.206 F 
ATOM     71  C   UNL A   1      43.513  24.557  26.160  1.00  0.00     0.022 A 
BRANCH  68  72
ATOM     72  S   UNL A   1      42.021  22.405  27.118  1.00  0.00     0.124 S 
ATOM     73  O   UNL A   1      40.944  22.388  26.130  1.00  0.00    -0.237 OA
ATOM     74  O   UNL A   1      43.242  21.703  26.743  1.00  0.00    -0.237 OA
ATOM     75  O   UNL A   1      41.589  22.216  28.502  1.00  0.00    -0.744 OA
ENDBRANCH  68  72
ENDBRANCH  51  65
BRANCH  52  76
ATOM     76  C   UNL A   1      39.413  32.358  35.496  1.00  0.00     0.023 A 
ATOM     77  C   UNL A   1      39.815  33.692  35.662  1.00  0.00     0.031 A 
ATOM     78  C   UNL A   1      38.544  31.809  36.459  1.00  0.00     0.131 A 
ATOM     79  C   UNL A   1      39.382  34.421  36.782  1.00  0.00     0.055 A 
ATOM     80  C   UNL A   1      38.069  32.556  37.537  1.00  0.00     0.041 A 
ATOM     81  F   UNL A   1      38.138  30.534  36.358  1.00  0.00    -0.206 F 
ATOM     82  C   UNL A   1      38.497  33.867  37.710  1.00  0.00     0.022 A 
BRANCH  79  83
ATOM     83  S   UNL A   1      40.062  36.081  37.061  1.00  0.00     0.124 S 
ATOM     84  O   UNL A   1      39.866  36.704  35.757  1.00  0.00    -0.237 OA
ATOM     85  O   UNL A   1      39.218  36.577  38.142  1.00  0.00    -0.237 OA
ATOM     86  O   UNL A   1      41.453  35.822  37.426  1.00  0.00    -0.744 OA
ENDBRANCH  79  83
ENDBRANCH  52  76
BRANCH  64  87
ATOM     87  C   UNL A   1      44.816  27.957  34.919  1.00  0.00     0.023 A 
ATOM     88  C   UNL A   1      46.011  28.696  34.960  1.00  0.00     0.031 A 
ATOM     89  C   UNL A   1      44.693  26.857  35.788  1.00  0.00     0.131 A 
ATOM     90  C   UNL A   1      47.055  28.293  35.808  1.00  0.00     0.055 A 
ATOM     91  C   UNL A   1      45.708  26.502  36.678  1.00  0.00     0.041 A 
ATOM     92  F   UNL A   1      43.578  26.109  35.793  1.00  0.00    -0.206 F 
ATOM     93  C   UNL A   1      46.903  27.213  36.682  1.00  0.00     0.022 A 
BRANCH  90  94
ATOM     94  S   UNL A   1      48.657  29.137  35.686  1.00  0.00     0.124 S 
ATOM     95  O   UNL A   1      48.774  29.358  34.248  1.00  0.00    -0.237 OA
ATOM     96  O   UNL A   1      48.445  30.329  36.501  1.00  0.00    -0.237 OA
ATOM     97  O   UNL A   1      49.599  28.168  36.243  1.00  0.00    -0.744 OA
ENDBRANCH  90  94
ENDBRANCH  64  87
ENDBRANCH  38  39
ENDBRANCH  31  33
ENDBRANCH  30  31
ENDBRANCH  29  30
ENDBRANCH  28  29
ENDBRANCH  27  28
ENDBRANCH  26  27
ENDBRANCH   1  26
TORSDOF 25
ENDMDL
