MODEL 1
REMARK VINA RESULT:      -8.6      0.000      0.000
REMARK SMILES COCC[C@@H](C)NC(=O)N[C@@H]1C=C[C@@H](C(=O)OCCOCCOCCOC(=O)c2ccc(-c3c4nc(c(-c5cc(S(=O)(=O)[O-])ccc5F)c5ccc([nH]5)c(-c5cc(S(=O)(=O)[O-])ccc5F)c5nc(c(-c6cc(S(=O)(=O)[O-])ccc6F)c6ccc3[nH]6)C=C5)C=C4)cc2)C1
REMARK SMILES IDX 21 1 20 2 19 3 18 4 17 5 15 6 16 7 14 8 11 9 12 10 92 11
REMARK SMILES IDX 13 12 10 13 7 14 8 15 9 17 5 19 6 20 4 21 3 22 2 23 1 24
REMARK SMILES IDX 22 25 23 26 24 27 25 28 26 29 27 30 28 31 29 32 30 33 91 34
REMARK SMILES IDX 31 35 90 36 32 37 33 38 34 39 84 40 35 41 89 42 83 43 85 44
REMARK SMILES IDX 36 45 88 46 82 47 81 48 37 50 69 51 49 52 68 53 50 54 53 55
REMARK SMILES IDX 67 56 86 57 51 58 52 59 66 61 87 62 54 63 38 64 39 65 47 66
REMARK SMILES IDX 40 67 46 68 48 69 45 70 41 71 42 72 43 73 44 74 70 75 71 76
REMARK SMILES IDX 79 77 72 78 78 79 80 80 77 81 73 82 74 83 75 84 76 85 55 86
REMARK SMILES IDX 56 87 64 88 57 89 63 90 65 91 62 92 58 93 59 94 60 95 61 96
REMARK H PARENT 7 16 10 18 85 49 53 60
REMARK Flexibility Score: inf
ROOT
ATOM      1  C   UNL A   1      42.449  19.050  25.839  1.00  0.00     0.188 C 
ENDROOT
BRANCH   1   2
ATOM      2  O   UNL A   1      41.211  19.725  25.979  1.00  0.00    -0.376 OA
BRANCH   2   3
ATOM      3  C   UNL A   1      41.280  21.116  26.305  1.00  0.00     0.202 C 
BRANCH   3   4
ATOM      4  C   UNL A   1      39.992  21.679  26.938  1.00  0.00     0.261 C 
BRANCH   4   5
ATOM      5  O   UNL A   1      39.183  22.432  26.000  1.00  0.00    -0.463 OA
BRANCH   5   6
ATOM      6  C   UNL A   1      38.035  21.810  25.552  1.00  0.00     0.312 C 
ATOM      7  O   UNL A   1      38.007  20.706  25.025  1.00  0.00    -0.252 OA
BRANCH   6   8
ATOM      8  C   UNL A   1      36.793  22.611  25.973  1.00  0.00     0.124 C 
ATOM      9  C   UNL A   1      34.887  23.938  25.109  1.00  0.00     0.107 C 
ATOM     10  C   UNL A   1      34.447  22.647  25.697  1.00  0.00    -0.006 C 
ATOM     11  C   UNL A   1      36.400  23.786  25.059  1.00  0.00     0.048 C 
ATOM     12  C   UNL A   1      35.483  21.882  26.077  1.00  0.00    -0.014 C 
BRANCH   9  13
ATOM     13  N   UNL A   1      34.253  25.109  25.710  1.00  0.00    -0.332 N 
ATOM     14  N   UNL A   1      32.933  26.584  24.370  1.00  0.00    -0.336 N 
ATOM     15  C   UNL A   1      33.532  26.206  25.496  1.00  0.00     0.315 C 
ATOM     16  H   UNL A   1      32.583  27.503  24.409  1.00  0.00     0.165 HD
ATOM     17  O   UNL A   1      33.400  26.956  26.471  1.00  0.00    -0.249 OA
ATOM     18  H   UNL A   1      34.436  25.071  26.676  1.00  0.00     0.165 HD
BRANCH  14  19
ATOM     19  C   UNL A   1      32.688  25.936  23.105  1.00  0.00     0.083 C 
ATOM     20  C   UNL A   1      33.489  26.603  21.987  1.00  0.00     0.031 C 
BRANCH  19  21
ATOM     21  C   UNL A   1      31.181  25.848  22.785  1.00  0.00     0.053 C 
BRANCH  21  22
ATOM     22  C   UNL A   1      30.468  24.658  23.455  1.00  0.00     0.162 C 
BRANCH  22  23
ATOM     23  O   UNL A   1      31.362  23.990  24.350  1.00  0.00    -0.385 OA
ATOM     24  C   UNL A   1      30.840  23.533  25.594  1.00  0.00     0.194 C 
ENDBRANCH  22  23
ENDBRANCH  21  22
ENDBRANCH  19  21
ENDBRANCH  14  19
ENDBRANCH   9  13
ENDBRANCH   6   8
ENDBRANCH   5   6
ENDBRANCH   4   5
ENDBRANCH   3   4
ENDBRANCH   2   3
ENDBRANCH   1   2
BRANCH   1  25
ATOM     25  C   UNL A   1      43.691  19.930  25.708  1.00  0.00     0.188 C 
BRANCH  25  26
ATOM     26  O   UNL A   1      44.661  19.587  24.736  1.00  0.00    -0.376 OA
BRANCH  26  27
ATOM     27  C   UNL A   1      45.701  20.548  24.562  1.00  0.00     0.202 C 
BRANCH  27  28
ATOM     28  C   UNL A   1      45.652  21.722  25.558  1.00  0.00     0.261 C 
BRANCH  28  29
ATOM     29  O   UNL A   1      45.507  22.990  24.871  1.00  0.00    -0.460 OA
BRANCH  29  30
ATOM     30  C   UNL A   1      44.225  23.416  24.695  1.00  0.00     0.338 C 
ATOM     31  O   UNL A   1      43.356  22.858  24.049  1.00  0.00    -0.246 OA
BRANCH  30  32
ATOM     32  C   UNL A   1      43.940  24.559  25.597  1.00  0.00     0.060 A 
ATOM     33  C   UNL A   1      43.504  25.765  25.026  1.00  0.00     0.016 A 
ATOM     34  C   UNL A   1      44.178  24.483  26.968  1.00  0.00     0.016 A 
ATOM     35  C   UNL A   1      43.340  26.908  25.816  1.00  0.00     0.010 A 
ATOM     36  C   UNL A   1      44.040  25.637  27.754  1.00  0.00     0.010 A 
ATOM     37  C   UNL A   1      43.651  26.864  27.180  1.00  0.00    -0.014 A 
BRANCH  37  38
ATOM     38  C   UNL A   1      43.794  28.117  27.973  1.00  0.00     0.031 A 
ATOM     39  C   UNL A   1      42.550  28.728  28.565  1.00  0.00     0.074 A 
ATOM     40  C   UNL A   1      44.981  28.723  28.163  1.00  0.00     0.049 A 
ATOM     41  N   UNL A   1      42.368  29.914  29.086  1.00  0.00    -0.248 NA
ATOM     42  C   UNL A   1      41.350  27.878  28.557  1.00  0.00     0.031 C 
ATOM     43  C   UNL A   1      46.278  28.198  27.746  1.00  0.00     0.029 A 
ATOM     44  N   UNL A   1      45.278  29.936  28.741  1.00  0.00    -0.354 N 
ATOM     45  C   UNL A   1      41.024  29.965  29.444  1.00  0.00     0.074 A 
ATOM     46  C   UNL A   1      40.442  28.692  29.072  1.00  0.00     0.031 C 
ATOM     47  C   UNL A   1      47.230  29.097  28.055  1.00  0.00     0.029 A 
ATOM     48  C   UNL A   1      46.604  30.288  28.632  1.00  0.00     0.049 A 
ATOM     49  H   UNL A   1      44.605  30.497  29.190  1.00  0.00     0.167 HD
ATOM     50  C   UNL A   1      40.336  30.983  30.019  1.00  0.00     0.034 A 
ATOM     51  C   UNL A   1      47.228  31.454  28.910  1.00  0.00     0.034 A 
ATOM     52  C   UNL A   1      40.921  32.252  30.377  1.00  0.00     0.049 A 
ATOM     53  C   UNL A   1      46.421  32.623  29.433  1.00  0.00     0.074 A 
ATOM     54  C   UNL A   1      40.307  33.359  30.937  1.00  0.00     0.029 A 
ATOM     55  N   UNL A   1      42.257  32.588  30.201  1.00  0.00    -0.354 N 
ATOM     56  N   UNL A   1      45.138  32.691  29.705  1.00  0.00    -0.248 NA
ATOM     57  C   UNL A   1      47.148  33.879  29.674  1.00  0.00     0.031 C 
ATOM     58  C   UNL A   1      41.254  34.384  31.039  1.00  0.00     0.029 A 
ATOM     59  C   UNL A   1      42.478  33.894  30.614  1.00  0.00     0.049 A 
ATOM     60  H   UNL A   1      42.946  31.988  29.836  1.00  0.00     0.167 HD
ATOM     61  C   UNL A   1      44.916  33.985  30.177  1.00  0.00     0.074 A 
ATOM     62  C   UNL A   1      46.195  34.659  30.161  1.00  0.00     0.031 C 
ATOM     63  C   UNL A   1      43.758  34.562  30.590  1.00  0.00     0.034 A 
BRANCH  50  64
ATOM     64  C   UNL A   1      38.853  30.783  30.217  1.00  0.00     0.023 A 
ATOM     65  C   UNL A   1      37.910  31.235  29.280  1.00  0.00     0.031 A 
ATOM     66  C   UNL A   1      38.378  30.170  31.390  1.00  0.00     0.131 A 
ATOM     67  C   UNL A   1      36.539  31.134  29.565  1.00  0.00     0.055 A 
ATOM     68  C   UNL A   1      37.014  30.000  31.631  1.00  0.00     0.041 A 
ATOM     69  F   UNL A   1      39.232  29.740  32.331  1.00  0.00    -0.206 F 
ATOM     70  C   UNL A   1      36.084  30.499  30.723  1.00  0.00     0.022 A 
BRANCH  67  71
ATOM     71  S   UNL A   1      35.362  31.981  28.475  1.00  0.00     0.124 S 
ATOM     72  O   UNL A   1      34.915  30.887  27.617  1.00  0.00    -0.237 OA
ATOM     73  O   UNL A   1      34.376  32.498  29.419  1.00  0.00    -0.237 OA
ATOM     74  O   UNL A   1      36.178  32.993  27.810  1.00  0.00    -0.744 OA
ENDBRANCH  67  71
ENDBRANCH  50  64
BRANCH  51  75
ATOM     75  C   UNL A   1      48.683  31.627  28.619  1.00  0.00     0.023 A 
ATOM     76  C   UNL A   1      49.121  32.296  27.465  1.00  0.00     0.031 A 
ATOM     77  C   UNL A   1      49.657  31.046  29.452  1.00  0.00     0.131 A 
ATOM     78  C   UNL A   1      50.489  32.328  27.151  1.00  0.00     0.055 A 
ATOM     79  C   UNL A   1      51.021  31.129  29.164  1.00  0.00     0.041 A 
ATOM     80  F   UNL A   1      49.295  30.385  30.562  1.00  0.00    -0.206 F 
ATOM     81  C   UNL A   1      51.442  31.762  27.999  1.00  0.00     0.022 A 
BRANCH  78  82
ATOM     82  S   UNL A   1      51.001  33.043  25.564  1.00  0.00     0.124 S 
ATOM     83  O   UNL A   1      49.796  33.757  25.158  1.00  0.00    -0.237 OA
ATOM     84  O   UNL A   1      52.136  33.870  25.957  1.00  0.00    -0.237 OA
ATOM     85  O   UNL A   1      51.336  31.872  24.756  1.00  0.00    -0.744 OA
ENDBRANCH  78  82
ENDBRANCH  51  75
BRANCH  63  86
ATOM     86  C   UNL A   1      43.836  35.976  31.117  1.00  0.00     0.023 A 
ATOM     87  C   UNL A   1      43.793  37.093  30.263  1.00  0.00     0.031 A 
ATOM     88  C   UNL A   1      43.953  36.207  32.500  1.00  0.00     0.131 A 
ATOM     89  C   UNL A   1      43.916  38.386  30.797  1.00  0.00     0.055 A 
ATOM     90  C   UNL A   1      44.020  37.497  33.029  1.00  0.00     0.041 A 
ATOM     91  F   UNL A   1      43.999  35.178  33.361  1.00  0.00    -0.206 F 
ATOM     92  C   UNL A   1      44.012  38.596  32.175  1.00  0.00     0.022 A 
BRANCH  89  93
ATOM     93  S   UNL A   1      44.024  39.797  29.659  1.00  0.00     0.124 S 
ATOM     94  O   UNL A   1      42.620  40.139  29.465  1.00  0.00    -0.237 OA
ATOM     95  O   UNL A   1      44.813  40.756  30.426  1.00  0.00    -0.237 OA
ATOM     96  O   UNL A   1      44.696  39.242  28.485  1.00  0.00    -0.744 OA
ENDBRANCH  89  93
ENDBRANCH  63  86
ENDBRANCH  37  38
ENDBRANCH  30  32
ENDBRANCH  29  30
ENDBRANCH  28  29
ENDBRANCH  27  28
ENDBRANCH  26  27
ENDBRANCH  25  26
ENDBRANCH   1  25
TORSDOF 25
ENDMDL
MODEL 2
REMARK VINA RESULT:      -8.5      4.543     10.161
REMARK SMILES COCC[C@@H](C)NC(=O)N[C@@H]1C=C[C@@H](C(=O)OCCOCCOCCOC(=O)c2ccc(-c3c4nc(c(-c5cc(S(=O)(=O)[O-])ccc5F)c5ccc([nH]5)c(-c5cc(S(=O)(=O)[O-])ccc5F)c5nc(c(-c6cc(S(=O)(=O)[O-])ccc6F)c6ccc3[nH]6)C=C5)C=C4)cc2)C1
REMARK SMILES IDX 21 1 20 2 19 3 18 4 17 5 15 6 16 7 14 8 11 9 12 10 92 11
REMARK SMILES IDX 13 12 10 13 7 14 8 15 9 17 5 19 6 20 4 21 3 22 2 23 1 24
REMARK SMILES IDX 22 25 23 26 24 27 25 28 26 29 27 30 28 31 29 32 30 33 91 34
REMARK SMILES IDX 31 35 90 36 32 37 33 38 34 39 84 40 35 41 89 42 83 43 85 44
REMARK SMILES IDX 36 45 88 46 82 47 81 48 37 50 69 51 49 52 68 53 50 54 53 55
REMARK SMILES IDX 67 56 86 57 51 58 52 59 66 61 87 62 54 63 38 64 39 65 47 66
REMARK SMILES IDX 40 67 46 68 48 69 45 70 41 71 42 72 43 73 44 74 70 75 71 76
REMARK SMILES IDX 79 77 72 78 78 79 80 80 77 81 73 82 74 83 75 84 76 85 55 86
REMARK SMILES IDX 56 87 64 88 57 89 63 90 65 91 62 92 58 93 59 94 60 95 61 96
REMARK H PARENT 7 16 10 18 85 49 53 60
REMARK Flexibility Score: inf
ROOT
ATOM      1  C   UNL A   1      33.867  31.300  27.245  1.00  0.00     0.188 C 
ENDROOT
BRANCH   1   2
ATOM      2  O   UNL A   1      34.781  30.220  27.328  1.00  0.00    -0.376 OA
BRANCH   2   3
ATOM      3  C   UNL A   1      34.220  28.907  27.247  1.00  0.00     0.202 C 
BRANCH   3   4
ATOM      4  C   UNL A   1      32.976  28.808  26.342  1.00  0.00     0.261 C 
BRANCH   4   5
ATOM      5  O   UNL A   1      32.801  27.489  25.764  1.00  0.00    -0.463 OA
BRANCH   5   6
ATOM      6  C   UNL A   1      31.885  26.669  26.390  1.00  0.00     0.312 C 
ATOM      7  O   UNL A   1      31.059  27.051  27.209  1.00  0.00    -0.252 OA
BRANCH   6   8
ATOM      8  C   UNL A   1      31.927  25.258  25.782  1.00  0.00     0.124 C 
ATOM      9  C   UNL A   1      30.755  23.076  25.720  1.00  0.00     0.107 C 
ATOM     10  C   UNL A   1      30.653  23.801  24.427  1.00  0.00    -0.006 C 
ATOM     11  C   UNL A   1      31.346  24.126  26.648  1.00  0.00     0.048 C 
ATOM     12  C   UNL A   1      31.201  25.025  24.487  1.00  0.00    -0.014 C 
BRANCH   9  13
ATOM     13  N   UNL A   1      31.335  21.739  25.605  1.00  0.00    -0.332 N 
ATOM     14  N   UNL A   1      33.465  21.435  24.566  1.00  0.00    -0.336 N 
ATOM     15  C   UNL A   1      32.340  21.008  25.132  1.00  0.00     0.315 C 
ATOM     16  H   UNL A   1      33.993  20.710  24.161  1.00  0.00     0.165 HD
ATOM     17  O   UNL A   1      32.208  19.783  25.246  1.00  0.00    -0.249 OA
ATOM     18  H   UNL A   1      30.727  21.122  26.072  1.00  0.00     0.165 HD
BRANCH  14  19
ATOM     19  C   UNL A   1      34.076  22.733  24.417  1.00  0.00     0.083 C 
ATOM     20  C   UNL A   1      34.539  22.956  22.978  1.00  0.00     0.031 C 
BRANCH  19  21
ATOM     21  C   UNL A   1      35.205  22.960  25.445  1.00  0.00     0.053 C 
BRANCH  21  22
ATOM     22  C   UNL A   1      35.639  21.683  26.189  1.00  0.00     0.162 C 
BRANCH  22  23
ATOM     23  O   UNL A   1      36.176  20.733  25.262  1.00  0.00    -0.385 OA
ATOM     24  C   UNL A   1      37.412  21.048  24.628  1.00  0.00     0.194 C 
ENDBRANCH  22  23
ENDBRANCH  21  22
ENDBRANCH  19  21
ENDBRANCH  14  19
ENDBRANCH   9  13
ENDBRANCH   6   8
ENDBRANCH   5   6
ENDBRANCH   4   5
ENDBRANCH   3   4
ENDBRANCH   2   3
ENDBRANCH   1   2
BRANCH   1  25
ATOM     25  C   UNL A   1      33.878  32.289  28.409  1.00  0.00     0.188 C 
BRANCH  25  26
ATOM     26  O   UNL A   1      34.170  33.648  28.138  1.00  0.00    -0.376 OA
BRANCH  26  27
ATOM     27  C   UNL A   1      33.098  34.553  28.394  1.00  0.00     0.202 C 
BRANCH  27  28
ATOM     28  C   UNL A   1      33.101  35.154  29.812  1.00  0.00     0.261 C 
BRANCH  28  29
ATOM     29  O   UNL A   1      34.389  34.985  30.453  1.00  0.00    -0.460 OA
BRANCH  29  30
ATOM     30  C   UNL A   1      34.407  34.126  31.511  1.00  0.00     0.338 C 
ATOM     31  O   UNL A   1      33.548  34.007  32.365  1.00  0.00    -0.246 OA
BRANCH  30  32
ATOM     32  C   UNL A   1      35.528  33.165  31.366  1.00  0.00     0.060 A 
ATOM     33  C   UNL A   1      35.506  31.994  32.140  1.00  0.00     0.016 A 
ATOM     34  C   UNL A   1      36.626  33.441  30.553  1.00  0.00     0.016 A 
ATOM     35  C   UNL A   1      36.595  31.115  32.134  1.00  0.00     0.010 A 
ATOM     36  C   UNL A   1      37.728  32.574  30.569  1.00  0.00     0.010 A 
ATOM     37  C   UNL A   1      37.735  31.423  31.381  1.00  0.00    -0.014 A 
BRANCH  37  38
ATOM     38  C   UNL A   1      39.013  30.690  31.597  1.00  0.00     0.031 A 
ATOM     39  C   UNL A   1      39.912  31.145  32.718  1.00  0.00     0.074 A 
ATOM     40  C   UNL A   1      39.396  29.657  30.823  1.00  0.00     0.049 A 
ATOM     41  N   UNL A   1      41.159  30.839  32.966  1.00  0.00    -0.248 NA
ATOM     42  C   UNL A   1      39.313  32.079  33.683  1.00  0.00     0.031 C 
ATOM     43  C   UNL A   1      38.590  29.037  29.774  1.00  0.00     0.029 A 
ATOM     44  N   UNL A   1      40.584  28.962  30.791  1.00  0.00    -0.354 N 
ATOM     45  C   UNL A   1      41.506  31.564  34.102  1.00  0.00     0.074 A 
ATOM     46  C   UNL A   1      40.336  32.329  34.483  1.00  0.00     0.031 C 
ATOM     47  C   UNL A   1      39.317  28.073  29.181  1.00  0.00     0.029 A 
ATOM     48  C   UNL A   1      40.661  28.051  29.762  1.00  0.00     0.049 A 
ATOM     49  H   UNL A   1      41.309  29.104  31.441  1.00  0.00     0.167 HD
ATOM     50  C   UNL A   1      42.692  31.600  34.758  1.00  0.00     0.034 A 
ATOM     51  C   UNL A   1      41.707  27.327  29.306  1.00  0.00     0.034 A 
ATOM     52  C   UNL A   1      43.856  30.844  34.365  1.00  0.00     0.049 A 
ATOM     53  C   UNL A   1      43.058  27.474  29.972  1.00  0.00     0.074 A 
ATOM     54  C   UNL A   1      45.113  30.829  34.944  1.00  0.00     0.029 A 
ATOM     55  N   UNL A   1      43.908  29.972  33.285  1.00  0.00    -0.354 N 
ATOM     56  N   UNL A   1      43.400  28.214  31.002  1.00  0.00    -0.248 NA
ATOM     57  C   UNL A   1      44.169  26.695  29.404  1.00  0.00     0.031 C 
ATOM     58  C   UNL A   1      45.942  30.002  34.177  1.00  0.00     0.029 A 
ATOM     59  C   UNL A   1      45.183  29.438  33.164  1.00  0.00     0.049 A 
ATOM     60  H   UNL A   1      43.151  29.763  32.692  1.00  0.00     0.167 HD
ATOM     61  C   UNL A   1      44.756  27.963  31.220  1.00  0.00     0.074 A 
ATOM     62  C   UNL A   1      45.166  26.999  30.222  1.00  0.00     0.031 C 
ATOM     63  C   UNL A   1      45.586  28.481  32.162  1.00  0.00     0.034 A 
BRANCH  50  64
ATOM     64  C   UNL A   1      42.803  32.554  35.923  1.00  0.00     0.023 A 
ATOM     65  C   UNL A   1      42.365  32.210  37.212  1.00  0.00     0.031 A 
ATOM     66  C   UNL A   1      43.313  33.850  35.722  1.00  0.00     0.131 A 
ATOM     67  C   UNL A   1      42.377  33.172  38.233  1.00  0.00     0.055 A 
ATOM     68  C   UNL A   1      43.397  34.776  36.762  1.00  0.00     0.041 A 
ATOM     69  F   UNL A   1      43.725  34.242  34.507  1.00  0.00    -0.206 F 
ATOM     70  C   UNL A   1      42.911  34.446  38.024  1.00  0.00     0.022 A 
BRANCH  67  71
ATOM     71  S   UNL A   1      41.543  32.787  39.798  1.00  0.00     0.124 S 
ATOM     72  O   UNL A   1      40.160  32.613  39.360  1.00  0.00    -0.237 OA
ATOM     73  O   UNL A   1      42.233  31.578  40.233  1.00  0.00    -0.237 OA
ATOM     74  O   UNL A   1      41.786  33.973  40.616  1.00  0.00    -0.744 OA
ENDBRANCH  67  71
ENDBRANCH  50  64
BRANCH  51  75
ATOM     75  C   UNL A   1      41.565  26.459  28.100  1.00  0.00     0.023 A 
ATOM     76  C   UNL A   1      41.544  25.059  28.207  1.00  0.00     0.031 A 
ATOM     77  C   UNL A   1      41.534  27.020  26.809  1.00  0.00     0.131 A 
ATOM     78  C   UNL A   1      41.542  24.268  27.047  1.00  0.00     0.055 A 
ATOM     79  C   UNL A   1      41.476  26.228  25.660  1.00  0.00     0.041 A 
ATOM     80  F   UNL A   1      41.563  28.352  26.646  1.00  0.00    -0.206 F 
ATOM     81  C   UNL A   1      41.494  24.842  25.776  1.00  0.00     0.022 A 
BRANCH  78  82
ATOM     82  S   UNL A   1      41.698  22.468  27.221  1.00  0.00     0.124 S 
ATOM     83  O   UNL A   1      41.199  22.257  28.575  1.00  0.00    -0.237 OA
ATOM     84  O   UNL A   1      40.847  21.986  26.140  1.00  0.00    -0.237 OA
ATOM     85  O   UNL A   1      43.129  22.232  27.039  1.00  0.00    -0.744 OA
ENDBRANCH  78  82
ENDBRANCH  51  75
BRANCH  63  86
ATOM     86  C   UNL A   1      47.006  27.967  32.195  1.00  0.00     0.023 A 
ATOM     87  C   UNL A   1      48.044  28.597  31.486  1.00  0.00     0.031 A 
ATOM     88  C   UNL A   1      47.324  26.824  32.952  1.00  0.00     0.131 A 
ATOM     89  C   UNL A   1      49.339  28.054  31.512  1.00  0.00     0.055 A 
ATOM     90  C   UNL A   1      48.623  26.320  33.016  1.00  0.00     0.041 A 
ATOM     91  F   UNL A   1      46.372  26.180  33.648  1.00  0.00    -0.206 F 
ATOM     92  C   UNL A   1      49.638  26.930  32.285  1.00  0.00     0.022 A 
BRANCH  89  93
ATOM     93  S   UNL A   1      50.619  28.792  30.457  1.00  0.00     0.124 S 
ATOM     94  O   UNL A   1      49.822  29.474  29.444  1.00  0.00    -0.237 OA
ATOM     95  O   UNL A   1      51.335  29.655  31.392  1.00  0.00    -0.237 OA
ATOM     96  O   UNL A   1      51.377  27.638  29.977  1.00  0.00    -0.744 OA
ENDBRANCH  89  93
ENDBRANCH  63  86
ENDBRANCH  37  38
ENDBRANCH  30  32
ENDBRANCH  29  30
ENDBRANCH  28  29
ENDBRANCH  27  28
ENDBRANCH  26  27
ENDBRANCH  25  26
ENDBRANCH   1  25
TORSDOF 25
ENDMDL
MODEL 3
REMARK VINA RESULT:      -8.2      2.783      7.991
REMARK SMILES COCC[C@@H](C)NC(=O)N[C@@H]1C=C[C@@H](C(=O)OCCOCCOCCOC(=O)c2ccc(-c3c4nc(c(-c5cc(S(=O)(=O)[O-])ccc5F)c5ccc([nH]5)c(-c5cc(S(=O)(=O)[O-])ccc5F)c5nc(c(-c6cc(S(=O)(=O)[O-])ccc6F)c6ccc3[nH]6)C=C5)C=C4)cc2)C1
REMARK SMILES IDX 21 1 20 2 19 3 18 4 17 5 15 6 16 7 14 8 11 9 12 10 92 11
REMARK SMILES IDX 13 12 10 13 7 14 8 15 9 17 5 19 6 20 4 21 3 22 2 23 1 24
REMARK SMILES IDX 22 25 23 26 24 27 25 28 26 29 27 30 28 31 29 32 30 33 91 34
REMARK SMILES IDX 31 35 90 36 32 37 33 38 34 39 84 40 35 41 89 42 83 43 85 44
REMARK SMILES IDX 36 45 88 46 82 47 81 48 37 50 69 51 49 52 68 53 50 54 53 55
REMARK SMILES IDX 67 56 86 57 51 58 52 59 66 61 87 62 54 63 38 64 39 65 47 66
REMARK SMILES IDX 40 67 46 68 48 69 45 70 41 71 42 72 43 73 44 74 70 75 71 76
REMARK SMILES IDX 79 77 72 78 78 79 80 80 77 81 73 82 74 83 75 84 76 85 55 86
REMARK SMILES IDX 56 87 64 88 57 89 63 90 65 91 62 92 58 93 59 94 60 95 61 96
REMARK H PARENT 7 16 10 18 85 49 53 60
REMARK Flexibility Score: inf
ROOT
ATOM      1  C   UNL A   1      41.266  20.893  26.888  1.00  0.00     0.188 C 
ENDROOT
BRANCH   1   2
ATOM      2  O   UNL A   1      40.067  21.621  27.088  1.00  0.00    -0.376 OA
BRANCH   2   3
ATOM      3  C   UNL A   1      39.432  22.133  25.913  1.00  0.00     0.202 C 
BRANCH   3   4
ATOM      4  C   UNL A   1      37.895  22.191  26.003  1.00  0.00     0.261 C 
BRANCH   4   5
ATOM      5  O   UNL A   1      37.239  21.664  24.822  1.00  0.00    -0.463 OA
BRANCH   5   6
ATOM      6  C   UNL A   1      35.859  21.698  24.828  1.00  0.00     0.312 C 
ATOM      7  O   UNL A   1      35.144  20.764  25.167  1.00  0.00    -0.252 OA
BRANCH   6   8
ATOM      8  C   UNL A   1      35.358  23.120  24.529  1.00  0.00     0.124 C 
ATOM      9  C   UNL A   1      33.709  24.419  23.213  1.00  0.00     0.107 C 
ATOM     10  C   UNL A   1      33.412  24.452  24.668  1.00  0.00    -0.006 C 
ATOM     11  C   UNL A   1      34.796  23.360  23.115  1.00  0.00     0.048 C 
ATOM     12  C   UNL A   1      34.244  23.670  25.374  1.00  0.00    -0.014 C 
BRANCH   9  13
ATOM     13  N   UNL A   1      33.870  25.741  22.611  1.00  0.00    -0.332 N 
ATOM     14  N   UNL A   1      32.287  27.473  23.067  1.00  0.00    -0.336 N 
ATOM     15  C   UNL A   1      33.348  26.954  22.455  1.00  0.00     0.315 C 
ATOM     16  H   UNL A   1      32.001  28.333  22.683  1.00  0.00     0.165 HD
ATOM     17  O   UNL A   1      33.932  27.686  21.646  1.00  0.00    -0.249 OA
ATOM     18  H   UNL A   1      34.719  25.728  22.112  1.00  0.00     0.165 HD
BRANCH  14  19
ATOM     19  C   UNL A   1      31.467  27.044  24.173  1.00  0.00     0.083 C 
ATOM     20  C   UNL A   1      30.028  26.797  23.721  1.00  0.00     0.031 C 
BRANCH  19  21
ATOM     21  C   UNL A   1      31.555  28.018  25.368  1.00  0.00     0.053 C 
BRANCH  21  22
ATOM     22  C   UNL A   1      32.919  28.720  25.502  1.00  0.00     0.162 C 
BRANCH  22  23
ATOM     23  O   UNL A   1      32.731  30.113  25.771  1.00  0.00    -0.385 OA
ATOM     24  C   UNL A   1      32.920  30.564  27.109  1.00  0.00     0.194 C 
ENDBRANCH  22  23
ENDBRANCH  21  22
ENDBRANCH  19  21
ENDBRANCH  14  19
ENDBRANCH   9  13
ENDBRANCH   6   8
ENDBRANCH   5   6
ENDBRANCH   4   5
ENDBRANCH   3   4
ENDBRANCH   2   3
ENDBRANCH   1   2
BRANCH   1  25
ATOM     25  C   UNL A   1      42.570  21.670  27.063  1.00  0.00     0.188 C 
BRANCH  25  26
ATOM     26  O   UNL A   1      43.473  21.729  25.974  1.00  0.00    -0.376 OA
BRANCH  26  27
ATOM     27  C   UNL A   1      43.244  22.802  25.064  1.00  0.00     0.202 C 
BRANCH  27  28
ATOM     28  C   UNL A   1      43.778  24.165  25.543  1.00  0.00     0.261 C 
BRANCH  28  29
ATOM     29  O   UNL A   1      42.805  25.218  25.326  1.00  0.00    -0.460 OA
BRANCH  29  30
ATOM     30  C   UNL A   1      42.070  25.569  26.418  1.00  0.00     0.338 C 
ATOM     31  O   UNL A   1      41.371  24.834  27.090  1.00  0.00    -0.246 OA
BRANCH  30  32
ATOM     32  C   UNL A   1      42.413  26.950  26.838  1.00  0.00     0.060 A 
ATOM     33  C   UNL A   1      43.276  27.118  27.933  1.00  0.00     0.016 A 
ATOM     34  C   UNL A   1      41.835  28.063  26.231  1.00  0.00     0.016 A 
ATOM     35  C   UNL A   1      43.534  28.393  28.447  1.00  0.00     0.010 A 
ATOM     36  C   UNL A   1      42.072  29.338  26.765  1.00  0.00     0.010 A 
ATOM     37  C   UNL A   1      42.897  29.511  27.894  1.00  0.00    -0.014 A 
BRANCH  37  38
ATOM     38  C   UNL A   1      42.897  30.820  28.604  1.00  0.00     0.031 A 
ATOM     39  C   UNL A   1      43.940  31.837  28.218  1.00  0.00     0.074 A 
ATOM     40  C   UNL A   1      42.016  31.116  29.578  1.00  0.00     0.049 A 
ATOM     41  N   UNL A   1      44.300  32.937  28.826  1.00  0.00    -0.248 NA
ATOM     42  C   UNL A   1      44.677  31.562  26.975  1.00  0.00     0.031 C 
ATOM     43  C   UNL A   1      40.889  30.282  29.985  1.00  0.00     0.029 A 
ATOM     44  N   UNL A   1      41.954  32.203  30.420  1.00  0.00    -0.354 N 
ATOM     45  C   UNL A   1      45.327  33.474  28.056  1.00  0.00     0.074 A 
ATOM     46  C   UNL A   1      45.532  32.570  26.943  1.00  0.00     0.031 C 
ATOM     47  C   UNL A   1      40.264  30.873  31.020  1.00  0.00     0.029 A 
ATOM     48  C   UNL A   1      40.983  32.093  31.390  1.00  0.00     0.049 A 
ATOM     49  H   UNL A   1      42.547  32.984  30.336  1.00  0.00     0.167 HD
ATOM     50  C   UNL A   1      46.041  34.609  28.264  1.00  0.00     0.034 A 
ATOM     51  C   UNL A   1      40.741  32.853  32.480  1.00  0.00     0.034 A 
ATOM     52  C   UNL A   1      45.838  35.498  29.382  1.00  0.00     0.049 A 
ATOM     53  C   UNL A   1      41.629  34.045  32.767  1.00  0.00     0.074 A 
ATOM     54  C   UNL A   1      46.525  36.656  29.700  1.00  0.00     0.029 A 
ATOM     55  N   UNL A   1      44.880  35.322  30.371  1.00  0.00    -0.354 N 
ATOM     56  N   UNL A   1      42.644  34.510  32.075  1.00  0.00    -0.248 NA
ATOM     57  C   UNL A   1      41.345  34.808  33.992  1.00  0.00     0.031 C 
ATOM     58  C   UNL A   1      46.027  37.145  30.914  1.00  0.00     0.029 A 
ATOM     59  C   UNL A   1      44.977  36.334  31.315  1.00  0.00     0.049 A 
ATOM     60  H   UNL A   1      44.226  34.587  30.399  1.00  0.00     0.167 HD
ATOM     61  C   UNL A   1      43.094  35.635  32.766  1.00  0.00     0.074 A 
ATOM     62  C   UNL A   1      42.238  35.784  33.922  1.00  0.00     0.031 C 
ATOM     63  C   UNL A   1      44.122  36.472  32.469  1.00  0.00     0.034 A 
BRANCH  50  64
ATOM     64  C   UNL A   1      47.164  34.899  27.297  1.00  0.00     0.023 A 
ATOM     65  C   UNL A   1      48.409  34.255  27.387  1.00  0.00     0.031 A 
ATOM     66  C   UNL A   1      46.995  35.875  26.298  1.00  0.00     0.131 A 
ATOM     67  C   UNL A   1      49.459  34.646  26.543  1.00  0.00     0.055 A 
ATOM     68  C   UNL A   1      48.020  36.202  25.409  1.00  0.00     0.041 A 
ATOM     69  F   UNL A   1      45.836  36.540  26.180  1.00  0.00    -0.206 F 
ATOM     70  C   UNL A   1      49.267  35.598  25.539  1.00  0.00     0.022 A 
BRANCH  67  71
ATOM     71  S   UNL A   1      51.123  34.004  26.874  1.00  0.00     0.124 S 
ATOM     72  O   UNL A   1      51.118  32.762  26.105  1.00  0.00    -0.237 OA
ATOM     73  O   UNL A   1      51.979  35.069  26.363  1.00  0.00    -0.237 OA
ATOM     74  O   UNL A   1      51.141  33.831  28.324  1.00  0.00    -0.744 OA
ENDBRANCH  67  71
ENDBRANCH  50  64
BRANCH  51  75
ATOM     75  C   UNL A   1      39.670  32.475  33.450  1.00  0.00     0.023 A 
ATOM     76  C   UNL A   1      38.416  33.107  33.432  1.00  0.00     0.031 A 
ATOM     77  C   UNL A   1      39.918  31.534  34.466  1.00  0.00     0.131 A 
ATOM     78  C   UNL A   1      37.476  32.825  34.437  1.00  0.00     0.055 A 
ATOM     79  C   UNL A   1      38.959  31.217  35.430  1.00  0.00     0.041 A 
ATOM     80  F   UNL A   1      41.103  30.908  34.538  1.00  0.00    -0.206 F 
ATOM     81  C   UNL A   1      37.734  31.875  35.427  1.00  0.00     0.022 A 
BRANCH  78  82
ATOM     82  S   UNL A   1      35.940  33.790  34.488  1.00  0.00     0.124 S 
ATOM     83  O   UNL A   1      36.349  35.031  33.840  1.00  0.00    -0.237 OA
ATOM     84  O   UNL A   1      35.026  32.941  33.733  1.00  0.00    -0.237 OA
ATOM     85  O   UNL A   1      35.653  33.897  35.917  1.00  0.00    -0.744 OA
ENDBRANCH  78  82
ENDBRANCH  51  75
BRANCH  63  86
ATOM     86  C   UNL A   1      44.336  37.659  33.379  1.00  0.00     0.023 A 
ATOM     87  C   UNL A   1      43.692  38.891  33.163  1.00  0.00     0.031 A 
ATOM     88  C   UNL A   1      45.201  37.552  34.484  1.00  0.00     0.131 A 
ATOM     89  C   UNL A   1      43.960  39.978  34.011  1.00  0.00     0.055 A 
ATOM     90  C   UNL A   1      45.422  38.621  35.354  1.00  0.00     0.041 A 
ATOM     91  F   UNL A   1      45.844  36.401  34.738  1.00  0.00    -0.206 F 
ATOM     92  C   UNL A   1      44.808  39.846  35.114  1.00  0.00     0.022 A 
BRANCH  89  93
ATOM     93  S   UNL A   1      43.244  41.598  33.611  1.00  0.00     0.124 S 
ATOM     94  O   UNL A   1      43.689  42.413  34.736  1.00  0.00    -0.237 OA
ATOM     95  O   UNL A   1      43.859  41.901  32.322  1.00  0.00    -0.237 OA
ATOM     96  O   UNL A   1      41.807  41.337  33.564  1.00  0.00    -0.744 OA
ENDBRANCH  89  93
ENDBRANCH  63  86
ENDBRANCH  37  38
ENDBRANCH  30  32
ENDBRANCH  29  30
ENDBRANCH  28  29
ENDBRANCH  27  28
ENDBRANCH  26  27
ENDBRANCH  25  26
ENDBRANCH   1  25
TORSDOF 25
ENDMDL
