MODEL 1
REMARK VINA RESULT:      -9.6      0.000      0.000
REMARK SMILES O=C(OCCOCCOCCOC(=O)c1ccc2c(=O)n(CCC[NH+]3CCOCC3)c(=O)[nH]c2c1)c1ccc(-c2c3nc(c(-c4cc(S(=O)(=O)[O-])ccc4F)c4ccc([nH]4)c(-c4cc(S(=O)(=O)[O-])ccc4F)c4nc(c(-c5cc(S(=O)(=O)[O-])ccc5F)c5ccc2[nH]5)C=C4)C=C3)cc1
REMARK SMILES IDX 8 1 7 2 6 3 5 4 4 5 3 6 2 7 1 8 36 9 37 10 98 11 38 12 97 13
REMARK SMILES IDX 39 14 40 15 41 16 91 17 42 18 96 19 90 20 92 21 43 22 95 23
REMARK SMILES IDX 89 24 88 25 44 27 76 28 56 29 75 30 57 31 60 32 74 33 93 34
REMARK SMILES IDX 58 35 59 36 73 38 94 39 61 40 45 41 46 42 54 43 47 44 53 45
REMARK SMILES IDX 55 46 52 47 48 48 49 49 50 50 51 51 77 52 78 53 86 54 79 55
REMARK SMILES IDX 85 56 87 57 84 58 80 59 81 60 82 61 83 62 62 63 63 64 71 65
REMARK SMILES IDX 64 66 70 67 72 68 69 69 65 70 66 71 67 72 68 73 9 74 10 75
REMARK SMILES IDX 11 76 12 77 13 78 14 79 15 80 16 81 35 82 17 83 34 84 18 85
REMARK SMILES IDX 33 86 19 87 31 88 20 90 21 91 32 92 22 93 23 94 24 95 25 96
REMARK SMILES IDX 26 97 30 98 27 100 29 101 28 102
REMARK H PARENT 92 26 60 37 33 89 25 99
REMARK Flexibility Score: inf
ROOT
ATOM      1  C   UNL A   1      35.073  31.988  27.880  1.00  0.00     0.188 C 
ENDROOT
BRANCH   1   2
ATOM      2  C   UNL A   1      34.980  33.055  28.974  1.00  0.00     0.188 C 
BRANCH   2   3
ATOM      3  O   UNL A   1      34.277  32.561  30.122  1.00  0.00    -0.376 OA
BRANCH   3   4
ATOM      4  C   UNL A   1      35.147  32.123  31.168  1.00  0.00     0.202 C 
BRANCH   4   5
ATOM      5  C   UNL A   1      35.732  33.254  32.021  1.00  0.00     0.261 C 
BRANCH   5   6
ATOM      6  O   UNL A   1      37.125  33.079  32.314  1.00  0.00    -0.460 OA
BRANCH   6   7
ATOM      7  C   UNL A   1      37.712  32.329  33.278  1.00  0.00     0.338 C 
ATOM      8  O   UNL A   1      37.255  32.423  34.418  1.00  0.00    -0.246 OA
BRANCH   7   9
ATOM      9  C   UNL A   1      38.873  31.392  33.075  1.00  0.00     0.060 A 
ATOM     10  C   UNL A   1      40.111  31.991  32.762  1.00  0.00     0.016 A 
ATOM     11  C   UNL A   1      38.847  29.998  33.158  1.00  0.00     0.016 A 
ATOM     12  C   UNL A   1      41.271  31.227  32.569  1.00  0.00     0.010 A 
ATOM     13  C   UNL A   1      40.008  29.233  33.009  1.00  0.00     0.010 A 
ATOM     14  C   UNL A   1      41.230  29.837  32.716  1.00  0.00    -0.014 A 
BRANCH  14  15
ATOM     15  C   UNL A   1      42.466  29.024  32.768  1.00  0.00     0.031 A 
ATOM     16  C   UNL A   1      43.005  28.304  31.564  1.00  0.00     0.074 A 
ATOM     17  C   UNL A   1      43.001  28.796  33.983  1.00  0.00     0.049 A 
ATOM     18  N   UNL A   1      44.144  27.676  31.427  1.00  0.00    -0.248 NA
ATOM     19  C   UNL A   1      42.150  28.248  30.370  1.00  0.00     0.031 C 
ATOM     20  C   UNL A   1      42.435  29.273  35.249  1.00  0.00     0.029 A 
ATOM     21  N   UNL A   1      44.089  28.058  34.362  1.00  0.00    -0.354 N 
ATOM     22  C   UNL A   1      44.188  27.243  30.104  1.00  0.00     0.074 A 
ATOM     23  C   UNL A   1      42.900  27.546  29.525  1.00  0.00     0.031 C 
ATOM     24  C   UNL A   1      43.152  28.772  36.264  1.00  0.00     0.029 A 
ATOM     25  C   UNL A   1      44.237  27.959  35.724  1.00  0.00     0.049 A 
ATOM     26  H   UNL A   1      44.707  27.638  33.720  1.00  0.00     0.167 HD
ATOM     27  C   UNL A   1      45.246  26.714  29.437  1.00  0.00     0.034 A 
ATOM     28  C   UNL A   1      45.149  27.289  36.457  1.00  0.00     0.034 A 
ATOM     29  C   UNL A   1      46.496  26.442  30.098  1.00  0.00     0.049 A 
ATOM     30  C   UNL A   1      46.290  26.634  35.727  1.00  0.00     0.074 A 
ATOM     31  C   UNL A   1      47.734  26.180  29.543  1.00  0.00     0.029 A 
ATOM     32  N   UNL A   1      46.647  26.359  31.476  1.00  0.00    -0.354 N 
ATOM     33  N   UNL A   1      46.502  26.569  34.432  1.00  0.00    -0.248 NA
ATOM     34  C   UNL A   1      47.339  26.005  36.538  1.00  0.00     0.031 C 
ATOM     35  C   UNL A   1      48.609  25.852  30.584  1.00  0.00     0.029 A 
ATOM     36  C   UNL A   1      47.930  25.952  31.791  1.00  0.00     0.049 A 
ATOM     37  H   UNL A   1      45.942  26.560  32.134  1.00  0.00     0.167 HD
ATOM     38  C   UNL A   1      47.726  25.931  34.272  1.00  0.00     0.074 A 
ATOM     39  C   UNL A   1      48.207  25.628  35.606  1.00  0.00     0.031 C 
ATOM     40  C   UNL A   1      48.395  25.642  33.125  1.00  0.00     0.034 A 
BRANCH  27  41
ATOM     41  C   UNL A   1      45.169  26.506  27.935  1.00  0.00     0.023 A 
ATOM     42  C   UNL A   1      44.955  25.244  27.357  1.00  0.00     0.031 A 
ATOM     43  C   UNL A   1      45.486  27.559  27.060  1.00  0.00     0.131 A 
ATOM     44  C   UNL A   1      45.052  25.090  25.960  1.00  0.00     0.055 A 
ATOM     45  C   UNL A   1      45.519  27.422  25.673  1.00  0.00     0.041 A 
ATOM     46  F   UNL A   1      45.826  28.751  27.549  1.00  0.00    -0.206 F 
ATOM     47  C   UNL A   1      45.305  26.176  25.115  1.00  0.00     0.022 A 
BRANCH  44  48
ATOM     48  S   UNL A   1      44.918  23.463  25.172  1.00  0.00     0.124 S 
ATOM     49  O   UNL A   1      45.905  23.561  24.097  1.00  0.00    -0.237 OA
ATOM     50  O   UNL A   1      45.280  22.571  26.270  1.00  0.00    -0.237 OA
ATOM     51  O   UNL A   1      43.529  23.405  24.732  1.00  0.00    -0.744 OA
ENDBRANCH  44  48
ENDBRANCH  27  41
BRANCH  28  52
ATOM     52  C   UNL A   1      45.031  27.322  37.942  1.00  0.00     0.023 A 
ATOM     53  C   UNL A   1      45.652  28.343  38.688  1.00  0.00     0.031 A 
ATOM     54  C   UNL A   1      44.448  26.255  38.642  1.00  0.00     0.131 A 
ATOM     55  C   UNL A   1      45.734  28.240  40.083  1.00  0.00     0.055 A 
ATOM     56  C   UNL A   1      44.479  26.184  40.037  1.00  0.00     0.041 A 
ATOM     57  F   UNL A   1      43.866  25.247  37.975  1.00  0.00    -0.206 F 
ATOM     58  C   UNL A   1      45.141  27.172  40.763  1.00  0.00     0.022 A 
BRANCH  55  59
ATOM     59  S   UNL A   1      46.735  29.406  41.050  1.00  0.00     0.124 S 
ATOM     60  O   UNL A   1      45.856  29.700  42.178  1.00  0.00    -0.237 OA
ATOM     61  O   UNL A   1      47.915  28.604  41.362  1.00  0.00    -0.237 OA
ATOM     62  O   UNL A   1      46.967  30.511  40.126  1.00  0.00    -0.744 OA
ENDBRANCH  55  59
ENDBRANCH  28  52
BRANCH  40  63
ATOM     63  C   UNL A   1      49.721  24.936  33.236  1.00  0.00     0.023 A 
ATOM     64  C   UNL A   1      49.764  23.539  33.396  1.00  0.00     0.031 A 
ATOM     65  C   UNL A   1      50.921  25.659  33.329  1.00  0.00     0.131 A 
ATOM     66  C   UNL A   1      50.979  22.914  33.702  1.00  0.00     0.055 A 
ATOM     67  C   UNL A   1      52.137  25.025  33.582  1.00  0.00     0.041 A 
ATOM     68  F   UNL A   1      50.925  26.994  33.179  1.00  0.00    -0.206 F 
ATOM     69  C   UNL A   1      52.166  23.649  33.788  1.00  0.00     0.022 A 
BRANCH  66  70
ATOM     70  S   UNL A   1      51.041  21.145  34.098  1.00  0.00     0.124 S 
ATOM     71  O   UNL A   1      50.229  20.568  33.030  1.00  0.00    -0.237 OA
ATOM     72  O   UNL A   1      52.472  20.861  34.017  1.00  0.00    -0.237 OA
ATOM     73  O   UNL A   1      50.463  21.063  35.435  1.00  0.00    -0.744 OA
ENDBRANCH  66  70
ENDBRANCH  40  63
ENDBRANCH  14  15
ENDBRANCH   7   9
ENDBRANCH   6   7
ENDBRANCH   5   6
ENDBRANCH   4   5
ENDBRANCH   3   4
ENDBRANCH   2   3
ENDBRANCH   1   2
BRANCH   1  74
ATOM     74  O   UNL A   1      34.943  30.638  28.327  1.00  0.00    -0.376 OA
BRANCH  74  75
ATOM     75  C   UNL A   1      34.189  29.749  27.506  1.00  0.00     0.202 C 
BRANCH  75  76
ATOM     76  C   UNL A   1      33.071  30.369  26.662  1.00  0.00     0.261 C 
BRANCH  76  77
ATOM     77  O   UNL A   1      32.983  29.856  25.325  1.00  0.00    -0.460 OA
BRANCH  77  78
ATOM     78  C   UNL A   1      31.734  29.529  24.921  1.00  0.00     0.338 C 
ATOM     79  O   UNL A   1      30.777  30.269  24.750  1.00  0.00    -0.246 OA
BRANCH  78  80
ATOM     80  C   UNL A   1      31.637  28.070  24.833  1.00  0.00     0.062 A 
ATOM     81  C   UNL A   1      31.848  27.519  23.568  1.00  0.00     0.016 A 
ATOM     82  C   UNL A   1      31.409  27.259  25.959  1.00  0.00     0.042 A 
ATOM     83  C   UNL A   1      31.747  26.147  23.409  1.00  0.00     0.017 A 
ATOM     84  C   UNL A   1      31.369  25.874  25.788  1.00  0.00     0.056 A 
ATOM     85  C   UNL A   1      31.467  25.343  24.515  1.00  0.00     0.064 A 
ATOM     86  N   UNL A   1      31.276  24.985  26.860  1.00  0.00    -0.307 N 
ATOM     87  C   UNL A   1      31.173  23.919  24.367  1.00  0.00     0.264 A 
ATOM     88  C   UNL A   1      31.409  23.617  26.728  1.00  0.00     0.328 A 
ATOM     89  H   UNL A   1      31.106  25.353  27.757  1.00  0.00     0.171 HD
ATOM     90  O   UNL A   1      30.596  23.570  23.349  1.00  0.00    -0.268 OA
ATOM     91  N   UNL A   1      31.459  23.108  25.436  1.00  0.00    -0.260 N 
ATOM     92  O   UNL A   1      31.464  22.932  27.748  1.00  0.00    -0.248 OA
BRANCH  91  93
ATOM     93  C   UNL A   1      31.639  21.656  25.261  1.00  0.00     0.137 C 
BRANCH  93  94
ATOM     94  C   UNL A   1      32.949  20.946  25.651  1.00  0.00     0.083 C 
BRANCH  94  95
ATOM     95  C   UNL A   1      33.528  19.761  24.842  1.00  0.00     0.264 C 
BRANCH  95  96
ATOM     96  N   UNL A   1      32.825  18.463  24.929  1.00  0.00    -0.331 N 
ATOM     97  C   UNL A   1      33.747  17.316  25.081  1.00  0.00     0.291 C 
ATOM     98  C   UNL A   1      32.056  18.232  23.667  1.00  0.00     0.291 C 
ATOM     99  H   UNL A   1      32.224  18.517  25.751  1.00  0.00     0.348 HD
ATOM    100  C   UNL A   1      34.565  16.946  23.831  1.00  0.00     0.221 C 
ATOM    101  C   UNL A   1      32.919  17.874  22.440  1.00  0.00     0.221 C 
ATOM    102  O   UNL A   1      33.722  16.712  22.700  1.00  0.00    -0.370 OA
ENDBRANCH  95  96
ENDBRANCH  94  95
ENDBRANCH  93  94
ENDBRANCH  91  93
ENDBRANCH  78  80
ENDBRANCH  77  78
ENDBRANCH  76  77
ENDBRANCH  75  76
ENDBRANCH  74  75
ENDBRANCH   1  74
TORSDOF 24
ENDMDL
MODEL 2
REMARK VINA RESULT:      -9.4      6.105      7.194
REMARK SMILES O=C(OCCOCCOCCOC(=O)c1ccc2c(=O)n(CCC[NH+]3CCOCC3)c(=O)[nH]c2c1)c1ccc(-c2c3nc(c(-c4cc(S(=O)(=O)[O-])ccc4F)c4ccc([nH]4)c(-c4cc(S(=O)(=O)[O-])ccc4F)c4nc(c(-c5cc(S(=O)(=O)[O-])ccc5F)c5ccc2[nH]5)C=C4)C=C3)cc1
REMARK SMILES IDX 8 1 7 2 6 3 5 4 4 5 3 6 2 7 1 8 36 9 37 10 98 11 38 12 97 13
REMARK SMILES IDX 39 14 40 15 41 16 91 17 42 18 96 19 90 20 92 21 43 22 95 23
REMARK SMILES IDX 89 24 88 25 44 27 76 28 56 29 75 30 57 31 60 32 74 33 93 34
REMARK SMILES IDX 58 35 59 36 73 38 94 39 61 40 45 41 46 42 54 43 47 44 53 45
REMARK SMILES IDX 55 46 52 47 48 48 49 49 50 50 51 51 77 52 78 53 86 54 79 55
REMARK SMILES IDX 85 56 87 57 84 58 80 59 81 60 82 61 83 62 62 63 63 64 71 65
REMARK SMILES IDX 64 66 70 67 72 68 69 69 65 70 66 71 67 72 68 73 9 74 10 75
REMARK SMILES IDX 11 76 12 77 13 78 14 79 15 80 16 81 35 82 17 83 34 84 18 85
REMARK SMILES IDX 33 86 19 87 31 88 20 90 21 91 32 92 22 93 23 94 24 95 25 96
REMARK SMILES IDX 26 97 30 98 27 100 29 101 28 102
REMARK H PARENT 92 26 60 37 33 89 25 99
REMARK Flexibility Score: inf
ROOT
ATOM      1  C   UNL A   1      32.362  30.919  27.230  1.00  0.00     0.188 C 
ENDROOT
BRANCH   1   2
ATOM      2  C   UNL A   1      33.860  31.226  27.278  1.00  0.00     0.188 C 
BRANCH   2   3
ATOM      3  O   UNL A   1      34.109  32.506  27.875  1.00  0.00    -0.376 OA
BRANCH   3   4
ATOM      4  C   UNL A   1      34.990  32.439  28.999  1.00  0.00     0.202 C 
BRANCH   4   5
ATOM      5  C   UNL A   1      36.101  31.391  28.873  1.00  0.00     0.261 C 
BRANCH   5   6
ATOM      6  O   UNL A   1      35.861  30.214  29.656  1.00  0.00    -0.460 OA
BRANCH   6   7
ATOM      7  C   UNL A   1      36.724  29.497  30.416  1.00  0.00     0.338 C 
ATOM      8  O   UNL A   1      36.388  29.268  31.580  1.00  0.00    -0.246 OA
BRANCH   7   9
ATOM      9  C   UNL A   1      38.054  28.958  29.963  1.00  0.00     0.060 A 
ATOM     10  C   UNL A   1      38.232  28.825  28.570  1.00  0.00     0.016 A 
ATOM     11  C   UNL A   1      39.121  28.572  30.776  1.00  0.00     0.016 A 
ATOM     12  C   UNL A   1      39.433  28.353  28.021  1.00  0.00     0.010 A 
ATOM     13  C   UNL A   1      40.337  28.141  30.236  1.00  0.00     0.010 A 
ATOM     14  C   UNL A   1      40.507  28.029  28.857  1.00  0.00    -0.014 A 
BRANCH  14  15
ATOM     15  C   UNL A   1      41.860  27.768  28.317  1.00  0.00     0.031 A 
ATOM     16  C   UNL A   1      42.320  26.391  27.929  1.00  0.00     0.074 A 
ATOM     17  C   UNL A   1      42.743  28.786  28.354  1.00  0.00     0.049 A 
ATOM     18  N   UNL A   1      43.418  26.037  27.316  1.00  0.00    -0.248 NA
ATOM     19  C   UNL A   1      41.459  25.260  28.306  1.00  0.00     0.031 C 
ATOM     20  C   UNL A   1      42.465  30.115  28.909  1.00  0.00     0.029 A 
ATOM     21  N   UNL A   1      44.059  28.848  27.984  1.00  0.00    -0.354 N 
ATOM     22  C   UNL A   1      43.332  24.658  27.138  1.00  0.00     0.074 A 
ATOM     23  C   UNL A   1      42.148  24.222  27.842  1.00  0.00     0.031 C 
ATOM     24  C   UNL A   1      43.591  30.840  28.890  1.00  0.00     0.029 A 
ATOM     25  C   UNL A   1      44.662  30.040  28.303  1.00  0.00     0.049 A 
ATOM     26  H   UNL A   1      44.528  28.109  27.534  1.00  0.00     0.167 HD
ATOM     27  C   UNL A   1      44.138  23.864  26.386  1.00  0.00     0.034 A 
ATOM     28  C   UNL A   1      45.937  30.445  28.139  1.00  0.00     0.034 A 
ATOM     29  C   UNL A   1      45.303  24.386  25.719  1.00  0.00     0.049 A 
ATOM     30  C   UNL A   1      46.865  29.544  27.369  1.00  0.00     0.074 A 
ATOM     31  C   UNL A   1      46.057  23.815  24.713  1.00  0.00     0.029 A 
ATOM     32  N   UNL A   1      45.901  25.600  26.032  1.00  0.00    -0.354 N 
ATOM     33  N   UNL A   1      46.619  28.354  26.870  1.00  0.00    -0.248 NA
ATOM     34  C   UNL A   1      48.218  30.042  27.096  1.00  0.00     0.031 C 
ATOM     35  C   UNL A   1      47.162  24.643  24.483  1.00  0.00     0.029 A 
ATOM     36  C   UNL A   1      47.071  25.753  25.312  1.00  0.00     0.049 A 
ATOM     37  H   UNL A   1      45.544  26.256  26.673  1.00  0.00     0.167 HD
ATOM     38  C   UNL A   1      47.769  27.977  26.186  1.00  0.00     0.074 A 
ATOM     39  C   UNL A   1      48.713  29.068  26.340  1.00  0.00     0.031 C 
ATOM     40  C   UNL A   1      48.010  26.840  25.482  1.00  0.00     0.034 A 
BRANCH  27  41
ATOM     41  C   UNL A   1      43.756  22.417  26.135  1.00  0.00     0.023 A 
ATOM     42  C   UNL A   1      44.709  21.417  25.878  1.00  0.00     0.031 A 
ATOM     43  C   UNL A   1      42.406  22.060  25.976  1.00  0.00     0.131 A 
ATOM     44  C   UNL A   1      44.285  20.130  25.496  1.00  0.00     0.055 A 
ATOM     45  C   UNL A   1      41.983  20.770  25.661  1.00  0.00     0.041 A 
ATOM     46  F   UNL A   1      41.456  22.990  26.078  1.00  0.00    -0.206 F 
ATOM     47  C   UNL A   1      42.929  19.794  25.413  1.00  0.00     0.022 A 
BRANCH  44  48
ATOM     48  S   UNL A   1      45.470  18.841  25.026  1.00  0.00     0.124 S 
ATOM     49  O   UNL A   1      46.747  19.448  25.400  1.00  0.00    -0.237 OA
ATOM     50  O   UNL A   1      45.043  17.724  25.865  1.00  0.00    -0.237 OA
ATOM     51  O   UNL A   1      45.259  18.682  23.592  1.00  0.00    -0.744 OA
ENDBRANCH  44  48
ENDBRANCH  27  41
BRANCH  28  52
ATOM     52  C   UNL A   1      46.324  31.796  28.633  1.00  0.00     0.023 A 
ATOM     53  C   UNL A   1      46.277  32.915  27.778  1.00  0.00     0.031 A 
ATOM     54  C   UNL A   1      46.901  31.960  29.902  1.00  0.00     0.131 A 
ATOM     55  C   UNL A   1      46.858  34.126  28.177  1.00  0.00     0.055 A 
ATOM     56  C   UNL A   1      47.426  33.185  30.320  1.00  0.00     0.041 A 
ATOM     57  F   UNL A   1      46.991  30.919  30.743  1.00  0.00    -0.206 F 
ATOM     58  C   UNL A   1      47.422  34.271  29.448  1.00  0.00     0.022 A 
BRANCH  55  59
ATOM     59  S   UNL A   1      47.032  35.507  27.011  1.00  0.00     0.124 S 
ATOM     60  O   UNL A   1      46.658  34.885  25.744  1.00  0.00    -0.237 OA
ATOM     61  O   UNL A   1      46.078  36.475  27.544  1.00  0.00    -0.237 OA
ATOM     62  O   UNL A   1      48.435  35.889  27.135  1.00  0.00    -0.744 OA
ENDBRANCH  55  59
ENDBRANCH  28  52
BRANCH  40  63
ATOM     63  C   UNL A   1      49.359  26.682  24.830  1.00  0.00     0.023 A 
ATOM     64  C   UNL A   1      50.419  26.086  25.539  1.00  0.00     0.031 A 
ATOM     65  C   UNL A   1      49.627  27.249  23.574  1.00  0.00     0.131 A 
ATOM     66  C   UNL A   1      51.714  26.125  25.010  1.00  0.00     0.055 A 
ATOM     67  C   UNL A   1      50.910  27.239  23.028  1.00  0.00     0.041 A 
ATOM     68  F   UNL A   1      48.644  27.825  22.863  1.00  0.00    -0.206 F 
ATOM     69  C   UNL A   1      51.964  26.692  23.756  1.00  0.00     0.022 A 
BRANCH  66  70
ATOM     70  S   UNL A   1      53.131  25.536  25.975  1.00  0.00     0.124 S 
ATOM     71  O   UNL A   1      52.783  25.977  27.323  1.00  0.00    -0.237 OA
ATOM     72  O   UNL A   1      53.075  24.092  25.756  1.00  0.00    -0.237 OA
ATOM     73  O   UNL A   1      54.274  26.214  25.373  1.00  0.00    -0.744 OA
ENDBRANCH  66  70
ENDBRANCH  40  63
ENDBRANCH  14  15
ENDBRANCH   7   9
ENDBRANCH   6   7
ENDBRANCH   5   6
ENDBRANCH   4   5
ENDBRANCH   3   4
ENDBRANCH   2   3
ENDBRANCH   1   2
BRANCH   1  74
ATOM     74  O   UNL A   1      31.805  30.778  25.922  1.00  0.00    -0.376 OA
BRANCH  74  75
ATOM     75  C   UNL A   1      30.595  31.481  25.650  1.00  0.00     0.202 C 
BRANCH  75  76
ATOM     76  C   UNL A   1      30.134  31.525  24.190  1.00  0.00     0.261 C 
BRANCH  76  77
ATOM     77  O   UNL A   1      29.017  30.674  23.895  1.00  0.00    -0.460 OA
BRANCH  77  78
ATOM     78  C   UNL A   1      29.258  29.719  22.966  1.00  0.00     0.338 C 
ATOM     79  O   UNL A   1      29.027  29.756  21.767  1.00  0.00    -0.246 OA
BRANCH  78  80
ATOM     80  C   UNL A   1      29.741  28.515  23.646  1.00  0.00     0.062 A 
ATOM     81  C   UNL A   1      28.852  27.440  23.690  1.00  0.00     0.016 A 
ATOM     82  C   UNL A   1      31.042  28.414  24.170  1.00  0.00     0.042 A 
ATOM     83  C   UNL A   1      29.236  26.278  24.339  1.00  0.00     0.017 A 
ATOM     84  C   UNL A   1      31.429  27.214  24.769  1.00  0.00     0.056 A 
ATOM     85  C   UNL A   1      30.507  26.194  24.909  1.00  0.00     0.064 A 
ATOM     86  N   UNL A   1      32.735  26.976  25.202  1.00  0.00    -0.307 N 
ATOM     87  C   UNL A   1      30.889  25.066  25.756  1.00  0.00     0.264 A 
ATOM     88  C   UNL A   1      33.181  25.743  25.635  1.00  0.00     0.328 A 
ATOM     89  H   UNL A   1      33.372  27.727  25.199  1.00  0.00     0.171 HD
ATOM     90  O   UNL A   1      30.013  24.555  26.436  1.00  0.00    -0.268 OA
ATOM     91  N   UNL A   1      32.223  24.751  25.810  1.00  0.00    -0.260 N 
ATOM     92  O   UNL A   1      34.382  25.595  25.851  1.00  0.00    -0.248 OA
BRANCH  91  93
ATOM     93  C   UNL A   1      32.671  23.412  26.235  1.00  0.00     0.137 C 
BRANCH  93  94
ATOM     94  C   UNL A   1      32.879  22.266  25.227  1.00  0.00     0.083 C 
BRANCH  94  95
ATOM     95  C   UNL A   1      34.113  22.186  24.298  1.00  0.00     0.264 C 
BRANCH  95  96
ATOM     96  N   UNL A   1      35.292  21.438  24.787  1.00  0.00    -0.331 N 
ATOM     97  C   UNL A   1      35.652  21.773  26.182  1.00  0.00     0.291 C 
ATOM     98  C   UNL A   1      36.478  21.778  23.942  1.00  0.00     0.291 C 
ATOM     99  H   UNL A   1      35.045  20.449  24.737  1.00  0.00     0.348 HD
ATOM    100  C   UNL A   1      36.275  23.164  26.394  1.00  0.00     0.221 C 
ATOM    101  C   UNL A   1      37.062  23.185  24.183  1.00  0.00     0.221 C 
ATOM    102  O   UNL A   1      37.421  23.361  25.563  1.00  0.00    -0.370 OA
ENDBRANCH  95  96
ENDBRANCH  94  95
ENDBRANCH  93  94
ENDBRANCH  91  93
ENDBRANCH  78  80
ENDBRANCH  77  78
ENDBRANCH  76  77
ENDBRANCH  75  76
ENDBRANCH  74  75
ENDBRANCH   1  74
TORSDOF 24
ENDMDL
MODEL 3
REMARK VINA RESULT:      -9.4      6.406     10.774
REMARK SMILES O=C(OCCOCCOCCOC(=O)c1ccc2c(=O)n(CCC[NH+]3CCOCC3)c(=O)[nH]c2c1)c1ccc(-c2c3nc(c(-c4cc(S(=O)(=O)[O-])ccc4F)c4ccc([nH]4)c(-c4cc(S(=O)(=O)[O-])ccc4F)c4nc(c(-c5cc(S(=O)(=O)[O-])ccc5F)c5ccc2[nH]5)C=C4)C=C3)cc1
REMARK SMILES IDX 8 1 7 2 6 3 5 4 4 5 3 6 2 7 1 8 36 9 37 10 98 11 38 12 97 13
REMARK SMILES IDX 39 14 40 15 41 16 91 17 42 18 96 19 90 20 92 21 43 22 95 23
REMARK SMILES IDX 89 24 88 25 44 27 76 28 56 29 75 30 57 31 60 32 74 33 93 34
REMARK SMILES IDX 58 35 59 36 73 38 94 39 61 40 45 41 46 42 54 43 47 44 53 45
REMARK SMILES IDX 55 46 52 47 48 48 49 49 50 50 51 51 77 52 78 53 86 54 79 55
REMARK SMILES IDX 85 56 87 57 84 58 80 59 81 60 82 61 83 62 62 63 63 64 71 65
REMARK SMILES IDX 64 66 70 67 72 68 69 69 65 70 66 71 67 72 68 73 9 74 10 75
REMARK SMILES IDX 11 76 12 77 13 78 14 79 15 80 16 81 35 82 17 83 34 84 18 85
REMARK SMILES IDX 33 86 19 87 31 88 20 90 21 91 32 92 22 93 23 94 24 95 25 96
REMARK SMILES IDX 26 97 30 98 27 100 29 101 28 102
REMARK H PARENT 92 26 60 37 33 89 25 99
REMARK Flexibility Score: inf
ROOT
ATOM      1  C   UNL A   1      41.403  21.933  26.165  1.00  0.00     0.188 C 
ENDROOT
BRANCH   1   2
ATOM      2  C   UNL A   1      42.342  22.368  27.293  1.00  0.00     0.188 C 
BRANCH   2   3
ATOM      3  O   UNL A   1      41.955  23.642  27.826  1.00  0.00    -0.376 OA
BRANCH   3   4
ATOM      4  C   UNL A   1      42.537  24.744  27.127  1.00  0.00     0.202 C 
BRANCH   4   5
ATOM      5  C   UNL A   1      41.754  25.194  25.888  1.00  0.00     0.261 C 
BRANCH   5   6
ATOM      6  O   UNL A   1      40.803  26.231  26.165  1.00  0.00    -0.460 OA
BRANCH   6   7
ATOM      7  C   UNL A   1      40.197  26.551  27.334  1.00  0.00     0.338 C 
ATOM      8  O   UNL A   1      39.375  25.746  27.777  1.00  0.00    -0.246 OA
BRANCH   7   9
ATOM      9  C   UNL A   1      40.440  27.802  28.136  1.00  0.00     0.060 A 
ATOM     10  C   UNL A   1      41.125  27.637  29.357  1.00  0.00     0.016 A 
ATOM     11  C   UNL A   1      40.050  29.099  27.799  1.00  0.00     0.016 A 
ATOM     12  C   UNL A   1      41.429  28.727  30.186  1.00  0.00     0.010 A 
ATOM     13  C   UNL A   1      40.387  30.197  28.598  1.00  0.00     0.010 A 
ATOM     14  C   UNL A   1      41.079  30.024  29.795  1.00  0.00    -0.014 A 
BRANCH  14  15
ATOM     15  C   UNL A   1      41.593  31.215  30.508  1.00  0.00     0.031 A 
ATOM     16  C   UNL A   1      43.019  31.673  30.385  1.00  0.00     0.074 A 
ATOM     17  C   UNL A   1      40.783  31.780  31.425  1.00  0.00     0.049 A 
ATOM     18  N   UNL A   1      43.569  32.771  30.835  1.00  0.00    -0.248 NA
ATOM     19  C   UNL A   1      43.962  30.774  29.702  1.00  0.00     0.031 C 
ATOM     20  C   UNL A   1      39.448  31.285  31.779  1.00  0.00     0.029 A 
ATOM     21  N   UNL A   1      40.979  32.839  32.267  1.00  0.00    -0.354 N 
ATOM     22  C   UNL A   1      44.891  32.745  30.399  1.00  0.00     0.074 A 
ATOM     23  C   UNL A   1      45.100  31.456  29.783  1.00  0.00     0.031 C 
ATOM     24  C   UNL A   1      38.972  32.009  32.801  1.00  0.00     0.029 A 
ATOM     25  C   UNL A   1      39.952  33.029  33.159  1.00  0.00     0.049 A 
ATOM     26  H   UNL A   1      41.781  33.410  32.239  1.00  0.00     0.167 HD
ATOM     27  C   UNL A   1      45.805  33.749  30.453  1.00  0.00     0.034 A 
ATOM     28  C   UNL A   1      39.813  33.929  34.153  1.00  0.00     0.034 A 
ATOM     29  C   UNL A   1      45.509  35.006  31.092  1.00  0.00     0.049 A 
ATOM     30  C   UNL A   1      40.856  35.007  34.273  1.00  0.00     0.074 A 
ATOM     31  C   UNL A   1      46.184  36.207  31.001  1.00  0.00     0.029 A 
ATOM     32  N   UNL A   1      44.459  35.199  31.980  1.00  0.00    -0.354 N 
ATOM     33  N   UNL A   1      41.948  35.170  33.561  1.00  0.00    -0.248 NA
ATOM     34  C   UNL A   1      40.638  36.048  35.284  1.00  0.00     0.031 C 
ATOM     35  C   UNL A   1      45.593  37.100  31.903  1.00  0.00     0.029 A 
ATOM     36  C   UNL A   1      44.523  36.470  32.523  1.00  0.00     0.049 A 
ATOM     37  H   UNL A   1      43.768  34.530  32.193  1.00  0.00     0.167 HD
ATOM     38  C   UNL A   1      42.528  36.351  34.007  1.00  0.00     0.074 A 
ATOM     39  C   UNL A   1      41.663  36.862  35.054  1.00  0.00     0.031 C 
ATOM     40  C   UNL A   1      43.661  36.964  33.574  1.00  0.00     0.034 A 
BRANCH  27  41
ATOM     41  C   UNL A   1      47.130  33.609  29.728  1.00  0.00     0.023 A 
ATOM     42  C   UNL A   1      47.331  34.083  28.421  1.00  0.00     0.031 A 
ATOM     43  C   UNL A   1      48.161  32.833  30.285  1.00  0.00     0.131 A 
ATOM     44  C   UNL A   1      48.529  33.782  27.744  1.00  0.00     0.055 A 
ATOM     45  C   UNL A   1      49.374  32.589  29.641  1.00  0.00     0.041 A 
ATOM     46  F   UNL A   1      47.986  32.245  31.468  1.00  0.00    -0.206 F 
ATOM     47  C   UNL A   1      49.560  33.063  28.357  1.00  0.00     0.022 A 
BRANCH  44  48
ATOM     48  S   UNL A   1      48.786  34.255  26.013  1.00  0.00     0.124 S 
ATOM     49  O   UNL A   1      49.680  33.199  25.537  1.00  0.00    -0.237 OA
ATOM     50  O   UNL A   1      47.425  34.203  25.485  1.00  0.00    -0.237 OA
ATOM     51  O   UNL A   1      49.388  35.580  26.102  1.00  0.00    -0.744 OA
ENDBRANCH  44  48
ENDBRANCH  27  41
BRANCH  28  52
ATOM     52  C   UNL A   1      38.592  33.865  35.005  1.00  0.00     0.023 A 
ATOM     53  C   UNL A   1      38.619  33.208  36.251  1.00  0.00     0.031 A 
ATOM     54  C   UNL A   1      37.352  34.307  34.519  1.00  0.00     0.131 A 
ATOM     55  C   UNL A   1      37.422  32.952  36.933  1.00  0.00     0.055 A 
ATOM     56  C   UNL A   1      36.167  34.103  35.230  1.00  0.00     0.041 A 
ATOM     57  F   UNL A   1      37.272  34.917  33.327  1.00  0.00    -0.206 F 
ATOM     58  C   UNL A   1      36.197  33.406  36.435  1.00  0.00     0.022 A 
BRANCH  55  59
ATOM     59  S   UNL A   1      37.397  31.896  38.411  1.00  0.00     0.124 S 
ATOM     60  O   UNL A   1      36.137  32.283  39.039  1.00  0.00    -0.237 OA
ATOM     61  O   UNL A   1      37.425  30.558  37.826  1.00  0.00    -0.237 OA
ATOM     62  O   UNL A   1      38.606  32.281  39.131  1.00  0.00    -0.744 OA
ENDBRANCH  55  59
ENDBRANCH  28  52
BRANCH  40  63
ATOM     63  C   UNL A   1      44.069  38.252  34.238  1.00  0.00     0.023 A 
ATOM     64  C   UNL A   1      43.470  39.466  33.851  1.00  0.00     0.031 A 
ATOM     65  C   UNL A   1      45.144  38.294  35.140  1.00  0.00     0.131 A 
ATOM     66  C   UNL A   1      43.992  40.677  34.320  1.00  0.00     0.055 A 
ATOM     67  C   UNL A   1      45.628  39.500  35.645  1.00  0.00     0.041 A 
ATOM     68  F   UNL A   1      45.743  37.159  35.538  1.00  0.00    -0.206 F 
ATOM     69  C   UNL A   1      45.063  40.700  35.220  1.00  0.00     0.022 A 
BRANCH  66  70
ATOM     70  S   UNL A   1      43.368  42.262  33.699  1.00  0.00     0.124 S 
ATOM     71  O   UNL A   1      43.440  42.069  32.253  1.00  0.00    -0.237 OA
ATOM     72  O   UNL A   1      42.019  42.302  34.257  1.00  0.00    -0.237 OA
ATOM     73  O   UNL A   1      44.299  43.245  34.244  1.00  0.00    -0.744 OA
ENDBRANCH  66  70
ENDBRANCH  40  63
ENDBRANCH  14  15
ENDBRANCH   7   9
ENDBRANCH   6   7
ENDBRANCH   5   6
ENDBRANCH   4   5
ENDBRANCH   3   4
ENDBRANCH   2   3
ENDBRANCH   1   2
BRANCH   1  74
ATOM     74  O   UNL A   1      40.088  21.554  26.572  1.00  0.00    -0.376 OA
BRANCH  74  75
ATOM     75  C   UNL A   1      39.038  22.489  26.334  1.00  0.00     0.202 C 
BRANCH  75  76
ATOM     76  C   UNL A   1      37.923  22.049  25.380  1.00  0.00     0.261 C 
BRANCH  76  77
ATOM     77  O   UNL A   1      36.655  22.674  25.622  1.00  0.00    -0.460 OA
BRANCH  77  78
ATOM     78  C   UNL A   1      35.579  21.955  25.224  1.00  0.00     0.338 C 
ATOM     79  O   UNL A   1      35.520  20.761  24.971  1.00  0.00    -0.246 OA
BRANCH  78  80
ATOM     80  C   UNL A   1      34.459  22.872  24.999  1.00  0.00     0.062 A 
ATOM     81  C   UNL A   1      33.876  23.417  26.145  1.00  0.00     0.016 A 
ATOM     82  C   UNL A   1      34.030  23.238  23.711  1.00  0.00     0.042 A 
ATOM     83  C   UNL A   1      32.797  24.272  26.005  1.00  0.00     0.017 A 
ATOM     84  C   UNL A   1      32.978  24.148  23.592  1.00  0.00     0.056 A 
ATOM     85  C   UNL A   1      32.333  24.596  24.730  1.00  0.00     0.064 A 
ATOM     86  N   UNL A   1      32.567  24.667  22.363  1.00  0.00    -0.307 N 
ATOM     87  C   UNL A   1      31.092  25.345  24.537  1.00  0.00     0.264 A 
ATOM     88  C   UNL A   1      31.651  25.693  22.237  1.00  0.00     0.328 A 
ATOM     89  H   UNL A   1      32.951  24.282  21.542  1.00  0.00     0.171 HD
ATOM     90  O   UNL A   1      30.201  25.169  25.352  1.00  0.00    -0.268 OA
ATOM     91  N   UNL A   1      30.985  26.090  23.390  1.00  0.00    -0.260 N 
ATOM     92  O   UNL A   1      31.468  26.184  21.124  1.00  0.00    -0.248 OA
BRANCH  91  93
ATOM     93  C   UNL A   1      30.029  27.208  23.298  1.00  0.00     0.137 C 
BRANCH  93  94
ATOM     94  C   UNL A   1      30.439  28.586  22.746  1.00  0.00     0.083 C 
BRANCH  94  95
ATOM     95  C   UNL A   1      29.939  29.914  23.362  1.00  0.00     0.264 C 
BRANCH  95  96
ATOM     96  N   UNL A   1      28.487  30.187  23.316  1.00  0.00    -0.331 N 
ATOM     97  C   UNL A   1      27.892  29.929  21.985  1.00  0.00     0.291 C 
ATOM     98  C   UNL A   1      28.245  31.631  23.622  1.00  0.00     0.291 C 
ATOM     99  H   UNL A   1      28.055  29.563  23.998  1.00  0.00     0.348 HD
ATOM    100  C   UNL A   1      28.257  30.940  20.884  1.00  0.00     0.221 C 
ATOM    101  C   UNL A   1      28.635  32.606  22.494  1.00  0.00     0.221 C 
ATOM    102  O   UNL A   1      27.948  32.280  21.275  1.00  0.00    -0.370 OA
ENDBRANCH  95  96
ENDBRANCH  94  95
ENDBRANCH  93  94
ENDBRANCH  91  93
ENDBRANCH  78  80
ENDBRANCH  77  78
ENDBRANCH  76  77
ENDBRANCH  75  76
ENDBRANCH  74  75
ENDBRANCH   1  74
TORSDOF 24
ENDMDL
