MODEL 1
REMARK VINA RESULT:      -8.4      0.000      0.000
REMARK SMILES NS(=O)(=O)c1ccc(-n2nc(C(F)(F)F)cc2-c2ccc(CC(=O)OCCOCCOCCOC(=O)c3ccc(-c4c5nc(c(-c6cc(S(=O)(=O)[O-])ccc6F)c6ccc([nH]6)c(-c6cc(S(=O)(=O)[O-])ccc6F)c6nc(c(-c7cc(S(=O)(=O)[O-])ccc7F)c7ccc4[nH]7)C=C6)C=C5)cc3)cc2)cc1
REMARK SMILES IDX 29 1 28 2 27 3 26 4 25 5 23 6 24 7 22 8 21 9 18 10 19 11
REMARK SMILES IDX 101 12 20 13 100 14 17 15 9 16 10 17 11 18 16 19 8 20 5 21
REMARK SMILES IDX 6 22 103 23 7 24 102 25 2 26 3 27 4 28 1 29 12 32 13 33
REMARK SMILES IDX 14 34 15 35 30 36 31 37 32 38 33 39 34 40 35 41 36 42 37 43
REMARK SMILES IDX 38 44 99 45 39 46 98 47 40 48 41 49 42 50 92 51 43 52 97 53
REMARK SMILES IDX 91 54 93 55 44 56 96 57 90 58 89 59 45 61 77 62 57 63 76 64
REMARK SMILES IDX 58 65 61 66 75 67 94 68 59 69 60 70 74 72 95 73 62 74 46 75
REMARK SMILES IDX 47 76 55 77 48 78 54 79 56 80 53 81 49 82 50 83 51 84 52 85
REMARK SMILES IDX 78 86 79 87 87 88 80 89 86 90 88 91 85 92 81 93 82 94 83 95
REMARK SMILES IDX 84 96 63 97 64 98 72 99 65 100 71 101 73 102 70 103 66 104
REMARK SMILES IDX 67 105 68 106 69 107
REMARK H PARENT 1 30 1 31 93 60 61 71
REMARK Flexibility Score: inf
ROOT
ATOM      1  C   UNL A   1      48.317  29.777  36.039  1.00  0.00     0.188 C 
ENDROOT
BRANCH   1   2
ATOM      2  O   UNL A   1      48.617  29.767  34.661  1.00  0.00    -0.376 OA
BRANCH   2   3
ATOM      3  C   UNL A   1      49.441  28.754  34.126  1.00  0.00     0.202 C 
BRANCH   3   4
ATOM      4  C   UNL A   1      48.864  27.443  33.549  1.00  0.00     0.261 C 
BRANCH   4   5
ATOM      5  O   UNL A   1      49.019  27.197  32.131  1.00  0.00    -0.463 OA
BRANCH   5   6
ATOM      6  C   UNL A   1      47.896  27.174  31.375  1.00  0.00     0.310 C 
ATOM      7  O   UNL A   1      47.023  28.038  31.456  1.00  0.00    -0.252 OA
BRANCH   6   8
ATOM      8  C   UNL A   1      47.747  26.041  30.362  1.00  0.00     0.158 C 
BRANCH   8   9
ATOM      9  C   UNL A   1      46.420  25.612  29.747  1.00  0.00    -0.037 A 
ATOM     10  C   UNL A   1      43.922  24.882  28.586  1.00  0.00     0.000 A 
ATOM     11  C   UNL A   1      44.790  25.744  27.914  1.00  0.00     0.010 A 
ATOM     12  C   UNL A   1      44.284  24.435  29.863  1.00  0.00     0.010 A 
ATOM     13  C   UNL A   1      46.000  26.137  28.508  1.00  0.00     0.005 A 
ATOM     14  C   UNL A   1      45.530  24.771  30.424  1.00  0.00     0.005 A 
BRANCH  10  15
ATOM     15  C   UNL A   1      42.623  24.547  27.997  1.00  0.00     0.075 A 
ATOM     16  N   UNL A   1      42.388  23.641  26.963  1.00  0.00    -0.233 N 
ATOM     17  N   UNL A   1      41.118  23.749  26.483  1.00  0.00    -0.163 NA
ATOM     18  C   UNL A   1      40.495  24.617  27.295  1.00  0.00     0.167 A 
ATOM     19  C   UNL A   1      41.409  25.174  28.220  1.00  0.00     0.064 A 
BRANCH  16  20
ATOM     20  C   UNL A   1      43.195  22.573  26.482  1.00  0.00     0.065 A 
ATOM     21  C   UNL A   1      44.725  20.533  25.329  1.00  0.00     0.082 A 
ATOM     22  C   UNL A   1      43.467  20.245  25.872  1.00  0.00     0.024 A 
ATOM     23  C   UNL A   1      45.221  21.838  25.360  1.00  0.00     0.024 A 
ATOM     24  C   UNL A   1      42.717  21.259  26.483  1.00  0.00     0.030 A 
ATOM     25  C   UNL A   1      44.438  22.865  25.898  1.00  0.00     0.030 A 
BRANCH  21  26
ATOM     26  S   UNL A   1      45.714  19.244  24.622  1.00  0.00     0.238 S 
ATOM     27  O   UNL A   1      47.114  19.630  24.670  1.00  0.00    -0.207 OA
ATOM     28  O   UNL A   1      45.074  18.749  23.439  1.00  0.00    -0.207 OA
BRANCH  26  29
ATOM     29  N   UNL A   1      45.635  17.971  25.732  1.00  0.00    -0.225 NA
ATOM     30  H   UNL A   1      44.780  17.436  25.576  1.00  0.00     0.137 HD
ATOM     31  H   UNL A   1      45.631  18.346  26.681  1.00  0.00     0.137 HD
ENDBRANCH  26  29
ENDBRANCH  21  26
ENDBRANCH  16  20
BRANCH  18  32
ATOM     32  C   UNL A   1      39.020  24.909  27.200  1.00  0.00     0.435 C 
ATOM     33  F   UNL A   1      38.236  23.975  27.796  1.00  0.00    -0.164 F 
ATOM     34  F   UNL A   1      38.703  26.111  27.756  1.00  0.00    -0.164 F 
ATOM     35  F   UNL A   1      38.608  24.984  25.901  1.00  0.00    -0.164 F 
ENDBRANCH  18  32
ENDBRANCH  10  15
ENDBRANCH   8   9
ENDBRANCH   6   8
ENDBRANCH   5   6
ENDBRANCH   4   5
ENDBRANCH   3   4
ENDBRANCH   2   3
ENDBRANCH   1   2
BRANCH   1  36
ATOM     36  C   UNL A   1      47.084  29.069  36.602  1.00  0.00     0.188 C 
BRANCH  36  37
ATOM     37  O   UNL A   1      47.004  27.677  36.793  1.00  0.00    -0.376 OA
BRANCH  37  38
ATOM     38  C   UNL A   1      45.865  26.997  37.261  1.00  0.00     0.202 C 
BRANCH  38  39
ATOM     39  C   UNL A   1      45.727  25.493  37.297  1.00  0.00     0.261 C 
BRANCH  39  40
ATOM     40  O   UNL A   1      44.425  25.050  37.055  1.00  0.00    -0.460 OA
BRANCH  40  41
ATOM     41  C   UNL A   1      44.363  24.133  36.066  1.00  0.00     0.338 C 
ATOM     42  O   UNL A   1      44.829  23.008  36.053  1.00  0.00    -0.246 OA
BRANCH  41  43
ATOM     43  C   UNL A   1      43.675  24.773  34.956  1.00  0.00     0.060 A 
ATOM     44  C   UNL A   1      44.493  25.327  33.973  1.00  0.00     0.016 A 
ATOM     45  C   UNL A   1      42.351  25.176  35.184  1.00  0.00     0.016 A 
ATOM     46  C   UNL A   1      44.082  26.508  33.421  1.00  0.00     0.010 A 
ATOM     47  C   UNL A   1      41.976  26.383  34.689  1.00  0.00     0.010 A 
ATOM     48  C   UNL A   1      42.890  27.063  33.891  1.00  0.00    -0.014 A 
BRANCH  48  49
ATOM     49  C   UNL A   1      42.516  28.373  33.442  1.00  0.00     0.031 A 
ATOM     50  C   UNL A   1      42.290  29.271  34.586  1.00  0.00     0.074 A 
ATOM     51  C   UNL A   1      42.557  28.703  32.141  1.00  0.00     0.049 A 
ATOM     52  N   UNL A   1      41.151  29.675  35.034  1.00  0.00    -0.248 NA
ATOM     53  C   UNL A   1      43.415  29.508  35.512  1.00  0.00     0.031 C 
ATOM     54  C   UNL A   1      43.048  27.914  31.010  1.00  0.00     0.029 A 
ATOM     55  N   UNL A   1      42.276  29.898  31.573  1.00  0.00    -0.354 N 
ATOM     56  C   UNL A   1      41.468  30.474  36.121  1.00  0.00     0.074 A 
ATOM     57  C   UNL A   1      42.779  30.070  36.539  1.00  0.00     0.031 C 
ATOM     58  C   UNL A   1      43.261  28.739  29.959  1.00  0.00     0.029 A 
ATOM     59  C   UNL A   1      42.834  30.083  30.316  1.00  0.00     0.049 A 
ATOM     60  H   UNL A   1      41.721  30.580  32.015  1.00  0.00     0.167 HD
ATOM     61  C   UNL A   1      40.788  31.628  36.346  1.00  0.00     0.034 A 
ATOM     62  C   UNL A   1      43.032  31.285  29.706  1.00  0.00     0.034 A 
ATOM     63  C   UNL A   1      39.535  31.633  35.615  1.00  0.00     0.049 A 
ATOM     64  C   UNL A   1      42.098  32.246  30.368  1.00  0.00     0.074 A 
ATOM     65  C   UNL A   1      38.465  30.756  35.553  1.00  0.00     0.029 A 
ATOM     66  N   UNL A   1      39.445  32.409  34.477  1.00  0.00    -0.354 N 
ATOM     67  N   UNL A   1      40.795  32.135  30.298  1.00  0.00    -0.248 NA
ATOM     68  C   UNL A   1      42.581  32.976  31.536  1.00  0.00     0.031 C 
ATOM     69  C   UNL A   1      38.117  30.703  34.172  1.00  0.00     0.029 A 
ATOM     70  C   UNL A   1      38.907  31.625  33.482  1.00  0.00     0.049 A 
ATOM     71  H   UNL A   1      39.715  33.351  34.392  1.00  0.00     0.167 HD
ATOM     72  C   UNL A   1      40.333  32.379  31.585  1.00  0.00     0.074 A 
ATOM     73  C   UNL A   1      41.472  32.975  32.286  1.00  0.00     0.031 C 
ATOM     74  C   UNL A   1      39.193  31.791  32.065  1.00  0.00     0.034 A 
BRANCH  61  75
ATOM     75  C   UNL A   1      41.433  32.888  36.874  1.00  0.00     0.023 A 
ATOM     76  C   UNL A   1      40.719  33.584  37.861  1.00  0.00     0.031 A 
ATOM     77  C   UNL A   1      42.526  33.584  36.301  1.00  0.00     0.131 A 
ATOM     78  C   UNL A   1      41.015  34.925  38.151  1.00  0.00     0.055 A 
ATOM     79  C   UNL A   1      42.863  34.893  36.649  1.00  0.00     0.041 A 
ATOM     80  F   UNL A   1      43.280  33.091  35.313  1.00  0.00    -0.206 F 
ATOM     81  C   UNL A   1      42.083  35.586  37.553  1.00  0.00     0.022 A 
BRANCH  78  82
ATOM     82  S   UNL A   1      39.854  35.839  39.190  1.00  0.00     0.124 S 
ATOM     83  O   UNL A   1      40.699  36.194  40.325  1.00  0.00    -0.237 OA
ATOM     84  O   UNL A   1      39.464  36.933  38.307  1.00  0.00    -0.237 OA
ATOM     85  O   UNL A   1      38.808  34.857  39.470  1.00  0.00    -0.744 OA
ENDBRANCH  78  82
ENDBRANCH  61  75
BRANCH  62  86
ATOM     86  C   UNL A   1      44.234  31.673  28.899  1.00  0.00     0.023 A 
ATOM     87  C   UNL A   1      44.154  32.379  27.678  1.00  0.00     0.031 A 
ATOM     88  C   UNL A   1      45.534  31.517  29.441  1.00  0.00     0.131 A 
ATOM     89  C   UNL A   1      45.333  32.867  27.054  1.00  0.00     0.055 A 
ATOM     90  C   UNL A   1      46.691  31.986  28.814  1.00  0.00     0.041 A 
ATOM     91  F   UNL A   1      45.730  30.974  30.652  1.00  0.00    -0.206 F 
ATOM     92  C   UNL A   1      46.595  32.671  27.618  1.00  0.00     0.022 A 
BRANCH  89  93
ATOM     93  S   UNL A   1      45.241  33.856  25.523  1.00  0.00     0.124 S 
ATOM     94  O   UNL A   1      46.647  34.097  25.222  1.00  0.00    -0.237 OA
ATOM     95  O   UNL A   1      44.525  32.966  24.616  1.00  0.00    -0.237 OA
ATOM     96  O   UNL A   1      44.488  35.045  25.928  1.00  0.00    -0.744 OA
ENDBRANCH  89  93
ENDBRANCH  62  86
BRANCH  74  97
ATOM     97  C   UNL A   1      38.266  31.068  31.100  1.00  0.00     0.023 A 
ATOM     98  C   UNL A   1      37.232  31.677  30.352  1.00  0.00     0.031 A 
ATOM     99  C   UNL A   1      38.560  29.721  30.817  1.00  0.00     0.131 A 
ATOM    100  C   UNL A   1      36.537  30.937  29.372  1.00  0.00     0.055 A 
ATOM    101  C   UNL A   1      37.888  29.001  29.830  1.00  0.00     0.041 A 
ATOM    102  F   UNL A   1      39.549  29.088  31.471  1.00  0.00    -0.206 F 
ATOM    103  C   UNL A   1      36.870  29.605  29.106  1.00  0.00     0.022 A 
BRANCH 100 104
ATOM    104  S   UNL A   1      35.171  31.688  28.427  1.00  0.00     0.124 S 
ATOM    105  O   UNL A   1      34.613  30.564  27.685  1.00  0.00    -0.237 OA
ATOM    106  O   UNL A   1      34.326  32.243  29.482  1.00  0.00    -0.237 OA
ATOM    107  O   UNL A   1      35.843  32.691  27.597  1.00  0.00    -0.744 OA
ENDBRANCH 100 104
ENDBRANCH  74  97
ENDBRANCH  48  49
ENDBRANCH  41  43
ENDBRANCH  40  41
ENDBRANCH  39  40
ENDBRANCH  38  39
ENDBRANCH  37  38
ENDBRANCH  36  37
ENDBRANCH   1  36
TORSDOF 26
ENDMDL
MODEL 2
REMARK VINA RESULT:      -7.8      8.563     14.539
REMARK SMILES NS(=O)(=O)c1ccc(-n2nc(C(F)(F)F)cc2-c2ccc(CC(=O)OCCOCCOCCOC(=O)c3ccc(-c4c5nc(c(-c6cc(S(=O)(=O)[O-])ccc6F)c6ccc([nH]6)c(-c6cc(S(=O)(=O)[O-])ccc6F)c6nc(c(-c7cc(S(=O)(=O)[O-])ccc7F)c7ccc4[nH]7)C=C6)C=C5)cc3)cc2)cc1
REMARK SMILES IDX 29 1 28 2 27 3 26 4 25 5 23 6 24 7 22 8 21 9 18 10 19 11
REMARK SMILES IDX 101 12 20 13 100 14 17 15 9 16 10 17 11 18 16 19 8 20 5 21
REMARK SMILES IDX 6 22 103 23 7 24 102 25 2 26 3 27 4 28 1 29 12 32 13 33
REMARK SMILES IDX 14 34 15 35 30 36 31 37 32 38 33 39 34 40 35 41 36 42 37 43
REMARK SMILES IDX 38 44 99 45 39 46 98 47 40 48 41 49 42 50 92 51 43 52 97 53
REMARK SMILES IDX 91 54 93 55 44 56 96 57 90 58 89 59 45 61 77 62 57 63 76 64
REMARK SMILES IDX 58 65 61 66 75 67 94 68 59 69 60 70 74 72 95 73 62 74 46 75
REMARK SMILES IDX 47 76 55 77 48 78 54 79 56 80 53 81 49 82 50 83 51 84 52 85
REMARK SMILES IDX 78 86 79 87 87 88 80 89 86 90 88 91 85 92 81 93 82 94 83 95
REMARK SMILES IDX 84 96 63 97 64 98 72 99 65 100 71 101 73 102 70 103 66 104
REMARK SMILES IDX 67 105 68 106 69 107
REMARK H PARENT 1 30 1 31 93 60 61 71
REMARK Flexibility Score: inf
ROOT
ATOM      1  C   UNL A   1      44.493  36.409  26.690  1.00  0.00     0.188 C 
ENDROOT
BRANCH   1   2
ATOM      2  O   UNL A   1      45.510  36.798  27.587  1.00  0.00    -0.376 OA
BRANCH   2   3
ATOM      3  C   UNL A   1      46.225  37.993  27.365  1.00  0.00     0.202 C 
BRANCH   3   4
ATOM      4  C   UNL A   1      45.847  38.982  26.241  1.00  0.00     0.261 C 
BRANCH   4   5
ATOM      5  O   UNL A   1      45.402  40.307  26.620  1.00  0.00    -0.463 OA
BRANCH   5   6
ATOM      6  C   UNL A   1      44.673  41.003  25.716  1.00  0.00     0.310 C 
ATOM      7  O   UNL A   1      43.526  40.686  25.401  1.00  0.00    -0.252 OA
BRANCH   6   8
ATOM      8  C   UNL A   1      45.308  42.248  25.101  1.00  0.00     0.158 C 
BRANCH   8   9
ATOM      9  C   UNL A   1      44.952  42.802  23.727  1.00  0.00    -0.037 A 
ATOM     10  C   UNL A   1      44.353  43.868  21.153  1.00  0.00     0.000 A 
ATOM     11  C   UNL A   1      45.501  43.100  21.352  1.00  0.00     0.010 A 
ATOM     12  C   UNL A   1      43.539  44.148  22.259  1.00  0.00     0.010 A 
ATOM     13  C   UNL A   1      45.817  42.613  22.630  1.00  0.00     0.005 A 
ATOM     14  C   UNL A   1      43.818  43.597  23.523  1.00  0.00     0.005 A 
BRANCH  10  15
ATOM     15  C   UNL A   1      44.078  44.446  19.835  1.00  0.00     0.075 A 
ATOM     16  N   UNL A   1      44.675  45.580  19.284  1.00  0.00    -0.233 N 
ATOM     17  N   UNL A   1      44.023  45.993  18.162  1.00  0.00    -0.163 NA
ATOM     18  C   UNL A   1      43.099  45.052  17.911  1.00  0.00     0.167 A 
ATOM     19  C   UNL A   1      43.067  44.098  18.955  1.00  0.00     0.064 A 
BRANCH  16  20
ATOM     20  C   UNL A   1      45.897  46.225  19.621  1.00  0.00     0.065 A 
ATOM     21  C   UNL A   1      48.203  47.689  20.229  1.00  0.00     0.082 A 
ATOM     22  C   UNL A   1      48.115  46.990  19.019  1.00  0.00     0.024 A 
ATOM     23  C   UNL A   1      47.142  47.660  21.136  1.00  0.00     0.024 A 
ATOM     24  C   UNL A   1      46.976  46.226  18.731  1.00  0.00     0.030 A 
ATOM     25  C   UNL A   1      45.973  46.963  20.814  1.00  0.00     0.030 A 
BRANCH  21  26
ATOM     26  S   UNL A   1      49.670  48.596  20.636  1.00  0.00     0.238 S 
ATOM     27  O   UNL A   1      50.820  47.710  20.563  1.00  0.00    -0.207 OA
ATOM     28  O   UNL A   1      49.405  49.451  21.755  1.00  0.00    -0.207 OA
BRANCH  26  29
ATOM     29  N   UNL A   1      49.916  49.641  19.329  1.00  0.00    -0.225 NA
ATOM     30  H   UNL A   1      49.347  49.338  18.539  1.00  0.00     0.137 HD
ATOM     31  H   UNL A   1      50.901  49.627  19.062  1.00  0.00     0.137 HD
ENDBRANCH  26  29
ENDBRANCH  21  26
ENDBRANCH  16  20
BRANCH  18  32
ATOM     32  C   UNL A   1      42.251  45.053  16.666  1.00  0.00     0.435 C 
ATOM     33  F   UNL A   1      40.974  44.644  16.872  1.00  0.00    -0.164 F 
ATOM     34  F   UNL A   1      42.188  46.287  16.094  1.00  0.00    -0.164 F 
ATOM     35  F   UNL A   1      42.768  44.229  15.708  1.00  0.00    -0.164 F 
ENDBRANCH  18  32
ENDBRANCH  10  15
ENDBRANCH   8   9
ENDBRANCH   6   8
ENDBRANCH   5   6
ENDBRANCH   4   5
ENDBRANCH   3   4
ENDBRANCH   2   3
ENDBRANCH   1   2
BRANCH   1  36
ATOM     36  C   UNL A   1      43.031  36.807  26.906  1.00  0.00     0.188 C 
BRANCH  36  37
ATOM     37  O   UNL A   1      42.542  37.355  28.105  1.00  0.00    -0.376 OA
BRANCH  37  38
ATOM     38  C   UNL A   1      42.667  38.707  28.478  1.00  0.00     0.202 C 
BRANCH  38  39
ATOM     39  C   UNL A   1      43.500  39.195  29.640  1.00  0.00     0.261 C 
BRANCH  39  40
ATOM     40  O   UNL A   1      44.364  38.224  30.148  1.00  0.00    -0.460 OA
BRANCH  40  41
ATOM     41  C   UNL A   1      44.149  37.968  31.456  1.00  0.00     0.338 C 
ATOM     42  O   UNL A   1      43.916  38.763  32.349  1.00  0.00    -0.246 OA
BRANCH  41  43
ATOM     43  C   UNL A   1      44.317  36.533  31.626  1.00  0.00     0.060 A 
ATOM     44  C   UNL A   1      44.491  35.801  30.454  1.00  0.00     0.016 A 
ATOM     45  C   UNL A   1      43.844  35.982  32.826  1.00  0.00     0.016 A 
ATOM     46  C   UNL A   1      43.892  34.572  30.399  1.00  0.00     0.010 A 
ATOM     47  C   UNL A   1      43.191  34.795  32.748  1.00  0.00     0.010 A 
ATOM     48  C   UNL A   1      43.153  34.161  31.511  1.00  0.00    -0.014 A 
BRANCH  48  49
ATOM     49  C   UNL A   1      42.390  32.950  31.420  1.00  0.00     0.031 A 
ATOM     50  C   UNL A   1      40.970  33.206  31.708  1.00  0.00     0.074 A 
ATOM     51  C   UNL A   1      42.938  31.813  30.962  1.00  0.00     0.049 A 
ATOM     52  N   UNL A   1      40.337  32.902  32.790  1.00  0.00    -0.248 NA
ATOM     53  C   UNL A   1      40.249  34.159  30.842  1.00  0.00     0.031 C 
ATOM     54  C   UNL A   1      44.274  31.599  30.403  1.00  0.00     0.029 A 
ATOM     55  N   UNL A   1      42.343  30.612  30.783  1.00  0.00    -0.354 N 
ATOM     56  C   UNL A   1      39.049  33.366  32.580  1.00  0.00     0.074 A 
ATOM     57  C   UNL A   1      39.151  34.373  31.564  1.00  0.00     0.031 C 
ATOM     58  C   UNL A   1      44.284  30.427  29.727  1.00  0.00     0.029 A 
ATOM     59  C   UNL A   1      42.994  29.774  29.888  1.00  0.00     0.049 A 
ATOM     60  H   UNL A   1      41.515  30.353  31.248  1.00  0.00     0.167 HD
ATOM     61  C   UNL A   1      37.981  32.634  32.990  1.00  0.00     0.034 A 
ATOM     62  C   UNL A   1      42.435  28.709  29.249  1.00  0.00     0.034 A 
ATOM     63  C   UNL A   1      38.386  31.642  33.968  1.00  0.00     0.049 A 
ATOM     64  C   UNL A   1      41.239  28.319  30.057  1.00  0.00     0.074 A 
ATOM     65  C   UNL A   1      39.076  31.714  35.166  1.00  0.00     0.029 A 
ATOM     66  N   UNL A   1      38.479  30.326  33.565  1.00  0.00    -0.354 N 
ATOM     67  N   UNL A   1      41.326  27.866  31.283  1.00  0.00    -0.248 NA
ATOM     68  C   UNL A   1      39.960  28.942  29.731  1.00  0.00     0.031 C 
ATOM     69  C   UNL A   1      39.961  30.596  35.145  1.00  0.00     0.029 A 
ATOM     70  C   UNL A   1      39.691  29.842  34.001  1.00  0.00     0.049 A 
ATOM     71  H   UNL A   1      37.801  29.823  33.058  1.00  0.00     0.167 HD
ATOM     72  C   UNL A   1      40.321  28.516  31.989  1.00  0.00     0.074 A 
ATOM     73  C   UNL A   1      39.459  29.102  30.962  1.00  0.00     0.031 C 
ATOM     74  C   UNL A   1      40.448  28.800  33.324  1.00  0.00     0.034 A 
BRANCH  61  75
ATOM     75  C   UNL A   1      36.687  32.539  32.216  1.00  0.00     0.023 A 
ATOM     76  C   UNL A   1      36.757  31.906  30.965  1.00  0.00     0.031 A 
ATOM     77  C   UNL A   1      35.488  33.246  32.480  1.00  0.00     0.131 A 
ATOM     78  C   UNL A   1      35.743  32.085  30.012  1.00  0.00     0.055 A 
ATOM     79  C   UNL A   1      34.449  33.357  31.554  1.00  0.00     0.041 A 
ATOM     80  F   UNL A   1      35.274  33.948  33.597  1.00  0.00    -0.206 F 
ATOM     81  C   UNL A   1      34.587  32.805  30.296  1.00  0.00     0.022 A 
BRANCH  78  82
ATOM     82  S   UNL A   1      36.058  31.509  28.329  1.00  0.00     0.124 S 
ATOM     83  O   UNL A   1      35.319  30.251  28.311  1.00  0.00    -0.237 OA
ATOM     84  O   UNL A   1      35.499  32.597  27.534  1.00  0.00    -0.237 OA
ATOM     85  O   UNL A   1      37.513  31.382  28.283  1.00  0.00    -0.744 OA
ENDBRANCH  78  82
ENDBRANCH  61  75
BRANCH  62  86
ATOM     86  C   UNL A   1      42.671  28.319  27.821  1.00  0.00     0.023 A 
ATOM     87  C   UNL A   1      43.544  27.278  27.435  1.00  0.00     0.031 A 
ATOM     88  C   UNL A   1      41.859  28.860  26.794  1.00  0.00     0.131 A 
ATOM     89  C   UNL A   1      43.589  26.844  26.083  1.00  0.00     0.055 A 
ATOM     90  C   UNL A   1      41.920  28.440  25.463  1.00  0.00     0.041 A 
ATOM     91  F   UNL A   1      40.906  29.767  27.056  1.00  0.00    -0.206 F 
ATOM     92  C   UNL A   1      42.782  27.423  25.102  1.00  0.00     0.022 A 
BRANCH  89  93
ATOM     93  S   UNL A   1      44.646  25.443  25.584  1.00  0.00     0.124 S 
ATOM     94  O   UNL A   1      45.695  26.101  24.815  1.00  0.00    -0.237 OA
ATOM     95  O   UNL A   1      45.040  24.872  26.867  1.00  0.00    -0.237 OA
ATOM     96  O   UNL A   1      43.746  24.599  24.795  1.00  0.00    -0.744 OA
ENDBRANCH  89  93
ENDBRANCH  62  86
BRANCH  74  97
ATOM     97  C   UNL A   1      41.580  28.165  34.115  1.00  0.00     0.023 A 
ATOM     98  C   UNL A   1      41.569  26.855  34.647  1.00  0.00     0.031 A 
ATOM     99  C   UNL A   1      42.789  28.883  34.192  1.00  0.00     0.131 A 
ATOM    100  C   UNL A   1      42.737  26.318  35.230  1.00  0.00     0.055 A 
ATOM    101  C   UNL A   1      43.947  28.339  34.745  1.00  0.00     0.041 A 
ATOM    102  F   UNL A   1      42.878  30.123  33.681  1.00  0.00    -0.206 F 
ATOM    103  C   UNL A   1      43.924  27.055  35.272  1.00  0.00     0.022 A 
BRANCH 100 104
ATOM    104  S   UNL A   1      42.734  24.648  35.962  1.00  0.00     0.124 S 
ATOM    105  O   UNL A   1      42.751  23.768  34.800  1.00  0.00    -0.237 OA
ATOM    106  O   UNL A   1      43.947  24.660  36.775  1.00  0.00    -0.237 OA
ATOM    107  O   UNL A   1      41.488  24.617  36.731  1.00  0.00    -0.744 OA
ENDBRANCH 100 104
ENDBRANCH  74  97
ENDBRANCH  48  49
ENDBRANCH  41  43
ENDBRANCH  40  41
ENDBRANCH  39  40
ENDBRANCH  38  39
ENDBRANCH  37  38
ENDBRANCH  36  37
ENDBRANCH   1  36
TORSDOF 26
ENDMDL
MODEL 3
REMARK VINA RESULT:      -7.8      4.234     12.851
REMARK SMILES NS(=O)(=O)c1ccc(-n2nc(C(F)(F)F)cc2-c2ccc(CC(=O)OCCOCCOCCOC(=O)c3ccc(-c4c5nc(c(-c6cc(S(=O)(=O)[O-])ccc6F)c6ccc([nH]6)c(-c6cc(S(=O)(=O)[O-])ccc6F)c6nc(c(-c7cc(S(=O)(=O)[O-])ccc7F)c7ccc4[nH]7)C=C6)C=C5)cc3)cc2)cc1
REMARK SMILES IDX 29 1 28 2 27 3 26 4 25 5 23 6 24 7 22 8 21 9 18 10 19 11
REMARK SMILES IDX 101 12 20 13 100 14 17 15 9 16 10 17 11 18 16 19 8 20 5 21
REMARK SMILES IDX 6 22 103 23 7 24 102 25 2 26 3 27 4 28 1 29 12 32 13 33
REMARK SMILES IDX 14 34 15 35 30 36 31 37 32 38 33 39 34 40 35 41 36 42 37 43
REMARK SMILES IDX 38 44 99 45 39 46 98 47 40 48 41 49 42 50 92 51 43 52 97 53
REMARK SMILES IDX 91 54 93 55 44 56 96 57 90 58 89 59 45 61 77 62 57 63 76 64
REMARK SMILES IDX 58 65 61 66 75 67 94 68 59 69 60 70 74 72 95 73 62 74 46 75
REMARK SMILES IDX 47 76 55 77 48 78 54 79 56 80 53 81 49 82 50 83 51 84 52 85
REMARK SMILES IDX 78 86 79 87 87 88 80 89 86 90 88 91 85 92 81 93 82 94 83 95
REMARK SMILES IDX 84 96 63 97 64 98 72 99 65 100 71 101 73 102 70 103 66 104
REMARK SMILES IDX 67 105 68 106 69 107
REMARK H PARENT 1 30 1 31 93 60 61 71
REMARK Flexibility Score: inf
ROOT
ATOM      1  C   UNL A   1      42.047  41.783  31.730  1.00  0.00     0.188 C 
ENDROOT
BRANCH   1   2
ATOM      2  O   UNL A   1      42.435  40.936  32.790  1.00  0.00    -0.376 OA
BRANCH   2   3
ATOM      3  C   UNL A   1      43.588  40.133  32.663  1.00  0.00     0.202 C 
BRANCH   3   4
ATOM      4  C   UNL A   1      44.072  39.203  33.797  1.00  0.00     0.261 C 
BRANCH   4   5
ATOM      5  O   UNL A   1      43.487  37.882  33.893  1.00  0.00    -0.463 OA
BRANCH   5   6
ATOM      6  C   UNL A   1      44.333  36.826  33.928  1.00  0.00     0.310 C 
ATOM      7  O   UNL A   1      45.047  36.513  32.976  1.00  0.00    -0.252 OA
BRANCH   6   8
ATOM      8  C   UNL A   1      44.412  36.025  35.227  1.00  0.00     0.158 C 
BRANCH   8   9
ATOM      9  C   UNL A   1      43.211  35.706  36.110  1.00  0.00    -0.037 A 
ATOM     10  C   UNL A   1      40.966  35.041  37.733  1.00  0.00     0.000 A 
ATOM     11  C   UNL A   1      42.110  34.241  37.745  1.00  0.00     0.010 A 
ATOM     12  C   UNL A   1      40.929  36.139  36.864  1.00  0.00     0.010 A 
ATOM     13  C   UNL A   1      43.197  34.547  36.912  1.00  0.00     0.005 A 
ATOM     14  C   UNL A   1      42.049  36.485  36.084  1.00  0.00     0.005 A 
BRANCH  10  15
ATOM     15  C   UNL A   1      39.802  34.665  38.541  1.00  0.00     0.075 A 
ATOM     16  N   UNL A   1      39.341  35.315  39.686  1.00  0.00    -0.233 N 
ATOM     17  N   UNL A   1      38.402  34.574  40.337  1.00  0.00    -0.163 NA
ATOM     18  C   UNL A   1      38.155  33.521  39.543  1.00  0.00     0.167 A 
ATOM     19  C   UNL A   1      39.041  33.514  38.439  1.00  0.00     0.064 A 
BRANCH  16  20
ATOM     20  C   UNL A   1      39.584  36.638  40.147  1.00  0.00     0.065 A 
ATOM     21  C   UNL A   1      40.141  39.290  40.849  1.00  0.00     0.082 A 
ATOM     22  C   UNL A   1      41.016  38.265  41.228  1.00  0.00     0.024 A 
ATOM     23  C   UNL A   1      38.988  38.994  40.119  1.00  0.00     0.024 A 
ATOM     24  C   UNL A   1      40.719  36.933  40.909  1.00  0.00     0.030 A 
ATOM     25  C   UNL A   1      38.732  37.674  39.732  1.00  0.00     0.030 A 
BRANCH  21  26
ATOM     26  S   UNL A   1      40.469  40.968  41.312  1.00  0.00     0.238 S 
ATOM     27  O   UNL A   1      41.841  41.303  40.971  1.00  0.00    -0.207 OA
ATOM     28  O   UNL A   1      39.892  41.227  42.599  1.00  0.00    -0.207 OA
BRANCH  26  29
ATOM     29  N   UNL A   1      39.571  41.906  40.229  1.00  0.00    -0.225 NA
ATOM     30  H   UNL A   1      40.167  42.192  39.451  1.00  0.00     0.137 HD
ATOM     31  H   UNL A   1      39.218  42.736  40.708  1.00  0.00     0.137 HD
ENDBRANCH  26  29
ENDBRANCH  21  26
ENDBRANCH  16  20
BRANCH  18  32
ATOM     32  C   UNL A   1      37.064  32.522  39.827  1.00  0.00     0.435 C 
ATOM     33  F   UNL A   1      36.864  32.289  41.149  1.00  0.00    -0.164 F 
ATOM     34  F   UNL A   1      35.868  32.913  39.305  1.00  0.00    -0.164 F 
ATOM     35  F   UNL A   1      37.335  31.310  39.261  1.00  0.00    -0.164 F 
ENDBRANCH  18  32
ENDBRANCH  10  15
ENDBRANCH   8   9
ENDBRANCH   6   8
ENDBRANCH   5   6
ENDBRANCH   4   5
ENDBRANCH   3   4
ENDBRANCH   2   3
ENDBRANCH   1   2
BRANCH   1  36
ATOM     36  C   UNL A   1      41.525  41.229  30.404  1.00  0.00     0.188 C 
BRANCH  36  37
ATOM     37  O   UNL A   1      42.321  41.080  29.254  1.00  0.00    -0.376 OA
BRANCH  37  38
ATOM     38  C   UNL A   1      42.002  40.255  28.159  1.00  0.00     0.202 C 
BRANCH  38  39
ATOM     39  C   UNL A   1      41.970  38.745  28.214  1.00  0.00     0.261 C 
BRANCH  39  40
ATOM     40  O   UNL A   1      42.738  38.139  27.217  1.00  0.00    -0.460 OA
BRANCH  40  41
ATOM     41  C   UNL A   1      44.042  38.041  27.552  1.00  0.00     0.338 C 
ATOM     42  O   UNL A   1      44.909  38.890  27.458  1.00  0.00    -0.246 OA
BRANCH  41  43
ATOM     43  C   UNL A   1      44.248  36.671  27.998  1.00  0.00     0.060 A 
ATOM     44  C   UNL A   1      43.834  35.678  27.112  1.00  0.00     0.016 A 
ATOM     45  C   UNL A   1      44.391  36.473  29.378  1.00  0.00     0.016 A 
ATOM     46  C   UNL A   1      43.262  34.563  27.659  1.00  0.00     0.010 A 
ATOM     47  C   UNL A   1      43.760  35.400  29.919  1.00  0.00     0.010 A 
ATOM     48  C   UNL A   1      43.130  34.517  29.050  1.00  0.00    -0.014 A 
BRANCH  48  49
ATOM     49  C   UNL A   1      42.396  33.434  29.636  1.00  0.00     0.031 A 
ATOM     50  C   UNL A   1      41.074  33.888  30.094  1.00  0.00     0.074 A 
ATOM     51  C   UNL A   1      42.852  32.172  29.582  1.00  0.00     0.049 A 
ATOM     52  N   UNL A   1      40.712  34.099  31.314  1.00  0.00    -0.248 NA
ATOM     53  C   UNL A   1      40.152  34.455  29.091  1.00  0.00     0.031 C 
ATOM     54  C   UNL A   1      44.030  31.651  28.886  1.00  0.00     0.029 A 
ATOM     55  N   UNL A   1      42.260  31.049  30.050  1.00  0.00    -0.354 N 
ATOM     56  C   UNL A   1      39.399  34.530  31.217  1.00  0.00     0.074 A 
ATOM     57  C   UNL A   1      39.243  35.025  29.880  1.00  0.00     0.031 C 
ATOM     58  C   UNL A   1      43.914  30.308  28.771  1.00  0.00     0.029 A 
ATOM     59  C   UNL A   1      42.711  29.874  29.464  1.00  0.00     0.049 A 
ATOM     60  H   UNL A   1      41.567  31.064  30.749  1.00  0.00     0.167 HD
ATOM     61  C   UNL A   1      38.471  34.109  32.115  1.00  0.00     0.034 A 
ATOM     62  C   UNL A   1      42.046  28.685  29.460  1.00  0.00     0.034 A 
ATOM     63  C   UNL A   1      39.112  33.575  33.301  1.00  0.00     0.049 A 
ATOM     64  C   UNL A   1      41.076  28.747  30.596  1.00  0.00     0.074 A 
ATOM     65  C   UNL A   1      40.056  34.078  34.181  1.00  0.00     0.029 A 
ATOM     66  N   UNL A   1      39.142  32.206  33.469  1.00  0.00    -0.354 N 
ATOM     67  N   UNL A   1      41.451  28.828  31.849  1.00  0.00    -0.248 NA
ATOM     68  C   UNL A   1      39.742  29.274  30.329  1.00  0.00     0.031 C 
ATOM     69  C   UNL A   1      40.939  32.987  34.431  1.00  0.00     0.029 A 
ATOM     70  C   UNL A   1      40.433  31.854  33.790  1.00  0.00     0.049 A 
ATOM     71  H   UNL A   1      38.379  31.591  33.377  1.00  0.00     0.167 HD
ATOM     72  C   UNL A   1      40.619  29.781  32.423  1.00  0.00     0.074 A 
ATOM     73  C   UNL A   1      39.531  29.959  31.460  1.00  0.00     0.031 C 
ATOM     74  C   UNL A   1      41.040  30.574  33.458  1.00  0.00     0.034 A 
BRANCH  61  75
ATOM     75  C   UNL A   1      37.037  33.801  31.751  1.00  0.00     0.023 A 
ATOM     76  C   UNL A   1      36.839  33.075  30.567  1.00  0.00     0.031 A 
ATOM     77  C   UNL A   1      35.876  34.388  32.313  1.00  0.00     0.131 A 
ATOM     78  C   UNL A   1      35.585  33.054  29.937  1.00  0.00     0.055 A 
ATOM     79  C   UNL A   1      34.615  34.300  31.721  1.00  0.00     0.041 A 
ATOM     80  F   UNL A   1      35.891  35.155  33.407  1.00  0.00    -0.206 F 
ATOM     81  C   UNL A   1      34.469  33.661  30.506  1.00  0.00     0.022 A 
BRANCH  78  82
ATOM     82  S   UNL A   1      35.491  32.375  28.266  1.00  0.00     0.124 S 
ATOM     83  O   UNL A   1      35.174  33.568  27.487  1.00  0.00    -0.237 OA
ATOM     84  O   UNL A   1      36.833  31.828  28.093  1.00  0.00    -0.237 OA
ATOM     85  O   UNL A   1      34.419  31.387  28.364  1.00  0.00    -0.744 OA
ENDBRANCH  78  82
ENDBRANCH  61  75
BRANCH  62  86
ATOM     86  C   UNL A   1      41.959  27.731  28.308  1.00  0.00     0.023 A 
ATOM     87  C   UNL A   1      42.391  26.388  28.378  1.00  0.00     0.031 A 
ATOM     88  C   UNL A   1      41.242  28.091  27.140  1.00  0.00     0.131 A 
ATOM     89  C   UNL A   1      42.121  25.491  27.310  1.00  0.00     0.055 A 
ATOM     90  C   UNL A   1      40.993  27.208  26.087  1.00  0.00     0.041 A 
ATOM     91  F   UNL A   1      40.674  29.300  27.009  1.00  0.00    -0.206 F 
ATOM     92  C   UNL A   1      41.426  25.899  26.170  1.00  0.00     0.022 A 
BRANCH  89  93
ATOM     93  S   UNL A   1      42.595  23.732  27.421  1.00  0.00     0.124 S 
ATOM     94  O   UNL A   1      41.520  23.073  26.690  1.00  0.00    -0.237 OA
ATOM     95  O   UNL A   1      43.912  23.720  26.795  1.00  0.00    -0.237 OA
ATOM     96  O   UNL A   1      42.605  23.471  28.863  1.00  0.00    -0.744 OA
ENDBRANCH  89  93
ENDBRANCH  62  86
BRANCH  74  97
ATOM     97  C   UNL A   1      42.338  30.236  34.173  1.00  0.00     0.023 A 
ATOM     98  C   UNL A   1      42.477  29.272  35.199  1.00  0.00     0.031 A 
ATOM     99  C   UNL A   1      43.517  30.819  33.671  1.00  0.00     0.131 A 
ATOM    100  C   UNL A   1      43.759  28.933  35.682  1.00  0.00     0.055 A 
ATOM    101  C   UNL A   1      44.783  30.462  34.133  1.00  0.00     0.041 A 
ATOM    102  F   UNL A   1      43.460  31.722  32.678  1.00  0.00    -0.206 F 
ATOM    103  C   UNL A   1      44.909  29.520  35.145  1.00  0.00     0.022 A 
BRANCH 100 104
ATOM    104  S   UNL A   1      43.960  27.726  37.034  1.00  0.00     0.124 S 
ATOM    105  O   UNL A   1      44.926  26.774  36.498  1.00  0.00    -0.237 OA
ATOM    106  O   UNL A   1      44.428  28.563  38.135  1.00  0.00    -0.237 OA
ATOM    107  O   UNL A   1      42.610  27.187  37.211  1.00  0.00    -0.744 OA
ENDBRANCH 100 104
ENDBRANCH  74  97
ENDBRANCH  48  49
ENDBRANCH  41  43
ENDBRANCH  40  41
ENDBRANCH  39  40
ENDBRANCH  38  39
ENDBRANCH  37  38
ENDBRANCH  36  37
ENDBRANCH   1  36
TORSDOF 26
ENDMDL
