MODEL 1
REMARK VINA RESULT:     -11.9      0.000      0.000
REMARK SMILES Cc1cc(=O)n2cc(-c3ccccc3)nc2n1[C@H](C)C(=O)OCCOCCOCCOC(=O)c1ccc(-c2c3nc(c(-c4cc(S(=O)(=O)[O-])ccc4F)c4ccc([nH]4)c(-c4cc(S(=O)(=O)[O-])ccc4F)c4nc(c(-c5cc(S(=O)(=O)[O-])ccc5F)c5ccc2[nH]5)C=C4)C=C3)cc1
REMARK SMILES IDX 27 1 26 2 25 3 24 4 23 5 22 6 20 7 21 8 18 9 19 10 17 11
REMARK SMILES IDX 1 12 2 13 3 14 4 15 16 16 5 17 6 18 15 19 7 20 8 21 9 22
REMARK SMILES IDX 10 23 14 24 11 25 13 26 12 27 28 28 29 29 30 30 31 31 32 32
REMARK SMILES IDX 33 33 34 34 35 35 96 36 36 37 95 38 37 39 38 40 39 41 89 42
REMARK SMILES IDX 40 43 94 44 88 45 90 46 41 47 93 48 87 49 86 50 42 52 74 53
REMARK SMILES IDX 54 54 73 55 55 56 58 57 72 58 91 59 56 60 57 61 71 63 92 64
REMARK SMILES IDX 59 65 43 66 44 67 52 68 45 69 51 70 53 71 50 72 46 73 47 74
REMARK SMILES IDX 48 75 49 76 75 77 76 78 84 79 77 80 83 81 85 82 82 83 78 84
REMARK SMILES IDX 79 85 80 86 81 87 60 88 61 89 69 90 62 91 68 92 70 93 67 94
REMARK SMILES IDX 63 95 64 96 65 97 66 98
REMARK H PARENT 90 51 58 62
REMARK Flexibility Score: inf
ROOT
ATOM      1  C   UNL A   1      34.432  33.956  29.647  1.00  0.00     0.188 C 
ENDROOT
BRANCH   1   2
ATOM      2  C   UNL A   1      33.983  33.463  28.263  1.00  0.00     0.188 C 
BRANCH   2   3
ATOM      3  O   UNL A   1      34.708  32.465  27.592  1.00  0.00    -0.376 OA
BRANCH   3   4
ATOM      4  C   UNL A   1      34.245  31.127  27.641  1.00  0.00     0.202 C 
BRANCH   4   5
ATOM      5  C   UNL A   1      32.919  30.677  26.998  1.00  0.00     0.261 C 
BRANCH   5   6
ATOM      6  O   UNL A   1      32.599  29.280  27.099  1.00  0.00    -0.462 OA
BRANCH   6   7
ATOM      7  C   UNL A   1      33.146  28.454  26.169  1.00  0.00     0.329 C 
ATOM      8  O   UNL A   1      34.170  28.728  25.539  1.00  0.00    -0.250 OA
BRANCH   7   9
ATOM      9  C   UNL A   1      32.392  27.115  25.929  1.00  0.00     0.197 C 
ATOM     10  C   UNL A   1      31.058  26.801  26.617  1.00  0.00     0.044 C 
BRANCH   9  11
ATOM     11  N   UNL A   1      32.197  26.952  24.463  1.00  0.00    -0.301 N 
ATOM     12  C   UNL A   1      30.691  28.971  24.220  1.00  0.00     0.065 C 
ATOM     13  C   UNL A   1      31.393  27.759  23.650  1.00  0.00     0.024 A 
ATOM     14  C   UNL A   1      31.237  27.475  22.341  1.00  0.00     0.093 A 
ATOM     15  C   UNL A   1      31.904  26.292  21.738  1.00  0.00     0.259 A 
ATOM     16  C   UNL A   1      32.879  25.894  23.933  1.00  0.00     0.218 A 
ATOM     17  O   UNL A   1      31.778  25.949  20.573  1.00  0.00    -0.269 OA
ATOM     18  N   UNL A   1      32.714  25.570  22.610  1.00  0.00    -0.251 N 
ATOM     19  N   UNL A   1      33.686  25.059  24.538  1.00  0.00    -0.212 NA
ATOM     20  C   UNL A   1      33.462  24.427  22.388  1.00  0.00     0.127 A 
ATOM     21  C   UNL A   1      34.039  24.135  23.602  1.00  0.00     0.091 A 
BRANCH  21  22
ATOM     22  C   UNL A   1      34.859  23.000  23.953  1.00  0.00     0.002 A 
ATOM     23  C   UNL A   1      36.249  23.041  23.819  1.00  0.00     0.010 A 
ATOM     24  C   UNL A   1      34.257  21.884  24.552  1.00  0.00     0.010 A 
ATOM     25  C   UNL A   1      37.024  21.969  24.273  1.00  0.00     0.001 A 
ATOM     26  C   UNL A   1      35.032  20.817  25.006  1.00  0.00     0.001 A 
ATOM     27  C   UNL A   1      36.418  20.860  24.865  1.00  0.00     0.000 A 
ENDBRANCH  21  22
ENDBRANCH   9  11
ENDBRANCH   7   9
ENDBRANCH   6   7
ENDBRANCH   5   6
ENDBRANCH   4   5
ENDBRANCH   3   4
ENDBRANCH   2   3
ENDBRANCH   1   2
BRANCH   1  28
ATOM     28  O   UNL A   1      34.391  33.215  30.854  1.00  0.00    -0.376 OA
BRANCH  28  29
ATOM     29  C   UNL A   1      35.114  32.037  31.181  1.00  0.00     0.202 C 
BRANCH  29  30
ATOM     30  C   UNL A   1      36.560  31.771  30.770  1.00  0.00     0.261 C 
BRANCH  30  31
ATOM     31  O   UNL A   1      36.708  30.614  29.996  1.00  0.00    -0.460 OA
BRANCH  31  32
ATOM     32  C   UNL A   1      37.053  29.547  30.748  1.00  0.00     0.338 C 
ATOM     33  O   UNL A   1      36.777  29.341  31.914  1.00  0.00    -0.246 OA
BRANCH  32  34
ATOM     34  C   UNL A   1      37.789  28.628  29.881  1.00  0.00     0.060 A 
ATOM     35  C   UNL A   1      38.407  27.562  30.527  1.00  0.00     0.016 A 
ATOM     36  C   UNL A   1      38.101  29.021  28.570  1.00  0.00     0.016 A 
ATOM     37  C   UNL A   1      39.604  27.152  30.016  1.00  0.00     0.010 A 
ATOM     38  C   UNL A   1      39.306  28.626  28.072  1.00  0.00     0.010 A 
ATOM     39  C   UNL A   1      40.085  27.809  28.880  1.00  0.00    -0.014 A 
BRANCH  39  40
ATOM     40  C   UNL A   1      41.468  27.614  28.551  1.00  0.00     0.031 A 
ATOM     41  C   UNL A   1      41.683  26.336  27.868  1.00  0.00     0.074 A 
ATOM     42  C   UNL A   1      42.405  28.531  28.843  1.00  0.00     0.049 A 
ATOM     43  N   UNL A   1      42.167  25.260  28.383  1.00  0.00    -0.248 NA
ATOM     44  C   UNL A   1      41.055  26.155  26.552  1.00  0.00     0.031 C 
ATOM     45  C   UNL A   1      42.236  29.905  29.319  1.00  0.00     0.029 A 
ATOM     46  N   UNL A   1      43.745  28.426  28.681  1.00  0.00    -0.354 N 
ATOM     47  C   UNL A   1      42.151  24.335  27.355  1.00  0.00     0.074 A 
ATOM     48  C   UNL A   1      41.240  24.848  26.367  1.00  0.00     0.031 C 
ATOM     49  C   UNL A   1      43.409  30.567  29.178  1.00  0.00     0.029 A 
ATOM     50  C   UNL A   1      44.430  29.634  28.731  1.00  0.00     0.049 A 
ATOM     51  H   UNL A   1      44.198  27.564  28.538  1.00  0.00     0.167 HD
ATOM     52  C   UNL A   1      43.121  23.391  27.270  1.00  0.00     0.034 A 
ATOM     53  C   UNL A   1      45.719  29.827  28.346  1.00  0.00     0.034 A 
ATOM     54  C   UNL A   1      43.799  23.223  28.537  1.00  0.00     0.049 A 
ATOM     55  C   UNL A   1      46.381  28.495  28.432  1.00  0.00     0.074 A 
ATOM     56  C   UNL A   1      43.389  22.874  29.811  1.00  0.00     0.029 A 
ATOM     57  N   UNL A   1      45.030  23.823  28.695  1.00  0.00    -0.354 N 
ATOM     58  N   UNL A   1      46.549  27.850  29.556  1.00  0.00    -0.248 NA
ATOM     59  C   UNL A   1      46.401  27.661  27.237  1.00  0.00     0.031 C 
ATOM     60  C   UNL A   1      44.154  23.698  30.689  1.00  0.00     0.029 A 
ATOM     61  C   UNL A   1      45.037  24.455  29.916  1.00  0.00     0.049 A 
ATOM     62  H   UNL A   1      45.772  23.804  28.049  1.00  0.00     0.167 HD
ATOM     63  C   UNL A   1      46.268  26.524  29.261  1.00  0.00     0.074 A 
ATOM     64  C   UNL A   1      46.274  26.454  27.800  1.00  0.00     0.031 C 
ATOM     65  C   UNL A   1      45.773  25.673  30.209  1.00  0.00     0.034 A 
BRANCH  52  66
ATOM     66  C   UNL A   1      43.703  22.926  25.959  1.00  0.00     0.023 A 
ATOM     67  C   UNL A   1      43.766  21.540  25.749  1.00  0.00     0.031 A 
ATOM     68  C   UNL A   1      44.439  23.724  25.050  1.00  0.00     0.131 A 
ATOM     69  C   UNL A   1      44.590  21.004  24.747  1.00  0.00     0.055 A 
ATOM     70  C   UNL A   1      45.203  23.188  24.012  1.00  0.00     0.041 A 
ATOM     71  F   UNL A   1      44.545  25.053  25.159  1.00  0.00    -0.206 F 
ATOM     72  C   UNL A   1      45.308  21.818  23.876  1.00  0.00     0.022 A 
BRANCH  69  73
ATOM     73  S   UNL A   1      44.825  19.213  24.708  1.00  0.00     0.124 S 
ATOM     74  O   UNL A   1      43.925  18.775  25.769  1.00  0.00    -0.237 OA
ATOM     75  O   UNL A   1      44.420  18.889  23.344  1.00  0.00    -0.237 OA
ATOM     76  O   UNL A   1      46.250  19.054  24.990  1.00  0.00    -0.744 OA
ENDBRANCH  69  73
ENDBRANCH  52  66
BRANCH  53  77
ATOM     77  C   UNL A   1      46.270  30.974  27.565  1.00  0.00     0.023 A 
ATOM     78  C   UNL A   1      45.458  31.744  26.702  1.00  0.00     0.031 A 
ATOM     79  C   UNL A   1      47.551  31.497  27.852  1.00  0.00     0.131 A 
ATOM     80  C   UNL A   1      45.928  32.973  26.183  1.00  0.00     0.055 A 
ATOM     81  C   UNL A   1      48.011  32.709  27.331  1.00  0.00     0.041 A 
ATOM     82  F   UNL A   1      48.375  30.897  28.724  1.00  0.00    -0.206 F 
ATOM     83  C   UNL A   1      47.195  33.461  26.504  1.00  0.00     0.022 A 
BRANCH  80  84
ATOM     84  S   UNL A   1      44.838  34.029  25.174  1.00  0.00     0.124 S 
ATOM     85  O   UNL A   1      45.780  34.639  24.244  1.00  0.00    -0.237 OA
ATOM     86  O   UNL A   1      43.898  33.069  24.609  1.00  0.00    -0.237 OA
ATOM     87  O   UNL A   1      44.256  34.948  26.154  1.00  0.00    -0.744 OA
ENDBRANCH  80  84
ENDBRANCH  53  77
BRANCH  65  88
ATOM     88  C   UNL A   1      45.814  26.108  31.660  1.00  0.00     0.023 A 
ATOM     89  C   UNL A   1      44.732  26.678  32.369  1.00  0.00     0.031 A 
ATOM     90  C   UNL A   1      46.973  25.781  32.387  1.00  0.00     0.131 A 
ATOM     91  C   UNL A   1      44.841  26.899  33.759  1.00  0.00     0.055 A 
ATOM     92  C   UNL A   1      47.069  25.982  33.762  1.00  0.00     0.041 A 
ATOM     93  F   UNL A   1      48.021  25.208  31.771  1.00  0.00    -0.206 F 
ATOM     94  C   UNL A   1      46.002  26.544  34.455  1.00  0.00     0.022 A 
BRANCH  91  95
ATOM     95  S   UNL A   1      43.457  27.625  34.700  1.00  0.00     0.124 S 
ATOM     96  O   UNL A   1      43.677  27.129  36.054  1.00  0.00    -0.237 OA
ATOM     97  O   UNL A   1      43.650  29.058  34.501  1.00  0.00    -0.237 OA
ATOM     98  O   UNL A   1      42.269  27.078  34.040  1.00  0.00    -0.744 OA
ENDBRANCH  91  95
ENDBRANCH  65  88
ENDBRANCH  39  40
ENDBRANCH  32  34
ENDBRANCH  31  32
ENDBRANCH  30  31
ENDBRANCH  29  30
ENDBRANCH  28  29
ENDBRANCH   1  28
TORSDOF 22
ENDMDL
MODEL 2
REMARK VINA RESULT:     -11.7      1.544      3.371
REMARK SMILES Cc1cc(=O)n2cc(-c3ccccc3)nc2n1[C@H](C)C(=O)OCCOCCOCCOC(=O)c1ccc(-c2c3nc(c(-c4cc(S(=O)(=O)[O-])ccc4F)c4ccc([nH]4)c(-c4cc(S(=O)(=O)[O-])ccc4F)c4nc(c(-c5cc(S(=O)(=O)[O-])ccc5F)c5ccc2[nH]5)C=C4)C=C3)cc1
REMARK SMILES IDX 27 1 26 2 25 3 24 4 23 5 22 6 20 7 21 8 18 9 19 10 17 11
REMARK SMILES IDX 1 12 2 13 3 14 4 15 16 16 5 17 6 18 15 19 7 20 8 21 9 22
REMARK SMILES IDX 10 23 14 24 11 25 13 26 12 27 28 28 29 29 30 30 31 31 32 32
REMARK SMILES IDX 33 33 34 34 35 35 96 36 36 37 95 38 37 39 38 40 39 41 89 42
REMARK SMILES IDX 40 43 94 44 88 45 90 46 41 47 93 48 87 49 86 50 42 52 74 53
REMARK SMILES IDX 54 54 73 55 55 56 58 57 72 58 91 59 56 60 57 61 71 63 92 64
REMARK SMILES IDX 59 65 43 66 44 67 52 68 45 69 51 70 53 71 50 72 46 73 47 74
REMARK SMILES IDX 48 75 49 76 75 77 76 78 84 79 77 80 83 81 85 82 82 83 78 84
REMARK SMILES IDX 79 85 80 86 81 87 60 88 61 89 69 90 62 91 68 92 70 93 67 94
REMARK SMILES IDX 63 95 64 96 65 97 66 98
REMARK H PARENT 90 51 58 62
REMARK Flexibility Score: inf
ROOT
ATOM      1  C   UNL A   1      34.375  33.570  29.903  1.00  0.00     0.188 C 
ENDROOT
BRANCH   1   2
ATOM      2  C   UNL A   1      34.222  33.253  28.408  1.00  0.00     0.188 C 
BRANCH   2   3
ATOM      3  O   UNL A   1      35.176  32.465  27.744  1.00  0.00    -0.376 OA
BRANCH   3   4
ATOM      4  C   UNL A   1      34.979  31.065  27.666  1.00  0.00     0.202 C 
BRANCH   4   5
ATOM      5  C   UNL A   1      33.635  30.431  27.258  1.00  0.00     0.261 C 
BRANCH   5   6
ATOM      6  O   UNL A   1      33.529  29.005  27.402  1.00  0.00    -0.462 OA
BRANCH   6   7
ATOM      7  C   UNL A   1      33.778  28.255  26.297  1.00  0.00     0.329 C 
ATOM      8  O   UNL A   1      34.508  28.628  25.376  1.00  0.00    -0.250 OA
BRANCH   7   9
ATOM      9  C   UNL A   1      33.073  26.870  26.250  1.00  0.00     0.197 C 
ATOM     10  C   UNL A   1      31.653  26.663  26.788  1.00  0.00     0.044 C 
BRANCH   9  11
ATOM     11  N   UNL A   1      33.101  26.386  24.843  1.00  0.00    -0.301 N 
ATOM     12  C   UNL A   1      34.928  24.680  25.238  1.00  0.00     0.065 C 
ATOM     13  C   UNL A   1      33.965  25.410  24.331  1.00  0.00     0.024 A 
ATOM     14  C   UNL A   1      33.947  25.099  23.019  1.00  0.00     0.093 A 
ATOM     15  C   UNL A   1      33.019  25.793  22.089  1.00  0.00     0.259 A 
ATOM     16  C   UNL A   1      32.189  27.000  24.033  1.00  0.00     0.218 A 
ATOM     17  O   UNL A   1      32.973  25.594  20.884  1.00  0.00    -0.269 OA
ATOM     18  N   UNL A   1      32.170  26.719  22.690  1.00  0.00    -0.251 N 
ATOM     19  N   UNL A   1      31.299  27.907  24.349  1.00  0.00    -0.212 NA
ATOM     20  C   UNL A   1      31.207  27.537  22.129  1.00  0.00     0.127 A 
ATOM     21  C   UNL A   1      30.697  28.264  23.181  1.00  0.00     0.091 A 
BRANCH  21  22
ATOM     22  C   UNL A   1      29.715  29.321  23.145  1.00  0.00     0.002 A 
ATOM     23  C   UNL A   1      28.500  29.159  22.476  1.00  0.00     0.010 A 
ATOM     24  C   UNL A   1      29.939  30.483  23.897  1.00  0.00     0.010 A 
ATOM     25  C   UNL A   1      27.523  30.157  22.554  1.00  0.00     0.001 A 
ATOM     26  C   UNL A   1      28.962  31.477  23.976  1.00  0.00     0.001 A 
ATOM     27  C   UNL A   1      27.754  31.313  23.302  1.00  0.00     0.000 A 
ENDBRANCH  21  22
ENDBRANCH   9  11
ENDBRANCH   7   9
ENDBRANCH   6   7
ENDBRANCH   5   6
ENDBRANCH   4   5
ENDBRANCH   3   4
ENDBRANCH   2   3
ENDBRANCH   1   2
BRANCH   1  28
ATOM     28  O   UNL A   1      35.571  33.951  30.559  1.00  0.00    -0.376 OA
BRANCH  28  29
ATOM     29  C   UNL A   1      36.867  33.389  30.411  1.00  0.00     0.202 C 
BRANCH  29  30
ATOM     30  C   UNL A   1      37.305  32.061  31.022  1.00  0.00     0.261 C 
BRANCH  30  31
ATOM     31  O   UNL A   1      37.547  31.068  30.064  1.00  0.00    -0.460 OA
BRANCH  31  32
ATOM     32  C   UNL A   1      37.098  29.861  30.468  1.00  0.00     0.338 C 
ATOM     33  O   UNL A   1      36.231  29.627  31.287  1.00  0.00    -0.246 OA
BRANCH  32  34
ATOM     34  C   UNL A   1      37.814  28.852  29.687  1.00  0.00     0.060 A 
ATOM     35  C   UNL A   1      38.410  27.836  30.428  1.00  0.00     0.016 A 
ATOM     36  C   UNL A   1      38.133  29.118  28.347  1.00  0.00     0.016 A 
ATOM     37  C   UNL A   1      39.598  27.357  29.957  1.00  0.00     0.010 A 
ATOM     38  C   UNL A   1      39.328  28.655  27.887  1.00  0.00     0.010 A 
ATOM     39  C   UNL A   1      40.091  27.898  28.766  1.00  0.00    -0.014 A 
BRANCH  39  40
ATOM     40  C   UNL A   1      41.469  27.646  28.457  1.00  0.00     0.031 A 
ATOM     41  C   UNL A   1      41.641  26.358  27.780  1.00  0.00     0.074 A 
ATOM     42  C   UNL A   1      42.439  28.524  28.761  1.00  0.00     0.049 A 
ATOM     43  N   UNL A   1      42.073  25.264  28.305  1.00  0.00    -0.248 NA
ATOM     44  C   UNL A   1      41.024  26.199  26.456  1.00  0.00     0.031 C 
ATOM     45  C   UNL A   1      42.320  29.905  29.231  1.00  0.00     0.029 A 
ATOM     46  N   UNL A   1      43.775  28.364  28.618  1.00  0.00    -0.354 N 
ATOM     47  C   UNL A   1      42.033  24.338  27.278  1.00  0.00     0.074 A 
ATOM     48  C   UNL A   1      41.158  24.885  26.277  1.00  0.00     0.031 C 
ATOM     49  C   UNL A   1      43.521  30.518  29.106  1.00  0.00     0.029 A 
ATOM     50  C   UNL A   1      44.509  29.542  28.675  1.00  0.00     0.049 A 
ATOM     51  H   UNL A   1      44.194  27.483  28.483  1.00  0.00     0.167 HD
ATOM     52  C   UNL A   1      42.965  23.354  27.209  1.00  0.00     0.034 A 
ATOM     53  C   UNL A   1      45.810  29.681  28.308  1.00  0.00     0.034 A 
ATOM     54  C   UNL A   1      43.617  23.163  28.485  1.00  0.00     0.049 A 
ATOM     55  C   UNL A   1      46.416  28.323  28.406  1.00  0.00     0.074 A 
ATOM     56  C   UNL A   1      43.175  22.834  29.755  1.00  0.00     0.029 A 
ATOM     57  N   UNL A   1      44.869  23.712  28.660  1.00  0.00    -0.354 N 
ATOM     58  N   UNL A   1      46.541  27.675  29.534  1.00  0.00    -0.248 NA
ATOM     59  C   UNL A   1      46.418  27.486  27.213  1.00  0.00     0.031 C 
ATOM     60  C   UNL A   1      43.961  23.628  30.641  1.00  0.00     0.029 A 
ATOM     61  C   UNL A   1      44.885  24.346  29.880  1.00  0.00     0.049 A 
ATOM     62  H   UNL A   1      45.619  23.660  28.024  1.00  0.00     0.167 HD
ATOM     63  C   UNL A   1      46.209  26.361  29.237  1.00  0.00     0.074 A 
ATOM     64  C   UNL A   1      46.233  26.286  27.777  1.00  0.00     0.031 C 
ATOM     65  C   UNL A   1      45.667  25.534  30.180  1.00  0.00     0.034 A 
BRANCH  52  66
ATOM     66  C   UNL A   1      43.545  22.862  25.908  1.00  0.00     0.023 A 
ATOM     67  C   UNL A   1      43.582  21.473  25.714  1.00  0.00     0.031 A 
ATOM     68  C   UNL A   1      44.303  23.635  24.994  1.00  0.00     0.131 A 
ATOM     69  C   UNL A   1      44.401  20.909  24.724  1.00  0.00     0.055 A 
ATOM     70  C   UNL A   1      45.063  23.071  23.968  1.00  0.00     0.041 A 
ATOM     71  F   UNL A   1      44.437  24.962  25.089  1.00  0.00    -0.206 F 
ATOM     72  C   UNL A   1      45.141  21.698  23.848  1.00  0.00     0.022 A 
BRANCH  69  73
ATOM     73  S   UNL A   1      44.599  19.112  24.707  1.00  0.00     0.124 S 
ATOM     74  O   UNL A   1      45.682  18.927  25.668  1.00  0.00    -0.237 OA
ATOM     75  O   UNL A   1      43.277  18.663  25.131  1.00  0.00    -0.237 OA
ATOM     76  O   UNL A   1      44.940  18.824  23.316  1.00  0.00    -0.744 OA
ENDBRANCH  69  73
ENDBRANCH  52  66
BRANCH  53  77
ATOM     77  C   UNL A   1      46.419  30.802  27.532  1.00  0.00     0.023 A 
ATOM     78  C   UNL A   1      45.625  31.788  26.904  1.00  0.00     0.031 A 
ATOM     79  C   UNL A   1      47.804  31.071  27.613  1.00  0.00     0.131 A 
ATOM     80  C   UNL A   1      46.216  32.973  26.407  1.00  0.00     0.055 A 
ATOM     81  C   UNL A   1      48.382  32.241  27.115  1.00  0.00     0.041 A 
ATOM     82  F   UNL A   1      48.642  30.248  28.263  1.00  0.00    -0.206 F 
ATOM     83  C   UNL A   1      47.587  33.206  26.520  1.00  0.00     0.022 A 
BRANCH  80  84
ATOM     84  S   UNL A   1      45.180  34.302  25.711  1.00  0.00     0.124 S 
ATOM     85  O   UNL A   1      45.714  34.428  24.360  1.00  0.00    -0.237 OA
ATOM     86  O   UNL A   1      43.835  33.752  25.828  1.00  0.00    -0.237 OA
ATOM     87  O   UNL A   1      45.453  35.439  26.590  1.00  0.00    -0.744 OA
ENDBRANCH  80  84
ENDBRANCH  53  77
BRANCH  65  88
ATOM     88  C   UNL A   1      45.705  25.970  31.631  1.00  0.00     0.023 A 
ATOM     89  C   UNL A   1      46.816  25.826  32.494  1.00  0.00     0.031 A 
ATOM     90  C   UNL A   1      44.601  26.703  32.102  1.00  0.00     0.131 A 
ATOM     91  C   UNL A   1      46.787  26.411  33.779  1.00  0.00     0.055 A 
ATOM     92  C   UNL A   1      44.586  27.295  33.363  1.00  0.00     0.041 A 
ATOM     93  F   UNL A   1      43.531  26.898  31.314  1.00  0.00    -0.206 F 
ATOM     94  C   UNL A   1      45.680  27.150  34.208  1.00  0.00     0.022 A 
BRANCH  91  95
ATOM     95  S   UNL A   1      48.210  26.248  34.910  1.00  0.00     0.124 S 
ATOM     96  O   UNL A   1      48.889  25.054  34.423  1.00  0.00    -0.237 OA
ATOM     97  O   UNL A   1      48.917  27.512  34.720  1.00  0.00    -0.237 OA
ATOM     98  O   UNL A   1      47.587  26.098  36.227  1.00  0.00    -0.744 OA
ENDBRANCH  91  95
ENDBRANCH  65  88
ENDBRANCH  39  40
ENDBRANCH  32  34
ENDBRANCH  31  32
ENDBRANCH  30  31
ENDBRANCH  29  30
ENDBRANCH  28  29
ENDBRANCH   1  28
TORSDOF 22
ENDMDL
MODEL 3
REMARK VINA RESULT:     -11.7      1.092      3.138
REMARK SMILES Cc1cc(=O)n2cc(-c3ccccc3)nc2n1[C@H](C)C(=O)OCCOCCOCCOC(=O)c1ccc(-c2c3nc(c(-c4cc(S(=O)(=O)[O-])ccc4F)c4ccc([nH]4)c(-c4cc(S(=O)(=O)[O-])ccc4F)c4nc(c(-c5cc(S(=O)(=O)[O-])ccc5F)c5ccc2[nH]5)C=C4)C=C3)cc1
REMARK SMILES IDX 27 1 26 2 25 3 24 4 23 5 22 6 20 7 21 8 18 9 19 10 17 11
REMARK SMILES IDX 1 12 2 13 3 14 4 15 16 16 5 17 6 18 15 19 7 20 8 21 9 22
REMARK SMILES IDX 10 23 14 24 11 25 13 26 12 27 28 28 29 29 30 30 31 31 32 32
REMARK SMILES IDX 33 33 34 34 35 35 96 36 36 37 95 38 37 39 38 40 39 41 89 42
REMARK SMILES IDX 40 43 94 44 88 45 90 46 41 47 93 48 87 49 86 50 42 52 74 53
REMARK SMILES IDX 54 54 73 55 55 56 58 57 72 58 91 59 56 60 57 61 71 63 92 64
REMARK SMILES IDX 59 65 43 66 44 67 52 68 45 69 51 70 53 71 50 72 46 73 47 74
REMARK SMILES IDX 48 75 49 76 75 77 76 78 84 79 77 80 83 81 85 82 82 83 78 84
REMARK SMILES IDX 79 85 80 86 81 87 60 88 61 89 69 90 62 91 68 92 70 93 67 94
REMARK SMILES IDX 63 95 64 96 65 97 66 98
REMARK H PARENT 90 51 58 62
REMARK Flexibility Score: inf
ROOT
ATOM      1  C   UNL A   1      34.134  34.189  29.041  1.00  0.00     0.188 C 
ENDROOT
BRANCH   1   2
ATOM      2  C   UNL A   1      33.136  33.621  28.022  1.00  0.00     0.188 C 
BRANCH   2   3
ATOM      3  O   UNL A   1      33.256  32.298  27.567  1.00  0.00    -0.376 OA
BRANCH   3   4
ATOM      4  C   UNL A   1      32.145  31.680  26.944  1.00  0.00     0.202 C 
BRANCH   4   5
ATOM      5  C   UNL A   1      32.211  30.272  26.320  1.00  0.00     0.261 C 
BRANCH   5   6
ATOM      6  O   UNL A   1      32.498  29.186  27.216  1.00  0.00    -0.462 OA
BRANCH   6   7
ATOM      7  C   UNL A   1      33.294  28.192  26.744  1.00  0.00     0.329 C 
ATOM      8  O   UNL A   1      34.505  28.327  26.554  1.00  0.00    -0.250 OA
BRANCH   7   9
ATOM      9  C   UNL A   1      32.581  26.844  26.441  1.00  0.00     0.197 C 
ATOM     10  C   UNL A   1      31.088  26.636  26.718  1.00  0.00     0.044 C 
BRANCH   9  11
ATOM     11  N   UNL A   1      32.831  26.499  25.015  1.00  0.00    -0.301 N 
ATOM     12  C   UNL A   1      34.635  24.798  25.519  1.00  0.00     0.065 C 
ATOM     13  C   UNL A   1      33.792  25.594  24.549  1.00  0.00     0.024 A 
ATOM     14  C   UNL A   1      33.977  25.412  23.226  1.00  0.00     0.093 A 
ATOM     15  C   UNL A   1      33.174  26.176  22.237  1.00  0.00     0.259 A 
ATOM     16  C   UNL A   1      32.028  27.172  24.139  1.00  0.00     0.218 A 
ATOM     17  O   UNL A   1      33.313  26.094  21.026  1.00  0.00    -0.269 OA
ATOM     18  N   UNL A   1      32.217  27.022  22.788  1.00  0.00    -0.251 N 
ATOM     19  N   UNL A   1      31.073  28.027  24.401  1.00  0.00    -0.212 NA
ATOM     20  C   UNL A   1      31.320  27.874  22.167  1.00  0.00     0.127 A 
ATOM     21  C   UNL A   1      30.637  28.485  23.195  1.00  0.00     0.091 A 
BRANCH  21  22
ATOM     22  C   UNL A   1      29.638  29.523  23.111  1.00  0.00     0.002 A 
ATOM     23  C   UNL A   1      29.703  30.658  23.921  1.00  0.00     0.010 A 
ATOM     24  C   UNL A   1      28.655  29.443  22.114  1.00  0.00     0.010 A 
ATOM     25  C   UNL A   1      28.786  31.698  23.739  1.00  0.00     0.001 A 
ATOM     26  C   UNL A   1      27.742  30.483  21.932  1.00  0.00     0.001 A 
ATOM     27  C   UNL A   1      27.808  31.610  22.747  1.00  0.00     0.000 A 
ENDBRANCH  21  22
ENDBRANCH   9  11
ENDBRANCH   7   9
ENDBRANCH   6   7
ENDBRANCH   5   6
ENDBRANCH   4   5
ENDBRANCH   3   4
ENDBRANCH   2   3
ENDBRANCH   1   2
BRANCH   1  28
ATOM     28  O   UNL A   1      34.456  33.627  30.302  1.00  0.00    -0.376 OA
BRANCH  28  29
ATOM     29  C   UNL A   1      35.005  32.346  30.573  1.00  0.00     0.202 C 
BRANCH  29  30
ATOM     30  C   UNL A   1      36.177  31.732  29.811  1.00  0.00     0.261 C 
BRANCH  30  31
ATOM     31  O   UNL A   1      36.110  30.336  29.730  1.00  0.00    -0.460 OA
BRANCH  31  32
ATOM     32  C   UNL A   1      37.015  29.742  30.537  1.00  0.00     0.338 C 
ATOM     33  O   UNL A   1      37.178  29.923  31.728  1.00  0.00    -0.246 OA
BRANCH  32  34
ATOM     34  C   UNL A   1      37.749  28.774  29.722  1.00  0.00     0.060 A 
ATOM     35  C   UNL A   1      38.333  27.725  30.424  1.00  0.00     0.016 A 
ATOM     36  C   UNL A   1      38.093  29.108  28.404  1.00  0.00     0.016 A 
ATOM     37  C   UNL A   1      39.532  27.271  29.953  1.00  0.00     0.010 A 
ATOM     38  C   UNL A   1      39.299  28.670  27.945  1.00  0.00     0.010 A 
ATOM     39  C   UNL A   1      40.047  27.872  28.800  1.00  0.00    -0.014 A 
BRANCH  39  40
ATOM     40  C   UNL A   1      41.431  27.638  28.507  1.00  0.00     0.031 A 
ATOM     41  C   UNL A   1      41.628  26.352  27.832  1.00  0.00     0.074 A 
ATOM     42  C   UNL A   1      42.386  28.529  28.821  1.00  0.00     0.049 A 
ATOM     43  N   UNL A   1      42.069  25.265  28.362  1.00  0.00    -0.248 NA
ATOM     44  C   UNL A   1      41.028  26.185  26.501  1.00  0.00     0.031 C 
ATOM     45  C   UNL A   1      42.244  29.909  29.289  1.00  0.00     0.029 A 
ATOM     46  N   UNL A   1      43.726  28.387  28.693  1.00  0.00    -0.354 N 
ATOM     47  C   UNL A   1      42.053  24.338  27.335  1.00  0.00     0.074 A 
ATOM     48  C   UNL A   1      41.181  24.873  26.324  1.00  0.00     0.031 C 
ATOM     49  C   UNL A   1      43.438  30.538  29.177  1.00  0.00     0.029 A 
ATOM     50  C   UNL A   1      44.443  29.575  28.758  1.00  0.00     0.049 A 
ATOM     51  H   UNL A   1      44.158  27.512  28.563  1.00  0.00     0.167 HD
ATOM     52  C   UNL A   1      42.998  23.366  27.277  1.00  0.00     0.034 A 
ATOM     53  C   UNL A   1      45.746  29.731  28.404  1.00  0.00     0.034 A 
ATOM     54  C   UNL A   1      43.639  23.184  28.561  1.00  0.00     0.049 A 
ATOM     55  C   UNL A   1      46.369  28.381  28.510  1.00  0.00     0.074 A 
ATOM     56  C   UNL A   1      43.187  22.850  29.825  1.00  0.00     0.029 A 
ATOM     57  N   UNL A   1      44.881  23.750  28.749  1.00  0.00    -0.354 N 
ATOM     58  N   UNL A   1      46.491  27.736  29.640  1.00  0.00    -0.248 NA
ATOM     59  C   UNL A   1      46.395  27.544  27.318  1.00  0.00     0.031 C 
ATOM     60  C   UNL A   1      43.952  23.655  30.720  1.00  0.00     0.029 A 
ATOM     61  C   UNL A   1      44.876  24.385  29.968  1.00  0.00     0.049 A 
ATOM     62  H   UNL A   1      45.639  23.708  28.121  1.00  0.00     0.167 HD
ATOM     63  C   UNL A   1      46.179  26.417  29.340  1.00  0.00     0.074 A 
ATOM     64  C   UNL A   1      46.221  26.342  27.880  1.00  0.00     0.031 C 
ATOM     65  C   UNL A   1      45.638  25.583  30.277  1.00  0.00     0.034 A 
BRANCH  52  66
ATOM     66  C   UNL A   1      43.599  22.882  25.983  1.00  0.00     0.023 A 
ATOM     67  C   UNL A   1      43.689  21.493  25.805  1.00  0.00     0.031 A 
ATOM     68  C   UNL A   1      44.329  23.672  25.061  1.00  0.00     0.131 A 
ATOM     69  C   UNL A   1      44.531  20.949  24.822  1.00  0.00     0.055 A 
ATOM     70  C   UNL A   1      45.112  23.126  24.043  1.00  0.00     0.041 A 
ATOM     71  F   UNL A   1      44.412  25.005  25.140  1.00  0.00    -0.206 F 
ATOM     72  C   UNL A   1      45.242  21.755  23.939  1.00  0.00     0.022 A 
BRANCH  69  73
ATOM     73  S   UNL A   1      44.797  19.161  24.827  1.00  0.00     0.124 S 
ATOM     74  O   UNL A   1      46.029  19.050  25.602  1.00  0.00    -0.237 OA
ATOM     75  O   UNL A   1      43.582  18.681  25.475  1.00  0.00    -0.237 OA
ATOM     76  O   UNL A   1      44.919  18.836  23.408  1.00  0.00    -0.744 OA
ENDBRANCH  69  73
ENDBRANCH  52  66
BRANCH  53  77
ATOM     77  C   UNL A   1      46.348  30.860  27.635  1.00  0.00     0.023 A 
ATOM     78  C   UNL A   1      45.567  31.692  26.802  1.00  0.00     0.031 A 
ATOM     79  C   UNL A   1      47.662  31.303  27.908  1.00  0.00     0.131 A 
ATOM     80  C   UNL A   1      46.098  32.902  26.298  1.00  0.00     0.055 A 
ATOM     81  C   UNL A   1      48.182  32.497  27.402  1.00  0.00     0.041 A 
ATOM     82  F   UNL A   1      48.466  30.640  28.754  1.00  0.00    -0.206 F 
ATOM     83  C   UNL A   1      47.397  33.311  26.604  1.00  0.00     0.022 A 
BRANCH  80  84
ATOM     84  S   UNL A   1      45.053  34.039  25.329  1.00  0.00     0.124 S 
ATOM     85  O   UNL A   1      46.031  34.991  24.817  1.00  0.00    -0.237 OA
ATOM     86  O   UNL A   1      44.438  33.151  24.350  1.00  0.00    -0.237 OA
ATOM     87  O   UNL A   1      44.128  34.581  26.326  1.00  0.00    -0.744 OA
ENDBRANCH  80  84
ENDBRANCH  53  77
BRANCH  65  88
ATOM     88  C   UNL A   1      45.654  26.020  31.728  1.00  0.00     0.023 A 
ATOM     89  C   UNL A   1      44.547  26.546  32.432  1.00  0.00     0.031 A 
ATOM     90  C   UNL A   1      46.822  25.742  32.460  1.00  0.00     0.131 A 
ATOM     91  C   UNL A   1      44.641  26.772  33.822  1.00  0.00     0.055 A 
ATOM     92  C   UNL A   1      46.904  25.948  33.836  1.00  0.00     0.041 A 
ATOM     93  F   UNL A   1      47.896  25.212  31.850  1.00  0.00    -0.206 F 
ATOM     94  C   UNL A   1      45.812  26.466  34.523  1.00  0.00     0.022 A 
BRANCH  91  95
ATOM     95  S   UNL A   1      43.223  27.442  34.756  1.00  0.00     0.124 S 
ATOM     96  O   UNL A   1      43.813  27.816  36.036  1.00  0.00    -0.237 OA
ATOM     97  O   UNL A   1      42.772  28.543  33.909  1.00  0.00    -0.237 OA
ATOM     98  O   UNL A   1      42.293  26.313  34.824  1.00  0.00    -0.744 OA
ENDBRANCH  91  95
ENDBRANCH  65  88
ENDBRANCH  39  40
ENDBRANCH  32  34
ENDBRANCH  31  32
ENDBRANCH  30  31
ENDBRANCH  29  30
ENDBRANCH  28  29
ENDBRANCH   1  28
TORSDOF 22
ENDMDL
