MODEL 1
REMARK VINA RESULT:      -9.8      0.000      0.000
REMARK SMILES C[C@H](NC(=O)N(CC(=O)OCCOCCOCCOC(=O)c1ccc(-c2c3nc(c(-c4cc(S(=O)(=O)[O-])ccc4F)c4ccc([nH]4)c(-c4cc(S(=O)(=O)[O-])ccc4F)c4nc(c(-c5cc(S(=O)(=O)[O-])ccc5F)c5ccc2[nH]5)C=C4)C=C3)cc1)CC(F)(F)F)[C@@H]1CCCO1
REMARK SMILES IDX 14 1 13 2 12 3 11 4 10 5 8 6 9 7 7 8 6 9 4 10 3 11 5 13 2 14
REMARK SMILES IDX 1 15 90 16 91 17 94 18 92 19 93 20 85 21 86 22 87 23 88 24
REMARK SMILES IDX 89 25 15 26 16 27 17 28 18 29 19 30 20 31 21 32 22 33 23 34
REMARK SMILES IDX 84 35 24 36 83 37 25 38 26 39 27 40 77 41 28 42 82 43 76 44
REMARK SMILES IDX 78 45 29 46 81 47 75 48 74 49 30 51 62 52 42 53 61 54 43 55
REMARK SMILES IDX 46 56 60 57 79 58 44 59 45 60 59 62 80 63 47 64 31 65 32 66
REMARK SMILES IDX 40 67 33 68 39 69 41 70 38 71 34 72 35 73 36 74 37 75 63 76
REMARK SMILES IDX 64 77 72 78 65 79 71 80 73 81 70 82 66 83 67 84 68 85 69 86
REMARK SMILES IDX 48 87 49 88 57 89 50 90 56 91 58 92 55 93 51 94 52 95 53 96
REMARK SMILES IDX 54 97
REMARK H PARENT 3 12 78 50 46 61
REMARK Flexibility Score: inf
ROOT
ATOM      1  C   UNL A   1      30.741  27.567  24.168  1.00  0.00     0.188 C 
ENDROOT
BRANCH   1   2
ATOM      2  O   UNL A   1      30.499  26.792  22.995  1.00  0.00    -0.376 OA
BRANCH   2   3
ATOM      3  C   UNL A   1      31.442  25.800  22.618  1.00  0.00     0.202 C 
BRANCH   3   4
ATOM      4  C   UNL A   1      32.591  25.585  23.614  1.00  0.00     0.261 C 
BRANCH   4   5
ATOM      5  O   UNL A   1      33.814  25.139  22.990  1.00  0.00    -0.462 OA
BRANCH   5   6
ATOM      6  C   UNL A   1      34.128  23.832  23.193  1.00  0.00     0.325 C 
ATOM      7  O   UNL A   1      34.973  23.215  22.552  1.00  0.00    -0.250 OA
BRANCH   6   8
ATOM      8  C   UNL A   1      33.471  23.222  24.444  1.00  0.00     0.244 C 
BRANCH   8   9
ATOM      9  N   UNL A   1      34.189  23.088  25.726  1.00  0.00    -0.305 N 
BRANCH   9  10
ATOM     10  C   UNL A   1      34.112  22.055  26.619  1.00  0.00     0.318 C 
ATOM     11  N   UNL A   1      33.917  20.773  26.266  1.00  0.00    -0.333 N 
ATOM     12  H   UNL A   1      33.670  20.196  27.024  1.00  0.00     0.165 HD
ATOM     13  O   UNL A   1      34.262  22.240  27.830  1.00  0.00    -0.249 OA
BRANCH  11  14
ATOM     14  C   UNL A   1      33.993  20.056  25.002  1.00  0.00     0.109 C 
ATOM     15  C   UNL A   1      35.383  19.436  24.817  1.00  0.00     0.034 C 
BRANCH  14  16
ATOM     16  C   UNL A   1      32.807  19.085  24.800  1.00  0.00     0.140 C 
ATOM     17  C   UNL A   1      32.719  17.894  25.751  1.00  0.00     0.036 C 
ATOM     18  O   UNL A   1      32.887  18.553  23.461  1.00  0.00    -0.376 OA
ATOM     19  C   UNL A   1      32.576  16.703  24.828  1.00  0.00     0.031 C 
ATOM     20  C   UNL A   1      33.236  17.174  23.557  1.00  0.00     0.160 C 
ENDBRANCH  14  16
ENDBRANCH  11  14
ENDBRANCH   9  10
BRANCH   9  21
ATOM     21  C   UNL A   1      35.369  23.973  25.916  1.00  0.00     0.237 C 
BRANCH  21  22
ATOM     22  C   UNL A   1      36.774  23.412  25.634  1.00  0.00     0.406 C 
ATOM     23  F   UNL A   1      37.411  24.057  24.635  1.00  0.00    -0.169 F 
ATOM     24  F   UNL A   1      37.545  23.567  26.739  1.00  0.00    -0.169 F 
ATOM     25  F   UNL A   1      36.759  22.087  25.366  1.00  0.00    -0.169 F 
ENDBRANCH  21  22
ENDBRANCH   9  21
ENDBRANCH   8   9
ENDBRANCH   6   8
ENDBRANCH   5   6
ENDBRANCH   4   5
ENDBRANCH   3   4
ENDBRANCH   2   3
ENDBRANCH   1   2
BRANCH   1  26
ATOM     26  C   UNL A   1      30.950  29.078  24.039  1.00  0.00     0.188 C 
BRANCH  26  27
ATOM     27  O   UNL A   1      31.855  29.553  25.032  1.00  0.00    -0.376 OA
BRANCH  27  28
ATOM     28  C   UNL A   1      31.361  30.704  25.713  1.00  0.00     0.202 C 
BRANCH  28  29
ATOM     29  C   UNL A   1      32.219  30.958  26.954  1.00  0.00     0.261 C 
BRANCH  29  30
ATOM     30  O   UNL A   1      33.638  30.893  26.700  1.00  0.00    -0.460 OA
BRANCH  30  31
ATOM     31  C   UNL A   1      34.431  31.585  27.544  1.00  0.00     0.338 C 
ATOM     32  O   UNL A   1      34.141  32.628  28.124  1.00  0.00    -0.246 OA
BRANCH  31  33
ATOM     33  C   UNL A   1      35.653  30.807  27.827  1.00  0.00     0.060 A 
ATOM     34  C   UNL A   1      35.574  29.407  27.882  1.00  0.00     0.016 A 
ATOM     35  C   UNL A   1      36.861  31.453  28.097  1.00  0.00     0.016 A 
ATOM     36  C   UNL A   1      36.690  28.653  28.253  1.00  0.00     0.010 A 
ATOM     37  C   UNL A   1      37.970  30.699  28.485  1.00  0.00     0.010 A 
ATOM     38  C   UNL A   1      37.881  29.299  28.602  1.00  0.00    -0.014 A 
BRANCH  38  39
ATOM     39  C   UNL A   1      38.971  28.572  29.300  1.00  0.00     0.031 A 
ATOM     40  C   UNL A   1      39.447  29.118  30.620  1.00  0.00     0.074 A 
ATOM     41  C   UNL A   1      39.555  27.485  28.768  1.00  0.00     0.049 A 
ATOM     42  N   UNL A   1      40.513  28.818  31.312  1.00  0.00    -0.248 NA
ATOM     43  C   UNL A   1      38.602  30.157  31.230  1.00  0.00     0.031 C 
ATOM     44  C   UNL A   1      39.139  26.819  27.536  1.00  0.00     0.029 A 
ATOM     45  N   UNL A   1      40.650  26.769  29.186  1.00  0.00    -0.354 N 
ATOM     46  C   UNL A   1      40.484  29.647  32.429  1.00  0.00     0.074 A 
ATOM     47  C   UNL A   1      39.303  30.478  32.305  1.00  0.00     0.031 C 
ATOM     48  C   UNL A   1      39.993  25.812  27.278  1.00  0.00     0.029 A 
ATOM     49  C   UNL A   1      41.045  25.799  28.293  1.00  0.00     0.049 A 
ATOM     50  H   UNL A   1      41.107  26.933  30.043  1.00  0.00     0.167 HD
ATOM     51  C   UNL A   1      41.361  29.711  33.460  1.00  0.00     0.034 A 
ATOM     52  C   UNL A   1      42.156  25.033  28.270  1.00  0.00     0.034 A 
ATOM     53  C   UNL A   1      42.539  28.885  33.558  1.00  0.00     0.049 A 
ATOM     54  C   UNL A   1      43.176  25.185  29.378  1.00  0.00     0.074 A 
ATOM     55  C   UNL A   1      43.508  28.876  34.545  1.00  0.00     0.029 A 
ATOM     56  N   UNL A   1      42.910  27.923  32.627  1.00  0.00    -0.354 N 
ATOM     57  N   UNL A   1      43.163  25.997  30.411  1.00  0.00    -0.248 NA
ATOM     58  C   UNL A   1      44.359  24.315  29.318  1.00  0.00     0.031 C 
ATOM     59  C   UNL A   1      44.497  27.955  34.180  1.00  0.00     0.029 A 
ATOM     60  C   UNL A   1      44.103  27.329  33.008  1.00  0.00     0.049 A 
ATOM     61  H   UNL A   1      42.400  27.695  31.816  1.00  0.00     0.167 HD
ATOM     62  C   UNL A   1      44.314  25.707  31.140  1.00  0.00     0.074 A 
ATOM     63  C   UNL A   1      44.996  24.643  30.433  1.00  0.00     0.031 C 
ATOM     64  C   UNL A   1      44.765  26.262  32.295  1.00  0.00     0.034 A 
BRANCH  51  65
ATOM     65  C   UNL A   1      41.103  30.749  34.525  1.00  0.00     0.023 A 
ATOM     66  C   UNL A   1      39.944  30.722  35.319  1.00  0.00     0.031 A 
ATOM     67  C   UNL A   1      42.012  31.804  34.724  1.00  0.00     0.131 A 
ATOM     68  C   UNL A   1      39.687  31.767  36.219  1.00  0.00     0.055 A 
ATOM     69  C   UNL A   1      41.791  32.796  35.680  1.00  0.00     0.041 A 
ATOM     70  F   UNL A   1      43.124  31.898  33.978  1.00  0.00    -0.206 F 
ATOM     71  C   UNL A   1      40.615  32.790  36.425  1.00  0.00     0.022 A 
BRANCH  68  72
ATOM     72  S   UNL A   1      38.057  31.847  37.011  1.00  0.00     0.124 S 
ATOM     73  O   UNL A   1      37.252  32.473  35.963  1.00  0.00    -0.237 OA
ATOM     74  O   UNL A   1      37.769  30.444  37.284  1.00  0.00    -0.237 OA
ATOM     75  O   UNL A   1      38.288  32.680  38.189  1.00  0.00    -0.744 OA
ENDBRANCH  68  72
ENDBRANCH  51  65
BRANCH  52  76
ATOM     76  C   UNL A   1      42.412  24.102  27.132  1.00  0.00     0.023 A 
ATOM     77  C   UNL A   1      41.928  22.785  27.146  1.00  0.00     0.031 A 
ATOM     78  C   UNL A   1      43.204  24.499  26.039  1.00  0.00     0.131 A 
ATOM     79  C   UNL A   1      42.280  21.898  26.116  1.00  0.00     0.055 A 
ATOM     80  C   UNL A   1      43.502  23.631  24.987  1.00  0.00     0.041 A 
ATOM     81  F   UNL A   1      43.700  25.746  25.977  1.00  0.00    -0.206 F 
ATOM     82  C   UNL A   1      43.052  22.316  25.029  1.00  0.00     0.022 A 
BRANCH  79  83
ATOM     83  S   UNL A   1      41.797  20.155  26.267  1.00  0.00     0.124 S 
ATOM     84  O   UNL A   1      42.251  19.839  27.617  1.00  0.00    -0.237 OA
ATOM     85  O   UNL A   1      40.352  20.224  26.076  1.00  0.00    -0.237 OA
ATOM     86  O   UNL A   1      42.537  19.502  25.189  1.00  0.00    -0.744 OA
ENDBRANCH  79  83
ENDBRANCH  52  76
BRANCH  64  87
ATOM     87  C   UNL A   1      46.012  25.674  32.909  1.00  0.00     0.023 A 
ATOM     88  C   UNL A   1      47.302  26.076  32.518  1.00  0.00     0.031 A 
ATOM     89  C   UNL A   1      45.901  24.702  33.921  1.00  0.00     0.131 A 
ATOM     90  C   UNL A   1      48.427  25.476  33.104  1.00  0.00     0.055 A 
ATOM     91  C   UNL A   1      47.023  24.150  34.539  1.00  0.00     0.041 A 
ATOM     92  F   UNL A   1      44.694  24.280  34.332  1.00  0.00    -0.206 F 
ATOM     93  C   UNL A   1      48.296  24.529  34.125  1.00  0.00     0.022 A 
BRANCH  90  94
ATOM     94  S   UNL A   1      50.073  25.896  32.468  1.00  0.00     0.124 S 
ATOM     95  O   UNL A   1      50.916  25.681  33.640  1.00  0.00    -0.237 OA
ATOM     96  O   UNL A   1      50.241  24.940  31.378  1.00  0.00    -0.237 OA
ATOM     97  O   UNL A   1      49.935  27.290  32.052  1.00  0.00    -0.744 OA
ENDBRANCH  90  94
ENDBRANCH  64  87
ENDBRANCH  38  39
ENDBRANCH  31  33
ENDBRANCH  30  31
ENDBRANCH  29  30
ENDBRANCH  28  29
ENDBRANCH  27  28
ENDBRANCH  26  27
ENDBRANCH   1  26
TORSDOF 26
ENDMDL
MODEL 2
REMARK VINA RESULT:      -9.4      3.839      5.827
REMARK SMILES C[C@H](NC(=O)N(CC(=O)OCCOCCOCCOC(=O)c1ccc(-c2c3nc(c(-c4cc(S(=O)(=O)[O-])ccc4F)c4ccc([nH]4)c(-c4cc(S(=O)(=O)[O-])ccc4F)c4nc(c(-c5cc(S(=O)(=O)[O-])ccc5F)c5ccc2[nH]5)C=C4)C=C3)cc1)CC(F)(F)F)[C@@H]1CCCO1
REMARK SMILES IDX 14 1 13 2 12 3 11 4 10 5 8 6 9 7 7 8 6 9 4 10 3 11 5 13 2 14
REMARK SMILES IDX 1 15 90 16 91 17 94 18 92 19 93 20 85 21 86 22 87 23 88 24
REMARK SMILES IDX 89 25 15 26 16 27 17 28 18 29 19 30 20 31 21 32 22 33 23 34
REMARK SMILES IDX 84 35 24 36 83 37 25 38 26 39 27 40 77 41 28 42 82 43 76 44
REMARK SMILES IDX 78 45 29 46 81 47 75 48 74 49 30 51 62 52 42 53 61 54 43 55
REMARK SMILES IDX 46 56 60 57 79 58 44 59 45 60 59 62 80 63 47 64 31 65 32 66
REMARK SMILES IDX 40 67 33 68 39 69 41 70 38 71 34 72 35 73 36 74 37 75 63 76
REMARK SMILES IDX 64 77 72 78 65 79 71 80 73 81 70 82 66 83 67 84 68 85 69 86
REMARK SMILES IDX 48 87 49 88 57 89 50 90 56 91 58 92 55 93 51 94 52 95 53 96
REMARK SMILES IDX 54 97
REMARK H PARENT 3 12 78 50 46 61
REMARK Flexibility Score: inf
ROOT
ATOM      1  C   UNL A   1      33.755  29.353  26.583  1.00  0.00     0.188 C 
ENDROOT
BRANCH   1   2
ATOM      2  O   UNL A   1      33.101  28.165  27.023  1.00  0.00    -0.376 OA
BRANCH   2   3
ATOM      3  C   UNL A   1      31.778  27.902  26.580  1.00  0.00     0.202 C 
BRANCH   3   4
ATOM      4  C   UNL A   1      31.455  26.418  26.347  1.00  0.00     0.261 C 
BRANCH   4   5
ATOM      5  O   UNL A   1      30.403  26.206  25.382  1.00  0.00    -0.462 OA
BRANCH   5   6
ATOM      6  C   UNL A   1      30.672  25.286  24.419  1.00  0.00     0.325 C 
ATOM      7  O   UNL A   1      29.920  25.018  23.486  1.00  0.00    -0.250 OA
BRANCH   6   8
ATOM      8  C   UNL A   1      32.106  24.730  24.475  1.00  0.00     0.244 C 
BRANCH   8   9
ATOM      9  N   UNL A   1      33.073  24.932  23.378  1.00  0.00    -0.305 N 
BRANCH   9  10
ATOM     10  C   UNL A   1      32.845  25.526  22.167  1.00  0.00     0.318 C 
ATOM     11  N   UNL A   1      32.463  26.805  22.022  1.00  0.00    -0.333 N 
ATOM     12  H   UNL A   1      32.135  27.011  21.116  1.00  0.00     0.165 HD
ATOM     13  O   UNL A   1      33.024  24.916  21.110  1.00  0.00    -0.249 OA
BRANCH  11  14
ATOM     14  C   UNL A   1      32.428  27.953  22.916  1.00  0.00     0.109 C 
ATOM     15  C   UNL A   1      33.829  28.556  23.072  1.00  0.00     0.034 C 
BRANCH  14  16
ATOM     16  C   UNL A   1      31.316  28.959  22.545  1.00  0.00     0.140 C 
ATOM     17  C   UNL A   1      30.687  29.749  23.690  1.00  0.00     0.036 C 
ATOM     18  O   UNL A   1      30.251  28.232  21.898  1.00  0.00    -0.376 OA
ATOM     19  C   UNL A   1      29.200  29.538  23.503  1.00  0.00     0.031 C 
ATOM     20  C   UNL A   1      29.130  28.217  22.779  1.00  0.00     0.160 C 
ENDBRANCH  14  16
ENDBRANCH  11  14
ENDBRANCH   9  10
BRANCH   9  21
ATOM     21  C   UNL A   1      34.511  24.802  23.735  1.00  0.00     0.237 C 
BRANCH  21  22
ATOM     22  C   UNL A   1      35.119  23.396  23.875  1.00  0.00     0.406 C 
ATOM     23  F   UNL A   1      34.481  22.631  24.784  1.00  0.00    -0.169 F 
ATOM     24  F   UNL A   1      35.012  22.745  22.690  1.00  0.00    -0.169 F 
ATOM     25  F   UNL A   1      36.438  23.428  24.171  1.00  0.00    -0.169 F 
ENDBRANCH  21  22
ENDBRANCH   9  21
ENDBRANCH   8   9
ENDBRANCH   6   8
ENDBRANCH   5   6
ENDBRANCH   4   5
ENDBRANCH   3   4
ENDBRANCH   2   3
ENDBRANCH   1   2
BRANCH   1  26
ATOM     26  C   UNL A   1      34.342  30.315  27.619  1.00  0.00     0.188 C 
BRANCH  26  27
ATOM     27  O   UNL A   1      33.633  31.550  27.626  1.00  0.00    -0.376 OA
BRANCH  27  28
ATOM     28  C   UNL A   1      34.451  32.645  28.031  1.00  0.00     0.202 C 
BRANCH  28  29
ATOM     29  C   UNL A   1      33.629  33.934  27.968  1.00  0.00     0.261 C 
BRANCH  29  30
ATOM     30  O   UNL A   1      32.822  34.165  29.143  1.00  0.00    -0.460 OA
BRANCH  30  31
ATOM     31  C   UNL A   1      33.291  35.072  30.024  1.00  0.00     0.338 C 
ATOM     32  O   UNL A   1      32.834  36.195  30.224  1.00  0.00    -0.246 OA
BRANCH  31  33
ATOM     33  C   UNL A   1      34.335  34.456  30.865  1.00  0.00     0.060 A 
ATOM     34  C   UNL A   1      35.658  34.910  30.752  1.00  0.00     0.016 A 
ATOM     35  C   UNL A   1      34.027  33.395  31.719  1.00  0.00     0.016 A 
ATOM     36  C   UNL A   1      36.683  34.273  31.456  1.00  0.00     0.010 A 
ATOM     37  C   UNL A   1      35.055  32.749  32.408  1.00  0.00     0.010 A 
ATOM     38  C   UNL A   1      36.392  33.159  32.251  1.00  0.00    -0.014 A 
BRANCH  38  39
ATOM     39  C   UNL A   1      37.472  32.271  32.751  1.00  0.00     0.031 A 
ATOM     40  C   UNL A   1      38.078  32.587  34.092  1.00  0.00     0.074 A 
ATOM     41  C   UNL A   1      37.936  31.239  32.026  1.00  0.00     0.049 A 
ATOM     42  N   UNL A   1      39.165  32.124  34.648  1.00  0.00    -0.248 NA
ATOM     43  C   UNL A   1      37.356  33.577  34.908  1.00  0.00     0.031 C 
ATOM     44  C   UNL A   1      37.387  30.787  30.750  1.00  0.00     0.029 A 
ATOM     45  N   UNL A   1      39.002  30.402  32.251  1.00  0.00    -0.354 N 
ATOM     46  C   UNL A   1      39.275  32.781  35.869  1.00  0.00     0.074 A 
ATOM     47  C   UNL A   1      38.153  33.693  35.958  1.00  0.00     0.031 C 
ATOM     48  C   UNL A   1      38.145  29.777  30.285  1.00  0.00     0.029 A 
ATOM     49  C   UNL A   1      39.262  29.550  31.201  1.00  0.00     0.049 A 
ATOM     50  H   UNL A   1      39.529  30.410  33.083  1.00  0.00     0.167 HD
ATOM     51  C   UNL A   1      40.224  32.638  36.826  1.00  0.00     0.034 A 
ATOM     52  C   UNL A   1      40.309  28.728  30.982  1.00  0.00     0.034 A 
ATOM     53  C   UNL A   1      41.342  31.736  36.712  1.00  0.00     0.049 A 
ATOM     54  C   UNL A   1      41.412  28.652  32.016  1.00  0.00     0.074 A 
ATOM     55  C   UNL A   1      42.375  31.522  37.608  1.00  0.00     0.029 A 
ATOM     56  N   UNL A   1      41.576  30.898  35.629  1.00  0.00    -0.354 N 
ATOM     57  N   UNL A   1      41.531  29.304  33.150  1.00  0.00    -0.248 NA
ATOM     58  C   UNL A   1      42.522  27.728  31.740  1.00  0.00     0.031 C 
ATOM     59  C   UNL A   1      43.266  30.604  37.039  1.00  0.00     0.029 A 
ATOM     60  C   UNL A   1      42.746  30.182  35.825  1.00  0.00     0.049 A 
ATOM     61  H   UNL A   1      40.996  30.824  34.837  1.00  0.00     0.167 HD
ATOM     62  C   UNL A   1      42.706  28.839  33.737  1.00  0.00     0.074 A 
ATOM     63  C   UNL A   1      43.257  27.850  32.835  1.00  0.00     0.031 C 
ATOM     64  C   UNL A   1      43.276  29.190  34.919  1.00  0.00     0.034 A 
BRANCH  51  65
ATOM     65  C   UNL A   1      40.119  33.525  38.043  1.00  0.00     0.023 A 
ATOM     66  C   UNL A   1      39.409  33.125  39.189  1.00  0.00     0.031 A 
ATOM     67  C   UNL A   1      40.704  34.803  38.044  1.00  0.00     0.131 A 
ATOM     68  C   UNL A   1      39.240  34.021  40.255  1.00  0.00     0.055 A 
ATOM     69  C   UNL A   1      40.602  35.659  39.142  1.00  0.00     0.041 A 
ATOM     70  F   UNL A   1      41.371  35.251  36.969  1.00  0.00    -0.206 F 
ATOM     71  C   UNL A   1      39.853  35.276  40.252  1.00  0.00     0.022 A 
BRANCH  68  72
ATOM     72  S   UNL A   1      38.085  33.579  41.583  1.00  0.00     0.124 S 
ATOM     73  O   UNL A   1      38.960  33.609  42.754  1.00  0.00    -0.237 OA
ATOM     74  O   UNL A   1      37.090  34.641  41.503  1.00  0.00    -0.237 OA
ATOM     75  O   UNL A   1      37.615  32.249  41.200  1.00  0.00    -0.744 OA
ENDBRANCH  68  72
ENDBRANCH  51  65
BRANCH  52  76
ATOM     76  C   UNL A   1      40.415  27.958  29.708  1.00  0.00     0.023 A 
ATOM     77  C   UNL A   1      41.355  28.303  28.725  1.00  0.00     0.031 A 
ATOM     78  C   UNL A   1      39.529  26.902  29.427  1.00  0.00     0.131 A 
ATOM     79  C   UNL A   1      41.355  27.634  27.490  1.00  0.00     0.055 A 
ATOM     80  C   UNL A   1      39.572  26.200  28.221  1.00  0.00     0.041 A 
ATOM     81  F   UNL A   1      38.604  26.533  30.329  1.00  0.00    -0.206 F 
ATOM     82  C   UNL A   1      40.480  26.575  27.237  1.00  0.00     0.022 A 
BRANCH  79  83
ATOM     83  S   UNL A   1      42.453  28.235  26.176  1.00  0.00     0.124 S 
ATOM     84  O   UNL A   1      43.753  27.759  26.636  1.00  0.00    -0.237 OA
ATOM     85  O   UNL A   1      41.907  27.569  24.998  1.00  0.00    -0.237 OA
ATOM     86  O   UNL A   1      42.269  29.684  26.214  1.00  0.00    -0.744 OA
ENDBRANCH  79  83
ENDBRANCH  52  76
BRANCH  64  87
ATOM     87  C   UNL A   1      44.517  28.442  35.342  1.00  0.00     0.023 A 
ATOM     88  C   UNL A   1      44.457  27.240  36.068  1.00  0.00     0.031 A 
ATOM     89  C   UNL A   1      45.786  28.941  34.992  1.00  0.00     0.131 A 
ATOM     90  C   UNL A   1      45.643  26.600  36.459  1.00  0.00     0.055 A 
ATOM     91  C   UNL A   1      46.960  28.271  35.335  1.00  0.00     0.041 A 
ATOM     92  F   UNL A   1      45.902  30.086  34.299  1.00  0.00    -0.206 F 
ATOM     93  C   UNL A   1      46.894  27.098  36.080  1.00  0.00     0.022 A 
BRANCH  90  94
ATOM     94  S   UNL A   1      45.539  25.141  37.530  1.00  0.00     0.124 S 
ATOM     95  O   UNL A   1      44.386  25.460  38.366  1.00  0.00    -0.237 OA
ATOM     96  O   UNL A   1      45.351  24.059  36.569  1.00  0.00    -0.237 OA
ATOM     97  O   UNL A   1      46.824  25.133  38.226  1.00  0.00    -0.744 OA
ENDBRANCH  90  94
ENDBRANCH  64  87
ENDBRANCH  38  39
ENDBRANCH  31  33
ENDBRANCH  30  31
ENDBRANCH  29  30
ENDBRANCH  28  29
ENDBRANCH  27  28
ENDBRANCH  26  27
ENDBRANCH   1  26
TORSDOF 26
ENDMDL
MODEL 3
REMARK VINA RESULT:      -9.2      1.899      2.318
REMARK SMILES C[C@H](NC(=O)N(CC(=O)OCCOCCOCCOC(=O)c1ccc(-c2c3nc(c(-c4cc(S(=O)(=O)[O-])ccc4F)c4ccc([nH]4)c(-c4cc(S(=O)(=O)[O-])ccc4F)c4nc(c(-c5cc(S(=O)(=O)[O-])ccc5F)c5ccc2[nH]5)C=C4)C=C3)cc1)CC(F)(F)F)[C@@H]1CCCO1
REMARK SMILES IDX 14 1 13 2 12 3 11 4 10 5 8 6 9 7 7 8 6 9 4 10 3 11 5 13 2 14
REMARK SMILES IDX 1 15 90 16 91 17 94 18 92 19 93 20 85 21 86 22 87 23 88 24
REMARK SMILES IDX 89 25 15 26 16 27 17 28 18 29 19 30 20 31 21 32 22 33 23 34
REMARK SMILES IDX 84 35 24 36 83 37 25 38 26 39 27 40 77 41 28 42 82 43 76 44
REMARK SMILES IDX 78 45 29 46 81 47 75 48 74 49 30 51 62 52 42 53 61 54 43 55
REMARK SMILES IDX 46 56 60 57 79 58 44 59 45 60 59 62 80 63 47 64 31 65 32 66
REMARK SMILES IDX 40 67 33 68 39 69 41 70 38 71 34 72 35 73 36 74 37 75 63 76
REMARK SMILES IDX 64 77 72 78 65 79 71 80 73 81 70 82 66 83 67 84 68 85 69 86
REMARK SMILES IDX 48 87 49 88 57 89 50 90 56 91 58 92 55 93 51 94 52 95 53 96
REMARK SMILES IDX 54 97
REMARK H PARENT 3 12 78 50 46 61
REMARK Flexibility Score: inf
ROOT
ATOM      1  C   UNL A   1      30.569  27.594  24.081  1.00  0.00     0.188 C 
ENDROOT
BRANCH   1   2
ATOM      2  O   UNL A   1      30.329  26.718  22.982  1.00  0.00    -0.376 OA
BRANCH   2   3
ATOM      3  C   UNL A   1      31.215  25.630  22.761  1.00  0.00     0.202 C 
BRANCH   3   4
ATOM      4  C   UNL A   1      32.577  25.753  23.458  1.00  0.00     0.261 C 
BRANCH   4   5
ATOM      5  O   UNL A   1      33.645  25.087  22.750  1.00  0.00    -0.462 OA
BRANCH   5   6
ATOM      6  C   UNL A   1      33.903  23.813  23.149  1.00  0.00     0.325 C 
ATOM      7  O   UNL A   1      34.658  23.043  22.563  1.00  0.00    -0.250 OA
BRANCH   6   8
ATOM      8  C   UNL A   1      33.317  23.464  24.528  1.00  0.00     0.244 C 
BRANCH   8   9
ATOM      9  N   UNL A   1      34.162  23.317  25.730  1.00  0.00    -0.305 N 
BRANCH   9  10
ATOM     10  C   UNL A   1      34.174  22.276  26.617  1.00  0.00     0.318 C 
ATOM     11  N   UNL A   1      34.025  20.988  26.262  1.00  0.00    -0.333 N 
ATOM     12  H   UNL A   1      33.840  20.395  27.026  1.00  0.00     0.165 HD
ATOM     13  O   UNL A   1      34.368  22.461  27.821  1.00  0.00    -0.249 OA
BRANCH  11  14
ATOM     14  C   UNL A   1      34.079  20.283  24.991  1.00  0.00     0.109 C 
ATOM     15  C   UNL A   1      35.462  19.654  24.782  1.00  0.00     0.034 C 
BRANCH  14  16
ATOM     16  C   UNL A   1      32.884  19.324  24.794  1.00  0.00     0.140 C 
ATOM     17  C   UNL A   1      32.691  18.235  25.846  1.00  0.00     0.036 C 
ATOM     18  O   UNL A   1      33.047  18.660  23.523  1.00  0.00    -0.376 OA
ATOM     19  C   UNL A   1      32.582  16.961  25.035  1.00  0.00     0.031 C 
ATOM     20  C   UNL A   1      33.347  17.290  23.778  1.00  0.00     0.160 C 
ENDBRANCH  14  16
ENDBRANCH  11  14
ENDBRANCH   9  10
BRANCH   9  21
ATOM     21  C   UNL A   1      35.358  24.198  25.806  1.00  0.00     0.237 C 
BRANCH  21  22
ATOM     22  C   UNL A   1      36.757  23.560  25.764  1.00  0.00     0.406 C 
ATOM     23  F   UNL A   1      36.726  22.230  25.542  1.00  0.00    -0.169 F 
ATOM     24  F   UNL A   1      37.461  24.100  24.738  1.00  0.00    -0.169 F 
ATOM     25  F   UNL A   1      37.473  23.805  26.884  1.00  0.00    -0.169 F 
ENDBRANCH  21  22
ENDBRANCH   9  21
ENDBRANCH   8   9
ENDBRANCH   6   8
ENDBRANCH   5   6
ENDBRANCH   4   5
ENDBRANCH   3   4
ENDBRANCH   2   3
ENDBRANCH   1   2
BRANCH   1  26
ATOM     26  C   UNL A   1      30.777  29.088  23.819  1.00  0.00     0.188 C 
BRANCH  26  27
ATOM     27  O   UNL A   1      31.597  29.672  24.827  1.00  0.00    -0.376 OA
BRANCH  27  28
ATOM     28  C   UNL A   1      30.977  30.795  25.449  1.00  0.00     0.202 C 
BRANCH  28  29
ATOM     29  C   UNL A   1      31.723  31.126  26.743  1.00  0.00     0.261 C 
BRANCH  29  30
ATOM     30  O   UNL A   1      33.152  31.245  26.574  1.00  0.00    -0.460 OA
BRANCH  30  31
ATOM     31  C   UNL A   1      33.790  32.072  27.427  1.00  0.00     0.338 C 
ATOM     32  O   UNL A   1      33.334  33.098  27.924  1.00  0.00    -0.246 OA
BRANCH  31  33
ATOM     33  C   UNL A   1      35.073  31.469  27.836  1.00  0.00     0.060 A 
ATOM     34  C   UNL A   1      35.164  30.075  27.960  1.00  0.00     0.016 A 
ATOM     35  C   UNL A   1      36.169  32.275  28.155  1.00  0.00     0.016 A 
ATOM     36  C   UNL A   1      36.332  29.485  28.448  1.00  0.00     0.010 A 
ATOM     37  C   UNL A   1      37.330  31.685  28.658  1.00  0.00     0.010 A 
ATOM     38  C   UNL A   1      37.405  30.292  28.844  1.00  0.00    -0.014 A 
BRANCH  38  39
ATOM     39  C   UNL A   1      38.520  29.741  29.655  1.00  0.00     0.031 A 
ATOM     40  C   UNL A   1      38.701  30.269  31.053  1.00  0.00     0.074 A 
ATOM     41  C   UNL A   1      39.376  28.831  29.160  1.00  0.00     0.049 A 
ATOM     42  N   UNL A   1      39.707  30.131  31.874  1.00  0.00    -0.248 NA
ATOM     43  C   UNL A   1      37.591  31.075  31.585  1.00  0.00     0.031 C 
ATOM     44  C   UNL A   1      39.267  28.190  27.851  1.00  0.00     0.029 A 
ATOM     45  N   UNL A   1      40.530  28.312  29.695  1.00  0.00    -0.354 N 
ATOM     46  C   UNL A   1      39.365  30.854  33.013  1.00  0.00     0.074 A 
ATOM     47  C   UNL A   1      38.068  31.446  32.762  1.00  0.00     0.031 C 
ATOM     48  C   UNL A   1      40.333  27.390  27.670  1.00  0.00     0.029 A 
ATOM     49  C   UNL A   1      41.226  27.507  28.822  1.00  0.00     0.049 A 
ATOM     50  H   UNL A   1      40.830  28.498  30.614  1.00  0.00     0.167 HD
ATOM     51  C   UNL A   1      40.071  31.009  34.161  1.00  0.00     0.034 A 
ATOM     52  C   UNL A   1      42.463  26.976  28.921  1.00  0.00     0.034 A 
ATOM     53  C   UNL A   1      41.369  30.424  34.385  1.00  0.00     0.049 A 
ATOM     54  C   UNL A   1      43.279  27.240  30.168  1.00  0.00     0.074 A 
ATOM     55  C   UNL A   1      42.184  30.530  35.498  1.00  0.00     0.029 A 
ATOM     56  N   UNL A   1      42.045  29.624  33.472  1.00  0.00    -0.354 N 
ATOM     57  N   UNL A   1      42.967  27.955  31.226  1.00  0.00    -0.248 NA
ATOM     58  C   UNL A   1      44.612  26.624  30.235  1.00  0.00     0.031 C 
ATOM     59  C   UNL A   1      43.377  29.848  35.234  1.00  0.00     0.029 A 
ATOM     60  C   UNL A   1      43.274  29.247  33.989  1.00  0.00     0.049 A 
ATOM     61  H   UNL A   1      41.701  29.363  32.587  1.00  0.00     0.167 HD
ATOM     62  C   UNL A   1      44.049  27.841  32.096  1.00  0.00     0.074 A 
ATOM     63  C   UNL A   1      45.018  26.985  31.444  1.00  0.00     0.031 C 
ATOM     64  C   UNL A   1      44.225  28.385  33.328  1.00  0.00     0.034 A 
BRANCH  51  65
ATOM     65  C   UNL A   1      39.472  31.896  35.225  1.00  0.00     0.023 A 
ATOM     66  C   UNL A   1      39.836  33.248  35.352  1.00  0.00     0.031 A 
ATOM     67  C   UNL A   1      38.552  31.372  36.151  1.00  0.00     0.131 A 
ATOM     68  C   UNL A   1      39.343  34.008  36.423  1.00  0.00     0.055 A 
ATOM     69  C   UNL A   1      38.000  32.157  37.165  1.00  0.00     0.041 A 
ATOM     70  F   UNL A   1      38.187  30.082  36.097  1.00  0.00    -0.206 F 
ATOM     71  C   UNL A   1      38.406  33.480  37.315  1.00  0.00     0.022 A 
BRANCH  68  72
ATOM     72  S   UNL A   1      40.052  35.651  36.719  1.00  0.00     0.124 S 
ATOM     73  O   UNL A   1      39.512  36.411  35.593  1.00  0.00    -0.237 OA
ATOM     74  O   UNL A   1      39.521  35.993  38.032  1.00  0.00    -0.237 OA
ATOM     75  O   UNL A   1      41.494  35.416  36.668  1.00  0.00    -0.744 OA
ENDBRANCH  68  72
ENDBRANCH  51  65
BRANCH  52  76
ATOM     76  C   UNL A   1      43.047  26.199  27.788  1.00  0.00     0.023 A 
ATOM     77  C   UNL A   1      42.754  24.839  27.609  1.00  0.00     0.031 A 
ATOM     78  C   UNL A   1      43.964  26.795  26.902  1.00  0.00     0.131 A 
ATOM     79  C   UNL A   1      43.406  24.107  26.604  1.00  0.00     0.055 A 
ATOM     80  C   UNL A   1      44.566  26.078  25.867  1.00  0.00     0.041 A 
ATOM     81  F   UNL A   1      44.288  28.093  27.030  1.00  0.00    -0.206 F 
ATOM     82  C   UNL A   1      44.299  24.721  25.722  1.00  0.00     0.022 A 
BRANCH  79  83
ATOM     83  S   UNL A   1      43.147  22.313  26.528  1.00  0.00     0.124 S 
ATOM     84  O   UNL A   1      42.621  22.033  27.859  1.00  0.00    -0.237 OA
ATOM     85  O   UNL A   1      42.198  22.191  25.425  1.00  0.00    -0.237 OA
ATOM     86  O   UNL A   1      44.483  21.785  26.260  1.00  0.00    -0.744 OA
ENDBRANCH  79  83
ENDBRANCH  52  76
BRANCH  64  87
ATOM     87  C   UNL A   1      45.476  28.007  34.084  1.00  0.00     0.023 A 
ATOM     88  C   UNL A   1      46.666  28.747  33.982  1.00  0.00     0.031 A 
ATOM     89  C   UNL A   1      45.463  26.888  34.939  1.00  0.00     0.131 A 
ATOM     90  C   UNL A   1      47.807  28.334  34.687  1.00  0.00     0.055 A 
ATOM     91  C   UNL A   1      46.584  26.516  35.680  1.00  0.00     0.041 A 
ATOM     92  F   UNL A   1      44.353  26.144  35.073  1.00  0.00    -0.206 F 
ATOM     93  C   UNL A   1      47.768  27.234  35.550  1.00  0.00     0.022 A 
BRANCH  90  94
ATOM     94  S   UNL A   1      49.371  29.211  34.412  1.00  0.00     0.124 S 
ATOM     95  O   UNL A   1      49.005  30.589  34.723  1.00  0.00    -0.237 OA
ATOM     96  O   UNL A   1      50.267  28.559  35.362  1.00  0.00    -0.237 OA
ATOM     97  O   UNL A   1      49.668  28.951  33.005  1.00  0.00    -0.744 OA
ENDBRANCH  90  94
ENDBRANCH  64  87
ENDBRANCH  38  39
ENDBRANCH  31  33
ENDBRANCH  30  31
ENDBRANCH  29  30
ENDBRANCH  28  29
ENDBRANCH  27  28
ENDBRANCH  26  27
ENDBRANCH   1  26
TORSDOF 26
ENDMDL
