MODEL 1
REMARK VINA RESULT:     -11.2      0.000      0.000
REMARK SMILES Cc1c(CC(=O)OCCOCCOCCOC(=O)c2ccc(-c3c4nc(c(-c5cc(S(=O)(=O)[O-])ccc5F)c5ccc([nH]5)c(-c5cc(S(=O)(=O)[O-])ccc5F)c5nc(c(-c6cc(S(=O)(=O)[O-])ccc6F)c6ccc3[nH]6)C=C5)C=C4)cc2)cc(-c2ccccc2)cc1-c1ccccc1
REMARK SMILES IDX 12 1 11 2 10 3 9 4 8 5 7 6 5 7 6 8 4 9 3 10 1 11 2 12 91 13
REMARK SMILES IDX 82 14 90 15 83 16 92 17 93 18 97 19 94 20 96 21 95 22 84 23
REMARK SMILES IDX 85 24 89 25 86 26 88 27 87 28 13 29 14 30 15 31 16 32 17 33
REMARK SMILES IDX 18 34 19 35 20 36 81 37 21 38 80 39 22 40 23 41 24 42 74 43
REMARK SMILES IDX 25 44 79 45 73 46 75 47 26 48 78 49 72 50 71 51 27 53 59 54
REMARK SMILES IDX 39 55 58 56 40 57 43 58 57 59 76 60 41 61 42 62 56 64 77 65
REMARK SMILES IDX 44 66 28 67 29 68 37 69 30 70 36 71 38 72 35 73 31 74 32 75
REMARK SMILES IDX 33 76 34 77 60 78 61 79 69 80 62 81 68 82 70 83 67 84 63 85
REMARK SMILES IDX 64 86 65 87 66 88 45 89 46 90 54 91 47 92 53 93 55 94 52 95
REMARK SMILES IDX 48 96 49 97 50 98 51 99
REMARK H PARENT 75 52 43 63
REMARK Flexibility Score: inf
ROOT
ATOM      1  C   UNL A   1      33.487  28.249  26.111  1.00  0.00     0.188 C 
ENDROOT
BRANCH   1   2
ATOM      2  C   UNL A   1      32.140  28.547  26.763  1.00  0.00     0.188 C 
BRANCH   2   3
ATOM      3  O   UNL A   1      31.597  27.344  27.321  1.00  0.00    -0.376 OA
BRANCH   3   4
ATOM      4  C   UNL A   1      30.998  26.303  26.551  1.00  0.00     0.202 C 
BRANCH   4   5
ATOM      5  C   UNL A   1      31.774  24.863  26.273  1.00  0.00     0.261 C 
BRANCH   5   6
ATOM      6  O   UNL A   1      32.590  24.319  24.948  1.00  0.00    -0.463 OA
BRANCH   6   7
ATOM      7  C   UNL A   1      33.278  24.649  23.767  1.00  0.00     0.310 C 
ATOM      8  O   UNL A   1      33.710  25.722  23.353  1.00  0.00    -0.252 OA
BRANCH   7   9
ATOM      9  C   UNL A   1      33.574  23.550  22.813  1.00  0.00     0.158 C 
BRANCH   9  10
ATOM     10  C   UNL A   1      34.315  22.466  23.476  1.00  0.00    -0.033 A 
ATOM     11  C   UNL A   1      32.370  20.863  23.176  1.00  0.00     0.045 C 
ATOM     12  C   UNL A   1      33.736  21.217  23.745  1.00  0.00    -0.039 A 
ATOM     13  C   UNL A   1      34.472  20.324  24.544  1.00  0.00    -0.015 A 
ATOM     14  C   UNL A   1      35.557  22.830  23.967  1.00  0.00     0.013 A 
ATOM     15  C   UNL A   1      35.703  20.746  25.113  1.00  0.00     0.017 A 
ATOM     16  C   UNL A   1      36.250  22.002  24.826  1.00  0.00    -0.017 A 
BRANCH  13  17
ATOM     17  C   UNL A   1      33.965  18.970  24.776  1.00  0.00    -0.018 A 
ATOM     18  C   UNL A   1      32.937  18.724  25.693  1.00  0.00     0.009 A 
ATOM     19  C   UNL A   1      34.434  17.910  23.979  1.00  0.00     0.009 A 
ATOM     20  C   UNL A   1      32.397  17.444  25.813  1.00  0.00     0.001 A 
ATOM     21  C   UNL A   1      33.884  16.637  24.088  1.00  0.00     0.001 A 
ATOM     22  C   UNL A   1      32.868  16.404  25.012  1.00  0.00     0.000 A 
ENDBRANCH  13  17
BRANCH  16  23
ATOM     23  C   UNL A   1      37.470  22.572  25.387  1.00  0.00    -0.018 A 
ATOM     24  C   UNL A   1      38.563  21.744  25.678  1.00  0.00     0.009 A 
ATOM     25  C   UNL A   1      37.441  23.871  25.922  1.00  0.00     0.009 A 
ATOM     26  C   UNL A   1      39.600  22.204  26.490  1.00  0.00     0.001 A 
ATOM     27  C   UNL A   1      38.478  24.330  26.731  1.00  0.00     0.001 A 
ATOM     28  C   UNL A   1      39.555  23.495  27.017  1.00  0.00     0.000 A 
ENDBRANCH  16  23
ENDBRANCH   9  10
ENDBRANCH   7   9
ENDBRANCH   6   7
ENDBRANCH   5   6
ENDBRANCH   4   5
ENDBRANCH   3   4
ENDBRANCH   2   3
ENDBRANCH   1   2
BRANCH   1  29
ATOM     29  O   UNL A   1      34.517  29.217  26.271  1.00  0.00    -0.376 OA
BRANCH  29  30
ATOM     30  C   UNL A   1      34.924  29.317  27.658  1.00  0.00     0.202 C 
BRANCH  30  31
ATOM     31  C   UNL A   1      36.294  30.014  27.920  1.00  0.00     0.261 C 
BRANCH  31  32
ATOM     32  O   UNL A   1      37.358  29.044  27.770  1.00  0.00    -0.460 OA
BRANCH  32  33
ATOM     33  C   UNL A   1      38.096  28.669  28.870  1.00  0.00     0.338 C 
ATOM     34  O   UNL A   1      37.679  28.636  30.015  1.00  0.00    -0.246 OA
BRANCH  33  35
ATOM     35  C   UNL A   1      39.458  28.254  28.368  1.00  0.00     0.060 A 
ATOM     36  C   UNL A   1      40.328  27.314  28.931  1.00  0.00     0.016 A 
ATOM     37  C   UNL A   1      40.017  29.074  27.440  1.00  0.00     0.016 A 
ATOM     38  C   UNL A   1      41.773  27.357  28.700  1.00  0.00     0.010 A 
ATOM     39  C   UNL A   1      41.405  29.217  27.474  1.00  0.00     0.010 A 
ATOM     40  C   UNL A   1      42.408  28.413  28.020  1.00  0.00    -0.014 A 
BRANCH  40  41
ATOM     41  C   UNL A   1      43.948  28.888  28.158  1.00  0.00     0.031 A 
ATOM     42  C   UNL A   1      44.900  30.126  27.632  1.00  0.00     0.074 A 
ATOM     43  C   UNL A   1      44.629  28.110  29.031  1.00  0.00     0.049 A 
ATOM     44  N   UNL A   1      46.213  30.020  27.461  1.00  0.00    -0.248 NA
ATOM     45  C   UNL A   1      44.560  31.523  27.205  1.00  0.00     0.031 C 
ATOM     46  C   UNL A   1      45.944  28.314  29.624  1.00  0.00     0.029 A 
ATOM     47  N   UNL A   1      44.273  26.837  29.451  1.00  0.00    -0.354 N 
ATOM     48  C   UNL A   1      46.718  31.278  27.115  1.00  0.00     0.074 A 
ATOM     49  C   UNL A   1      45.637  31.984  26.595  1.00  0.00     0.031 C 
ATOM     50  C   UNL A   1      46.404  27.133  30.058  1.00  0.00     0.029 A 
ATOM     51  C   UNL A   1      45.449  26.114  29.669  1.00  0.00     0.049 A 
ATOM     52  H   UNL A   1      43.356  26.502  29.574  1.00  0.00     0.167 HD
ATOM     53  C   UNL A   1      47.944  31.783  27.426  1.00  0.00     0.034 A 
ATOM     54  C   UNL A   1      45.681  25.030  28.870  1.00  0.00     0.034 A 
ATOM     55  C   UNL A   1      48.827  30.698  27.771  1.00  0.00     0.049 A 
ATOM     56  C   UNL A   1      46.821  25.282  27.883  1.00  0.00     0.074 A 
ATOM     57  C   UNL A   1      49.335  30.158  28.932  1.00  0.00     0.029 A 
ATOM     58  N   UNL A   1      49.009  29.746  26.791  1.00  0.00    -0.354 N 
ATOM     59  N   UNL A   1      47.682  26.268  27.958  1.00  0.00    -0.248 NA
ATOM     60  C   UNL A   1      47.024  24.479  26.676  1.00  0.00     0.031 C 
ATOM     61  C   UNL A   1      49.604  28.772  28.657  1.00  0.00     0.029 A 
ATOM     62  C   UNL A   1      49.333  28.517  27.321  1.00  0.00     0.049 A 
ATOM     63  H   UNL A   1      48.917  29.922  25.827  1.00  0.00     0.167 HD
ATOM     64  C   UNL A   1      48.391  26.342  26.784  1.00  0.00     0.074 A 
ATOM     65  C   UNL A   1      47.964  25.180  26.027  1.00  0.00     0.031 C 
ATOM     66  C   UNL A   1      49.233  27.362  26.437  1.00  0.00     0.034 A 
BRANCH  53  67
ATOM     67  C   UNL A   1      48.289  33.290  27.424  1.00  0.00     0.023 A 
ATOM     68  C   UNL A   1      47.252  34.242  27.390  1.00  0.00     0.031 A 
ATOM     69  C   UNL A   1      49.595  33.863  27.352  1.00  0.00     0.131 A 
ATOM     70  C   UNL A   1      47.527  35.634  27.332  1.00  0.00     0.055 A 
ATOM     71  C   UNL A   1      49.865  35.238  27.409  1.00  0.00     0.041 A 
ATOM     72  F   UNL A   1      50.702  33.145  27.116  1.00  0.00    -0.206 F 
ATOM     73  C   UNL A   1      48.825  36.138  27.392  1.00  0.00     0.022 A 
BRANCH  70  74
ATOM     74  S   UNL A   1      46.173  36.808  27.044  1.00  0.00     0.124 S 
ATOM     75  O   UNL A   1      45.023  35.918  26.925  1.00  0.00    -0.237 OA
ATOM     76  O   UNL A   1      46.230  37.645  28.235  1.00  0.00    -0.237 OA
ATOM     77  O   UNL A   1      46.558  37.477  25.800  1.00  0.00    -0.744 OA
ENDBRANCH  70  74
ENDBRANCH  53  67
BRANCH  54  78
ATOM     78  C   UNL A   1      44.432  24.196  28.692  1.00  0.00     0.023 A 
ATOM     79  C   UNL A   1      44.164  23.754  27.367  1.00  0.00     0.031 A 
ATOM     80  C   UNL A   1      43.699  23.573  29.714  1.00  0.00     0.131 A 
ATOM     81  C   UNL A   1      43.353  22.639  27.120  1.00  0.00     0.055 A 
ATOM     82  C   UNL A   1      42.786  22.536  29.447  1.00  0.00     0.041 A 
ATOM     83  F   UNL A   1      43.939  23.834  31.005  1.00  0.00    -0.206 F 
ATOM     84  C   UNL A   1      42.634  22.041  28.152  1.00  0.00     0.022 A 
BRANCH  81  85
ATOM     85  S   UNL A   1      43.479  21.766  25.524  1.00  0.00     0.124 S 
ATOM     86  O   UNL A   1      43.029  22.783  24.581  1.00  0.00    -0.237 OA
ATOM     87  O   UNL A   1      44.890  21.401  25.440  1.00  0.00    -0.237 OA
ATOM     88  O   UNL A   1      42.576  20.635  25.721  1.00  0.00    -0.744 OA
ENDBRANCH  81  85
ENDBRANCH  54  78
BRANCH  66  89
ATOM     89  C   UNL A   1      50.000  27.313  25.135  1.00  0.00     0.023 A 
ATOM     90  C   UNL A   1      49.303  27.369  23.919  1.00  0.00     0.031 A 
ATOM     91  C   UNL A   1      51.399  27.135  25.048  1.00  0.00     0.131 A 
ATOM     92  C   UNL A   1      49.987  27.300  22.697  1.00  0.00     0.055 A 
ATOM     93  C   UNL A   1      52.061  26.948  23.832  1.00  0.00     0.041 A 
ATOM     94  F   UNL A   1      52.187  27.182  26.133  1.00  0.00    -0.206 F 
ATOM     95  C   UNL A   1      51.354  27.037  22.642  1.00  0.00     0.022 A 
BRANCH  92  96
ATOM     96  S   UNL A   1      49.071  27.661  21.181  1.00  0.00     0.124 S 
ATOM     97  O   UNL A   1      48.065  28.618  21.628  1.00  0.00    -0.237 OA
ATOM     98  O   UNL A   1      50.127  28.202  20.328  1.00  0.00    -0.237 OA
ATOM     99  O   UNL A   1      48.553  26.356  20.774  1.00  0.00    -0.744 OA
ENDBRANCH  92  96
ENDBRANCH  66  89
ENDBRANCH  40  41
ENDBRANCH  33  35
ENDBRANCH  32  33
ENDBRANCH  31  32
ENDBRANCH  30  31
ENDBRANCH  29  30
ENDBRANCH   1  29
TORSDOF 23
ENDMDL
MODEL 2
REMARK VINA RESULT:     -11.0      3.953      8.415
REMARK SMILES Cc1c(CC(=O)OCCOCCOCCOC(=O)c2ccc(-c3c4nc(c(-c5cc(S(=O)(=O)[O-])ccc5F)c5ccc([nH]5)c(-c5cc(S(=O)(=O)[O-])ccc5F)c5nc(c(-c6cc(S(=O)(=O)[O-])ccc6F)c6ccc3[nH]6)C=C5)C=C4)cc2)cc(-c2ccccc2)cc1-c1ccccc1
REMARK SMILES IDX 12 1 11 2 10 3 9 4 8 5 7 6 5 7 6 8 4 9 3 10 1 11 2 12 91 13
REMARK SMILES IDX 82 14 90 15 83 16 92 17 93 18 97 19 94 20 96 21 95 22 84 23
REMARK SMILES IDX 85 24 89 25 86 26 88 27 87 28 13 29 14 30 15 31 16 32 17 33
REMARK SMILES IDX 18 34 19 35 20 36 81 37 21 38 80 39 22 40 23 41 24 42 74 43
REMARK SMILES IDX 25 44 79 45 73 46 75 47 26 48 78 49 72 50 71 51 27 53 59 54
REMARK SMILES IDX 39 55 58 56 40 57 43 58 57 59 76 60 41 61 42 62 56 64 77 65
REMARK SMILES IDX 44 66 28 67 29 68 37 69 30 70 36 71 38 72 35 73 31 74 32 75
REMARK SMILES IDX 33 76 34 77 60 78 61 79 69 80 62 81 68 82 70 83 67 84 63 85
REMARK SMILES IDX 64 86 65 87 66 88 45 89 46 90 54 91 47 92 53 93 55 94 52 95
REMARK SMILES IDX 48 96 49 97 50 98 51 99
REMARK H PARENT 75 52 43 63
REMARK Flexibility Score: inf
ROOT
ATOM      1  C   UNL A   1      33.205  25.671  26.151  1.00  0.00     0.188 C 
ENDROOT
BRANCH   1   2
ATOM      2  C   UNL A   1      31.819  25.701  26.788  1.00  0.00     0.188 C 
BRANCH   2   3
ATOM      3  O   UNL A   1      31.503  24.405  27.314  1.00  0.00    -0.376 OA
BRANCH   3   4
ATOM      4  C   UNL A   1      30.477  23.559  26.798  1.00  0.00     0.202 C 
BRANCH   4   5
ATOM      5  C   UNL A   1      30.726  22.591  25.473  1.00  0.00     0.261 C 
BRANCH   5   6
ATOM      6  O   UNL A   1      31.110  22.976  23.917  1.00  0.00    -0.463 OA
BRANCH   6   7
ATOM      7  C   UNL A   1      32.050  23.541  23.038  1.00  0.00     0.310 C 
ATOM      8  O   UNL A   1      32.210  24.699  22.656  1.00  0.00    -0.252 OA
BRANCH   7   9
ATOM      9  C   UNL A   1      33.062  22.636  22.435  1.00  0.00     0.158 C 
BRANCH   9  10
ATOM     10  C   UNL A   1      33.852  21.967  23.479  1.00  0.00    -0.033 A 
ATOM     11  C   UNL A   1      35.384  23.978  23.702  1.00  0.00     0.045 C 
ATOM     12  C   UNL A   1      35.009  22.540  24.027  1.00  0.00    -0.039 A 
ATOM     13  C   UNL A   1      35.785  21.735  24.881  1.00  0.00    -0.015 A 
ATOM     14  C   UNL A   1      33.468  20.665  23.750  1.00  0.00     0.013 A 
ATOM     15  C   UNL A   1      35.426  20.374  25.077  1.00  0.00     0.017 A 
ATOM     16  C   UNL A   1      34.265  19.835  24.512  1.00  0.00    -0.017 A 
BRANCH  13  17
ATOM     17  C   UNL A   1      36.948  22.308  25.561  1.00  0.00    -0.018 A 
ATOM     18  C   UNL A   1      38.152  21.602  25.666  1.00  0.00     0.009 A 
ATOM     19  C   UNL A   1      36.897  23.639  26.016  1.00  0.00     0.009 A 
ATOM     20  C   UNL A   1      39.277  22.213  26.220  1.00  0.00     0.001 A 
ATOM     21  C   UNL A   1      38.024  24.253  26.553  1.00  0.00     0.001 A 
ATOM     22  C   UNL A   1      39.213  23.535  26.660  1.00  0.00     0.000 A 
ENDBRANCH  13  17
BRANCH  16  23
ATOM     23  C   UNL A   1      33.819  18.449  24.591  1.00  0.00    -0.018 A 
ATOM     24  C   UNL A   1      32.590  18.139  25.189  1.00  0.00     0.009 A 
ATOM     25  C   UNL A   1      34.740  17.413  24.360  1.00  0.00     0.009 A 
ATOM     26  C   UNL A   1      32.292  16.826  25.553  1.00  0.00     0.001 A 
ATOM     27  C   UNL A   1      34.441  16.101  24.722  1.00  0.00     0.001 A 
ATOM     28  C   UNL A   1      33.219  15.810  25.321  1.00  0.00     0.000 A 
ENDBRANCH  16  23
ENDBRANCH   9  10
ENDBRANCH   7   9
ENDBRANCH   6   7
ENDBRANCH   5   6
ENDBRANCH   4   5
ENDBRANCH   3   4
ENDBRANCH   2   3
ENDBRANCH   1   2
BRANCH   1  29
ATOM     29  O   UNL A   1      33.736  26.908  25.688  1.00  0.00    -0.376 OA
BRANCH  29  30
ATOM     30  C   UNL A   1      33.299  28.006  26.526  1.00  0.00     0.202 C 
BRANCH  30  31
ATOM     31  C   UNL A   1      34.133  29.319  26.422  1.00  0.00     0.261 C 
BRANCH  31  32
ATOM     32  O   UNL A   1      34.423  29.807  27.753  1.00  0.00    -0.460 OA
BRANCH  32  33
ATOM     33  C   UNL A   1      35.548  30.571  27.968  1.00  0.00     0.338 C 
ATOM     34  O   UNL A   1      35.575  31.789  27.983  1.00  0.00    -0.246 OA
BRANCH  33  35
ATOM     35  C   UNL A   1      36.685  29.616  28.240  1.00  0.00     0.060 A 
ATOM     36  C   UNL A   1      37.018  29.006  29.454  1.00  0.00     0.016 A 
ATOM     37  C   UNL A   1      37.649  29.562  27.283  1.00  0.00     0.016 A 
ATOM     38  C   UNL A   1      38.377  28.541  29.742  1.00  0.00     0.010 A 
ATOM     39  C   UNL A   1      38.958  29.344  27.714  1.00  0.00     0.010 A 
ATOM     40  C   UNL A   1      39.469  28.795  28.893  1.00  0.00    -0.014 A 
BRANCH  40  41
ATOM     41  C   UNL A   1      41.035  28.856  29.293  1.00  0.00     0.031 A 
ATOM     42  C   UNL A   1      42.405  27.981  29.020  1.00  0.00     0.074 A 
ATOM     43  C   UNL A   1      41.331  29.997  29.956  1.00  0.00     0.049 A 
ATOM     44  N   UNL A   1      43.435  27.951  29.856  1.00  0.00    -0.248 NA
ATOM     45  C   UNL A   1      42.777  27.051  27.903  1.00  0.00     0.031 C 
ATOM     46  C   UNL A   1      42.631  30.564  30.291  1.00  0.00     0.029 A 
ATOM     47  N   UNL A   1      40.432  30.828  30.610  1.00  0.00    -0.354 N 
ATOM     48  C   UNL A   1      44.463  27.206  29.269  1.00  0.00     0.074 A 
ATOM     49  C   UNL A   1      43.840  26.391  28.327  1.00  0.00     0.031 C 
ATOM     50  C   UNL A   1      42.472  31.430  31.302  1.00  0.00     0.029 A 
ATOM     51  C   UNL A   1      41.084  31.376  31.719  1.00  0.00     0.049 A 
ATOM     52  H   UNL A   1      39.502  31.001  30.341  1.00  0.00     0.167 HD
ATOM     53  C   UNL A   1      45.803  27.395  29.420  1.00  0.00     0.034 A 
ATOM     54  C   UNL A   1      40.609  31.046  32.956  1.00  0.00     0.034 A 
ATOM     55  C   UNL A   1      46.038  28.173  30.610  1.00  0.00     0.049 A 
ATOM     56  C   UNL A   1      41.564  30.116  33.706  1.00  0.00     0.074 A 
ATOM     57  C   UNL A   1      46.351  29.483  30.898  1.00  0.00     0.029 A 
ATOM     58  N   UNL A   1      45.563  27.623  31.782  1.00  0.00    -0.354 N 
ATOM     59  N   UNL A   1      42.811  29.885  33.372  1.00  0.00    -0.248 NA
ATOM     60  C   UNL A   1      41.153  29.303  34.851  1.00  0.00     0.031 C 
ATOM     61  C   UNL A   1      45.825  29.752  32.209  1.00  0.00     0.029 A 
ATOM     62  C   UNL A   1      45.278  28.586  32.723  1.00  0.00     0.049 A 
ATOM     63  H   UNL A   1      45.441  26.658  31.928  1.00  0.00     0.167 HD
ATOM     64  C   UNL A   1      43.284  28.817  34.094  1.00  0.00     0.074 A 
ATOM     65  C   UNL A   1      42.218  28.509  35.030  1.00  0.00     0.031 C 
ATOM     66  C   UNL A   1      44.473  28.180  33.870  1.00  0.00     0.034 A 
BRANCH  53  67
ATOM     67  C   UNL A   1      46.871  26.866  28.436  1.00  0.00     0.023 A 
ATOM     68  C   UNL A   1      46.829  27.259  27.085  1.00  0.00     0.031 A 
ATOM     69  C   UNL A   1      47.890  25.906  28.722  1.00  0.00     0.131 A 
ATOM     70  C   UNL A   1      47.759  26.753  26.137  1.00  0.00     0.055 A 
ATOM     71  C   UNL A   1      48.875  25.496  27.811  1.00  0.00     0.041 A 
ATOM     72  F   UNL A   1      47.947  25.213  29.867  1.00  0.00    -0.206 F 
ATOM     73  C   UNL A   1      48.810  25.915  26.503  1.00  0.00     0.022 A 
BRANCH  70  74
ATOM     74  S   UNL A   1      47.519  27.093  24.371  1.00  0.00     0.124 S 
ATOM     75  O   UNL A   1      48.490  28.156  24.133  1.00  0.00    -0.237 OA
ATOM     76  O   UNL A   1      47.805  25.800  23.764  1.00  0.00    -0.237 OA
ATOM     77  O   UNL A   1      46.120  27.517  24.290  1.00  0.00    -0.744 OA
ENDBRANCH  70  74
ENDBRANCH  53  67
BRANCH  54  78
ATOM     78  C   UNL A   1      39.099  31.099  33.003  1.00  0.00     0.023 A 
ATOM     79  C   UNL A   1      38.517  32.386  32.834  1.00  0.00     0.031 A 
ATOM     80  C   UNL A   1      38.227  30.005  32.891  1.00  0.00     0.131 A 
ATOM     81  C   UNL A   1      37.193  32.537  32.401  1.00  0.00     0.055 A 
ATOM     82  C   UNL A   1      36.865  30.170  32.581  1.00  0.00     0.041 A 
ATOM     83  F   UNL A   1      38.678  28.745  32.929  1.00  0.00    -0.206 F 
ATOM     84  C   UNL A   1      36.349  31.434  32.300  1.00  0.00     0.022 A 
BRANCH  81  85
ATOM     85  S   UNL A   1      36.661  34.116  31.660  1.00  0.00     0.124 S 
ATOM     86  O   UNL A   1      35.284  33.826  31.276  1.00  0.00    -0.237 OA
ATOM     87  O   UNL A   1      36.829  35.081  32.743  1.00  0.00    -0.237 OA
ATOM     88  O   UNL A   1      37.609  34.274  30.561  1.00  0.00    -0.744 OA
ENDBRANCH  81  85
ENDBRANCH  54  78
BRANCH  66  89
ATOM     89  C   UNL A   1      44.914  27.043  34.763  1.00  0.00     0.023 A 
ATOM     90  C   UNL A   1      44.803  25.721  34.304  1.00  0.00     0.031 A 
ATOM     91  C   UNL A   1      45.373  27.210  36.088  1.00  0.00     0.131 A 
ATOM     92  C   UNL A   1      45.181  24.645  35.121  1.00  0.00     0.055 A 
ATOM     93  C   UNL A   1      45.635  26.132  36.937  1.00  0.00     0.041 A 
ATOM     94  F   UNL A   1      45.631  28.423  36.599  1.00  0.00    -0.206 F 
ATOM     95  C   UNL A   1      45.545  24.836  36.452  1.00  0.00     0.022 A 
BRANCH  92  96
ATOM     96  S   UNL A   1      45.281  23.000  34.379  1.00  0.00     0.124 S 
ATOM     97  O   UNL A   1      44.618  23.183  33.092  1.00  0.00    -0.237 OA
ATOM     98  O   UNL A   1      46.727  22.796  34.324  1.00  0.00    -0.237 OA
ATOM     99  O   UNL A   1      44.570  22.150  35.331  1.00  0.00    -0.744 OA
ENDBRANCH  92  96
ENDBRANCH  66  89
ENDBRANCH  40  41
ENDBRANCH  33  35
ENDBRANCH  32  33
ENDBRANCH  31  32
ENDBRANCH  30  31
ENDBRANCH  29  30
ENDBRANCH   1  29
TORSDOF 23
ENDMDL
MODEL 3
REMARK VINA RESULT:     -10.5      4.662      9.025
REMARK SMILES Cc1c(CC(=O)OCCOCCOCCOC(=O)c2ccc(-c3c4nc(c(-c5cc(S(=O)(=O)[O-])ccc5F)c5ccc([nH]5)c(-c5cc(S(=O)(=O)[O-])ccc5F)c5nc(c(-c6cc(S(=O)(=O)[O-])ccc6F)c6ccc3[nH]6)C=C5)C=C4)cc2)cc(-c2ccccc2)cc1-c1ccccc1
REMARK SMILES IDX 12 1 11 2 10 3 9 4 8 5 7 6 5 7 6 8 4 9 3 10 1 11 2 12 91 13
REMARK SMILES IDX 82 14 90 15 83 16 92 17 93 18 97 19 94 20 96 21 95 22 84 23
REMARK SMILES IDX 85 24 89 25 86 26 88 27 87 28 13 29 14 30 15 31 16 32 17 33
REMARK SMILES IDX 18 34 19 35 20 36 81 37 21 38 80 39 22 40 23 41 24 42 74 43
REMARK SMILES IDX 25 44 79 45 73 46 75 47 26 48 78 49 72 50 71 51 27 53 59 54
REMARK SMILES IDX 39 55 58 56 40 57 43 58 57 59 76 60 41 61 42 62 56 64 77 65
REMARK SMILES IDX 44 66 28 67 29 68 37 69 30 70 36 71 38 72 35 73 31 74 32 75
REMARK SMILES IDX 33 76 34 77 60 78 61 79 69 80 62 81 68 82 70 83 67 84 63 85
REMARK SMILES IDX 64 86 65 87 66 88 45 89 46 90 54 91 47 92 53 93 55 94 52 95
REMARK SMILES IDX 48 96 49 97 50 98 51 99
REMARK H PARENT 75 52 43 63
REMARK Flexibility Score: inf
ROOT
ATOM      1  C   UNL A   1      33.195  25.505  25.818  1.00  0.00     0.188 C 
ENDROOT
BRANCH   1   2
ATOM      2  C   UNL A   1      31.787  25.616  26.395  1.00  0.00     0.188 C 
BRANCH   2   3
ATOM      3  O   UNL A   1      31.515  24.479  27.225  1.00  0.00    -0.376 OA
BRANCH   3   4
ATOM      4  C   UNL A   1      30.547  23.476  26.920  1.00  0.00     0.202 C 
BRANCH   4   5
ATOM      5  C   UNL A   1      30.719  22.461  25.618  1.00  0.00     0.261 C 
BRANCH   5   6
ATOM      6  O   UNL A   1      31.029  22.788  24.033  1.00  0.00    -0.463 OA
BRANCH   6   7
ATOM      7  C   UNL A   1      31.899  23.372  23.095  1.00  0.00     0.310 C 
ATOM      8  O   UNL A   1      31.969  24.519  22.658  1.00  0.00    -0.252 OA
BRANCH   7   9
ATOM      9  C   UNL A   1      32.946  22.507  22.495  1.00  0.00     0.158 C 
BRANCH   9  10
ATOM     10  C   UNL A   1      33.813  21.936  23.536  1.00  0.00    -0.033 A 
ATOM     11  C   UNL A   1      35.309  23.986  23.509  1.00  0.00     0.045 C 
ATOM     12  C   UNL A   1      34.988  22.571  23.966  1.00  0.00    -0.039 A 
ATOM     13  C   UNL A   1      35.831  21.850  24.830  1.00  0.00    -0.015 A 
ATOM     14  C   UNL A   1      33.476  20.652  23.931  1.00  0.00     0.013 A 
ATOM     15  C   UNL A   1      35.517  20.503  25.152  1.00  0.00     0.017 A 
ATOM     16  C   UNL A   1      34.337  19.899  24.703  1.00  0.00    -0.017 A 
BRANCH  13  17
ATOM     17  C   UNL A   1      37.019  22.497  25.391  1.00  0.00    -0.018 A 
ATOM     18  C   UNL A   1      36.942  23.745  26.019  1.00  0.00     0.009 A 
ATOM     19  C   UNL A   1      38.243  21.802  25.407  1.00  0.00     0.009 A 
ATOM     20  C   UNL A   1      38.065  24.288  26.643  1.00  0.00     0.001 A 
ATOM     21  C   UNL A   1      39.359  22.337  26.043  1.00  0.00     0.001 A 
ATOM     22  C   UNL A   1      39.269  23.584  26.656  1.00  0.00     0.000 A 
ENDBRANCH  13  17
BRANCH  16  23
ATOM     23  C   UNL A   1      33.928  18.516  24.916  1.00  0.00    -0.018 A 
ATOM     24  C   UNL A   1      34.813  17.468  24.624  1.00  0.00     0.009 A 
ATOM     25  C   UNL A   1      32.568  18.221  25.107  1.00  0.00     0.009 A 
ATOM     26  C   UNL A   1      34.346  16.158  24.521  1.00  0.00     0.001 A 
ATOM     27  C   UNL A   1      32.103  16.911  25.006  1.00  0.00     0.001 A 
ATOM     28  C   UNL A   1      32.992  15.881  24.710  1.00  0.00     0.000 A 
ENDBRANCH  16  23
ENDBRANCH   9  10
ENDBRANCH   7   9
ENDBRANCH   6   7
ENDBRANCH   5   6
ENDBRANCH   4   5
ENDBRANCH   3   4
ENDBRANCH   2   3
ENDBRANCH   1   2
BRANCH   1  29
ATOM     29  O   UNL A   1      33.939  26.710  25.682  1.00  0.00    -0.376 OA
BRANCH  29  30
ATOM     30  C   UNL A   1      33.455  27.726  26.595  1.00  0.00     0.202 C 
BRANCH  30  31
ATOM     31  C   UNL A   1      34.145  29.121  26.494  1.00  0.00     0.261 C 
BRANCH  31  32
ATOM     32  O   UNL A   1      34.697  29.474  27.785  1.00  0.00    -0.460 OA
BRANCH  32  33
ATOM     33  C   UNL A   1      35.796  30.300  27.851  1.00  0.00     0.338 C 
ATOM     34  O   UNL A   1      35.763  31.517  27.775  1.00  0.00    -0.246 OA
BRANCH  33  35
ATOM     35  C   UNL A   1      36.997  29.421  28.100  1.00  0.00     0.060 A 
ATOM     36  C   UNL A   1      37.222  28.565  29.184  1.00  0.00     0.016 A 
ATOM     37  C   UNL A   1      38.093  29.695  27.344  1.00  0.00     0.016 A 
ATOM     38  C   UNL A   1      38.571  28.176  29.598  1.00  0.00     0.010 A 
ATOM     39  C   UNL A   1      39.339  29.504  27.941  1.00  0.00     0.010 A 
ATOM     40  C   UNL A   1      39.735  28.734  29.038  1.00  0.00    -0.014 A 
BRANCH  40  41
ATOM     41  C   UNL A   1      41.199  28.843  29.715  1.00  0.00     0.031 A 
ATOM     42  C   UNL A   1      42.617  28.002  29.712  1.00  0.00     0.074 A 
ATOM     43  C   UNL A   1      41.342  30.001  30.400  1.00  0.00     0.049 A 
ATOM     44  N   UNL A   1      43.478  28.012  30.723  1.00  0.00    -0.248 NA
ATOM     45  C   UNL A   1      43.210  27.067  28.700  1.00  0.00     0.031 C 
ATOM     46  C   UNL A   1      42.545  30.607  30.955  1.00  0.00     0.029 A 
ATOM     47  N   UNL A   1      40.319  30.815  30.863  1.00  0.00    -0.354 N 
ATOM     48  C   UNL A   1      44.613  27.287  30.346  1.00  0.00     0.074 A 
ATOM     49  C   UNL A   1      44.193  26.442  29.322  1.00  0.00     0.031 C 
ATOM     50  C   UNL A   1      42.182  31.483  31.903  1.00  0.00     0.029 A 
ATOM     51  C   UNL A   1      40.744  31.397  32.062  1.00  0.00     0.049 A 
ATOM     52  H   UNL A   1      39.449  30.959  30.426  1.00  0.00     0.167 HD
ATOM     53  C   UNL A   1      45.898  27.515  30.735  1.00  0.00     0.034 A 
ATOM     54  C   UNL A   1      40.059  31.071  33.198  1.00  0.00     0.034 A 
ATOM     55  C   UNL A   1      45.893  28.315  31.933  1.00  0.00     0.049 A 
ATOM     56  C   UNL A   1      40.884  30.178  34.126  1.00  0.00     0.074 A 
ATOM     57  C   UNL A   1      46.117  29.637  32.249  1.00  0.00     0.029 A 
ATOM     58  N   UNL A   1      45.226  27.769  33.009  1.00  0.00    -0.354 N 
ATOM     59  N   UNL A   1      42.176  29.977  34.029  1.00  0.00    -0.248 NA
ATOM     60  C   UNL A   1      40.290  29.370  35.192  1.00  0.00     0.031 C 
ATOM     61  C   UNL A   1      45.353  29.910  33.438  1.00  0.00     0.029 A 
ATOM     62  C   UNL A   1      44.750  28.737  33.865  1.00  0.00     0.049 A 
ATOM     63  H   UNL A   1      45.103  26.803  33.149  1.00  0.00     0.167 HD
ATOM     64  C   UNL A   1      42.535  28.932  34.846  1.00  0.00     0.074 A 
ATOM     65  C   UNL A   1      41.323  28.608  35.577  1.00  0.00     0.031 C 
ATOM     66  C   UNL A   1      43.760  28.325  34.853  1.00  0.00     0.034 A 
BRANCH  53  67
ATOM     67  C   UNL A   1      47.141  27.002  29.972  1.00  0.00     0.023 A 
ATOM     68  C   UNL A   1      47.395  27.460  28.666  1.00  0.00     0.031 A 
ATOM     69  C   UNL A   1      48.057  25.999  30.415  1.00  0.00     0.131 A 
ATOM     70  C   UNL A   1      48.494  26.972  27.910  1.00  0.00     0.055 A 
ATOM     71  C   UNL A   1      49.205  25.604  29.713  1.00  0.00     0.041 A 
ATOM     72  F   UNL A   1      47.856  25.250  31.509  1.00  0.00    -0.206 F 
ATOM     73  C   UNL A   1      49.427  26.086  28.445  1.00  0.00     0.022 A 
BRANCH  70  74
ATOM     74  S   UNL A   1      48.642  27.404  26.154  1.00  0.00     0.124 S 
ATOM     75  O   UNL A   1      47.583  26.598  25.556  1.00  0.00    -0.237 OA
ATOM     76  O   UNL A   1      48.435  28.846  26.170  1.00  0.00    -0.237 OA
ATOM     77  O   UNL A   1      50.000  26.979  25.809  1.00  0.00    -0.744 OA
ENDBRANCH  70  74
ENDBRANCH  53  67
BRANCH  54  78
ATOM     78  C   UNL A   1      38.565  31.084  32.967  1.00  0.00     0.023 A 
ATOM     79  C   UNL A   1      37.986  32.357  32.710  1.00  0.00     0.031 A 
ATOM     80  C   UNL A   1      37.760  29.969  32.686  1.00  0.00     0.131 A 
ATOM     81  C   UNL A   1      36.761  32.480  32.043  1.00  0.00     0.055 A 
ATOM     82  C   UNL A   1      36.473  30.102  32.133  1.00  0.00     0.041 A 
ATOM     83  F   UNL A   1      38.233  28.721  32.792  1.00  0.00    -0.206 F 
ATOM     84  C   UNL A   1      35.981  31.358  31.777  1.00  0.00     0.022 A 
BRANCH  81  85
ATOM     85  S   UNL A   1      36.327  34.056  31.235  1.00  0.00     0.124 S 
ATOM     86  O   UNL A   1      36.933  33.903  29.917  1.00  0.00    -0.237 OA
ATOM     87  O   UNL A   1      34.867  34.071  31.265  1.00  0.00    -0.237 OA
ATOM     88  O   UNL A   1      36.956  35.036  32.116  1.00  0.00    -0.744 OA
ENDBRANCH  81  85
ENDBRANCH  54  78
BRANCH  66  89
ATOM     89  C   UNL A   1      44.058  27.213  35.833  1.00  0.00     0.023 A 
ATOM     90  C   UNL A   1      44.601  27.525  37.089  1.00  0.00     0.031 A 
ATOM     91  C   UNL A   1      43.898  25.840  35.543  1.00  0.00     0.131 A 
ATOM     92  C   UNL A   1      44.911  26.511  38.007  1.00  0.00     0.055 A 
ATOM     93  C   UNL A   1      44.317  24.831  36.413  1.00  0.00     0.041 A 
ATOM     94  F   UNL A   1      43.284  25.420  34.426  1.00  0.00    -0.206 F 
ATOM     95  C   UNL A   1      44.824  25.164  37.660  1.00  0.00     0.022 A 
BRANCH  92  96
ATOM     96  S   UNL A   1      45.335  26.988  39.698  1.00  0.00     0.124 S 
ATOM     97  O   UNL A   1      45.274  28.445  39.651  1.00  0.00    -0.237 OA
ATOM     98  O   UNL A   1      44.273  26.332  40.458  1.00  0.00    -0.237 OA
ATOM     99  O   UNL A   1      46.671  26.426  39.888  1.00  0.00    -0.744 OA
ENDBRANCH  92  96
ENDBRANCH  66  89
ENDBRANCH  40  41
ENDBRANCH  33  35
ENDBRANCH  32  33
ENDBRANCH  31  32
ENDBRANCH  30  31
ENDBRANCH  29  30
ENDBRANCH   1  29
TORSDOF 23
ENDMDL
