MODEL 1
REMARK VINA RESULT:      -9.8      0.000      0.000
REMARK SMILES CC(C)(C)c1ccc(C(=O)C[C@H](C(=O)OCCOCCOCCOC(=O)c2ccc(-c3c4nc(c(-c5cc(S(=O)(=O)[O-])ccc5F)c5ccc([nH]5)c(-c5cc(S(=O)(=O)[O-])ccc5F)c5nc(c(-c6cc(S(=O)(=O)[O-])ccc6F)c6ccc3[nH]6)C=C5)C=C4)cc2)[NH+]2CCCC2)cc1
REMARK SMILES IDX 19 1 18 2 17 3 16 4 15 5 13 6 14 7 12 8 11 9 9 10 10 11 8 12
REMARK SMILES IDX 5 13 6 14 96 15 7 16 95 17 2 18 1 19 3 20 4 21 90 22 91 23
REMARK SMILES IDX 94 24 92 26 93 27 20 28 21 29 22 30 23 31 24 32 25 33 26 34
REMARK SMILES IDX 27 35 28 36 89 37 29 38 88 39 30 40 31 41 32 42 82 43 33 44
REMARK SMILES IDX 87 45 81 46 83 47 34 48 86 49 80 50 79 51 35 53 67 54 47 55
REMARK SMILES IDX 66 56 48 57 51 58 65 59 84 60 49 61 50 62 64 64 85 65 52 66
REMARK SMILES IDX 36 67 37 68 45 69 38 70 44 71 46 72 43 73 39 74 40 75 41 76
REMARK SMILES IDX 42 77 68 78 69 79 77 80 70 81 76 82 78 83 75 84 71 85 72 86
REMARK SMILES IDX 73 87 74 88 53 89 54 90 62 91 55 92 61 93 63 94 60 95 56 96
REMARK SMILES IDX 57 97 58 98 59 99
REMARK H PARENT 90 25 83 52 51 63
REMARK Flexibility Score: inf
ROOT
ATOM      1  C   UNL A   1      34.056  28.932  26.594  1.00  0.00     0.188 C 
ENDROOT
BRANCH   1   2
ATOM      2  O   UNL A   1      33.927  28.597  25.218  1.00  0.00    -0.376 OA
BRANCH   2   3
ATOM      3  C   UNL A   1      32.843  29.206  24.523  1.00  0.00     0.202 C 
BRANCH   3   4
ATOM      4  C   UNL A   1      31.438  28.939  25.081  1.00  0.00     0.261 C 
BRANCH   4   5
ATOM      5  O   UNL A   1      31.007  27.594  24.833  1.00  0.00    -0.459 OA
BRANCH   5   6
ATOM      6  C   UNL A   1      31.122  26.665  25.819  1.00  0.00     0.365 C 
ATOM      7  O   UNL A   1      31.180  26.925  27.013  1.00  0.00    -0.245 OA
BRANCH   6   8
ATOM      8  C   UNL A   1      31.201  25.257  25.174  1.00  0.00     0.302 C 
BRANCH   8   9
ATOM      9  C   UNL A   1      30.349  24.302  26.020  1.00  0.00     0.158 C 
BRANCH   9  10
ATOM     10  C   UNL A   1      31.256  23.320  26.766  1.00  0.00     0.169 C 
ATOM     11  O   UNL A   1      30.816  22.661  27.709  1.00  0.00    -0.294 OA
BRANCH  10  12
ATOM     12  C   UNL A   1      32.686  23.131  26.338  1.00  0.00     0.018 A 
ATOM     13  C   UNL A   1      35.354  22.749  25.385  1.00  0.00    -0.043 A 
ATOM     14  C   UNL A   1      34.379  21.743  25.263  1.00  0.00     0.005 A 
ATOM     15  C   UNL A   1      34.963  23.935  26.023  1.00  0.00     0.005 A 
ATOM     16  C   UNL A   1      33.068  21.929  25.736  1.00  0.00     0.012 A 
ATOM     17  C   UNL A   1      33.658  24.118  26.497  1.00  0.00     0.012 A 
BRANCH  13  18
ATOM     18  C   UNL A   1      36.766  22.617  24.783  1.00  0.00    -0.013 C 
ATOM     19  C   UNL A   1      37.398  21.224  24.999  1.00  0.00     0.016 C 
ATOM     20  C   UNL A   1      37.757  23.647  25.376  1.00  0.00     0.016 C 
ATOM     21  C   UNL A   1      36.653  22.865  23.263  1.00  0.00     0.016 C 
ENDBRANCH  13  18
ENDBRANCH  10  12
ENDBRANCH   9  10
ENDBRANCH   8   9
BRANCH   8  22
ATOM     22  N   UNL A   1      31.145  25.255  23.679  1.00  0.00    -0.323 N 
ATOM     23  C   UNL A   1      30.616  24.067  23.005  1.00  0.00     0.263 C 
ATOM     24  C   UNL A   1      32.420  25.483  22.984  1.00  0.00     0.263 C 
ATOM     25  H   UNL A   1      30.496  26.038  23.599  1.00  0.00     0.348 HD
ATOM     26  C   UNL A   1      31.812  23.147  22.887  1.00  0.00     0.067 C 
ATOM     27  C   UNL A   1      32.977  24.101  22.662  1.00  0.00     0.067 C 
ENDBRANCH   8  22
ENDBRANCH   6   8
ENDBRANCH   5   6
ENDBRANCH   4   5
ENDBRANCH   3   4
ENDBRANCH   2   3
ENDBRANCH   1   2
BRANCH   1  28
ATOM     28  C   UNL A   1      34.002  30.452  26.878  1.00  0.00     0.188 C 
BRANCH  28  29
ATOM     29  O   UNL A   1      32.850  31.023  27.481  1.00  0.00    -0.376 OA
BRANCH  29  30
ATOM     30  C   UNL A   1      32.173  32.064  26.789  1.00  0.00     0.202 C 
BRANCH  30  31
ATOM     31  C   UNL A   1      32.009  33.440  27.458  1.00  0.00     0.261 C 
BRANCH  31  32
ATOM     32  O   UNL A   1      33.198  34.250  27.517  1.00  0.00    -0.460 OA
BRANCH  32  33
ATOM     33  C   UNL A   1      33.695  34.470  28.760  1.00  0.00     0.338 C 
ATOM     34  O   UNL A   1      33.236  35.226  29.610  1.00  0.00    -0.246 OA
BRANCH  33  35
ATOM     35  C   UNL A   1      34.786  33.520  29.054  1.00  0.00     0.060 A 
ATOM     36  C   UNL A   1      34.526  32.451  29.924  1.00  0.00     0.016 A 
ATOM     37  C   UNL A   1      36.071  33.716  28.545  1.00  0.00     0.016 A 
ATOM     38  C   UNL A   1      35.554  31.587  30.305  1.00  0.00     0.010 A 
ATOM     39  C   UNL A   1      37.107  32.865  28.952  1.00  0.00     0.010 A 
ATOM     40  C   UNL A   1      36.860  31.815  29.856  1.00  0.00    -0.014 A 
BRANCH  40  41
ATOM     41  C   UNL A   1      37.987  31.080  30.484  1.00  0.00     0.031 A 
ATOM     42  C   UNL A   1      38.354  31.408  31.908  1.00  0.00     0.074 A 
ATOM     43  C   UNL A   1      38.653  30.117  29.820  1.00  0.00     0.049 A 
ATOM     44  N   UNL A   1      39.319  30.931  32.651  1.00  0.00    -0.248 NA
ATOM     45  C   UNL A   1      37.514  32.412  32.578  1.00  0.00     0.031 C 
ATOM     46  C   UNL A   1      38.360  29.672  28.460  1.00  0.00     0.029 A 
ATOM     47  N   UNL A   1      39.723  29.347  30.205  1.00  0.00    -0.354 N 
ATOM     48  C   UNL A   1      39.206  31.578  33.877  1.00  0.00     0.074 A 
ATOM     49  C   UNL A   1      38.101  32.507  33.761  1.00  0.00     0.031 C 
ATOM     50  C   UNL A   1      39.240  28.715  28.117  1.00  0.00     0.029 A 
ATOM     51  C   UNL A   1      40.180  28.505  29.217  1.00  0.00     0.049 A 
ATOM     52  H   UNL A   1      40.124  29.391  31.102  1.00  0.00     0.167 HD
ATOM     53  C   UNL A   1      39.948  31.409  34.999  1.00  0.00     0.034 A 
ATOM     54  C   UNL A   1      41.249  27.682  29.197  1.00  0.00     0.034 A 
ATOM     55  C   UNL A   1      41.062  30.496  35.096  1.00  0.00     0.049 A 
ATOM     56  C   UNL A   1      42.124  27.582  30.426  1.00  0.00     0.074 A 
ATOM     57  C   UNL A   1      41.876  30.241  36.185  1.00  0.00     0.029 A 
ATOM     58  N   UNL A   1      41.529  29.699  34.059  1.00  0.00    -0.354 N 
ATOM     59  N   UNL A   1      42.002  28.192  31.583  1.00  0.00    -0.248 NA
ATOM     60  C   UNL A   1      43.279  26.676  30.345  1.00  0.00     0.031 C 
ATOM     61  C   UNL A   1      42.877  29.349  35.787  1.00  0.00     0.029 A 
ATOM     62  C   UNL A   1      42.641  28.980  34.472  1.00  0.00     0.049 A 
ATOM     63  H   UNL A   1      41.128  29.650  33.161  1.00  0.00     0.167 HD
ATOM     64  C   UNL A   1      43.047  27.717  32.376  1.00  0.00     0.074 A 
ATOM     65  C   UNL A   1      43.776  26.760  31.570  1.00  0.00     0.031 C 
ATOM     66  C   UNL A   1      43.371  28.039  33.655  1.00  0.00     0.034 A 
BRANCH  53  67
ATOM     67  C   UNL A   1      39.610  32.277  36.187  1.00  0.00     0.023 A 
ATOM     68  C   UNL A   1      40.344  33.438  36.490  1.00  0.00     0.031 A 
ATOM     69  C   UNL A   1      38.563  31.917  37.054  1.00  0.00     0.131 A 
ATOM     70  C   UNL A   1      40.068  34.155  37.663  1.00  0.00     0.055 A 
ATOM     71  C   UNL A   1      38.242  32.678  38.179  1.00  0.00     0.041 A 
ATOM     72  F   UNL A   1      37.843  30.806  36.831  1.00  0.00    -0.206 F 
ATOM     73  C   UNL A   1      39.007  33.797  38.499  1.00  0.00     0.022 A 
BRANCH  70  74
ATOM     74  S   UNL A   1      41.208  35.475  38.162  1.00  0.00     0.124 S 
ATOM     75  O   UNL A   1      42.488  34.771  38.172  1.00  0.00    -0.237 OA
ATOM     76  O   UNL A   1      41.031  36.462  37.102  1.00  0.00    -0.237 OA
ATOM     77  O   UNL A   1      40.715  35.876  39.478  1.00  0.00    -0.744 OA
ENDBRANCH  70  74
ENDBRANCH  53  67
BRANCH  54  78
ATOM     78  C   UNL A   1      41.593  26.915  27.964  1.00  0.00     0.023 A 
ATOM     79  C   UNL A   1      41.452  25.519  27.911  1.00  0.00     0.031 A 
ATOM     80  C   UNL A   1      42.137  27.566  26.842  1.00  0.00     0.131 A 
ATOM     81  C   UNL A   1      41.894  24.814  26.781  1.00  0.00     0.055 A 
ATOM     82  C   UNL A   1      42.526  26.864  25.698  1.00  0.00     0.041 A 
ATOM     83  F   UNL A   1      42.298  28.898  26.840  1.00  0.00    -0.206 F 
ATOM     84  C   UNL A   1      42.419  25.478  25.670  1.00  0.00     0.022 A 
BRANCH  81  85
ATOM     85  S   UNL A   1      41.854  23.000  26.818  1.00  0.00     0.124 S 
ATOM     86  O   UNL A   1      40.445  22.741  27.091  1.00  0.00    -0.237 OA
ATOM     87  O   UNL A   1      42.323  22.660  25.480  1.00  0.00    -0.237 OA
ATOM     88  O   UNL A   1      42.773  22.662  27.903  1.00  0.00    -0.744 OA
ENDBRANCH  81  85
ENDBRANCH  54  78
BRANCH  66  89
ATOM     89  C   UNL A   1      44.543  27.312  34.272  1.00  0.00     0.023 A 
ATOM     90  C   UNL A   1      44.391  26.075  34.923  1.00  0.00     0.031 A 
ATOM     91  C   UNL A   1      45.831  27.876  34.224  1.00  0.00     0.131 A 
ATOM     92  C   UNL A   1      45.493  25.474  35.552  1.00  0.00     0.055 A 
ATOM     93  C   UNL A   1      46.935  27.243  34.795  1.00  0.00     0.041 A 
ATOM     94  F   UNL A   1      46.037  29.058  33.618  1.00  0.00    -0.206 F 
ATOM     95  C   UNL A   1      46.767  26.041  35.476  1.00  0.00     0.022 A 
BRANCH  92  96
ATOM     96  S   UNL A   1      45.220  23.990  36.559  1.00  0.00     0.124 S 
ATOM     97  O   UNL A   1      44.365  23.188  35.692  1.00  0.00    -0.237 OA
ATOM     98  O   UNL A   1      46.578  23.491  36.755  1.00  0.00    -0.237 OA
ATOM     99  O   UNL A   1      44.572  24.507  37.763  1.00  0.00    -0.744 OA
ENDBRANCH  92  96
ENDBRANCH  66  89
ENDBRANCH  40  41
ENDBRANCH  33  35
ENDBRANCH  32  33
ENDBRANCH  31  32
ENDBRANCH  30  31
ENDBRANCH  29  30
ENDBRANCH  28  29
ENDBRANCH   1  28
TORSDOF 25
ENDMDL
MODEL 2
REMARK VINA RESULT:      -9.4      1.554      7.671
REMARK SMILES CC(C)(C)c1ccc(C(=O)C[C@H](C(=O)OCCOCCOCCOC(=O)c2ccc(-c3c4nc(c(-c5cc(S(=O)(=O)[O-])ccc5F)c5ccc([nH]5)c(-c5cc(S(=O)(=O)[O-])ccc5F)c5nc(c(-c6cc(S(=O)(=O)[O-])ccc6F)c6ccc3[nH]6)C=C5)C=C4)cc2)[NH+]2CCCC2)cc1
REMARK SMILES IDX 19 1 18 2 17 3 16 4 15 5 13 6 14 7 12 8 11 9 9 10 10 11 8 12
REMARK SMILES IDX 5 13 6 14 96 15 7 16 95 17 2 18 1 19 3 20 4 21 90 22 91 23
REMARK SMILES IDX 94 24 92 26 93 27 20 28 21 29 22 30 23 31 24 32 25 33 26 34
REMARK SMILES IDX 27 35 28 36 89 37 29 38 88 39 30 40 31 41 32 42 82 43 33 44
REMARK SMILES IDX 87 45 81 46 83 47 34 48 86 49 80 50 79 51 35 53 67 54 47 55
REMARK SMILES IDX 66 56 48 57 51 58 65 59 84 60 49 61 50 62 64 64 85 65 52 66
REMARK SMILES IDX 36 67 37 68 45 69 38 70 44 71 46 72 43 73 39 74 40 75 41 76
REMARK SMILES IDX 42 77 68 78 69 79 77 80 70 81 76 82 78 83 75 84 71 85 72 86
REMARK SMILES IDX 73 87 74 88 53 89 54 90 62 91 55 92 61 93 63 94 60 95 56 96
REMARK SMILES IDX 57 97 58 98 59 99
REMARK H PARENT 90 25 83 52 51 63
REMARK Flexibility Score: inf
ROOT
ATOM      1  C   UNL A   1      34.614  29.311  27.548  1.00  0.00     0.188 C 
ENDROOT
BRANCH   1   2
ATOM      2  O   UNL A   1      34.504  28.946  26.179  1.00  0.00    -0.376 OA
BRANCH   2   3
ATOM      3  C   UNL A   1      33.424  29.530  25.457  1.00  0.00     0.202 C 
BRANCH   3   4
ATOM      4  C   UNL A   1      32.022  29.335  26.052  1.00  0.00     0.261 C 
BRANCH   4   5
ATOM      5  O   UNL A   1      31.331  28.232  25.449  1.00  0.00    -0.459 OA
BRANCH   5   6
ATOM      6  C   UNL A   1      31.179  27.078  26.150  1.00  0.00     0.365 C 
ATOM      7  O   UNL A   1      30.867  27.019  27.331  1.00  0.00    -0.245 OA
BRANCH   6   8
ATOM      8  C   UNL A   1      31.498  25.880  25.217  1.00  0.00     0.302 C 
BRANCH   8   9
ATOM      9  C   UNL A   1      30.503  24.756  25.536  1.00  0.00     0.158 C 
BRANCH   9  10
ATOM     10  C   UNL A   1      31.188  23.680  26.382  1.00  0.00     0.169 C 
ATOM     11  O   UNL A   1      30.587  23.146  27.315  1.00  0.00    -0.294 OA
BRANCH  10  12
ATOM     12  C   UNL A   1      32.594  23.247  26.066  1.00  0.00     0.018 A 
ATOM     13  C   UNL A   1      35.232  22.438  25.318  1.00  0.00    -0.043 A 
ATOM     14  C   UNL A   1      34.097  21.729  24.888  1.00  0.00     0.005 A 
ATOM     15  C   UNL A   1      35.010  23.540  26.156  1.00  0.00     0.005 A 
ATOM     16  C   UNL A   1      32.800  22.124  25.259  1.00  0.00     0.012 A 
ATOM     17  C   UNL A   1      33.717  23.931  26.528  1.00  0.00     0.012 A 
BRANCH  13  18
ATOM     18  C   UNL A   1      36.658  22.096  24.843  1.00  0.00    -0.013 C 
ATOM     19  C   UNL A   1      36.965  20.582  24.865  1.00  0.00     0.016 C 
ATOM     20  C   UNL A   1      37.746  22.779  25.707  1.00  0.00     0.016 C 
ATOM     21  C   UNL A   1      36.800  22.596  23.390  1.00  0.00     0.016 C 
ENDBRANCH  13  18
ENDBRANCH  10  12
ENDBRANCH   9  10
ENDBRANCH   8   9
BRANCH   8  22
ATOM     22  N   UNL A   1      31.838  26.261  23.812  1.00  0.00    -0.323 N 
ATOM     23  C   UNL A   1      31.381  25.391  22.725  1.00  0.00     0.263 C 
ATOM     24  C   UNL A   1      33.268  26.428  23.515  1.00  0.00     0.263 C 
ATOM     25  H   UNL A   1      31.321  27.141  23.815  1.00  0.00     0.348 HD
ATOM     26  C   UNL A   1      32.459  24.334  22.621  1.00  0.00     0.067 C 
ATOM     27  C   UNL A   1      33.738  25.094  22.945  1.00  0.00     0.067 C 
ENDBRANCH   8  22
ENDBRANCH   6   8
ENDBRANCH   5   6
ENDBRANCH   4   5
ENDBRANCH   3   4
ENDBRANCH   2   3
ENDBRANCH   1   2
BRANCH   1  28
ATOM     28  C   UNL A   1      34.912  30.812  27.776  1.00  0.00     0.188 C 
BRANCH  28  29
ATOM     29  O   UNL A   1      33.879  31.684  28.212  1.00  0.00    -0.376 OA
BRANCH  29  30
ATOM     30  C   UNL A   1      33.256  32.524  27.248  1.00  0.00     0.202 C 
BRANCH  30  31
ATOM     31  C   UNL A   1      32.476  33.765  27.714  1.00  0.00     0.261 C 
BRANCH  31  32
ATOM     32  O   UNL A   1      33.268  34.816  28.298  1.00  0.00    -0.460 OA
BRANCH  32  33
ATOM     33  C   UNL A   1      33.340  34.811  29.652  1.00  0.00     0.338 C 
ATOM     34  O   UNL A   1      32.484  35.211  30.434  1.00  0.00    -0.246 OA
BRANCH  33  35
ATOM     35  C   UNL A   1      34.536  34.071  30.101  1.00  0.00     0.060 A 
ATOM     36  C   UNL A   1      34.403  33.169  31.168  1.00  0.00     0.016 A 
ATOM     37  C   UNL A   1      35.789  34.311  29.536  1.00  0.00     0.016 A 
ATOM     38  C   UNL A   1      35.525  32.521  31.687  1.00  0.00     0.010 A 
ATOM     39  C   UNL A   1      36.918  33.682  30.078  1.00  0.00     0.010 A 
ATOM     40  C   UNL A   1      36.795  32.807  31.174  1.00  0.00    -0.014 A 
BRANCH  40  41
ATOM     41  C   UNL A   1      38.000  32.345  31.909  1.00  0.00     0.031 A 
ATOM     42  C   UNL A   1      38.938  31.389  31.220  1.00  0.00     0.074 A 
ATOM     43  C   UNL A   1      38.278  32.788  33.148  1.00  0.00     0.049 A 
ATOM     44  N   UNL A   1      40.026  30.819  31.670  1.00  0.00    -0.248 NA
ATOM     45  C   UNL A   1      38.594  31.029  29.836  1.00  0.00     0.031 C 
ATOM     46  C   UNL A   1      37.479  33.754  33.899  1.00  0.00     0.029 A 
ATOM     47  N   UNL A   1      39.312  32.473  33.996  1.00  0.00    -0.354 N 
ATOM     48  C   UNL A   1      40.498  30.030  30.626  1.00  0.00     0.074 A 
ATOM     49  C   UNL A   1      39.556  30.168  29.536  1.00  0.00     0.031 C 
ATOM     50  C   UNL A   1      38.044  33.941  35.105  1.00  0.00     0.029 A 
ATOM     51  C   UNL A   1      39.223  33.084  35.226  1.00  0.00     0.049 A 
ATOM     52  H   UNL A   1      40.047  31.868  33.748  1.00  0.00     0.167 HD
ATOM     53  C   UNL A   1      41.619  29.267  30.577  1.00  0.00     0.034 A 
ATOM     54  C   UNL A   1      39.990  32.946  36.327  1.00  0.00     0.034 A 
ATOM     55  C   UNL A   1      42.540  29.119  31.678  1.00  0.00     0.049 A 
ATOM     56  C   UNL A   1      41.178  32.013  36.283  1.00  0.00     0.074 A 
ATOM     57  C   UNL A   1      43.707  28.379  31.733  1.00  0.00     0.029 A 
ATOM     58  N   UNL A   1      42.389  29.712  32.926  1.00  0.00    -0.354 N 
ATOM     59  N   UNL A   1      41.622  31.279  35.288  1.00  0.00    -0.248 NA
ATOM     60  C   UNL A   1      41.974  31.895  37.514  1.00  0.00     0.031 C 
ATOM     61  C   UNL A   1      44.221  28.464  33.031  1.00  0.00     0.029 A 
ATOM     62  C   UNL A   1      43.422  29.324  33.766  1.00  0.00     0.049 A 
ATOM     63  H   UNL A   1      41.656  30.320  33.176  1.00  0.00     0.167 HD
ATOM     64  C   UNL A   1      42.765  30.639  35.765  1.00  0.00     0.074 A 
ATOM     65  C   UNL A   1      42.951  31.087  37.129  1.00  0.00     0.031 C 
ATOM     66  C   UNL A   1      43.589  29.765  35.132  1.00  0.00     0.034 A 
BRANCH  53  67
ATOM     67  C   UNL A   1      41.869  28.491  29.307  1.00  0.00     0.023 A 
ATOM     68  C   UNL A   1      41.340  27.203  29.109  1.00  0.00     0.031 A 
ATOM     69  C   UNL A   1      42.681  29.030  28.293  1.00  0.00     0.131 A 
ATOM     70  C   UNL A   1      41.686  26.471  27.964  1.00  0.00     0.055 A 
ATOM     71  C   UNL A   1      42.958  28.329  27.119  1.00  0.00     0.041 A 
ATOM     72  F   UNL A   1      43.234  30.245  28.436  1.00  0.00    -0.206 F 
ATOM     73  C   UNL A   1      42.473  27.034  26.955  1.00  0.00     0.022 A 
BRANCH  70  74
ATOM     74  S   UNL A   1      41.216  24.721  27.876  1.00  0.00     0.124 S 
ATOM     75  O   UNL A   1      39.779  24.790  28.130  1.00  0.00    -0.237 OA
ATOM     76  O   UNL A   1      41.608  24.356  26.520  1.00  0.00    -0.237 OA
ATOM     77  O   UNL A   1      42.001  24.101  28.942  1.00  0.00    -0.744 OA
ENDBRANCH  70  74
ENDBRANCH  53  67
BRANCH  54  78
ATOM     78  C   UNL A   1      39.646  33.666  37.587  1.00  0.00     0.023 A 
ATOM     79  C   UNL A   1      40.240  34.897  37.909  1.00  0.00     0.031 A 
ATOM     80  C   UNL A   1      38.765  33.095  38.524  1.00  0.00     0.131 A 
ATOM     81  C   UNL A   1      39.985  35.493  39.155  1.00  0.00     0.055 A 
ATOM     82  C   UNL A   1      38.473  33.718  39.739  1.00  0.00     0.041 A 
ATOM     83  F   UNL A   1      38.172  31.918  38.270  1.00  0.00    -0.206 F 
ATOM     84  C   UNL A   1      39.097  34.918  40.066  1.00  0.00     0.022 A 
BRANCH  81  85
ATOM     85  S   UNL A   1      40.902  36.993  39.604  1.00  0.00     0.124 S 
ATOM     86  O   UNL A   1      39.844  37.997  39.608  1.00  0.00    -0.237 OA
ATOM     87  O   UNL A   1      41.451  36.633  40.906  1.00  0.00    -0.237 OA
ATOM     88  O   UNL A   1      41.885  37.125  38.530  1.00  0.00    -0.744 OA
ENDBRANCH  81  85
ENDBRANCH  54  78
BRANCH  66  89
ATOM     89  C   UNL A   1      44.793  29.272  35.902  1.00  0.00     0.023 A 
ATOM     90  C   UNL A   1      44.714  28.180  36.784  1.00  0.00     0.031 A 
ATOM     91  C   UNL A   1      46.035  29.918  35.764  1.00  0.00     0.131 A 
ATOM     92  C   UNL A   1      45.837  27.806  37.538  1.00  0.00     0.055 A 
ATOM     93  C   UNL A   1      47.165  29.502  36.469  1.00  0.00     0.041 A 
ATOM     94  F   UNL A   1      46.170  30.970  34.939  1.00  0.00    -0.206 F 
ATOM     95  C   UNL A   1      47.066  28.448  37.373  1.00  0.00     0.022 A 
BRANCH  92  96
ATOM     96  S   UNL A   1      45.644  26.532  38.816  1.00  0.00     0.124 S 
ATOM     97  O   UNL A   1      45.510  25.319  38.018  1.00  0.00    -0.237 OA
ATOM     98  O   UNL A   1      46.884  26.662  39.576  1.00  0.00    -0.237 OA
ATOM     99  O   UNL A   1      44.436  26.942  39.530  1.00  0.00    -0.744 OA
ENDBRANCH  92  96
ENDBRANCH  66  89
ENDBRANCH  40  41
ENDBRANCH  33  35
ENDBRANCH  32  33
ENDBRANCH  31  32
ENDBRANCH  30  31
ENDBRANCH  29  30
ENDBRANCH  28  29
ENDBRANCH   1  28
TORSDOF 25
ENDMDL
MODEL 3
REMARK VINA RESULT:      -9.1      1.756      7.462
REMARK SMILES CC(C)(C)c1ccc(C(=O)C[C@H](C(=O)OCCOCCOCCOC(=O)c2ccc(-c3c4nc(c(-c5cc(S(=O)(=O)[O-])ccc5F)c5ccc([nH]5)c(-c5cc(S(=O)(=O)[O-])ccc5F)c5nc(c(-c6cc(S(=O)(=O)[O-])ccc6F)c6ccc3[nH]6)C=C5)C=C4)cc2)[NH+]2CCCC2)cc1
REMARK SMILES IDX 19 1 18 2 17 3 16 4 15 5 13 6 14 7 12 8 11 9 9 10 10 11 8 12
REMARK SMILES IDX 5 13 6 14 96 15 7 16 95 17 2 18 1 19 3 20 4 21 90 22 91 23
REMARK SMILES IDX 94 24 92 26 93 27 20 28 21 29 22 30 23 31 24 32 25 33 26 34
REMARK SMILES IDX 27 35 28 36 89 37 29 38 88 39 30 40 31 41 32 42 82 43 33 44
REMARK SMILES IDX 87 45 81 46 83 47 34 48 86 49 80 50 79 51 35 53 67 54 47 55
REMARK SMILES IDX 66 56 48 57 51 58 65 59 84 60 49 61 50 62 64 64 85 65 52 66
REMARK SMILES IDX 36 67 37 68 45 69 38 70 44 71 46 72 43 73 39 74 40 75 41 76
REMARK SMILES IDX 42 77 68 78 69 79 77 80 70 81 76 82 78 83 75 84 71 85 72 86
REMARK SMILES IDX 73 87 74 88 53 89 54 90 62 91 55 92 61 93 63 94 60 95 56 96
REMARK SMILES IDX 57 97 58 98 59 99
REMARK H PARENT 90 25 83 52 51 63
REMARK Flexibility Score: inf
ROOT
ATOM      1  C   UNL A   1      34.458  29.307  27.443  1.00  0.00     0.188 C 
ENDROOT
BRANCH   1   2
ATOM      2  O   UNL A   1      34.285  28.967  26.073  1.00  0.00    -0.376 OA
BRANCH   2   3
ATOM      3  C   UNL A   1      33.257  29.665  25.378  1.00  0.00     0.202 C 
BRANCH   3   4
ATOM      4  C   UNL A   1      31.840  29.547  25.956  1.00  0.00     0.261 C 
BRANCH   4   5
ATOM      5  O   UNL A   1      31.179  28.350  25.521  1.00  0.00    -0.459 OA
BRANCH   5   6
ATOM      6  C   UNL A   1      31.297  27.218  26.263  1.00  0.00     0.365 C 
ATOM      7  O   UNL A   1      31.414  27.195  27.480  1.00  0.00    -0.245 OA
BRANCH   6   8
ATOM      8  C   UNL A   1      31.291  25.993  25.312  1.00  0.00     0.302 C 
BRANCH   8   9
ATOM      9  C   UNL A   1      30.290  24.970  25.866  1.00  0.00     0.158 C 
BRANCH   9  10
ATOM     10  C   UNL A   1      31.041  23.832  26.561  1.00  0.00     0.169 C 
ATOM     11  O   UNL A   1      30.548  23.268  27.539  1.00  0.00    -0.294 OA
BRANCH  10  12
ATOM     12  C   UNL A   1      32.376  23.374  26.040  1.00  0.00     0.018 A 
ATOM     13  C   UNL A   1      34.968  22.513  25.193  1.00  0.00    -0.043 A 
ATOM     14  C   UNL A   1      34.773  23.762  25.808  1.00  0.00     0.005 A 
ATOM     15  C   UNL A   1      33.826  21.725  24.988  1.00  0.00     0.005 A 
ATOM     16  C   UNL A   1      33.498  24.188  26.221  1.00  0.00     0.012 A 
ATOM     17  C   UNL A   1      32.556  22.150  25.396  1.00  0.00     0.012 A 
BRANCH  13  18
ATOM     18  C   UNL A   1      36.363  21.973  24.827  1.00  0.00    -0.013 C 
ATOM     19  C   UNL A   1      36.421  20.432  24.736  1.00  0.00     0.016 C 
ATOM     20  C   UNL A   1      37.445  22.394  25.851  1.00  0.00     0.016 C 
ATOM     21  C   UNL A   1      36.743  22.552  23.447  1.00  0.00     0.016 C 
ENDBRANCH  13  18
ENDBRANCH  10  12
ENDBRANCH   9  10
ENDBRANCH   8   9
BRANCH   8  22
ATOM     22  N   UNL A   1      31.350  26.336  23.857  1.00  0.00    -0.323 N 
ATOM     23  C   UNL A   1      30.888  25.339  22.888  1.00  0.00     0.263 C 
ATOM     24  C   UNL A   1      32.672  26.711  23.334  1.00  0.00     0.263 C 
ATOM     25  H   UNL A   1      30.699  27.120  23.910  1.00  0.00     0.348 HD
ATOM     26  C   UNL A   1      32.100  24.464  22.655  1.00  0.00     0.067 C 
ATOM     27  C   UNL A   1      33.268  25.436  22.746  1.00  0.00     0.067 C 
ENDBRANCH   8  22
ENDBRANCH   6   8
ENDBRANCH   5   6
ENDBRANCH   4   5
ENDBRANCH   3   4
ENDBRANCH   2   3
ENDBRANCH   1   2
BRANCH   1  28
ATOM     28  C   UNL A   1      34.761  30.805  27.684  1.00  0.00     0.188 C 
BRANCH  28  29
ATOM     29  O   UNL A   1      33.753  31.659  28.205  1.00  0.00    -0.376 OA
BRANCH  29  30
ATOM     30  C   UNL A   1      33.313  32.748  27.403  1.00  0.00     0.202 C 
BRANCH  30  31
ATOM     31  C   UNL A   1      32.679  33.978  28.075  1.00  0.00     0.261 C 
BRANCH  31  32
ATOM     32  O   UNL A   1      33.600  34.890  28.702  1.00  0.00    -0.460 OA
BRANCH  32  33
ATOM     33  C   UNL A   1      33.843  34.663  30.018  1.00  0.00     0.338 C 
ATOM     34  O   UNL A   1      33.085  34.893  30.954  1.00  0.00    -0.246 OA
BRANCH  33  35
ATOM     35  C   UNL A   1      35.099  33.905  30.185  1.00  0.00     0.060 A 
ATOM     36  C   UNL A   1      35.154  32.913  31.176  1.00  0.00     0.016 A 
ATOM     37  C   UNL A   1      36.234  34.214  29.435  1.00  0.00     0.016 A 
ATOM     38  C   UNL A   1      36.350  32.241  31.433  1.00  0.00     0.010 A 
ATOM     39  C   UNL A   1      37.441  33.559  29.715  1.00  0.00     0.010 A 
ATOM     40  C   UNL A   1      37.511  32.590  30.735  1.00  0.00    -0.014 A 
BRANCH  40  41
ATOM     41  C   UNL A   1      38.827  32.086  31.206  1.00  0.00     0.031 A 
ATOM     42  C   UNL A   1      39.492  30.981  30.429  1.00  0.00     0.074 A 
ATOM     43  C   UNL A   1      39.437  32.618  32.280  1.00  0.00     0.049 A 
ATOM     44  N   UNL A   1      40.615  30.354  30.666  1.00  0.00    -0.248 NA
ATOM     45  C   UNL A   1      38.788  30.524  29.221  1.00  0.00     0.031 C 
ATOM     46  C   UNL A   1      38.922  33.725  33.083  1.00  0.00     0.029 A 
ATOM     47  N   UNL A   1      40.625  32.287  32.885  1.00  0.00    -0.354 N 
ATOM     48  C   UNL A   1      40.753  29.426  29.640  1.00  0.00     0.074 A 
ATOM     49  C   UNL A   1      39.580  29.549  28.801  1.00  0.00     0.031 C 
ATOM     50  C   UNL A   1      39.783  33.973  34.086  1.00  0.00     0.029 A 
ATOM     51  C   UNL A   1      40.891  33.020  34.019  1.00  0.00     0.049 A 
ATOM     52  H   UNL A   1      41.230  31.592  32.539  1.00  0.00     0.167 HD
ATOM     53  C   UNL A   1      41.769  28.556  29.412  1.00  0.00     0.034 A 
ATOM     54  C   UNL A   1      41.898  32.914  34.910  1.00  0.00     0.034 A 
ATOM     55  C   UNL A   1      42.924  28.426  30.267  1.00  0.00     0.049 A 
ATOM     56  C   UNL A   1      42.969  31.870  34.691  1.00  0.00     0.074 A 
ATOM     57  C   UNL A   1      44.012  27.584  30.125  1.00  0.00     0.029 A 
ATOM     58  N   UNL A   1      43.133  29.149  31.435  1.00  0.00    -0.354 N 
ATOM     59  N   UNL A   1      43.095  31.004  33.712  1.00  0.00    -0.248 NA
ATOM     60  C   UNL A   1      44.037  31.795  35.698  1.00  0.00     0.031 C 
ATOM     61  C   UNL A   1      44.840  27.743  31.242  1.00  0.00     0.029 A 
ATOM     62  C   UNL A   1      44.313  28.745  32.042  1.00  0.00     0.049 A 
ATOM     63  H   UNL A   1      42.531  29.846  31.782  1.00  0.00     0.167 HD
ATOM     64  C   UNL A   1      44.273  30.304  33.970  1.00  0.00     0.074 A 
ATOM     65  C   UNL A   1      44.826  30.862  35.187  1.00  0.00     0.031 C 
ATOM     66  C   UNL A   1      44.849  29.297  33.265  1.00  0.00     0.034 A 
BRANCH  53  67
ATOM     67  C   UNL A   1      41.637  27.640  28.219  1.00  0.00     0.023 A 
ATOM     68  C   UNL A   1      41.367  26.267  28.366  1.00  0.00     0.031 A 
ATOM     69  C   UNL A   1      41.823  28.138  26.917  1.00  0.00     0.131 A 
ATOM     70  C   UNL A   1      41.362  25.430  27.240  1.00  0.00     0.055 A 
ATOM     71  C   UNL A   1      41.739  27.313  25.794  1.00  0.00     0.041 A 
ATOM     72  F   UNL A   1      42.108  29.434  26.716  1.00  0.00    -0.206 F 
ATOM     73  C   UNL A   1      41.522  25.947  25.952  1.00  0.00     0.022 A 
BRANCH  70  74
ATOM     74  S   UNL A   1      41.289  23.635  27.494  1.00  0.00     0.124 S 
ATOM     75  O   UNL A   1      41.946  23.140  26.287  1.00  0.00    -0.237 OA
ATOM     76  O   UNL A   1      42.027  23.462  28.740  1.00  0.00    -0.237 OA
ATOM     77  O   UNL A   1      39.856  23.358  27.573  1.00  0.00    -0.744 OA
ENDBRANCH  70  74
ENDBRANCH  53  67
BRANCH  54  78
ATOM     78  C   UNL A   1      41.932  33.784  36.122  1.00  0.00     0.023 A 
ATOM     79  C   UNL A   1      41.263  33.417  37.301  1.00  0.00     0.031 A 
ATOM     80  C   UNL A   1      42.580  35.033  36.093  1.00  0.00     0.131 A 
ATOM     81  C   UNL A   1      41.215  34.309  38.384  1.00  0.00     0.055 A 
ATOM     82  C   UNL A   1      42.575  35.893  37.194  1.00  0.00     0.041 A 
ATOM     83  F   UNL A   1      43.232  35.435  34.991  1.00  0.00    -0.206 F 
ATOM     84  C   UNL A   1      41.876  35.538  38.343  1.00  0.00     0.022 A 
BRANCH  81  85
ATOM     85  S   UNL A   1      40.198  33.873  39.823  1.00  0.00     0.124 S 
ATOM     86  O   UNL A   1      38.875  34.314  39.396  1.00  0.00    -0.237 OA
ATOM     87  O   UNL A   1      40.398  32.430  39.908  1.00  0.00    -0.237 OA
ATOM     88  O   UNL A   1      40.795  34.648  40.909  1.00  0.00    -0.744 OA
ENDBRANCH  81  85
ENDBRANCH  54  78
BRANCH  66  89
ATOM     89  C   UNL A   1      46.169  28.766  33.773  1.00  0.00     0.023 A 
ATOM     90  C   UNL A   1      46.240  27.668  34.649  1.00  0.00     0.031 A 
ATOM     91  C   UNL A   1      47.375  29.380  33.390  1.00  0.00     0.131 A 
ATOM     92  C   UNL A   1      47.481  27.258  35.160  1.00  0.00     0.055 A 
ATOM     93  C   UNL A   1      48.612  28.928  33.850  1.00  0.00     0.041 A 
ATOM     94  F   UNL A   1      47.369  30.435  32.558  1.00  0.00    -0.206 F 
ATOM     95  C   UNL A   1      48.669  27.869  34.752  1.00  0.00     0.022 A 
BRANCH  92  96
ATOM     96  S   UNL A   1      47.516  25.978  36.446  1.00  0.00     0.124 S 
ATOM     97  O   UNL A   1      46.835  24.868  35.788  1.00  0.00    -0.237 OA
ATOM     98  O   UNL A   1      48.947  25.804  36.674  1.00  0.00    -0.237 OA
ATOM     99  O   UNL A   1      46.782  26.586  37.554  1.00  0.00    -0.744 OA
ENDBRANCH  92  96
ENDBRANCH  66  89
ENDBRANCH  40  41
ENDBRANCH  33  35
ENDBRANCH  32  33
ENDBRANCH  31  32
ENDBRANCH  30  31
ENDBRANCH  29  30
ENDBRANCH  28  29
ENDBRANCH   1  28
TORSDOF 25
ENDMDL
