MODEL 1
REMARK VINA RESULT:     -10.5      0.000      0.000
REMARK SMILES COC(=O)c1ccc([C@H]2CC(=O)Nc3c(C(=O)OCCOCCOCCOC(=O)c4ccc(-c5c6nc(c(-c7cc(S(=O)(=O)[O-])ccc7F)c7ccc([nH]7)c(-c7cc(S(=O)(=O)[O-])ccc7F)c7nc(c(-c8cc(S(=O)(=O)[O-])ccc8F)c8ccc5[nH]8)C=C7)C=C6)cc4)cn(-c4ccccc4)c32)cc1
REMARK SMILES IDX 22 1 21 2 20 3 19 4 18 5 16 6 17 7 15 8 9 9 10 10 101 11
REMARK SMILES IDX 11 12 14 13 94 14 12 15 13 16 93 17 8 19 5 20 6 21 103 22
REMARK SMILES IDX 7 23 102 24 3 25 4 26 2 27 1 28 95 29 96 30 100 31 97 32
REMARK SMILES IDX 99 33 98 34 23 35 24 36 25 37 26 38 27 39 28 40 29 41 30 42
REMARK SMILES IDX 31 43 92 44 32 45 91 46 33 47 34 48 35 49 85 50 36 51 90 52
REMARK SMILES IDX 84 53 86 54 37 55 89 56 83 57 82 58 38 60 70 61 50 62 69 63
REMARK SMILES IDX 51 64 54 65 68 66 87 67 52 68 53 69 67 71 88 72 55 73 39 74
REMARK SMILES IDX 40 75 48 76 41 77 47 78 49 79 46 80 42 81 43 82 44 83 45 84
REMARK SMILES IDX 71 85 72 86 80 87 73 88 79 89 81 90 78 91 74 92 75 93 76 94
REMARK SMILES IDX 77 95 56 96 57 97 65 98 58 99 64 100 66 101 63 102 59 103
REMARK SMILES IDX 60 104 61 105 62 106
REMARK H PARENT 13 18 86 59 54 70
REMARK Flexibility Score: inf
ROOT
ATOM      1  C   UNL A   1      32.902  35.605  29.057  1.00  0.00     0.188 C 
ENDROOT
BRANCH   1   2
ATOM      2  O   UNL A   1      32.689  36.709  29.930  1.00  0.00    -0.376 OA
BRANCH   2   3
ATOM      3  C   UNL A   1      32.556  36.515  31.327  1.00  0.00     0.202 C 
BRANCH   3   4
ATOM      4  C   UNL A   1      33.723  36.910  32.252  1.00  0.00     0.261 C 
BRANCH   4   5
ATOM      5  O   UNL A   1      33.881  36.122  33.445  1.00  0.00    -0.460 OA
BRANCH   5   6
ATOM      6  C   UNL A   1      34.050  34.784  33.259  1.00  0.00     0.341 C 
ATOM      7  O   UNL A   1      33.147  34.005  32.948  1.00  0.00    -0.246 OA
BRANCH   6   8
ATOM      8  C   UNL A   1      35.445  34.364  33.344  1.00  0.00     0.102 A 
ATOM      9  C   UNL A   1      38.619  33.163  34.901  1.00  0.00     0.078 C 
ATOM     10  C   UNL A   1      38.295  33.509  36.364  1.00  0.00     0.115 C 
ATOM     11  C   UNL A   1      37.515  33.662  34.001  1.00  0.00     0.055 A 
ATOM     12  C   UNL A   1      36.820  33.449  36.727  1.00  0.00     0.225 C 
ATOM     13  C   UNL A   1      36.245  33.971  34.447  1.00  0.00     0.078 A 
ATOM     14  N   UNL A   1      37.523  33.827  32.627  1.00  0.00    -0.317 N 
ATOM     15  O   UNL A   1      36.450  33.166  37.866  1.00  0.00    -0.275 OA
ATOM     16  N   UNL A   1      35.912  33.824  35.771  1.00  0.00    -0.324 N 
ATOM     17  C   UNL A   1      36.300  34.340  32.251  1.00  0.00     0.109 A 
ATOM     18  H   UNL A   1      34.981  33.996  36.045  1.00  0.00     0.170 HD
BRANCH   9  19
ATOM     19  C   UNL A   1      40.057  33.595  34.604  1.00  0.00    -0.038 A 
ATOM     20  C   UNL A   1      42.716  34.508  34.256  1.00  0.00     0.060 A 
ATOM     21  C   UNL A   1      41.676  35.419  34.460  1.00  0.00     0.016 A 
ATOM     22  C   UNL A   1      42.414  33.146  34.149  1.00  0.00     0.016 A 
ATOM     23  C   UNL A   1      40.364  34.968  34.635  1.00  0.00     0.005 A 
ATOM     24  C   UNL A   1      41.090  32.700  34.290  1.00  0.00     0.005 A 
BRANCH  20  25
ATOM     25  C   UNL A   1      44.108  35.038  34.198  1.00  0.00     0.337 C 
ATOM     26  O   UNL A   1      45.007  34.491  33.575  1.00  0.00    -0.246 OA
BRANCH  25  27
ATOM     27  O   UNL A   1      44.218  36.195  34.895  1.00  0.00    -0.465 OA
ATOM     28  C   UNL A   1      45.022  37.191  34.260  1.00  0.00     0.282 C 
ENDBRANCH  25  27
ENDBRANCH  20  25
ENDBRANCH   9  19
BRANCH  14  29
ATOM     29  C   UNL A   1      38.555  33.520  31.717  1.00  0.00     0.045 A 
ATOM     30  C   UNL A   1      38.837  32.184  31.419  1.00  0.00     0.026 A 
ATOM     31  C   UNL A   1      39.318  34.557  31.165  1.00  0.00     0.026 A 
ATOM     32  C   UNL A   1      39.912  31.882  30.586  1.00  0.00     0.002 A 
ATOM     33  C   UNL A   1      40.417  34.240  30.367  1.00  0.00     0.002 A 
ATOM     34  C   UNL A   1      40.712  32.907  30.078  1.00  0.00     0.000 A 
ENDBRANCH  14  29
ENDBRANCH   6   8
ENDBRANCH   5   6
ENDBRANCH   4   5
ENDBRANCH   3   4
ENDBRANCH   2   3
ENDBRANCH   1   2
BRANCH   1  35
ATOM     35  C   UNL A   1      34.307  35.009  28.804  1.00  0.00     0.188 C 
BRANCH  35  36
ATOM     36  O   UNL A   1      34.332  33.623  28.510  1.00  0.00    -0.376 OA
BRANCH  36  37
ATOM     37  C   UNL A   1      35.608  33.006  28.402  1.00  0.00     0.202 C 
BRANCH  37  38
ATOM     38  C   UNL A   1      35.965  31.970  29.465  1.00  0.00     0.261 C 
BRANCH  38  39
ATOM     39  O   UNL A   1      36.269  30.678  28.963  1.00  0.00    -0.460 OA
BRANCH  39  40
ATOM     40  C   UNL A   1      36.619  29.770  29.892  1.00  0.00     0.338 C 
ATOM     41  O   UNL A   1      36.240  29.728  31.058  1.00  0.00    -0.246 OA
BRANCH  40  42
ATOM     42  C   UNL A   1      37.634  28.894  29.316  1.00  0.00     0.060 A 
ATOM     43  C   UNL A   1      38.202  27.931  30.153  1.00  0.00     0.016 A 
ATOM     44  C   UNL A   1      38.211  29.260  28.091  1.00  0.00     0.016 A 
ATOM     45  C   UNL A   1      39.472  27.492  29.859  1.00  0.00     0.010 A 
ATOM     46  C   UNL A   1      39.490  28.848  27.820  1.00  0.00     0.010 A 
ATOM     47  C   UNL A   1      40.130  28.035  28.752  1.00  0.00    -0.014 A 
BRANCH  47  48
ATOM     48  C   UNL A   1      41.511  27.669  28.533  1.00  0.00     0.031 A 
ATOM     49  C   UNL A   1      41.658  26.354  27.884  1.00  0.00     0.074 A 
ATOM     50  C   UNL A   1      42.527  28.512  28.792  1.00  0.00     0.049 A 
ATOM     51  N   UNL A   1      42.145  25.273  28.392  1.00  0.00    -0.248 NA
ATOM     52  C   UNL A   1      41.000  26.167  26.581  1.00  0.00     0.031 C 
ATOM     53  C   UNL A   1      42.439  29.926  29.162  1.00  0.00     0.029 A 
ATOM     54  N   UNL A   1      43.864  28.306  28.656  1.00  0.00    -0.354 N 
ATOM     55  C   UNL A   1      42.092  24.340  27.365  1.00  0.00     0.074 A 
ATOM     56  C   UNL A   1      41.164  24.858  26.402  1.00  0.00     0.031 C 
ATOM     57  C   UNL A   1      43.654  30.499  29.002  1.00  0.00     0.029 A 
ATOM     58  C   UNL A   1      44.616  29.474  28.628  1.00  0.00     0.049 A 
ATOM     59  H   UNL A   1      44.263  27.409  28.584  1.00  0.00     0.167 HD
ATOM     60  C   UNL A   1      43.045  23.377  27.254  1.00  0.00     0.034 A 
ATOM     61  C   UNL A   1      45.912  29.596  28.235  1.00  0.00     0.034 A 
ATOM     62  C   UNL A   1      43.727  23.180  28.518  1.00  0.00     0.049 A 
ATOM     63  C   UNL A   1      46.527  28.247  28.330  1.00  0.00     0.074 A 
ATOM     64  C   UNL A   1      43.303  22.869  29.798  1.00  0.00     0.029 A 
ATOM     65  N   UNL A   1      45.003  23.679  28.663  1.00  0.00    -0.354 N 
ATOM     66  N   UNL A   1      46.714  27.617  29.458  1.00  0.00    -0.248 NA
ATOM     67  C   UNL A   1      46.514  27.396  27.149  1.00  0.00     0.031 C 
ATOM     68  C   UNL A   1      44.139  23.631  30.665  1.00  0.00     0.029 A 
ATOM     69  C   UNL A   1      45.075  24.310  29.881  1.00  0.00     0.049 A 
ATOM     70  H   UNL A   1      45.734  23.599  28.008  1.00  0.00     0.167 HD
ATOM     71  C   UNL A   1      46.409  26.292  29.187  1.00  0.00     0.074 A 
ATOM     72  C   UNL A   1      46.405  26.198  27.730  1.00  0.00     0.031 C 
ATOM     73  C   UNL A   1      45.908  25.469  30.157  1.00  0.00     0.034 A 
BRANCH  60  74
ATOM     74  C   UNL A   1      43.623  22.927  25.926  1.00  0.00     0.023 A 
ATOM     75  C   UNL A   1      43.692  21.540  25.711  1.00  0.00     0.031 A 
ATOM     76  C   UNL A   1      44.358  23.720  25.010  1.00  0.00     0.131 A 
ATOM     77  C   UNL A   1      44.554  21.001  24.742  1.00  0.00     0.055 A 
ATOM     78  C   UNL A   1      45.157  23.181  24.000  1.00  0.00     0.041 A 
ATOM     79  F   UNL A   1      44.422  25.054  25.076  1.00  0.00    -0.206 F 
ATOM     80  C   UNL A   1      45.292  21.811  23.885  1.00  0.00     0.022 A 
BRANCH  77  81
ATOM     81  S   UNL A   1      44.836  19.217  24.762  1.00  0.00     0.124 S 
ATOM     82  O   UNL A   1      44.822  18.908  23.336  1.00  0.00    -0.237 OA
ATOM     83  O   UNL A   1      46.130  19.128  25.430  1.00  0.00    -0.237 OA
ATOM     84  O   UNL A   1      43.702  18.705  25.526  1.00  0.00    -0.744 OA
ENDBRANCH  77  81
ENDBRANCH  60  74
BRANCH  61  85
ATOM     85  C   UNL A   1      46.526  30.734  27.496  1.00  0.00     0.023 A 
ATOM     86  C   UNL A   1      45.758  31.769  26.925  1.00  0.00     0.031 A 
ATOM     87  C   UNL A   1      47.925  30.939  27.541  1.00  0.00     0.131 A 
ATOM     88  C   UNL A   1      46.389  32.936  26.429  1.00  0.00     0.055 A 
ATOM     89  C   UNL A   1      48.543  32.085  27.037  1.00  0.00     0.041 A 
ATOM     90  F   UNL A   1      48.740  30.069  28.158  1.00  0.00    -0.206 F 
ATOM     91  C   UNL A   1      47.774  33.095  26.486  1.00  0.00     0.022 A 
BRANCH  88  92
ATOM     92  S   UNL A   1      45.393  34.323  25.793  1.00  0.00     0.124 S 
ATOM     93  O   UNL A   1      46.357  35.418  25.783  1.00  0.00    -0.237 OA
ATOM     94  O   UNL A   1      44.958  33.827  24.493  1.00  0.00    -0.237 OA
ATOM     95  O   UNL A   1      44.323  34.455  26.784  1.00  0.00    -0.744 OA
ENDBRANCH  88  92
ENDBRANCH  61  85
BRANCH  73  96
ATOM     96  C   UNL A   1      46.035  25.895  31.607  1.00  0.00     0.023 A 
ATOM     97  C   UNL A   1      44.965  26.317  32.428  1.00  0.00     0.031 A 
ATOM     98  C   UNL A   1      47.300  25.758  32.209  1.00  0.00     0.131 A 
ATOM     99  C   UNL A   1      45.189  26.595  33.792  1.00  0.00     0.055 A 
ATOM    100  C   UNL A   1      47.513  26.013  33.562  1.00  0.00     0.041 A 
ATOM    101  F   UNL A   1      48.354  25.335  31.490  1.00  0.00    -0.206 F 
ATOM    102  C   UNL A   1      46.458  26.440  34.358  1.00  0.00     0.022 A 
BRANCH  99 103
ATOM    103  S   UNL A   1      43.833  27.184  34.857  1.00  0.00     0.124 S 
ATOM    104  O   UNL A   1      43.473  28.472  34.276  1.00  0.00    -0.237 OA
ATOM    105  O   UNL A   1      42.843  26.120  34.721  1.00  0.00    -0.237 OA
ATOM    106  O   UNL A   1      44.454  27.266  36.182  1.00  0.00    -0.744 OA
ENDBRANCH  99 103
ENDBRANCH  73  96
ENDBRANCH  47  48
ENDBRANCH  40  42
ENDBRANCH  39  40
ENDBRANCH  38  39
ENDBRANCH  37  38
ENDBRANCH  36  37
ENDBRANCH  35  36
ENDBRANCH   1  35
TORSDOF 24
ENDMDL
MODEL 2
REMARK VINA RESULT:      -8.7      2.064      3.517
REMARK SMILES COC(=O)c1ccc([C@H]2CC(=O)Nc3c(C(=O)OCCOCCOCCOC(=O)c4ccc(-c5c6nc(c(-c7cc(S(=O)(=O)[O-])ccc7F)c7ccc([nH]7)c(-c7cc(S(=O)(=O)[O-])ccc7F)c7nc(c(-c8cc(S(=O)(=O)[O-])ccc8F)c8ccc5[nH]8)C=C7)C=C6)cc4)cn(-c4ccccc4)c32)cc1
REMARK SMILES IDX 22 1 21 2 20 3 19 4 18 5 16 6 17 7 15 8 9 9 10 10 101 11
REMARK SMILES IDX 11 12 14 13 94 14 12 15 13 16 93 17 8 19 5 20 6 21 103 22
REMARK SMILES IDX 7 23 102 24 3 25 4 26 2 27 1 28 95 29 96 30 100 31 97 32
REMARK SMILES IDX 99 33 98 34 23 35 24 36 25 37 26 38 27 39 28 40 29 41 30 42
REMARK SMILES IDX 31 43 92 44 32 45 91 46 33 47 34 48 35 49 85 50 36 51 90 52
REMARK SMILES IDX 84 53 86 54 37 55 89 56 83 57 82 58 38 60 70 61 50 62 69 63
REMARK SMILES IDX 51 64 54 65 68 66 87 67 52 68 53 69 67 71 88 72 55 73 39 74
REMARK SMILES IDX 40 75 48 76 41 77 47 78 49 79 46 80 42 81 43 82 44 83 45 84
REMARK SMILES IDX 71 85 72 86 80 87 73 88 79 89 81 90 78 91 74 92 75 93 76 94
REMARK SMILES IDX 77 95 56 96 57 97 65 98 58 99 64 100 66 101 63 102 59 103
REMARK SMILES IDX 60 104 61 105 62 106
REMARK H PARENT 13 18 86 59 54 70
REMARK Flexibility Score: inf
ROOT
ATOM      1  C   UNL A   1      33.576  33.777  28.444  1.00  0.00     0.188 C 
ENDROOT
BRANCH   1   2
ATOM      2  O   UNL A   1      33.277  35.137  28.737  1.00  0.00    -0.376 OA
BRANCH   2   3
ATOM      3  C   UNL A   1      32.967  35.545  30.059  1.00  0.00     0.202 C 
BRANCH   3   4
ATOM      4  C   UNL A   1      34.089  36.103  30.953  1.00  0.00     0.261 C 
BRANCH   4   5
ATOM      5  O   UNL A   1      33.948  35.873  32.366  1.00  0.00    -0.460 OA
BRANCH   5   6
ATOM      6  C   UNL A   1      34.129  34.591  32.783  1.00  0.00     0.341 C 
ATOM      7  O   UNL A   1      33.296  33.692  32.651  1.00  0.00    -0.246 OA
BRANCH   6   8
ATOM      8  C   UNL A   1      35.469  34.339  33.303  1.00  0.00     0.102 A 
ATOM      9  C   UNL A   1      39.164  33.803  33.260  1.00  0.00     0.078 C 
ATOM     10  C   UNL A   1      39.320  33.443  31.773  1.00  0.00     0.115 C 
ATOM     11  C   UNL A   1      37.702  33.965  33.596  1.00  0.00     0.055 A 
ATOM     12  C   UNL A   1      38.310  34.097  30.844  1.00  0.00     0.225 C 
ATOM     13  C   UNL A   1      36.720  34.190  32.651  1.00  0.00     0.078 A 
ATOM     14  N   UNL A   1      37.095  33.998  34.839  1.00  0.00    -0.317 N 
ATOM     15  O   UNL A   1      38.589  34.359  29.675  1.00  0.00    -0.275 OA
ATOM     16  N   UNL A   1      37.039  34.290  31.319  1.00  0.00    -0.324 N 
ATOM     17  C   UNL A   1      35.736  34.130  34.648  1.00  0.00     0.109 A 
ATOM     18  H   UNL A   1      36.323  34.510  30.678  1.00  0.00     0.170 HD
BRANCH   9  19
ATOM     19  C   UNL A   1      40.001  32.827  34.089  1.00  0.00    -0.038 A 
ATOM     20  C   UNL A   1      41.526  30.866  35.454  1.00  0.00     0.060 A 
ATOM     21  C   UNL A   1      40.218  30.589  35.045  1.00  0.00     0.016 A 
ATOM     22  C   UNL A   1      42.042  32.150  35.248  1.00  0.00     0.016 A 
ATOM     23  C   UNL A   1      39.467  31.555  34.369  1.00  0.00     0.005 A 
ATOM     24  C   UNL A   1      41.272  33.130  34.600  1.00  0.00     0.005 A 
BRANCH  20  25
ATOM     25  C   UNL A   1      42.318  29.760  36.060  1.00  0.00     0.337 C 
ATOM     26  O   UNL A   1      42.978  29.891  37.081  1.00  0.00    -0.246 OA
BRANCH  25  27
ATOM     27  O   UNL A   1      42.181  28.615  35.347  1.00  0.00    -0.465 OA
ATOM     28  C   UNL A   1      41.887  27.461  36.137  1.00  0.00     0.282 C 
ENDBRANCH  25  27
ENDBRANCH  20  25
ENDBRANCH   9  19
BRANCH  14  29
ATOM     29  C   UNL A   1      37.704  33.938  36.110  1.00  0.00     0.045 A 
ATOM     30  C   UNL A   1      37.316  32.946  37.014  1.00  0.00     0.026 A 
ATOM     31  C   UNL A   1      38.650  34.907  36.466  1.00  0.00     0.026 A 
ATOM     32  C   UNL A   1      37.858  32.943  38.298  1.00  0.00     0.002 A 
ATOM     33  C   UNL A   1      39.153  34.919  37.766  1.00  0.00     0.002 A 
ATOM     34  C   UNL A   1      38.759  33.939  38.679  1.00  0.00     0.000 A 
ENDBRANCH  14  29
ENDBRANCH   6   8
ENDBRANCH   5   6
ENDBRANCH   4   5
ENDBRANCH   3   4
ENDBRANCH   2   3
ENDBRANCH   1   2
BRANCH   1  35
ATOM     35  C   UNL A   1      34.946  33.141  28.776  1.00  0.00     0.188 C 
BRANCH  35  36
ATOM     36  O   UNL A   1      34.893  31.976  29.581  1.00  0.00    -0.376 OA
BRANCH  36  37
ATOM     37  C   UNL A   1      36.104  31.253  29.757  1.00  0.00     0.202 C 
BRANCH  37  38
ATOM     38  C   UNL A   1      36.389  30.719  31.158  1.00  0.00     0.261 C 
BRANCH  38  39
ATOM     39  O   UNL A   1      36.481  29.307  31.253  1.00  0.00    -0.460 OA
BRANCH  39  40
ATOM     40  C   UNL A   1      37.249  28.849  32.259  1.00  0.00     0.338 C 
ATOM     41  O   UNL A   1      37.056  29.004  33.459  1.00  0.00    -0.246 OA
BRANCH  40  42
ATOM     42  C   UNL A   1      38.436  28.225  31.682  1.00  0.00     0.060 A 
ATOM     43  C   UNL A   1      39.569  28.126  32.492  1.00  0.00     0.016 A 
ATOM     44  C   UNL A   1      38.492  28.064  30.289  1.00  0.00     0.016 A 
ATOM     45  C   UNL A   1      40.799  28.080  31.878  1.00  0.00     0.010 A 
ATOM     46  C   UNL A   1      39.719  28.054  29.679  1.00  0.00     0.010 A 
ATOM     47  C   UNL A   1      40.853  28.146  30.482  1.00  0.00    -0.014 A 
BRANCH  47  48
ATOM     48  C   UNL A   1      42.152  28.235  29.856  1.00  0.00     0.031 A 
ATOM     49  C   UNL A   1      42.551  26.985  29.184  1.00  0.00     0.074 A 
ATOM     50  C   UNL A   1      42.845  29.386  29.801  1.00  0.00     0.049 A 
ATOM     51  N   UNL A   1      43.503  26.180  29.515  1.00  0.00    -0.248 NA
ATOM     52  C   UNL A   1      41.655  26.464  28.139  1.00  0.00     0.031 C 
ATOM     53  C   UNL A   1      42.387  30.722  30.189  1.00  0.00     0.029 A 
ATOM     54  N   UNL A   1      44.074  29.620  29.268  1.00  0.00    -0.354 N 
ATOM     55  C   UNL A   1      43.483  25.185  28.546  1.00  0.00     0.074 A 
ATOM     56  C   UNL A   1      42.200  25.272  27.911  1.00  0.00     0.031 C 
ATOM     57  C   UNL A   1      43.231  31.644  29.674  1.00  0.00     0.029 A 
ATOM     58  C   UNL A   1      44.338  30.962  29.021  1.00  0.00     0.049 A 
ATOM     59  H   UNL A   1      44.719  28.903  29.073  1.00  0.00     0.167 HD
ATOM     60  C   UNL A   1      44.635  24.584  28.147  1.00  0.00     0.034 A 
ATOM     61  C   UNL A   1      45.344  31.465  28.256  1.00  0.00     0.034 A 
ATOM     62  C   UNL A   1      45.673  24.748  29.146  1.00  0.00     0.049 A 
ATOM     63  C   UNL A   1      46.384  30.410  28.154  1.00  0.00     0.074 A 
ATOM     64  C   UNL A   1      45.766  24.442  30.493  1.00  0.00     0.029 A 
ATOM     65  N   UNL A   1      46.685  25.651  28.903  1.00  0.00    -0.354 N 
ATOM     66  N   UNL A   1      47.090  29.990  29.169  1.00  0.00    -0.248 NA
ATOM     67  C   UNL A   1      46.328  29.491  27.026  1.00  0.00     0.031 C 
ATOM     68  C   UNL A   1      46.499  25.518  31.072  1.00  0.00     0.029 A 
ATOM     69  C   UNL A   1      46.880  26.386  30.047  1.00  0.00     0.049 A 
ATOM     70  H   UNL A   1      47.180  25.752  28.058  1.00  0.00     0.167 HD
ATOM     71  C   UNL A   1      47.195  28.619  28.994  1.00  0.00     0.074 A 
ATOM     72  C   UNL A   1      46.808  28.386  27.606  1.00  0.00     0.031 C 
ATOM     73  C   UNL A   1      47.305  27.776  30.066  1.00  0.00     0.034 A 
BRANCH  60  74
ATOM     74  C   UNL A   1      44.929  24.222  26.705  1.00  0.00     0.023 A 
ATOM     75  C   UNL A   1      44.633  22.904  26.317  1.00  0.00     0.031 A 
ATOM     76  C   UNL A   1      45.724  24.959  25.792  1.00  0.00     0.131 A 
ATOM     77  C   UNL A   1      45.220  22.338  25.173  1.00  0.00     0.055 A 
ATOM     78  C   UNL A   1      46.245  24.413  24.617  1.00  0.00     0.041 A 
ATOM     79  F   UNL A   1      46.118  26.218  26.006  1.00  0.00    -0.206 F 
ATOM     80  C   UNL A   1      46.028  23.081  24.320  1.00  0.00     0.022 A 
BRANCH  77  81
ATOM     81  S   UNL A   1      45.059  20.554  24.937  1.00  0.00     0.124 S 
ATOM     82  O   UNL A   1      44.059  20.221  25.946  1.00  0.00    -0.237 OA
ATOM     83  O   UNL A   1      44.625  20.477  23.547  1.00  0.00    -0.237 OA
ATOM     84  O   UNL A   1      46.407  20.057  25.201  1.00  0.00    -0.744 OA
ENDBRANCH  77  81
ENDBRANCH  60  74
BRANCH  61  85
ATOM     85  C   UNL A   1      45.291  32.663  27.374  1.00  0.00     0.023 A 
ATOM     86  C   UNL A   1      46.198  33.736  27.498  1.00  0.00     0.031 A 
ATOM     87  C   UNL A   1      44.470  32.662  26.222  1.00  0.00     0.131 A 
ATOM     88  C   UNL A   1      46.252  34.743  26.504  1.00  0.00     0.055 A 
ATOM     89  C   UNL A   1      44.517  33.666  25.252  1.00  0.00     0.041 A 
ATOM     90  F   UNL A   1      43.649  31.636  25.949  1.00  0.00    -0.206 F 
ATOM     91  C   UNL A   1      45.417  34.709  25.385  1.00  0.00     0.022 A 
BRANCH  88  92
ATOM     92  S   UNL A   1      47.497  36.070  26.602  1.00  0.00     0.124 S 
ATOM     93  O   UNL A   1      47.481  36.406  28.021  1.00  0.00    -0.237 OA
ATOM     94  O   UNL A   1      48.698  35.410  26.104  1.00  0.00    -0.237 OA
ATOM     95  O   UNL A   1      46.960  37.106  25.718  1.00  0.00    -0.744 OA
ENDBRANCH  88  92
ENDBRANCH  61  85
BRANCH  73  96
ATOM     96  C   UNL A   1      47.686  28.360  31.412  1.00  0.00     0.023 A 
ATOM     97  C   UNL A   1      46.774  28.722  32.430  1.00  0.00     0.031 A 
ATOM     98  C   UNL A   1      49.059  28.450  31.709  1.00  0.00     0.131 A 
ATOM     99  C   UNL A   1      47.251  29.164  33.680  1.00  0.00     0.055 A 
ATOM    100  C   UNL A   1      49.527  28.868  32.954  1.00  0.00     0.041 A 
ATOM    101  F   UNL A   1      49.979  28.097  30.795  1.00  0.00    -0.206 F 
ATOM    102  C   UNL A   1      48.623  29.233  33.944  1.00  0.00     0.022 A 
BRANCH  99 103
ATOM    103  S   UNL A   1      46.093  29.678  34.990  1.00  0.00     0.124 S 
ATOM    104  O   UNL A   1      45.083  30.448  34.275  1.00  0.00    -0.237 OA
ATOM    105  O   UNL A   1      45.653  28.398  35.539  1.00  0.00    -0.237 OA
ATOM    106  O   UNL A   1      46.933  30.467  35.895  1.00  0.00    -0.744 OA
ENDBRANCH  99 103
ENDBRANCH  73  96
ENDBRANCH  47  48
ENDBRANCH  40  42
ENDBRANCH  39  40
ENDBRANCH  38  39
ENDBRANCH  37  38
ENDBRANCH  36  37
ENDBRANCH  35  36
ENDBRANCH   1  35
TORSDOF 24
ENDMDL
MODEL 3
REMARK VINA RESULT:      -8.7      7.585     13.690
REMARK SMILES COC(=O)c1ccc([C@H]2CC(=O)Nc3c(C(=O)OCCOCCOCCOC(=O)c4ccc(-c5c6nc(c(-c7cc(S(=O)(=O)[O-])ccc7F)c7ccc([nH]7)c(-c7cc(S(=O)(=O)[O-])ccc7F)c7nc(c(-c8cc(S(=O)(=O)[O-])ccc8F)c8ccc5[nH]8)C=C7)C=C6)cc4)cn(-c4ccccc4)c32)cc1
REMARK SMILES IDX 22 1 21 2 20 3 19 4 18 5 16 6 17 7 15 8 9 9 10 10 101 11
REMARK SMILES IDX 11 12 14 13 94 14 12 15 13 16 93 17 8 19 5 20 6 21 103 22
REMARK SMILES IDX 7 23 102 24 3 25 4 26 2 27 1 28 95 29 96 30 100 31 97 32
REMARK SMILES IDX 99 33 98 34 23 35 24 36 25 37 26 38 27 39 28 40 29 41 30 42
REMARK SMILES IDX 31 43 92 44 32 45 91 46 33 47 34 48 35 49 85 50 36 51 90 52
REMARK SMILES IDX 84 53 86 54 37 55 89 56 83 57 82 58 38 60 70 61 50 62 69 63
REMARK SMILES IDX 51 64 54 65 68 66 87 67 52 68 53 69 67 71 88 72 55 73 39 74
REMARK SMILES IDX 40 75 48 76 41 77 47 78 49 79 46 80 42 81 43 82 44 83 45 84
REMARK SMILES IDX 71 85 72 86 80 87 73 88 79 89 81 90 78 91 74 92 75 93 76 94
REMARK SMILES IDX 77 95 56 96 57 97 65 98 58 99 64 100 66 101 63 102 59 103
REMARK SMILES IDX 60 104 61 105 62 106
REMARK H PARENT 13 18 86 59 54 70
REMARK Flexibility Score: inf
ROOT
ATOM      1  C   UNL A   1      45.811  41.742  28.941  1.00  0.00     0.188 C 
ENDROOT
BRANCH   1   2
ATOM      2  O   UNL A   1      47.010  41.213  28.385  1.00  0.00    -0.376 OA
BRANCH   2   3
ATOM      3  C   UNL A   1      46.995  40.012  27.633  1.00  0.00     0.202 C 
BRANCH   3   4
ATOM      4  C   UNL A   1      45.669  39.536  27.009  1.00  0.00     0.261 C 
BRANCH   4   5
ATOM      5  O   UNL A   1      45.458  39.883  25.628  1.00  0.00    -0.460 OA
BRANCH   5   6
ATOM      6  C   UNL A   1      46.571  39.928  24.848  1.00  0.00     0.341 C 
ATOM      7  O   UNL A   1      47.291  38.958  24.604  1.00  0.00    -0.246 OA
BRANCH   6   8
ATOM      8  C   UNL A   1      46.776  41.227  24.215  1.00  0.00     0.102 A 
ATOM      9  C   UNL A   1      46.728  44.940  23.817  1.00  0.00     0.078 C 
ATOM     10  C   UNL A   1      45.688  45.267  24.900  1.00  0.00     0.115 C 
ATOM     11  C   UNL A   1      46.865  43.443  23.675  1.00  0.00     0.055 A 
ATOM     12  C   UNL A   1      45.659  44.304  26.076  1.00  0.00     0.225 C 
ATOM     13  C   UNL A   1      46.465  42.543  24.643  1.00  0.00     0.078 A 
ATOM     14  N   UNL A   1      47.451  42.718  22.652  1.00  0.00    -0.317 N 
ATOM     15  O   UNL A   1      45.325  44.673  27.201  1.00  0.00    -0.275 OA
ATOM     16  N   UNL A   1      45.915  42.981  25.823  1.00  0.00    -0.324 N 
ATOM     17  C   UNL A   1      47.308  41.378  22.943  1.00  0.00     0.109 A 
ATOM     18  H   UNL A   1      45.696  42.317  26.516  1.00  0.00     0.170 HD
BRANCH   9  19
ATOM     19  C   UNL A   1      46.411  45.767  22.569  1.00  0.00    -0.038 A 
ATOM     20  C   UNL A   1      46.023  47.221  20.168  1.00  0.00     0.060 A 
ATOM     21  C   UNL A   1      47.181  47.406  20.929  1.00  0.00     0.016 A 
ATOM     22  C   UNL A   1      45.026  46.366  20.649  1.00  0.00     0.016 A 
ATOM     23  C   UNL A   1      47.374  46.686  22.112  1.00  0.00     0.005 A 
ATOM     24  C   UNL A   1      45.207  45.671  21.856  1.00  0.00     0.005 A 
BRANCH  20  25
ATOM     25  C   UNL A   1      45.927  47.923  18.857  1.00  0.00     0.337 C 
ATOM     26  O   UNL A   1      45.857  47.337  17.787  1.00  0.00    -0.246 OA
BRANCH  25  27
ATOM     27  O   UNL A   1      45.905  49.268  19.027  1.00  0.00    -0.465 OA
ATOM     28  C   UNL A   1      44.598  49.817  19.208  1.00  0.00     0.282 C 
ENDBRANCH  25  27
ENDBRANCH  20  25
ENDBRANCH   9  19
BRANCH  14  29
ATOM     29  C   UNL A   1      48.113  43.204  21.506  1.00  0.00     0.045 A 
ATOM     30  C   UNL A   1      49.451  43.596  21.597  1.00  0.00     0.026 A 
ATOM     31  C   UNL A   1      47.405  43.335  20.305  1.00  0.00     0.026 A 
ATOM     32  C   UNL A   1      50.076  44.155  20.484  1.00  0.00     0.002 A 
ATOM     33  C   UNL A   1      48.028  43.934  19.211  1.00  0.00     0.002 A 
ATOM     34  C   UNL A   1      49.361  44.342  19.301  1.00  0.00     0.000 A 
ENDBRANCH  14  29
ENDBRANCH   6   8
ENDBRANCH   5   6
ENDBRANCH   4   5
ENDBRANCH   3   4
ENDBRANCH   2   3
ENDBRANCH   1   2
BRANCH   1  35
ATOM     35  C   UNL A   1      45.754  42.334  30.368  1.00  0.00     0.188 C 
BRANCH  35  36
ATOM     36  O   UNL A   1      46.585  41.696  31.323  1.00  0.00    -0.376 OA
BRANCH  36  37
ATOM     37  C   UNL A   1      46.092  41.600  32.652  1.00  0.00     0.202 C 
BRANCH  37  38
ATOM     38  C   UNL A   1      45.340  40.323  33.017  1.00  0.00     0.261 C 
BRANCH  38  39
ATOM     39  O   UNL A   1      45.438  39.277  32.063  1.00  0.00    -0.460 OA
BRANCH  39  40
ATOM     40  C   UNL A   1      44.265  38.849  31.560  1.00  0.00     0.338 C 
ATOM     41  O   UNL A   1      43.485  39.493  30.867  1.00  0.00    -0.246 OA
BRANCH  40  42
ATOM     42  C   UNL A   1      44.007  37.509  32.077  1.00  0.00     0.060 A 
ATOM     43  C   UNL A   1      44.042  36.451  31.168  1.00  0.00     0.016 A 
ATOM     44  C   UNL A   1      43.427  37.388  33.350  1.00  0.00     0.016 A 
ATOM     45  C   UNL A   1      43.299  35.330  31.455  1.00  0.00     0.010 A 
ATOM     46  C   UNL A   1      42.658  36.286  33.617  1.00  0.00     0.010 A 
ATOM     47  C   UNL A   1      42.541  35.311  32.629  1.00  0.00    -0.014 A 
BRANCH  47  48
ATOM     48  C   UNL A   1      41.659  34.188  32.852  1.00  0.00     0.031 A 
ATOM     49  C   UNL A   1      40.433  34.253  32.037  1.00  0.00     0.074 A 
ATOM     50  C   UNL A   1      42.003  33.148  33.633  1.00  0.00     0.049 A 
ATOM     51  N   UNL A   1      39.222  34.432  32.444  1.00  0.00    -0.248 NA
ATOM     52  C   UNL A   1      40.597  34.330  30.576  1.00  0.00     0.031 C 
ATOM     53  C   UNL A   1      43.310  32.882  34.237  1.00  0.00     0.029 A 
ATOM     54  N   UNL A   1      41.280  32.041  33.949  1.00  0.00    -0.354 N 
ATOM     55  C   UNL A   1      38.445  34.376  31.294  1.00  0.00     0.074 A 
ATOM     56  C   UNL A   1      39.345  34.574  30.194  1.00  0.00     0.031 C 
ATOM     57  C   UNL A   1      43.349  31.596  34.653  1.00  0.00     0.029 A 
ATOM     58  C   UNL A   1      42.043  30.989  34.443  1.00  0.00     0.049 A 
ATOM     59  H   UNL A   1      40.304  31.988  33.837  1.00  0.00     0.167 HD
ATOM     60  C   UNL A   1      37.187  33.865  31.333  1.00  0.00     0.034 A 
ATOM     61  C   UNL A   1      41.650  29.695  34.580  1.00  0.00     0.034 A 
ATOM     62  C   UNL A   1      36.664  33.887  32.685  1.00  0.00     0.049 A 
ATOM     63  C   UNL A   1      40.165  29.689  34.602  1.00  0.00     0.074 A 
ATOM     64  C   UNL A   1      36.485  34.884  33.629  1.00  0.00     0.029 A 
ATOM     65  N   UNL A   1      36.595  32.701  33.384  1.00  0.00    -0.354 N 
ATOM     66  N   UNL A   1      39.454  30.220  35.560  1.00  0.00    -0.248 NA
ATOM     67  C   UNL A   1      39.455  29.506  33.344  1.00  0.00     0.031 C 
ATOM     68  C   UNL A   1      36.797  34.276  34.879  1.00  0.00     0.029 A 
ATOM     69  C   UNL A   1      37.078  32.927  34.650  1.00  0.00     0.049 A 
ATOM     70  H   UNL A   1      36.260  31.844  33.036  1.00  0.00     0.167 HD
ATOM     71  C   UNL A   1      38.383  30.826  34.922  1.00  0.00     0.074 A 
ATOM     72  C   UNL A   1      38.375  30.257  33.578  1.00  0.00     0.031 C 
ATOM     73  C   UNL A   1      37.784  31.938  35.447  1.00  0.00     0.034 A 
BRANCH  60  74
ATOM     74  C   UNL A   1      36.611  32.985  30.241  1.00  0.00     0.023 A 
ATOM     75  C   UNL A   1      37.085  31.664  30.185  1.00  0.00     0.031 A 
ATOM     76  C   UNL A   1      35.876  33.414  29.107  1.00  0.00     0.131 A 
ATOM     77  C   UNL A   1      36.953  30.897  29.017  1.00  0.00     0.055 A 
ATOM     78  C   UNL A   1      35.684  32.620  27.974  1.00  0.00     0.041 A 
ATOM     79  F   UNL A   1      35.369  34.643  28.979  1.00  0.00    -0.206 F 
ATOM     80  C   UNL A   1      36.259  31.365  27.906  1.00  0.00     0.022 A 
BRANCH  77  81
ATOM     81  S   UNL A   1      37.881  29.350  28.913  1.00  0.00     0.124 S 
ATOM     82  O   UNL A   1      37.650  28.788  30.239  1.00  0.00    -0.237 OA
ATOM     83  O   UNL A   1      37.215  28.678  27.802  1.00  0.00    -0.237 OA
ATOM     84  O   UNL A   1      39.247  29.793  28.648  1.00  0.00    -0.744 OA
ENDBRANCH  77  81
ENDBRANCH  60  74
BRANCH  61  85
ATOM     85  C   UNL A   1      42.479  28.475  34.372  1.00  0.00     0.023 A 
ATOM     86  C   UNL A   1      42.409  27.357  35.229  1.00  0.00     0.031 A 
ATOM     87  C   UNL A   1      43.199  28.302  33.168  1.00  0.00     0.131 A 
ATOM     88  C   UNL A   1      43.044  26.143  34.870  1.00  0.00     0.055 A 
ATOM     89  C   UNL A   1      43.837  27.108  32.826  1.00  0.00     0.041 A 
ATOM     90  F   UNL A   1      43.239  29.264  32.232  1.00  0.00    -0.206 F 
ATOM     91  C   UNL A   1      43.753  26.017  33.675  1.00  0.00     0.022 A 
BRANCH  88  92
ATOM     92  S   UNL A   1      42.864  24.664  35.919  1.00  0.00     0.124 S 
ATOM     93  O   UNL A   1      43.734  23.702  35.251  1.00  0.00    -0.237 OA
ATOM     94  O   UNL A   1      43.307  25.146  37.221  1.00  0.00    -0.237 OA
ATOM     95  O   UNL A   1      41.434  24.361  35.836  1.00  0.00    -0.744 OA
ENDBRANCH  88  92
ENDBRANCH  61  85
BRANCH  73  96
ATOM     96  C   UNL A   1      38.045  32.285  36.900  1.00  0.00     0.023 A 
ATOM     97  C   UNL A   1      37.320  31.776  38.001  1.00  0.00     0.031 A 
ATOM     98  C   UNL A   1      39.163  33.094  37.177  1.00  0.00     0.131 A 
ATOM     99  C   UNL A   1      37.717  32.094  39.316  1.00  0.00     0.055 A 
ATOM    100  C   UNL A   1      39.566  33.389  38.479  1.00  0.00     0.041 A 
ATOM    101  F   UNL A   1      39.911  33.589  36.177  1.00  0.00    -0.206 F 
ATOM    102  C   UNL A   1      38.839  32.894  39.554  1.00  0.00     0.022 A 
BRANCH  99 103
ATOM    103  S   UNL A   1      36.770  31.484  40.748  1.00  0.00     0.124 S 
ATOM    104  O   UNL A   1      37.553  30.348  41.220  1.00  0.00    -0.237 OA
ATOM    105  O   UNL A   1      36.742  32.651  41.625  1.00  0.00    -0.237 OA
ATOM    106  O   UNL A   1      35.471  31.130  40.170  1.00  0.00    -0.744 OA
ENDBRANCH  99 103
ENDBRANCH  73  96
ENDBRANCH  47  48
ENDBRANCH  40  42
ENDBRANCH  39  40
ENDBRANCH  38  39
ENDBRANCH  37  38
ENDBRANCH  36  37
ENDBRANCH  35  36
ENDBRANCH   1  35
TORSDOF 24
ENDMDL
