MODEL 1
REMARK VINA RESULT:     -11.2      0.000      0.000
REMARK SMILES Cc1nc(-c2cccc(N3C[C@H](C(=O)OCCOCCOCCOC(=O)c4ccc(-c5c6nc(c(-c7cc(S(=O)(=O)[O-])ccc7F)c7ccc([nH]7)c(-c7cc(S(=O)(=O)[O-])ccc7F)c7nc(c(-c8cc(S(=O)(=O)[O-])ccc8F)c8ccc5[nH]8)C=C7)C=C6)cc4)CC3=O)c2)no1
REMARK SMILES IDX 20 1 19 2 18 3 17 4 16 5 15 6 13 7 14 8 12 9 10 10 11 11
REMARK SMILES IDX 91 12 90 13 92 14 9 15 5 16 6 17 93 18 7 19 8 20 4 21 1 22
REMARK SMILES IDX 2 23 3 24 95 25 94 26 21 27 22 28 23 29 24 30 25 31 26 32
REMARK SMILES IDX 27 33 28 34 89 35 29 36 88 37 30 38 31 39 32 40 82 41 33 42
REMARK SMILES IDX 87 43 81 44 83 45 34 46 86 47 80 48 79 49 35 51 67 52 47 53
REMARK SMILES IDX 66 54 48 55 51 56 65 57 84 58 49 59 50 60 64 62 85 63 52 64
REMARK SMILES IDX 36 65 37 66 45 67 38 68 44 69 46 70 43 71 39 72 40 73 41 74
REMARK SMILES IDX 42 75 68 76 69 77 77 78 70 79 76 80 78 81 75 82 71 83 72 84
REMARK SMILES IDX 73 85 74 86 53 87 54 88 62 89 55 90 61 91 63 92 60 93 56 94
REMARK SMILES IDX 57 95 58 96 59 97
REMARK H PARENT 83 50 51 61
REMARK Flexibility Score: inf
ROOT
ATOM      1  C   UNL A   1      29.553  30.018  23.851  1.00  0.00     0.188 C 
ENDROOT
BRANCH   1   2
ATOM      2  C   UNL A   1      30.222  29.249  22.688  1.00  0.00     0.188 C 
BRANCH   2   3
ATOM      3  O   UNL A   1      30.247  27.843  22.740  1.00  0.00    -0.376 OA
BRANCH   3   4
ATOM      4  C   UNL A   1      29.297  27.133  23.511  1.00  0.00     0.202 C 
BRANCH   4   5
ATOM      5  C   UNL A   1      29.630  26.147  24.643  1.00  0.00     0.261 C 
BRANCH   5   6
ATOM      6  O   UNL A   1      30.835  25.382  24.532  1.00  0.00    -0.463 OA
BRANCH   6   7
ATOM      7  C   UNL A   1      31.658  25.427  25.615  1.00  0.00     0.311 C 
ATOM      8  O   UNL A   1      31.372  24.972  26.714  1.00  0.00    -0.252 OA
BRANCH   7   9
ATOM      9  C   UNL A   1      32.962  26.134  25.283  1.00  0.00     0.128 C 
ATOM     10  N   UNL A   1      34.380  24.430  24.631  1.00  0.00    -0.312 N 
ATOM     11  C   UNL A   1      34.096  25.259  25.770  1.00  0.00     0.141 C 
ATOM     12  C   UNL A   1      33.979  25.009  23.436  1.00  0.00     0.227 C 
ATOM     13  C   UNL A   1      33.261  26.280  23.788  1.00  0.00     0.117 C 
ATOM     14  O   UNL A   1      34.116  24.605  22.290  1.00  0.00    -0.274 OA
BRANCH  10  15
ATOM     15  C   UNL A   1      34.947  23.158  24.732  1.00  0.00     0.044 A 
ATOM     16  C   UNL A   1      34.666  20.769  24.933  1.00  0.00     0.025 A 
ATOM     17  C   UNL A   1      36.058  20.615  24.959  1.00  0.00     0.012 A 
ATOM     18  C   UNL A   1      34.116  22.051  24.864  1.00  0.00     0.038 A 
ATOM     19  C   UNL A   1      36.892  21.729  24.858  1.00  0.00     0.003 A 
ATOM     20  C   UNL A   1      36.336  22.999  24.716  1.00  0.00     0.026 A 
BRANCH  16  21
ATOM     21  C   UNL A   1      33.777  19.625  24.909  1.00  0.00     0.202 A 
ATOM     22  C   UNL A   1      33.003  16.176  24.591  1.00  0.00     0.114 C 
ATOM     23  C   UNL A   1      33.168  17.630  24.735  1.00  0.00     0.223 A 
ATOM     24  N   UNL A   1      34.247  18.362  24.603  1.00  0.00    -0.191 NA
ATOM     25  O   UNL A   1      32.067  18.341  25.107  1.00  0.00    -0.339 OA
ATOM     26  N   UNL A   1      32.486  19.662  25.260  1.00  0.00    -0.057 NA
ENDBRANCH  16  21
ENDBRANCH  10  15
ENDBRANCH   7   9
ENDBRANCH   6   7
ENDBRANCH   5   6
ENDBRANCH   4   5
ENDBRANCH   3   4
ENDBRANCH   2   3
ENDBRANCH   1   2
BRANCH   1  27
ATOM     27  O   UNL A   1      30.114  31.227  24.312  1.00  0.00    -0.376 OA
BRANCH  27  28
ATOM     28  C   UNL A   1      30.895  31.232  25.491  1.00  0.00     0.202 C 
BRANCH  28  29
ATOM     29  C   UNL A   1      31.916  30.137  25.849  1.00  0.00     0.261 C 
BRANCH  29  30
ATOM     30  O   UNL A   1      32.573  30.226  27.120  1.00  0.00    -0.460 OA
BRANCH  30  31
ATOM     31  C   UNL A   1      33.239  31.389  27.352  1.00  0.00     0.338 C 
ATOM     32  O   UNL A   1      32.767  32.512  27.334  1.00  0.00    -0.246 OA
BRANCH  31  33
ATOM     33  C   UNL A   1      34.613  31.096  27.813  1.00  0.00     0.060 A 
ATOM     34  C   UNL A   1      34.974  29.765  28.070  1.00  0.00     0.016 A 
ATOM     35  C   UNL A   1      35.521  32.130  28.043  1.00  0.00     0.016 A 
ATOM     36  C   UNL A   1      36.239  29.466  28.582  1.00  0.00     0.010 A 
ATOM     37  C   UNL A   1      36.779  31.829  28.579  1.00  0.00     0.010 A 
ATOM     38  C   UNL A   1      37.136  30.500  28.881  1.00  0.00    -0.014 A 
BRANCH  38  39
ATOM     39  C   UNL A   1      38.371  30.219  29.661  1.00  0.00     0.031 A 
ATOM     40  C   UNL A   1      39.346  29.202  29.127  1.00  0.00     0.074 A 
ATOM     41  C   UNL A   1      38.637  30.857  30.815  1.00  0.00     0.049 A 
ATOM     42  N   UNL A   1      40.432  28.718  29.672  1.00  0.00    -0.248 NA
ATOM     43  C   UNL A   1      39.046  28.657  27.794  1.00  0.00     0.031 C 
ATOM     44  C   UNL A   1      37.816  31.915  31.402  1.00  0.00     0.029 A 
ATOM     45  N   UNL A   1      39.672  30.702  31.707  1.00  0.00    -0.354 N 
ATOM     46  C   UNL A   1      40.945  27.808  28.753  1.00  0.00     0.074 A 
ATOM     47  C   UNL A   1      40.024  27.779  27.636  1.00  0.00     0.031 C 
ATOM     48  C   UNL A   1      38.371  32.300  32.566  1.00  0.00     0.029 A 
ATOM     49  C   UNL A   1      39.557  31.488  32.829  1.00  0.00     0.049 A 
ATOM     50  H   UNL A   1      40.424  30.085  31.554  1.00  0.00     0.167 HD
ATOM     51  C   UNL A   1      42.082  27.072  28.830  1.00  0.00     0.034 A 
ATOM     52  C   UNL A   1      40.302  31.523  33.955  1.00  0.00     0.034 A 
ATOM     53  C   UNL A   1      42.981  27.099  29.958  1.00  0.00     0.049 A 
ATOM     54  C   UNL A   1      41.499  30.606  34.073  1.00  0.00     0.074 A 
ATOM     55  C   UNL A   1      44.157  26.391  30.142  1.00  0.00     0.029 A 
ATOM     56  N   UNL A   1      42.799  27.863  31.106  1.00  0.00    -0.354 N 
ATOM     57  N   UNL A   1      41.969  29.738  33.205  1.00  0.00    -0.248 NA
ATOM     58  C   UNL A   1      42.271  30.677  35.322  1.00  0.00     0.031 C 
ATOM     59  C   UNL A   1      44.638  26.661  31.427  1.00  0.00     0.029 A 
ATOM     60  C   UNL A   1      43.819  27.612  32.013  1.00  0.00     0.049 A 
ATOM     61  H   UNL A   1      42.054  28.490  31.253  1.00  0.00     0.167 HD
ATOM     62  C   UNL A   1      43.111  29.193  33.790  1.00  0.00     0.074 A 
ATOM     63  C   UNL A   1      43.265  29.835  35.078  1.00  0.00     0.031 C 
ATOM     64  C   UNL A   1      43.961  28.252  33.302  1.00  0.00     0.034 A 
BRANCH  51  65
ATOM     65  C   UNL A   1      42.380  26.134  27.682  1.00  0.00     0.023 A 
ATOM     66  C   UNL A   1      41.841  24.837  27.624  1.00  0.00     0.031 A 
ATOM     67  C   UNL A   1      43.246  26.532  26.648  1.00  0.00     0.131 A 
ATOM     68  C   UNL A   1      42.232  23.960  26.600  1.00  0.00     0.055 A 
ATOM     69  C   UNL A   1      43.562  25.684  25.584  1.00  0.00     0.041 A 
ATOM     70  F   UNL A   1      43.813  27.748  26.660  1.00  0.00    -0.206 F 
ATOM     71  C   UNL A   1      43.068  24.384  25.565  1.00  0.00     0.022 A 
BRANCH  68  72
ATOM     72  S   UNL A   1      41.763  22.213  26.728  1.00  0.00     0.124 S 
ATOM     73  O   UNL A   1      41.884  21.771  25.341  1.00  0.00    -0.237 OA
ATOM     74  O   UNL A   1      42.757  21.686  27.655  1.00  0.00    -0.237 OA
ATOM     75  O   UNL A   1      40.395  22.261  27.241  1.00  0.00    -0.744 OA
ENDBRANCH  68  72
ENDBRANCH  51  65
BRANCH  52  76
ATOM     76  C   UNL A   1      39.914  32.411  35.094  1.00  0.00     0.023 A 
ATOM     77  C   UNL A   1      39.090  31.953  36.135  1.00  0.00     0.031 A 
ATOM     78  C   UNL A   1      40.305  33.762  35.114  1.00  0.00     0.131 A 
ATOM     79  C   UNL A   1      38.644  32.848  37.121  1.00  0.00     0.055 A 
ATOM     80  C   UNL A   1      39.917  34.631  36.135  1.00  0.00     0.041 A 
ATOM     81  F   UNL A   1      41.076  34.262  34.134  1.00  0.00    -0.206 F 
ATOM     82  C   UNL A   1      39.069  34.179  37.140  1.00  0.00     0.022 A 
BRANCH  79  83
ATOM     83  S   UNL A   1      37.396  32.285  38.314  1.00  0.00     0.124 S 
ATOM     84  O   UNL A   1      37.344  30.855  38.034  1.00  0.00    -0.237 OA
ATOM     85  O   UNL A   1      37.992  32.666  39.589  1.00  0.00    -0.237 OA
ATOM     86  O   UNL A   1      36.200  33.036  37.936  1.00  0.00    -0.744 OA
ENDBRANCH  79  83
ENDBRANCH  52  76
BRANCH  64  87
ATOM     87  C   UNL A   1      45.169  27.901  34.142  1.00  0.00     0.023 A 
ATOM     88  C   UNL A   1      45.092  27.016  35.232  1.00  0.00     0.031 A 
ATOM     89  C   UNL A   1      46.422  28.468  33.843  1.00  0.00     0.131 A 
ATOM     90  C   UNL A   1      46.231  26.769  36.015  1.00  0.00     0.055 A 
ATOM     91  C   UNL A   1      47.567  28.164  34.584  1.00  0.00     0.041 A 
ATOM     92  F   UNL A   1      46.560  29.323  32.816  1.00  0.00    -0.206 F 
ATOM     93  C   UNL A   1      47.472  27.321  35.686  1.00  0.00     0.022 A 
BRANCH  90  94
ATOM     94  S   UNL A   1      46.053  25.792  37.534  1.00  0.00     0.124 S 
ATOM     95  O   UNL A   1      47.258  24.971  37.510  1.00  0.00    -0.237 OA
ATOM     96  O   UNL A   1      46.003  26.822  38.566  1.00  0.00    -0.237 OA
ATOM     97  O   UNL A   1      44.803  25.062  37.329  1.00  0.00    -0.744 OA
ENDBRANCH  90  94
ENDBRANCH  64  87
ENDBRANCH  38  39
ENDBRANCH  31  33
ENDBRANCH  30  31
ENDBRANCH  29  30
ENDBRANCH  28  29
ENDBRANCH  27  28
ENDBRANCH   1  27
TORSDOF 22
ENDMDL
MODEL 2
REMARK VINA RESULT:     -11.1      4.901     10.120
REMARK SMILES Cc1nc(-c2cccc(N3C[C@H](C(=O)OCCOCCOCCOC(=O)c4ccc(-c5c6nc(c(-c7cc(S(=O)(=O)[O-])ccc7F)c7ccc([nH]7)c(-c7cc(S(=O)(=O)[O-])ccc7F)c7nc(c(-c8cc(S(=O)(=O)[O-])ccc8F)c8ccc5[nH]8)C=C7)C=C6)cc4)CC3=O)c2)no1
REMARK SMILES IDX 20 1 19 2 18 3 17 4 16 5 15 6 13 7 14 8 12 9 10 10 11 11
REMARK SMILES IDX 91 12 90 13 92 14 9 15 5 16 6 17 93 18 7 19 8 20 4 21 1 22
REMARK SMILES IDX 2 23 3 24 95 25 94 26 21 27 22 28 23 29 24 30 25 31 26 32
REMARK SMILES IDX 27 33 28 34 89 35 29 36 88 37 30 38 31 39 32 40 82 41 33 42
REMARK SMILES IDX 87 43 81 44 83 45 34 46 86 47 80 48 79 49 35 51 67 52 47 53
REMARK SMILES IDX 66 54 48 55 51 56 65 57 84 58 49 59 50 60 64 62 85 63 52 64
REMARK SMILES IDX 36 65 37 66 45 67 38 68 44 69 46 70 43 71 39 72 40 73 41 74
REMARK SMILES IDX 42 75 68 76 69 77 77 78 70 79 76 80 78 81 75 82 71 83 72 84
REMARK SMILES IDX 73 85 74 86 53 87 54 88 62 89 55 90 61 91 63 92 60 93 56 94
REMARK SMILES IDX 57 95 58 96 59 97
REMARK H PARENT 83 50 51 61
REMARK Flexibility Score: inf
ROOT
ATOM      1  C   UNL A   1      33.455  22.373  26.146  1.00  0.00     0.188 C 
ENDROOT
BRANCH   1   2
ATOM      2  C   UNL A   1      32.230  22.738  27.015  1.00  0.00     0.188 C 
BRANCH   2   3
ATOM      3  O   UNL A   1      31.045  23.141  26.371  1.00  0.00    -0.376 OA
BRANCH   3   4
ATOM      4  C   UNL A   1      31.010  24.331  25.608  1.00  0.00     0.202 C 
BRANCH   4   5
ATOM      5  C   UNL A   1      30.476  24.449  24.170  1.00  0.00     0.261 C 
BRANCH   5   6
ATOM      6  O   UNL A   1      31.371  24.930  23.161  1.00  0.00    -0.463 OA
BRANCH   6   7
ATOM      7  C   UNL A   1      32.422  24.114  22.876  1.00  0.00     0.311 C 
ATOM      8  O   UNL A   1      32.326  22.909  22.690  1.00  0.00    -0.252 OA
BRANCH   7   9
ATOM      9  C   UNL A   1      33.727  24.894  22.843  1.00  0.00     0.128 C 
ATOM     10  N   UNL A   1      33.236  26.864  23.948  1.00  0.00    -0.312 N 
ATOM     11  C   UNL A   1      33.385  26.350  22.614  1.00  0.00     0.141 C 
ATOM     12  C   UNL A   1      33.926  26.113  24.889  1.00  0.00     0.227 C 
ATOM     13  C   UNL A   1      34.499  24.928  24.165  1.00  0.00     0.117 C 
ATOM     14  O   UNL A   1      34.055  26.298  26.090  1.00  0.00    -0.274 OA
BRANCH  10  15
ATOM     15  C   UNL A   1      32.437  27.964  24.260  1.00  0.00     0.044 A 
ATOM     16  C   UNL A   1      30.730  29.542  23.610  1.00  0.00     0.025 A 
ATOM     17  C   UNL A   1      30.851  30.174  24.855  1.00  0.00     0.012 A 
ATOM     18  C   UNL A   1      31.560  28.462  23.302  1.00  0.00     0.038 A 
ATOM     19  C   UNL A   1      31.753  29.694  25.804  1.00  0.00     0.003 A 
ATOM     20  C   UNL A   1      32.526  28.570  25.517  1.00  0.00     0.026 A 
BRANCH  16  21
ATOM     21  C   UNL A   1      29.716  29.940  22.654  1.00  0.00     0.202 A 
ATOM     22  C   UNL A   1      27.863  32.281  20.736  1.00  0.00     0.114 C 
ATOM     23  C   UNL A   1      28.536  31.199  21.471  1.00  0.00     0.223 A 
ATOM     24  N   UNL A   1      29.456  31.273  22.402  1.00  0.00    -0.191 NA
ATOM     25  O   UNL A   1      28.212  29.924  21.122  1.00  0.00    -0.339 OA
ATOM     26  N   UNL A   1      29.028  29.089  21.884  1.00  0.00    -0.057 NA
ENDBRANCH  16  21
ENDBRANCH  10  15
ENDBRANCH   7   9
ENDBRANCH   6   7
ENDBRANCH   5   6
ENDBRANCH   4   5
ENDBRANCH   3   4
ENDBRANCH   2   3
ENDBRANCH   1   2
BRANCH   1  27
ATOM     27  O   UNL A   1      34.133  21.154  26.359  1.00  0.00    -0.376 OA
BRANCH  27  28
ATOM     28  C   UNL A   1      34.709  20.473  25.261  1.00  0.00     0.202 C 
BRANCH  28  29
ATOM     29  C   UNL A   1      36.225  20.370  25.012  1.00  0.00     0.261 C 
BRANCH  29  30
ATOM     30  O   UNL A   1      37.041  21.485  25.392  1.00  0.00    -0.460 OA
BRANCH  30  31
ATOM     31  C   UNL A   1      38.327  21.183  25.714  1.00  0.00     0.338 C 
ATOM     32  O   UNL A   1      38.937  20.176  25.400  1.00  0.00    -0.246 OA
BRANCH  31  33
ATOM     33  C   UNL A   1      38.967  22.345  26.368  1.00  0.00     0.060 A 
ATOM     34  C   UNL A   1      38.449  23.627  26.131  1.00  0.00     0.016 A 
ATOM     35  C   UNL A   1      40.101  22.179  27.163  1.00  0.00     0.016 A 
ATOM     36  C   UNL A   1      39.080  24.751  26.670  1.00  0.00     0.010 A 
ATOM     37  C   UNL A   1      40.745  23.309  27.682  1.00  0.00     0.010 A 
ATOM     38  C   UNL A   1      40.257  24.604  27.415  1.00  0.00    -0.014 A 
BRANCH  38  39
ATOM     39  C   UNL A   1      41.074  25.795  27.770  1.00  0.00     0.031 A 
ATOM     40  C   UNL A   1      40.418  26.919  28.528  1.00  0.00     0.074 A 
ATOM     41  C   UNL A   1      42.376  25.882  27.441  1.00  0.00     0.049 A 
ATOM     42  N   UNL A   1      40.891  28.093  28.860  1.00  0.00    -0.248 NA
ATOM     43  C   UNL A   1      39.035  26.682  28.968  1.00  0.00     0.031 C 
ATOM     44  C   UNL A   1      43.149  24.835  26.775  1.00  0.00     0.029 A 
ATOM     45  N   UNL A   1      43.278  26.905  27.616  1.00  0.00    -0.354 N 
ATOM     46  C   UNL A   1      39.866  28.737  29.543  1.00  0.00     0.074 A 
ATOM     47  C   UNL A   1      38.731  27.837  29.538  1.00  0.00     0.031 C 
ATOM     48  C   UNL A   1      44.404  25.277  26.582  1.00  0.00     0.029 A 
ATOM     49  C   UNL A   1      44.513  26.652  27.067  1.00  0.00     0.049 A 
ATOM     50  H   UNL A   1      43.058  27.739  28.090  1.00  0.00     0.167 HD
ATOM     51  C   UNL A   1      39.871  29.962  30.128  1.00  0.00     0.034 A 
ATOM     52  C   UNL A   1      45.595  27.449  26.938  1.00  0.00     0.034 A 
ATOM     53  C   UNL A   1      41.005  30.855  30.108  1.00  0.00     0.049 A 
ATOM     54  C   UNL A   1      45.541  28.857  27.490  1.00  0.00     0.074 A 
ATOM     55  C   UNL A   1      41.117  32.118  30.664  1.00  0.00     0.029 A 
ATOM     56  N   UNL A   1      42.220  30.589  29.488  1.00  0.00    -0.354 N 
ATOM     57  N   UNL A   1      44.561  29.463  28.123  1.00  0.00    -0.248 NA
ATOM     58  C   UNL A   1      46.742  29.687  27.316  1.00  0.00     0.031 C 
ATOM     59  C   UNL A   1      42.362  32.647  30.310  1.00  0.00     0.029 A 
ATOM     60  C   UNL A   1      43.069  31.679  29.616  1.00  0.00     0.049 A 
ATOM     61  H   UNL A   1      42.445  29.749  29.026  1.00  0.00     0.167 HD
ATOM     62  C   UNL A   1      45.045  30.728  28.454  1.00  0.00     0.074 A 
ATOM     63  C   UNL A   1      46.404  30.794  27.961  1.00  0.00     0.031 C 
ATOM     64  C   UNL A   1      44.424  31.741  29.113  1.00  0.00     0.034 A 
BRANCH  51  65
ATOM     65  C   UNL A   1      38.590  30.423  30.783  1.00  0.00     0.023 A 
ATOM     66  C   UNL A   1      37.549  31.016  30.047  1.00  0.00     0.031 A 
ATOM     67  C   UNL A   1      38.421  30.301  32.175  1.00  0.00     0.131 A 
ATOM     68  C   UNL A   1      36.425  31.531  30.710  1.00  0.00     0.055 A 
ATOM     69  C   UNL A   1      37.262  30.737  32.819  1.00  0.00     0.041 A 
ATOM     70  F   UNL A   1      39.389  29.768  32.937  1.00  0.00    -0.206 F 
ATOM     71  C   UNL A   1      36.262  31.372  32.088  1.00  0.00     0.022 A 
BRANCH  68  72
ATOM     72  S   UNL A   1      35.258  32.554  29.772  1.00  0.00     0.124 S 
ATOM     73  O   UNL A   1      34.739  31.596  28.799  1.00  0.00    -0.237 OA
ATOM     74  O   UNL A   1      34.322  32.990  30.802  1.00  0.00    -0.237 OA
ATOM     75  O   UNL A   1      36.100  33.607  29.208  1.00  0.00    -0.744 OA
ENDBRANCH  68  72
ENDBRANCH  51  65
BRANCH  52  76
ATOM     76  C   UNL A   1      46.808  26.970  26.206  1.00  0.00     0.023 A 
ATOM     77  C   UNL A   1      47.850  26.303  26.869  1.00  0.00     0.031 A 
ATOM     78  C   UNL A   1      46.972  27.245  24.836  1.00  0.00     0.131 A 
ATOM     79  C   UNL A   1      49.028  25.978  26.175  1.00  0.00     0.055 A 
ATOM     80  C   UNL A   1      48.115  26.858  24.134  1.00  0.00     0.041 A 
ATOM     81  F   UNL A   1      46.018  27.900  24.154  1.00  0.00    -0.206 F 
ATOM     82  C   UNL A   1      49.158  26.232  24.808  1.00  0.00     0.022 A 
BRANCH  79  83
ATOM     83  S   UNL A   1      50.444  25.331  27.110  1.00  0.00     0.124 S 
ATOM     84  O   UNL A   1      50.822  26.489  27.912  1.00  0.00    -0.237 OA
ATOM     85  O   UNL A   1      49.851  24.216  27.838  1.00  0.00    -0.237 OA
ATOM     86  O   UNL A   1      51.399  24.958  26.068  1.00  0.00    -0.744 OA
ENDBRANCH  79  83
ENDBRANCH  52  76
BRANCH  64  87
ATOM     87  C   UNL A   1      45.231  32.989  29.392  1.00  0.00     0.023 A 
ATOM     88  C   UNL A   1      45.288  34.062  28.485  1.00  0.00     0.031 A 
ATOM     89  C   UNL A   1      45.959  33.103  30.591  1.00  0.00     0.131 A 
ATOM     90  C   UNL A   1      46.098  35.174  28.766  1.00  0.00     0.055 A 
ATOM     91  C   UNL A   1      46.708  34.241  30.896  1.00  0.00     0.041 A 
ATOM     92  F   UNL A   1      45.948  32.110  31.496  1.00  0.00    -0.206 F 
ATOM     93  C   UNL A   1      46.793  35.280  29.974  1.00  0.00     0.022 A 
BRANCH  90  94
ATOM     94  S   UNL A   1      46.315  36.444  27.487  1.00  0.00     0.124 S 
ATOM     95  O   UNL A   1      44.986  36.503  26.889  1.00  0.00    -0.237 OA
ATOM     96  O   UNL A   1      46.715  37.610  28.268  1.00  0.00    -0.237 OA
ATOM     97  O   UNL A   1      47.358  35.890  26.626  1.00  0.00    -0.744 OA
ENDBRANCH  90  94
ENDBRANCH  64  87
ENDBRANCH  38  39
ENDBRANCH  31  33
ENDBRANCH  30  31
ENDBRANCH  29  30
ENDBRANCH  28  29
ENDBRANCH  27  28
ENDBRANCH   1  27
TORSDOF 22
ENDMDL
MODEL 3
REMARK VINA RESULT:     -11.1      4.782      7.844
REMARK SMILES Cc1nc(-c2cccc(N3C[C@H](C(=O)OCCOCCOCCOC(=O)c4ccc(-c5c6nc(c(-c7cc(S(=O)(=O)[O-])ccc7F)c7ccc([nH]7)c(-c7cc(S(=O)(=O)[O-])ccc7F)c7nc(c(-c8cc(S(=O)(=O)[O-])ccc8F)c8ccc5[nH]8)C=C7)C=C6)cc4)CC3=O)c2)no1
REMARK SMILES IDX 20 1 19 2 18 3 17 4 16 5 15 6 13 7 14 8 12 9 10 10 11 11
REMARK SMILES IDX 91 12 90 13 92 14 9 15 5 16 6 17 93 18 7 19 8 20 4 21 1 22
REMARK SMILES IDX 2 23 3 24 95 25 94 26 21 27 22 28 23 29 24 30 25 31 26 32
REMARK SMILES IDX 27 33 28 34 89 35 29 36 88 37 30 38 31 39 32 40 82 41 33 42
REMARK SMILES IDX 87 43 81 44 83 45 34 46 86 47 80 48 79 49 35 51 67 52 47 53
REMARK SMILES IDX 66 54 48 55 51 56 65 57 84 58 49 59 50 60 64 62 85 63 52 64
REMARK SMILES IDX 36 65 37 66 45 67 38 68 44 69 46 70 43 71 39 72 40 73 41 74
REMARK SMILES IDX 42 75 68 76 69 77 77 78 70 79 76 80 78 81 75 82 71 83 72 84
REMARK SMILES IDX 73 85 74 86 53 87 54 88 62 89 55 90 61 91 63 92 60 93 56 94
REMARK SMILES IDX 57 95 58 96 59 97
REMARK H PARENT 83 50 51 61
REMARK Flexibility Score: inf
ROOT
ATOM      1  C   UNL A   1      34.372  22.299  26.682  1.00  0.00     0.188 C 
ENDROOT
BRANCH   1   2
ATOM      2  C   UNL A   1      33.556  22.454  27.986  1.00  0.00     0.188 C 
BRANCH   2   3
ATOM      3  O   UNL A   1      32.192  22.786  27.890  1.00  0.00    -0.376 OA
BRANCH   3   4
ATOM      4  C   UNL A   1      31.699  23.487  26.765  1.00  0.00     0.202 C 
BRANCH   4   5
ATOM      5  C   UNL A   1      30.731  22.916  25.715  1.00  0.00     0.261 C 
BRANCH   5   6
ATOM      6  O   UNL A   1      31.027  23.151  24.334  1.00  0.00    -0.463 OA
BRANCH   6   7
ATOM      7  C   UNL A   1      31.960  22.325  23.786  1.00  0.00     0.311 C 
ATOM      8  O   UNL A   1      32.124  21.160  24.118  1.00  0.00    -0.252 OA
BRANCH   7   9
ATOM      9  C   UNL A   1      32.779  23.048  22.730  1.00  0.00     0.128 C 
ATOM     10  N   UNL A   1      32.927  25.217  23.515  1.00  0.00    -0.312 N 
ATOM     11  C   UNL A   1      32.191  24.432  22.562  1.00  0.00     0.141 C 
ATOM     12  C   UNL A   1      34.161  24.662  23.824  1.00  0.00     0.227 C 
ATOM     13  C   UNL A   1      34.232  23.339  23.118  1.00  0.00     0.117 C 
ATOM     14  O   UNL A   1      35.048  25.092  24.547  1.00  0.00    -0.274 OA
BRANCH  10  15
ATOM     15  C   UNL A   1      32.422  26.378  24.103  1.00  0.00     0.044 A 
ATOM     16  C   UNL A   1      31.074  28.373  23.937  1.00  0.00     0.025 A 
ATOM     17  C   UNL A   1      31.425  28.711  25.251  1.00  0.00     0.012 A 
ATOM     18  C   UNL A   1      31.613  27.224  23.353  1.00  0.00     0.038 A 
ATOM     19  C   UNL A   1      32.263  27.877  25.992  1.00  0.00     0.003 A 
ATOM     20  C   UNL A   1      32.739  26.695  25.427  1.00  0.00     0.026 A 
BRANCH  16  21
ATOM     21  C   UNL A   1      30.108  29.151  23.187  1.00  0.00     0.202 A 
ATOM     22  C   UNL A   1      28.069  31.988  22.565  1.00  0.00     0.114 C 
ATOM     23  C   UNL A   1      28.847  30.747  22.696  1.00  0.00     0.223 A 
ATOM     24  N   UNL A   1      29.639  30.359  23.666  1.00  0.00    -0.191 NA
ATOM     25  O   UNL A   1      28.796  29.875  21.650  1.00  0.00    -0.339 OA
ATOM     26  N   UNL A   1      29.667  28.834  21.964  1.00  0.00    -0.057 NA
ENDBRANCH  16  21
ENDBRANCH  10  15
ENDBRANCH   7   9
ENDBRANCH   6   7
ENDBRANCH   5   6
ENDBRANCH   4   5
ENDBRANCH   3   4
ENDBRANCH   2   3
ENDBRANCH   1   2
BRANCH   1  27
ATOM     27  O   UNL A   1      35.027  21.082  26.400  1.00  0.00    -0.376 OA
BRANCH  27  28
ATOM     28  C   UNL A   1      35.677  20.908  25.156  1.00  0.00     0.202 C 
BRANCH  28  29
ATOM     29  C   UNL A   1      37.111  20.369  25.003  1.00  0.00     0.261 C 
BRANCH  29  30
ATOM     30  O   UNL A   1      38.185  21.318  25.015  1.00  0.00    -0.460 OA
BRANCH  30  31
ATOM     31  C   UNL A   1      39.164  21.078  25.927  1.00  0.00     0.338 C 
ATOM     32  O   UNL A   1      39.732  20.018  26.122  1.00  0.00    -0.246 OA
BRANCH  31  33
ATOM     33  C   UNL A   1      39.587  22.349  26.554  1.00  0.00     0.060 A 
ATOM     34  C   UNL A   1      38.932  23.535  26.192  1.00  0.00     0.016 A 
ATOM     35  C   UNL A   1      40.656  22.380  27.450  1.00  0.00     0.016 A 
ATOM     36  C   UNL A   1      39.361  24.761  26.707  1.00  0.00     0.010 A 
ATOM     37  C   UNL A   1      41.099  23.612  27.946  1.00  0.00     0.010 A 
ATOM     38  C   UNL A   1      40.475  24.813  27.555  1.00  0.00    -0.014 A 
BRANCH  38  39
ATOM     39  C   UNL A   1      41.096  26.121  27.899  1.00  0.00     0.031 A 
ATOM     40  C   UNL A   1      42.530  26.363  27.506  1.00  0.00     0.074 A 
ATOM     41  C   UNL A   1      40.406  27.084  28.536  1.00  0.00     0.049 A 
ATOM     42  N   UNL A   1      43.314  27.373  27.780  1.00  0.00    -0.248 NA
ATOM     43  C   UNL A   1      43.163  25.313  26.691  1.00  0.00     0.031 C 
ATOM     44  C   UNL A   1      38.994  27.007  28.905  1.00  0.00     0.029 A 
ATOM     45  N   UNL A   1      40.806  28.317  28.994  1.00  0.00    -0.354 N 
ATOM     46  C   UNL A   1      44.534  27.083  27.179  1.00  0.00     0.074 A 
ATOM     47  C   UNL A   1      44.395  25.780  26.562  1.00  0.00     0.031 C 
ATOM     48  C   UNL A   1      38.651  28.137  29.549  1.00  0.00     0.029 A 
ATOM     49  C   UNL A   1      39.826  28.997  29.679  1.00  0.00     0.049 A 
ATOM     50  H   UNL A   1      41.710  28.679  28.845  1.00  0.00     0.167 HD
ATOM     51  C   UNL A   1      45.662  27.836  27.137  1.00  0.00     0.034 A 
ATOM     52  C   UNL A   1      39.878  30.160  30.362  1.00  0.00     0.034 A 
ATOM     53  C   UNL A   1      45.790  29.125  27.772  1.00  0.00     0.049 A 
ATOM     54  C   UNL A   1      41.181  30.928  30.406  1.00  0.00     0.074 A 
ATOM     55  C   UNL A   1      46.887  29.969  27.797  1.00  0.00     0.029 A 
ATOM     56  N   UNL A   1      44.793  29.754  28.510  1.00  0.00    -0.354 N 
ATOM     57  N   UNL A   1      42.334  30.639  29.846  1.00  0.00    -0.248 NA
ATOM     58  C   UNL A   1      41.188  32.183  31.171  1.00  0.00     0.031 C 
ATOM     59  C   UNL A   1      46.584  31.062  28.615  1.00  0.00     0.029 A 
ATOM     60  C   UNL A   1      45.265  30.953  29.025  1.00  0.00     0.049 A 
ATOM     61  H   UNL A   1      43.885  29.399  28.648  1.00  0.00     0.167 HD
ATOM     62  C   UNL A   1      43.188  31.696  30.159  1.00  0.00     0.074 A 
ATOM     63  C   UNL A   1      42.415  32.632  30.948  1.00  0.00     0.031 C 
ATOM     64  C   UNL A   1      44.490  31.880  29.819  1.00  0.00     0.034 A 
BRANCH  51  65
ATOM     65  C   UNL A   1      46.860  27.250  26.427  1.00  0.00     0.023 A 
ATOM     66  C   UNL A   1      47.896  26.604  27.126  1.00  0.00     0.031 A 
ATOM     67  C   UNL A   1      46.988  27.371  25.032  1.00  0.00     0.131 A 
ATOM     68  C   UNL A   1      49.043  26.174  26.441  1.00  0.00     0.055 A 
ATOM     69  C   UNL A   1      48.092  26.864  24.344  1.00  0.00     0.041 A 
ATOM     70  F   UNL A   1      46.047  28.000  24.311  1.00  0.00    -0.206 F 
ATOM     71  C   UNL A   1      49.137  26.275  25.052  1.00  0.00     0.022 A 
BRANCH  68  72
ATOM     72  S   UNL A   1      50.478  25.630  27.408  1.00  0.00     0.124 S 
ATOM     73  O   UNL A   1      50.153  24.227  27.657  1.00  0.00    -0.237 OA
ATOM     74  O   UNL A   1      51.587  25.877  26.495  1.00  0.00    -0.237 OA
ATOM     75  O   UNL A   1      50.441  26.488  28.591  1.00  0.00    -0.744 OA
ENDBRANCH  68  72
ENDBRANCH  51  65
BRANCH  52  76
ATOM     76  C   UNL A   1      38.685  30.652  31.116  1.00  0.00     0.023 A 
ATOM     77  C   UNL A   1      37.703  31.446  30.501  1.00  0.00     0.031 A 
ATOM     78  C   UNL A   1      38.551  30.394  32.493  1.00  0.00     0.131 A 
ATOM     79  C   UNL A   1      36.662  31.993  31.269  1.00  0.00     0.055 A 
ATOM     80  C   UNL A   1      37.477  30.882  33.238  1.00  0.00     0.041 A 
ATOM     81  F   UNL A   1      39.471  29.659  33.140  1.00  0.00    -0.206 F 
ATOM     82  C   UNL A   1      36.530  31.699  32.628  1.00  0.00     0.022 A 
BRANCH  79  83
ATOM     83  S   UNL A   1      35.547  33.201  30.497  1.00  0.00     0.124 S 
ATOM     84  O   UNL A   1      35.787  34.386  31.311  1.00  0.00    -0.237 OA
ATOM     85  O   UNL A   1      36.047  33.253  29.129  1.00  0.00    -0.237 OA
ATOM     86  O   UNL A   1      34.226  32.595  30.655  1.00  0.00    -0.744 OA
ENDBRANCH  79  83
ENDBRANCH  52  76
BRANCH  64  87
ATOM     87  C   UNL A   1      45.147  33.172  30.249  1.00  0.00     0.023 A 
ATOM     88  C   UNL A   1      45.104  34.334  29.458  1.00  0.00     0.031 A 
ATOM     89  C   UNL A   1      45.831  33.239  31.477  1.00  0.00     0.131 A 
ATOM     90  C   UNL A   1      45.780  35.492  29.877  1.00  0.00     0.055 A 
ATOM     91  C   UNL A   1      46.443  34.413  31.921  1.00  0.00     0.041 A 
ATOM     92  F   UNL A   1      45.911  32.161  32.276  1.00  0.00    -0.206 F 
ATOM     93  C   UNL A   1      46.432  35.545  31.112  1.00  0.00     0.022 A 
BRANCH  90  94
ATOM     94  S   UNL A   1      45.882  36.904  28.741  1.00  0.00     0.124 S 
ATOM     95  O   UNL A   1      46.360  36.274  27.516  1.00  0.00    -0.237 OA
ATOM     96  O   UNL A   1      44.505  37.386  28.716  1.00  0.00    -0.237 OA
ATOM     97  O   UNL A   1      46.838  37.799  29.391  1.00  0.00    -0.744 OA
ENDBRANCH  90  94
ENDBRANCH  64  87
ENDBRANCH  38  39
ENDBRANCH  31  33
ENDBRANCH  30  31
ENDBRANCH  29  30
ENDBRANCH  28  29
ENDBRANCH  27  28
ENDBRANCH   1  27
TORSDOF 22
ENDMDL
