MODEL 1
REMARK VINA RESULT:      -9.8      0.000      0.000
REMARK SMILES COc1cccc(S[C@H]2CC[C@@]([NH3+])(C(=O)OCCOCCOCCOC(=O)c3ccc(-c4c5nc(c(-c6cc(S(=O)(=O)[O-])ccc6F)c6ccc([nH]6)c(-c6cc(S(=O)(=O)[O-])ccc6F)c6nc(c(-c7cc(S(=O)(=O)[O-])ccc7F)c7ccc4[nH]7)C=C6)C=C5)cc3)C2)c1
REMARK SMILES IDX 20 1 19 2 18 3 17 4 16 5 14 6 15 7 12 8 9 9 10 10 91 11
REMARK SMILES IDX 11 12 8 13 7 14 3 15 4 16 92 17 5 18 6 19 2 20 1 21 13 22
REMARK SMILES IDX 21 26 22 27 23 28 24 29 25 30 26 31 27 32 28 33 29 34 90 35
REMARK SMILES IDX 30 36 89 37 31 38 32 39 33 40 83 41 34 42 88 43 82 44 84 45
REMARK SMILES IDX 35 46 87 47 81 48 80 49 36 51 68 52 48 53 67 54 49 55 52 56
REMARK SMILES IDX 66 57 85 58 50 59 51 60 65 62 86 63 53 64 37 65 38 66 46 67
REMARK SMILES IDX 39 68 45 69 47 70 44 71 40 72 41 73 42 74 43 75 69 76 70 77
REMARK SMILES IDX 78 78 71 79 77 80 79 81 76 82 72 83 73 84 74 85 75 86 54 87
REMARK SMILES IDX 55 88 63 89 56 90 62 91 64 92 61 93 57 94 58 95 59 96 60 97
REMARK H PARENT 13 23 13 24 13 25 84 50 52 61
REMARK Flexibility Score: inf
ROOT
ATOM      1  C   UNL A   1      34.502  34.258  28.183  1.00  0.00     0.188 C 
ENDROOT
BRANCH   1   2
ATOM      2  O   UNL A   1      34.571  32.944  28.724  1.00  0.00    -0.376 OA
BRANCH   2   3
ATOM      3  C   UNL A   1      34.934  31.903  27.835  1.00  0.00     0.202 C 
BRANCH   3   4
ATOM      4  C   UNL A   1      33.905  30.773  27.654  1.00  0.00     0.261 C 
BRANCH   4   5
ATOM      5  O   UNL A   1      33.661  30.358  26.282  1.00  0.00    -0.459 OA
BRANCH   5   6
ATOM      6  C   UNL A   1      33.453  29.035  26.044  1.00  0.00     0.368 C 
ATOM      7  O   UNL A   1      34.181  28.154  26.502  1.00  0.00    -0.245 OA
BRANCH   6   8
ATOM      8  C   UNL A   1      32.235  28.676  25.083  1.00  0.00     0.193 C 
ATOM      9  C   UNL A   1      32.116  26.835  23.258  1.00  0.00     0.059 C 
ATOM     10  C   UNL A   1      31.184  26.502  24.427  1.00  0.00     0.022 C 
ATOM     11  C   UNL A   1      32.758  28.210  23.682  1.00  0.00     0.095 C 
ATOM     12  C   UNL A   1      31.216  27.612  25.490  1.00  0.00     0.082 C 
BRANCH   9  13
ATOM     13  S   UNL A   1      33.578  25.603  22.582  1.00  0.00    -0.122 SA
BRANCH  13  14
ATOM     14  C   UNL A   1      34.730  23.677  23.736  1.00  0.00     0.011 A 
ATOM     15  C   UNL A   1      34.606  21.213  24.844  1.00  0.00     0.119 A 
ATOM     16  C   UNL A   1      35.965  21.016  24.742  1.00  0.00     0.046 A 
ATOM     17  C   UNL A   1      34.048  22.459  24.463  1.00  0.00     0.061 A 
ATOM     18  C   UNL A   1      36.765  22.037  24.260  1.00  0.00     0.005 A 
ATOM     19  C   UNL A   1      36.219  23.263  23.789  1.00  0.00     0.015 A 
BRANCH  15  20
ATOM     20  O   UNL A   1      33.888  20.178  25.386  1.00  0.00    -0.497 OA
ATOM     21  C   UNL A   1      33.852  18.969  24.628  1.00  0.00     0.278 C 
ENDBRANCH  15  20
ENDBRANCH  13  14
ENDBRANCH   9  13
BRANCH   8  22
ATOM     22  N   UNL A   1      31.473  29.958  24.997  1.00  0.00    -0.343 N 
ATOM     23  H   UNL A   1      30.524  29.812  25.339  1.00  0.00     0.345 HD
ATOM     24  H   UNL A   1      31.440  30.270  24.026  1.00  0.00     0.345 HD
ATOM     25  H   UNL A   1      31.935  30.666  25.567  1.00  0.00     0.345 HD
ENDBRANCH   8  22
ENDBRANCH   6   8
ENDBRANCH   5   6
ENDBRANCH   4   5
ENDBRANCH   3   4
ENDBRANCH   2   3
ENDBRANCH   1   2
BRANCH   1  26
ATOM     26  C   UNL A   1      33.216  35.064  28.400  1.00  0.00     0.188 C 
BRANCH  26  27
ATOM     27  O   UNL A   1      33.405  36.134  29.313  1.00  0.00    -0.376 OA
BRANCH  27  28
ATOM     28  C   UNL A   1      32.608  36.039  30.487  1.00  0.00     0.202 C 
BRANCH  28  29
ATOM     29  C   UNL A   1      33.539  35.782  31.671  1.00  0.00     0.261 C 
BRANCH  29  30
ATOM     30  O   UNL A   1      34.008  34.425  31.709  1.00  0.00    -0.460 OA
BRANCH  30  31
ATOM     31  C   UNL A   1      34.928  34.152  32.663  1.00  0.00     0.338 C 
ATOM     32  O   UNL A   1      34.889  34.474  33.837  1.00  0.00    -0.246 OA
BRANCH  31  33
ATOM     33  C   UNL A   1      35.909  33.216  32.088  1.00  0.00     0.060 A 
ATOM     34  C   UNL A   1      35.871  31.476  32.650  1.00  0.00     0.016 A 
ATOM     35  C   UNL A   1      37.370  33.854  31.196  1.00  0.00     0.016 A 
ATOM     36  C   UNL A   1      37.377  30.422  32.455  1.00  0.00     0.010 A 
ATOM     37  C   UNL A   1      38.880  32.800  31.072  1.00  0.00     0.010 A 
ATOM     38  C   UNL A   1      38.898  31.124  31.763  1.00  0.00    -0.014 A 
BRANCH  38  39
ATOM     39  C   UNL A   1      40.191  30.385  31.923  1.00  0.00     0.031 A 
ATOM     40  C   UNL A   1      41.190  30.720  33.011  1.00  0.00     0.074 A 
ATOM     41  C   UNL A   1      40.538  29.432  31.047  1.00  0.00     0.049 A 
ATOM     42  N   UNL A   1      42.123  29.988  33.573  1.00  0.00    -0.248 NA
ATOM     43  C   UNL A   1      41.150  32.082  33.528  1.00  0.00     0.031 C 
ATOM     44  C   UNL A   1      39.776  29.056  29.863  1.00  0.00     0.029 A 
ATOM     45  N   UNL A   1      41.644  28.621  31.018  1.00  0.00    -0.354 N 
ATOM     46  C   UNL A   1      42.673  30.774  34.591  1.00  0.00     0.074 A 
ATOM     47  C   UNL A   1      42.003  32.051  34.539  1.00  0.00     0.031 C 
ATOM     48  C   UNL A   1      40.447  28.096  29.207  1.00  0.00     0.029 A 
ATOM     49  C   UNL A   1      41.675  27.779  29.937  1.00  0.00     0.049 A 
ATOM     50  H   UNL A   1      42.348  28.641  31.707  1.00  0.00     0.167 HD
ATOM     51  C   UNL A   1      43.681  30.495  35.457  1.00  0.00     0.034 A 
ATOM     52  C   UNL A   1      42.580  26.845  29.585  1.00  0.00     0.034 A 
ATOM     53  C   UNL A   1      44.548  29.354  35.301  1.00  0.00     0.049 A 
ATOM     54  C   UNL A   1      43.721  26.533  30.517  1.00  0.00     0.074 A 
ATOM     55  C   UNL A   1      45.594  28.932  36.104  1.00  0.00     0.029 A 
ATOM     56  N   UNL A   1      44.537  28.514  34.193  1.00  0.00    -0.354 N 
ATOM     57  N   UNL A   1      44.056  27.116  31.647  1.00  0.00    -0.248 NA
ATOM     58  C   UNL A   1      44.573  25.398  30.149  1.00  0.00     0.031 C 
ATOM     59  C   UNL A   1      46.281  27.915  35.426  1.00  0.00     0.029 A 
ATOM     60  C   UNL A   1      45.597  27.624  34.255  1.00  0.00     0.049 A 
ATOM     61  H   UNL A   1      43.872  28.547  33.469  1.00  0.00     0.167 HD
ATOM     62  C   UNL A   1      45.147  26.400  32.138  1.00  0.00     0.074 A 
ATOM     63  C   UNL A   1      45.392  25.331  31.188  1.00  0.00     0.031 C 
ATOM     64  C   UNL A   1      45.870  26.596  33.274  1.00  0.00     0.034 A 
BRANCH  51  65
ATOM     65  C   UNL A   1      43.942  31.485  36.581  1.00  0.00     0.023 A 
ATOM     66  C   UNL A   1      43.192  31.449  37.774  1.00  0.00     0.031 A 
ATOM     67  C   UNL A   1      44.941  32.470  36.475  1.00  0.00     0.131 A 
ATOM     68  C   UNL A   1      43.419  32.398  38.787  1.00  0.00     0.055 A 
ATOM     69  C   UNL A   1      45.207  33.371  37.513  1.00  0.00     0.041 A 
ATOM     70  F   UNL A   1      45.675  32.585  35.358  1.00  0.00    -0.206 F 
ATOM     71  C   UNL A   1      44.437  33.346  38.672  1.00  0.00     0.022 A 
BRANCH  68  72
ATOM     72  S   UNL A   1      42.287  32.455  40.206  1.00  0.00     0.124 S 
ATOM     73  O   UNL A   1      42.804  31.381  41.052  1.00  0.00    -0.237 OA
ATOM     74  O   UNL A   1      42.481  33.811  40.709  1.00  0.00    -0.237 OA
ATOM     75  O   UNL A   1      40.978  32.192  39.612  1.00  0.00    -0.744 OA
ENDBRANCH  68  72
ENDBRANCH  51  65
BRANCH  52  76
ATOM     76  C   UNL A   1      42.390  26.123  28.298  1.00  0.00     0.023 A 
ATOM     77  C   UNL A   1      41.717  24.895  28.239  1.00  0.00     0.031 A 
ATOM     78  C   UNL A   1      42.826  26.703  27.092  1.00  0.00     0.131 A 
ATOM     79  C   UNL A   1      41.500  24.281  26.996  1.00  0.00     0.055 A 
ATOM     80  C   UNL A   1      42.571  26.108  25.856  1.00  0.00     0.041 A 
ATOM     81  F   UNL A   1      43.464  27.884  27.099  1.00  0.00    -0.206 F 
ATOM     82  C   UNL A   1      41.907  24.889  25.804  1.00  0.00     0.022 A 
BRANCH  79  83
ATOM     83  S   UNL A   1      40.694  22.658  26.956  1.00  0.00     0.124 S 
ATOM     84  O   UNL A   1      41.346  22.025  25.815  1.00  0.00    -0.237 OA
ATOM     85  O   UNL A   1      41.033  22.119  28.269  1.00  0.00    -0.237 OA
ATOM     86  O   UNL A   1      39.282  22.983  26.766  1.00  0.00    -0.744 OA
ENDBRANCH  79  83
ENDBRANCH  52  76
BRANCH  64  87
ATOM     87  C   UNL A   1      46.993  25.622  33.550  1.00  0.00     0.023 A 
ATOM     88  C   UNL A   1      48.241  25.732  32.910  1.00  0.00     0.031 A 
ATOM     89  C   UNL A   1      46.798  24.543  34.431  1.00  0.00     0.131 A 
ATOM     90  C   UNL A   1      49.207  24.730  33.086  1.00  0.00     0.055 A 
ATOM     91  C   UNL A   1      47.795  23.595  34.665  1.00  0.00     0.041 A 
ATOM     92  F   UNL A   1      45.628  24.385  35.071  1.00  0.00    -0.206 F 
ATOM     93  C   UNL A   1      48.999  23.672  33.975  1.00  0.00     0.022 A 
BRANCH  90  94
ATOM     94  S   UNL A   1      50.675  24.745  32.021  1.00  0.00     0.124 S 
ATOM     95  O   UNL A   1      51.517  25.738  32.681  1.00  0.00    -0.237 OA
ATOM     96  O   UNL A   1      51.134  23.362  32.103  1.00  0.00    -0.237 OA
ATOM     97  O   UNL A   1      50.149  25.148  30.717  1.00  0.00    -0.744 OA
ENDBRANCH  90  94
ENDBRANCH  64  87
ENDBRANCH  38  39
ENDBRANCH  31  33
ENDBRANCH  30  31
ENDBRANCH  29  30
ENDBRANCH  28  29
ENDBRANCH  27  28
ENDBRANCH  26  27
ENDBRANCH   1  26
TORSDOF 24
ENDMDL
MODEL 2
REMARK VINA RESULT:      -9.7      1.593      2.025
REMARK SMILES COc1cccc(S[C@H]2CC[C@@]([NH3+])(C(=O)OCCOCCOCCOC(=O)c3ccc(-c4c5nc(c(-c6cc(S(=O)(=O)[O-])ccc6F)c6ccc([nH]6)c(-c6cc(S(=O)(=O)[O-])ccc6F)c6nc(c(-c7cc(S(=O)(=O)[O-])ccc7F)c7ccc4[nH]7)C=C6)C=C5)cc3)C2)c1
REMARK SMILES IDX 20 1 19 2 18 3 17 4 16 5 14 6 15 7 12 8 9 9 10 10 91 11
REMARK SMILES IDX 11 12 8 13 7 14 3 15 4 16 92 17 5 18 6 19 2 20 1 21 13 22
REMARK SMILES IDX 21 26 22 27 23 28 24 29 25 30 26 31 27 32 28 33 29 34 90 35
REMARK SMILES IDX 30 36 89 37 31 38 32 39 33 40 83 41 34 42 88 43 82 44 84 45
REMARK SMILES IDX 35 46 87 47 81 48 80 49 36 51 68 52 48 53 67 54 49 55 52 56
REMARK SMILES IDX 66 57 85 58 50 59 51 60 65 62 86 63 53 64 37 65 38 66 46 67
REMARK SMILES IDX 39 68 45 69 47 70 44 71 40 72 41 73 42 74 43 75 69 76 70 77
REMARK SMILES IDX 78 78 71 79 77 80 79 81 76 82 72 83 73 84 74 85 75 86 54 87
REMARK SMILES IDX 55 88 63 89 56 90 62 91 64 92 61 93 57 94 58 95 59 96 60 97
REMARK H PARENT 13 23 13 24 13 25 84 50 52 61
REMARK Flexibility Score: inf
ROOT
ATOM      1  C   UNL A   1      34.722  31.277  27.683  1.00  0.00     0.188 C 
ENDROOT
BRANCH   1   2
ATOM      2  O   UNL A   1      33.589  30.891  26.913  1.00  0.00    -0.376 OA
BRANCH   2   3
ATOM      3  C   UNL A   1      32.731  29.918  27.481  1.00  0.00     0.202 C 
BRANCH   3   4
ATOM      4  C   UNL A   1      31.744  29.236  26.518  1.00  0.00     0.261 C 
BRANCH   4   5
ATOM      5  O   UNL A   1      32.064  27.863  26.157  1.00  0.00    -0.459 OA
BRANCH   5   6
ATOM      6  C   UNL A   1      33.118  27.654  25.323  1.00  0.00     0.368 C 
ATOM      7  O   UNL A   1      34.215  27.262  25.722  1.00  0.00    -0.245 OA
BRANCH   6   8
ATOM      8  C   UNL A   1      32.878  28.001  23.787  1.00  0.00     0.193 C 
ATOM      9  C   UNL A   1      32.740  26.368  21.774  1.00  0.00     0.059 C 
ATOM     10  C   UNL A   1      31.376  27.011  22.047  1.00  0.00     0.022 C 
ATOM     11  C   UNL A   1      33.673  27.011  22.869  1.00  0.00     0.095 C 
ATOM     12  C   UNL A   1      31.462  28.012  23.209  1.00  0.00     0.082 C 
BRANCH   9  13
ATOM     13  S   UNL A   1      33.065  24.368  21.721  1.00  0.00    -0.122 SA
BRANCH  13  14
ATOM     14  C   UNL A   1      34.285  22.885  23.359  1.00  0.00     0.011 A 
ATOM     15  C   UNL A   1      34.357  20.639  24.863  1.00  0.00     0.119 A 
ATOM     16  C   UNL A   1      35.727  20.682  24.997  1.00  0.00     0.046 A 
ATOM     17  C   UNL A   1      33.686  21.688  24.187  1.00  0.00     0.061 A 
ATOM     18  C   UNL A   1      36.429  21.746  24.460  1.00  0.00     0.005 A 
ATOM     19  C   UNL A   1      35.789  22.765  23.701  1.00  0.00     0.015 A 
BRANCH  15  20
ATOM     20  O   UNL A   1      33.727  19.585  25.474  1.00  0.00    -0.497 OA
ATOM     21  C   UNL A   1      32.589  19.053  24.798  1.00  0.00     0.278 C 
ENDBRANCH  15  20
ENDBRANCH  13  14
ENDBRANCH   9  13
BRANCH   8  22
ATOM     22  N   UNL A   1      33.379  29.402  23.666  1.00  0.00    -0.343 N 
ATOM     23  H   UNL A   1      34.103  29.566  24.365  1.00  0.00     0.345 HD
ATOM     24  H   UNL A   1      32.608  30.053  23.816  1.00  0.00     0.345 HD
ATOM     25  H   UNL A   1      33.768  29.544  22.734  1.00  0.00     0.345 HD
ENDBRANCH   8  22
ENDBRANCH   6   8
ENDBRANCH   5   6
ENDBRANCH   4   5
ENDBRANCH   3   4
ENDBRANCH   2   3
ENDBRANCH   1   2
BRANCH   1  26
ATOM     26  C   UNL A   1      34.924  32.768  27.977  1.00  0.00     0.188 C 
BRANCH  26  27
ATOM     27  O   UNL A   1      33.694  33.478  28.002  1.00  0.00    -0.376 OA
BRANCH  27  28
ATOM     28  C   UNL A   1      33.570  34.381  29.093  1.00  0.00     0.202 C 
BRANCH  28  29
ATOM     29  C   UNL A   1      34.286  33.769  30.297  1.00  0.00     0.261 C 
BRANCH  29  30
ATOM     30  O   UNL A   1      34.275  34.644  31.438  1.00  0.00    -0.460 OA
BRANCH  30  31
ATOM     31  C   UNL A   1      35.433  34.707  32.135  1.00  0.00     0.338 C 
ATOM     32  O   UNL A   1      35.692  35.446  33.067  1.00  0.00    -0.246 OA
BRANCH  31  33
ATOM     33  C   UNL A   1      36.277  33.578  31.707  1.00  0.00     0.060 A 
ATOM     34  C   UNL A   1      36.185  32.022  32.663  1.00  0.00     0.016 A 
ATOM     35  C   UNL A   1      37.668  33.860  30.557  1.00  0.00     0.016 A 
ATOM     36  C   UNL A   1      37.585  30.817  32.581  1.00  0.00     0.010 A 
ATOM     37  C   UNL A   1      39.080  32.672  30.543  1.00  0.00     0.010 A 
ATOM     38  C   UNL A   1      39.063  31.202  31.603  1.00  0.00    -0.014 A 
BRANCH  38  39
ATOM     39  C   UNL A   1      40.313  30.403  31.811  1.00  0.00     0.031 A 
ATOM     40  C   UNL A   1      41.285  30.692  32.935  1.00  0.00     0.074 A 
ATOM     41  C   UNL A   1      40.646  29.433  30.947  1.00  0.00     0.049 A 
ATOM     42  N   UNL A   1      42.161  29.918  33.531  1.00  0.00    -0.248 NA
ATOM     43  C   UNL A   1      41.290  32.054  33.452  1.00  0.00     0.031 C 
ATOM     44  C   UNL A   1      39.911  29.092  29.736  1.00  0.00     0.029 A 
ATOM     45  N   UNL A   1      41.713  28.571  30.960  1.00  0.00    -0.354 N 
ATOM     46  C   UNL A   1      42.709  30.677  34.569  1.00  0.00     0.074 A 
ATOM     47  C   UNL A   1      42.103  31.984  34.494  1.00  0.00     0.031 C 
ATOM     48  C   UNL A   1      40.561  28.101  29.104  1.00  0.00     0.029 A 
ATOM     49  C   UNL A   1      41.744  27.727  29.880  1.00  0.00     0.049 A 
ATOM     50  H   UNL A   1      42.391  28.559  31.674  1.00  0.00     0.167 HD
ATOM     51  C   UNL A   1      43.670  30.353  35.472  1.00  0.00     0.034 A 
ATOM     52  C   UNL A   1      42.617  26.752  29.561  1.00  0.00     0.034 A 
ATOM     53  C   UNL A   1      44.487  29.171  35.347  1.00  0.00     0.049 A 
ATOM     54  C   UNL A   1      43.707  26.388  30.534  1.00  0.00     0.074 A 
ATOM     55  C   UNL A   1      45.482  28.702  36.188  1.00  0.00     0.029 A 
ATOM     56  N   UNL A   1      44.479  28.332  34.239  1.00  0.00    -0.354 N 
ATOM     57  N   UNL A   1      44.026  26.955  31.677  1.00  0.00    -0.248 NA
ATOM     58  C   UNL A   1      44.517  25.213  30.197  1.00  0.00     0.031 C 
ATOM     59  C   UNL A   1      46.145  27.653  35.535  1.00  0.00     0.029 A 
ATOM     60  C   UNL A   1      45.492  27.393  34.339  1.00  0.00     0.049 A 
ATOM     61  H   UNL A   1      43.843  28.396  33.491  1.00  0.00     0.167 HD
ATOM     62  C   UNL A   1      45.063  26.189  32.207  1.00  0.00     0.074 A 
ATOM     63  C   UNL A   1      45.293  25.109  31.266  1.00  0.00     0.031 C 
ATOM     64  C   UNL A   1      45.752  26.353  33.369  1.00  0.00     0.034 A 
BRANCH  51  65
ATOM     65  C   UNL A   1      43.936  31.330  36.605  1.00  0.00     0.023 A 
ATOM     66  C   UNL A   1      43.093  31.386  37.734  1.00  0.00     0.031 A 
ATOM     67  C   UNL A   1      45.032  32.212  36.573  1.00  0.00     0.131 A 
ATOM     68  C   UNL A   1      43.329  32.324  38.754  1.00  0.00     0.055 A 
ATOM     69  C   UNL A   1      45.300  33.100  37.621  1.00  0.00     0.041 A 
ATOM     70  F   UNL A   1      45.860  32.238  35.518  1.00  0.00    -0.206 F 
ATOM     71  C   UNL A   1      44.441  33.168  38.715  1.00  0.00     0.022 A 
BRANCH  68  72
ATOM     72  S   UNL A   1      42.099  32.513  40.077  1.00  0.00     0.124 S 
ATOM     73  O   UNL A   1      40.849  32.578  39.323  1.00  0.00    -0.237 OA
ATOM     74  O   UNL A   1      42.301  31.305  40.869  1.00  0.00    -0.237 OA
ATOM     75  O   UNL A   1      42.486  33.760  40.731  1.00  0.00    -0.744 OA
ENDBRANCH  68  72
ENDBRANCH  51  65
BRANCH  52  76
ATOM     76  C   UNL A   1      42.441  26.038  28.268  1.00  0.00     0.023 A 
ATOM     77  C   UNL A   1      41.698  24.853  28.179  1.00  0.00     0.031 A 
ATOM     78  C   UNL A   1      42.964  26.587  27.081  1.00  0.00     0.131 A 
ATOM     79  C   UNL A   1      41.500  24.249  26.928  1.00  0.00     0.055 A 
ATOM     80  C   UNL A   1      42.729  26.004  25.836  1.00  0.00     0.041 A 
ATOM     81  F   UNL A   1      43.671  27.727  27.116  1.00  0.00    -0.206 F 
ATOM     82  C   UNL A   1      41.995  24.826  25.755  1.00  0.00     0.022 A 
BRANCH  79  83
ATOM     83  S   UNL A   1      40.600  22.677  26.854  1.00  0.00     0.124 S 
ATOM     84  O   UNL A   1      40.835  22.131  28.186  1.00  0.00    -0.237 OA
ATOM     85  O   UNL A   1      39.238  23.121  26.574  1.00  0.00    -0.237 OA
ATOM     86  O   UNL A   1      41.255  21.960  25.762  1.00  0.00    -0.744 OA
ENDBRANCH  79  83
ENDBRANCH  52  76
BRANCH  64  87
ATOM     87  C   UNL A   1      46.817  25.327  33.685  1.00  0.00     0.023 A 
ATOM     88  C   UNL A   1      46.534  24.176  34.444  1.00  0.00     0.031 A 
ATOM     89  C   UNL A   1      48.143  25.525  33.261  1.00  0.00     0.131 A 
ATOM     90  C   UNL A   1      47.576  23.322  34.833  1.00  0.00     0.055 A 
ATOM     91  C   UNL A   1      49.161  24.626  33.583  1.00  0.00     0.041 A 
ATOM     92  F   UNL A   1      48.476  26.604  32.534  1.00  0.00    -0.206 F 
ATOM     93  C   UNL A   1      48.886  23.529  34.392  1.00  0.00     0.022 A 
BRANCH  90  94
ATOM     94  S   UNL A   1      47.225  22.026  36.053  1.00  0.00     0.124 S 
ATOM     95  O   UNL A   1      45.787  21.832  35.881  1.00  0.00    -0.237 OA
ATOM     96  O   UNL A   1      48.075  20.931  35.599  1.00  0.00    -0.237 OA
ATOM     97  O   UNL A   1      47.620  22.634  37.323  1.00  0.00    -0.744 OA
ENDBRANCH  90  94
ENDBRANCH  64  87
ENDBRANCH  38  39
ENDBRANCH  31  33
ENDBRANCH  30  31
ENDBRANCH  29  30
ENDBRANCH  28  29
ENDBRANCH  27  28
ENDBRANCH  26  27
ENDBRANCH   1  26
TORSDOF 24
ENDMDL
MODEL 3
REMARK VINA RESULT:      -8.9      5.520     10.144
REMARK SMILES COc1cccc(S[C@H]2CC[C@@]([NH3+])(C(=O)OCCOCCOCCOC(=O)c3ccc(-c4c5nc(c(-c6cc(S(=O)(=O)[O-])ccc6F)c6ccc([nH]6)c(-c6cc(S(=O)(=O)[O-])ccc6F)c6nc(c(-c7cc(S(=O)(=O)[O-])ccc7F)c7ccc4[nH]7)C=C6)C=C5)cc3)C2)c1
REMARK SMILES IDX 20 1 19 2 18 3 17 4 16 5 14 6 15 7 12 8 9 9 10 10 91 11
REMARK SMILES IDX 11 12 8 13 7 14 3 15 4 16 92 17 5 18 6 19 2 20 1 21 13 22
REMARK SMILES IDX 21 26 22 27 23 28 24 29 25 30 26 31 27 32 28 33 29 34 90 35
REMARK SMILES IDX 30 36 89 37 31 38 32 39 33 40 83 41 34 42 88 43 82 44 84 45
REMARK SMILES IDX 35 46 87 47 81 48 80 49 36 51 68 52 48 53 67 54 49 55 52 56
REMARK SMILES IDX 66 57 85 58 50 59 51 60 65 62 86 63 53 64 37 65 38 66 46 67
REMARK SMILES IDX 39 68 45 69 47 70 44 71 40 72 41 73 42 74 43 75 69 76 70 77
REMARK SMILES IDX 78 78 71 79 77 80 79 81 76 82 72 83 73 84 74 85 75 86 54 87
REMARK SMILES IDX 55 88 63 89 56 90 62 91 64 92 61 93 57 94 58 95 59 96 60 97
REMARK H PARENT 13 23 13 24 13 25 84 50 52 61
REMARK Flexibility Score: inf
ROOT
ATOM      1  C   UNL A   1      35.533  23.207  25.465  1.00  0.00     0.188 C 
ENDROOT
BRANCH   1   2
ATOM      2  O   UNL A   1      35.489  23.116  24.045  1.00  0.00    -0.376 OA
BRANCH   2   3
ATOM      3  C   UNL A   1      34.207  23.107  23.443  1.00  0.00     0.202 C 
BRANCH   3   4
ATOM      4  C   UNL A   1      33.659  24.471  22.988  1.00  0.00     0.261 C 
BRANCH   4   5
ATOM      5  O   UNL A   1      32.757  25.129  23.920  1.00  0.00    -0.459 OA
BRANCH   5   6
ATOM      6  C   UNL A   1      31.433  25.156  23.612  1.00  0.00     0.368 C 
ATOM      7  O   UNL A   1      30.920  24.374  22.812  1.00  0.00    -0.245 OA
BRANCH   6   8
ATOM      8  C   UNL A   1      30.573  26.303  24.305  1.00  0.00     0.193 C 
ATOM      9  C   UNL A   1      31.365  28.638  25.117  1.00  0.00     0.059 C 
ATOM     10  C   UNL A   1      30.423  28.771  23.916  1.00  0.00     0.022 C 
ATOM     11  C   UNL A   1      31.437  27.081  25.354  1.00  0.00     0.095 C 
ATOM     12  C   UNL A   1      29.915  27.394  23.460  1.00  0.00     0.082 C 
BRANCH   9  13
ATOM     13  S   UNL A   1      33.241  29.403  25.182  1.00  0.00    -0.122 SA
BRANCH  13  14
ATOM     14  C   UNL A   1      34.580  30.234  27.153  1.00  0.00     0.011 A 
ATOM     15  C   UNL A   1      36.723  29.990  28.784  1.00  0.00     0.119 A 
ATOM     16  C   UNL A   1      36.632  31.291  29.224  1.00  0.00     0.046 A 
ATOM     17  C   UNL A   1      35.740  29.478  27.902  1.00  0.00     0.061 A 
ATOM     18  C   UNL A   1      35.583  32.083  28.791  1.00  0.00     0.005 A 
ATOM     19  C   UNL A   1      34.634  31.620  27.837  1.00  0.00     0.015 A 
BRANCH  15  20
ATOM     20  O   UNL A   1      37.755  29.252  29.305  1.00  0.00    -0.497 OA
ATOM     21  C   UNL A   1      37.539  28.690  30.599  1.00  0.00     0.278 C 
ENDBRANCH  15  20
ENDBRANCH  13  14
ENDBRANCH   9  13
BRANCH   8  22
ATOM     22  N   UNL A   1      29.452  25.555  24.948  1.00  0.00    -0.343 N 
ATOM     23  H   UNL A   1      28.606  25.665  24.390  1.00  0.00     0.345 HD
ATOM     24  H   UNL A   1      29.291  25.924  25.886  1.00  0.00     0.345 HD
ATOM     25  H   UNL A   1      29.694  24.566  25.008  1.00  0.00     0.345 HD
ENDBRANCH   8  22
ENDBRANCH   6   8
ENDBRANCH   5   6
ENDBRANCH   4   5
ENDBRANCH   3   4
ENDBRANCH   2   3
ENDBRANCH   1   2
BRANCH   1  26
ATOM     26  C   UNL A   1      36.842  22.844  26.175  1.00  0.00     0.188 C 
BRANCH  26  27
ATOM     27  O   UNL A   1      37.976  23.073  25.352  1.00  0.00    -0.376 OA
BRANCH  27  28
ATOM     28  C   UNL A   1      39.086  22.237  25.652  1.00  0.00     0.202 C 
BRANCH  28  29
ATOM     29  C   UNL A   1      39.735  22.755  26.936  1.00  0.00     0.261 C 
BRANCH  29  30
ATOM     30  O   UNL A   1      40.269  24.080  26.778  1.00  0.00    -0.460 OA
BRANCH  30  31
ATOM     31  C   UNL A   1      39.775  25.012  27.625  1.00  0.00     0.338 C 
ATOM     32  O   UNL A   1      38.810  24.902  28.360  1.00  0.00    -0.246 OA
BRANCH  31  33
ATOM     33  C   UNL A   1      40.727  26.135  27.663  1.00  0.00     0.060 A 
ATOM     34  C   UNL A   1      41.878  26.241  29.081  1.00  0.00     0.016 A 
ATOM     35  C   UNL A   1      40.475  27.586  26.584  1.00  0.00     0.016 A 
ATOM     36  C   UNL A   1      42.651  27.864  29.508  1.00  0.00     0.010 A 
ATOM     37  C   UNL A   1      41.209  29.208  27.070  1.00  0.00     0.010 A 
ATOM     38  C   UNL A   1      42.229  29.352  28.562  1.00  0.00    -0.014 A 
BRANCH  38  39
ATOM     39  C   UNL A   1      42.579  30.701  29.113  1.00  0.00     0.031 A 
ATOM     40  C   UNL A   1      41.731  31.397  30.156  1.00  0.00     0.074 A 
ATOM     41  C   UNL A   1      43.638  31.371  28.637  1.00  0.00     0.049 A 
ATOM     42  N   UNL A   1      42.041  32.320  31.036  1.00  0.00    -0.248 NA
ATOM     43  C   UNL A   1      40.324  31.020  30.204  1.00  0.00     0.031 C 
ATOM     44  C   UNL A   1      44.497  30.928  27.547  1.00  0.00     0.029 A 
ATOM     45  N   UNL A   1      44.150  32.588  29.010  1.00  0.00    -0.354 N 
ATOM     46  C   UNL A   1      40.895  32.518  31.813  1.00  0.00     0.074 A 
ATOM     47  C   UNL A   1      39.872  31.656  31.273  1.00  0.00     0.031 C 
ATOM     48  C   UNL A   1      45.426  31.872  27.322  1.00  0.00     0.029 A 
ATOM     49  C   UNL A   1      45.235  32.973  28.266  1.00  0.00     0.049 A 
ATOM     50  H   UNL A   1      43.776  33.132  29.740  1.00  0.00     0.167 HD
ATOM     51  C   UNL A   1      40.680  33.375  32.844  1.00  0.00     0.034 A 
ATOM     52  C   UNL A   1      46.000  34.079  28.348  1.00  0.00     0.034 A 
ATOM     53  C   UNL A   1      41.591  34.443  33.171  1.00  0.00     0.049 A 
ATOM     54  C   UNL A   1      45.766  35.057  29.469  1.00  0.00     0.074 A 
ATOM     55  C   UNL A   1      41.519  35.374  34.194  1.00  0.00     0.029 A 
ATOM     56  N   UNL A   1      42.691  34.793  32.397  1.00  0.00    -0.354 N 
ATOM     57  N   UNL A   1      44.826  35.062  30.388  1.00  0.00    -0.248 NA
ATOM     58  C   UNL A   1      46.736  36.151  29.593  1.00  0.00     0.031 C 
ATOM     59  C   UNL A   1      42.503  36.346  33.968  1.00  0.00     0.029 A 
ATOM     60  C   UNL A   1      43.262  35.961  32.873  1.00  0.00     0.049 A 
ATOM     61  H   UNL A   1      43.017  34.283  31.620  1.00  0.00     0.167 HD
ATOM     62  C   UNL A   1      45.107  36.148  31.216  1.00  0.00     0.074 A 
ATOM     63  C   UNL A   1      46.317  36.755  30.695  1.00  0.00     0.031 C 
ATOM     64  C   UNL A   1      44.437  36.594  32.313  1.00  0.00     0.034 A 
BRANCH  51  65
ATOM     65  C   UNL A   1      39.379  33.237  33.618  1.00  0.00     0.023 A 
ATOM     66  C   UNL A   1      38.150  33.641  33.058  1.00  0.00     0.031 A 
ATOM     67  C   UNL A   1      39.350  32.699  34.918  1.00  0.00     0.131 A 
ATOM     68  C   UNL A   1      36.961  33.545  33.803  1.00  0.00     0.055 A 
ATOM     69  C   UNL A   1      38.155  32.546  35.631  1.00  0.00     0.041 A 
ATOM     70  F   UNL A   1      40.483  32.320  35.528  1.00  0.00    -0.206 F 
ATOM     71  C   UNL A   1      36.954  32.979  35.079  1.00  0.00     0.022 A 
BRANCH  68  72
ATOM     72  S   UNL A   1      35.442  34.279  33.131  1.00  0.00     0.124 S 
ATOM     73  O   UNL A   1      35.526  33.915  31.718  1.00  0.00    -0.237 OA
ATOM     74  O   UNL A   1      34.401  33.608  33.900  1.00  0.00    -0.237 OA
ATOM     75  O   UNL A   1      35.599  35.706  33.406  1.00  0.00    -0.744 OA
ENDBRANCH  68  72
ENDBRANCH  51  65
BRANCH  52  76
ATOM     76  C   UNL A   1      47.082  34.269  27.344  1.00  0.00     0.023 A 
ATOM     77  C   UNL A   1      48.272  33.532  27.400  1.00  0.00     0.031 A 
ATOM     78  C   UNL A   1      46.896  35.154  26.265  1.00  0.00     0.131 A 
ATOM     79  C   UNL A   1      49.237  33.693  26.395  1.00  0.00     0.055 A 
ATOM     80  C   UNL A   1      47.841  35.280  25.247  1.00  0.00     0.041 A 
ATOM     81  F   UNL A   1      45.766  35.872  26.164  1.00  0.00    -0.206 F 
ATOM     82  C   UNL A   1      49.021  34.548  25.310  1.00  0.00     0.022 A 
BRANCH  79  83
ATOM     83  S   UNL A   1      50.799  32.782  26.533  1.00  0.00     0.124 S 
ATOM     84  O   UNL A   1      51.713  33.820  26.993  1.00  0.00    -0.237 OA
ATOM     85  O   UNL A   1      50.460  31.747  27.506  1.00  0.00    -0.237 OA
ATOM     86  O   UNL A   1      51.034  32.301  25.173  1.00  0.00    -0.744 OA
ENDBRANCH  79  83
ENDBRANCH  52  76
BRANCH  64  87
ATOM     87  C   UNL A   1      45.011  37.797  33.026  1.00  0.00     0.023 A 
ATOM     88  C   UNL A   1      44.597  39.107  32.719  1.00  0.00     0.031 A 
ATOM     89  C   UNL A   1      46.019  37.636  33.994  1.00  0.00     0.131 A 
ATOM     90  C   UNL A   1      45.252  40.201  33.301  1.00  0.00     0.055 A 
ATOM     91  C   UNL A   1      46.609  38.729  34.631  1.00  0.00     0.041 A 
ATOM     92  F   UNL A   1      46.456  36.412  34.330  1.00  0.00    -0.206 F 
ATOM     93  C   UNL A   1      46.243  40.021  34.269  1.00  0.00     0.022 A 
BRANCH  90  94
ATOM     94  S   UNL A   1      44.901  41.862  32.660  1.00  0.00     0.124 S 
ATOM     95  O   UNL A   1      43.563  41.693  32.102  1.00  0.00    -0.237 OA
ATOM     96  O   UNL A   1      44.992  42.685  33.861  1.00  0.00    -0.237 OA
ATOM     97  O   UNL A   1      45.960  42.081  31.675  1.00  0.00    -0.744 OA
ENDBRANCH  90  94
ENDBRANCH  64  87
ENDBRANCH  38  39
ENDBRANCH  31  33
ENDBRANCH  30  31
ENDBRANCH  29  30
ENDBRANCH  28  29
ENDBRANCH  27  28
ENDBRANCH  26  27
ENDBRANCH   1  26
TORSDOF 24
ENDMDL
