MODEL 1
REMARK VINA RESULT:      -9.0      0.000      0.000
REMARK SMILES CCn1c([C@@H]2CCC[N@@H+](Cc3ccc(C(=O)OCCOCCOCCOC(=O)c4ccc(-c5c6nc(c(-c7cc(S(=O)(=O)[O-])ccc7F)c7ccc([nH]7)c(-c7cc(S(=O)(=O)[O-])ccc7F)c7nc(c(-c8cc(S(=O)(=O)[O-])ccc8F)c8ccc5[nH]8)C=C7)C=C6)cc4)cc3)C2)nn(C)c1=O
REMARK SMILES IDX 21 1 20 2 19 3 18 4 17 5 15 6 16 7 14 8 11 9 12 10 93 11
REMARK SMILES IDX 13 12 92 13 10 14 9 15 5 16 6 17 94 18 7 19 8 20 4 22 3 23
REMARK SMILES IDX 98 24 95 25 96 26 99 27 97 28 2 29 1 30 22 31 23 32 24 33
REMARK SMILES IDX 25 34 26 35 27 36 28 37 29 38 30 39 91 40 31 41 90 42 32 43
REMARK SMILES IDX 33 44 34 45 84 46 35 47 89 48 83 49 85 50 36 51 88 52 82 53
REMARK SMILES IDX 81 54 37 56 69 57 49 58 68 59 50 60 53 61 67 62 86 63 51 64
REMARK SMILES IDX 52 65 66 67 87 68 54 69 38 70 39 71 47 72 40 73 46 74 48 75
REMARK SMILES IDX 45 76 41 77 42 78 43 79 44 80 70 81 71 82 79 83 72 84 78 85
REMARK SMILES IDX 80 86 77 87 73 88 74 89 75 90 76 91 55 92 56 93 64 94 57 95
REMARK SMILES IDX 63 96 65 97 62 98 58 99 59 100 60 101 61 102
REMARK H PARENT 9 21 85 55 53 66
REMARK Flexibility Score: inf
ROOT
ATOM      1  C   UNL A   1      46.765  24.530  24.972  1.00  0.00     0.188 C 
ENDROOT
BRANCH   1   2
ATOM      2  O   UNL A   1      47.450  24.950  23.797  1.00  0.00    -0.376 OA
BRANCH   2   3
ATOM      3  C   UNL A   1      48.492  25.915  23.885  1.00  0.00     0.202 C 
BRANCH   3   4
ATOM      4  C   UNL A   1      48.263  27.370  23.427  1.00  0.00     0.261 C 
BRANCH   4   5
ATOM      5  O   UNL A   1      47.982  27.536  22.031  1.00  0.00    -0.460 OA
BRANCH   5   6
ATOM      6  C   UNL A   1      48.830  26.926  21.173  1.00  0.00     0.338 C 
ATOM      7  O   UNL A   1      48.677  25.837  20.644  1.00  0.00    -0.246 OA
BRANCH   6   8
ATOM      8  C   UNL A   1      49.933  27.848  20.808  1.00  0.00     0.060 A 
ATOM      9  C   UNL A   1      52.129  29.461  20.153  1.00  0.00     0.006 A 
ATOM     10  C   UNL A   1      52.152  28.087  19.874  1.00  0.00     0.010 A 
ATOM     11  C   UNL A   1      50.946  30.038  20.641  1.00  0.00     0.010 A 
ATOM     12  C   UNL A   1      51.063  27.287  20.202  1.00  0.00     0.016 A 
ATOM     13  C   UNL A   1      49.861  29.233  20.996  1.00  0.00     0.016 A 
BRANCH   9  14
ATOM     14  C   UNL A   1      53.425  30.248  20.085  1.00  0.00     0.299 C 
BRANCH  14  15
ATOM     15  N   UNL A   1      53.404  31.547  20.809  1.00  0.00    -0.331 N 
ATOM     16  C   UNL A   1      54.008  32.731  22.933  1.00  0.00     0.113 C 
ATOM     17  C   UNL A   1      54.418  33.970  22.139  1.00  0.00     0.023 C 
ATOM     18  C   UNL A   1      54.059  31.446  22.114  1.00  0.00     0.274 C 
ATOM     19  C   UNL A   1      53.882  34.020  20.716  1.00  0.00     0.062 C 
ATOM     20  C   UNL A   1      53.924  32.664  20.005  1.00  0.00     0.262 C 
ATOM     21  H   UNL A   1      52.423  31.767  20.978  1.00  0.00     0.348 HD
BRANCH  16  22
ATOM     22  C   UNL A   1      52.776  32.867  23.820  1.00  0.00     0.142 A 
ATOM     23  N   UNL A   1      52.281  31.971  24.700  1.00  0.00    -0.279 N 
ATOM     24  C   UNL A   1      51.207  32.600  25.310  1.00  0.00     0.345 A 
ATOM     25  N   UNL A   1      52.106  33.990  23.765  1.00  0.00    -0.155 NA
ATOM     26  N   UNL A   1      51.117  33.843  24.686  1.00  0.00    -0.216 N 
ATOM     27  O   UNL A   1      50.506  32.202  26.208  1.00  0.00    -0.246 OA
ATOM     28  C   UNL A   1      50.234  34.913  25.050  1.00  0.00     0.179 C 
BRANCH  23  29
ATOM     29  C   UNL A   1      52.827  30.701  25.152  1.00  0.00     0.125 C 
ATOM     30  C   UNL A   1      54.054  30.755  26.049  1.00  0.00     0.028 C 
ENDBRANCH  23  29
ENDBRANCH  16  22
ENDBRANCH  14  15
ENDBRANCH   9  14
ENDBRANCH   6   8
ENDBRANCH   5   6
ENDBRANCH   4   5
ENDBRANCH   3   4
ENDBRANCH   2   3
ENDBRANCH   1   2
BRANCH   1  31
ATOM     31  C   UNL A   1      46.425  23.039  25.209  1.00  0.00     0.188 C 
BRANCH  31  32
ATOM     32  O   UNL A   1      45.331  22.554  24.456  1.00  0.00    -0.376 OA
BRANCH  32  33
ATOM     33  C   UNL A   1      44.530  21.488  24.944  1.00  0.00     0.202 C 
BRANCH  33  34
ATOM     34  C   UNL A   1      43.240  21.722  25.733  1.00  0.00     0.261 C 
BRANCH  34  35
ATOM     35  O   UNL A   1      43.258  22.829  26.607  1.00  0.00    -0.460 OA
BRANCH  35  36
ATOM     36  C   UNL A   1      42.630  23.920  26.124  1.00  0.00     0.338 C 
ATOM     37  O   UNL A   1      42.635  24.311  24.969  1.00  0.00    -0.246 OA
BRANCH  36  38
ATOM     38  C   UNL A   1      41.943  24.584  27.234  1.00  0.00     0.060 A 
ATOM     39  C   UNL A   1      40.813  25.325  26.893  1.00  0.00     0.016 A 
ATOM     40  C   UNL A   1      42.625  24.754  28.449  1.00  0.00     0.016 A 
ATOM     41  C   UNL A   1      40.563  26.460  27.620  1.00  0.00     0.010 A 
ATOM     42  C   UNL A   1      42.384  25.896  29.165  1.00  0.00     0.010 A 
ATOM     43  C   UNL A   1      41.443  26.785  28.658  1.00  0.00    -0.014 A 
BRANCH  43  44
ATOM     44  C   UNL A   1      41.376  28.130  29.172  1.00  0.00     0.031 A 
ATOM     45  C   UNL A   1      42.405  29.011  28.604  1.00  0.00     0.074 A 
ATOM     46  C   UNL A   1      40.424  28.507  30.043  1.00  0.00     0.049 A 
ATOM     47  N   UNL A   1      43.446  29.496  29.189  1.00  0.00    -0.248 NA
ATOM     48  C   UNL A   1      42.375  29.209  27.148  1.00  0.00     0.031 C 
ATOM     49  C   UNL A   1      39.214  27.773  30.430  1.00  0.00     0.029 A 
ATOM     50  N   UNL A   1      40.286  29.693  30.690  1.00  0.00    -0.354 N 
ATOM     51  C   UNL A   1      44.064  30.278  28.224  1.00  0.00     0.074 A 
ATOM     52  C   UNL A   1      43.517  29.867  26.960  1.00  0.00     0.031 C 
ATOM     53  C   UNL A   1      38.363  28.619  31.051  1.00  0.00     0.029 A 
ATOM     54  C   UNL A   1      39.023  29.903  31.227  1.00  0.00     0.049 A 
ATOM     55  H   UNL A   1      41.017  30.347  30.770  1.00  0.00     0.167 HD
ATOM     56  C   UNL A   1      44.741  31.402  28.573  1.00  0.00     0.034 A 
ATOM     57  C   UNL A   1      38.532  31.082  31.687  1.00  0.00     0.034 A 
ATOM     58  C   UNL A   1      45.123  31.369  29.967  1.00  0.00     0.049 A 
ATOM     59  C   UNL A   1      39.699  31.944  32.003  1.00  0.00     0.074 A 
ATOM     60  C   UNL A   1      45.897  30.522  30.740  1.00  0.00     0.029 A 
ATOM     61  N   UNL A   1      44.377  32.107  30.857  1.00  0.00    -0.354 N 
ATOM     62  N   UNL A   1      40.567  31.670  32.938  1.00  0.00    -0.248 NA
ATOM     63  C   UNL A   1      40.166  32.879  30.990  1.00  0.00     0.031 C 
ATOM     64  C   UNL A   1      45.250  30.478  32.010  1.00  0.00     0.029 A 
ATOM     65  C   UNL A   1      44.150  31.338  31.972  1.00  0.00     0.049 A 
ATOM     66  H   UNL A   1      44.060  33.029  30.718  1.00  0.00     0.167 HD
ATOM     67  C   UNL A   1      41.797  32.043  32.415  1.00  0.00     0.074 A 
ATOM     68  C   UNL A   1      41.473  32.888  31.270  1.00  0.00     0.031 C 
ATOM     69  C   UNL A   1      42.948  31.408  32.789  1.00  0.00     0.034 A 
BRANCH  56  70
ATOM     70  C   UNL A   1      44.696  32.679  27.762  1.00  0.00     0.023 A 
ATOM     71  C   UNL A   1      43.971  33.754  28.305  1.00  0.00     0.031 A 
ATOM     72  C   UNL A   1      45.064  32.817  26.400  1.00  0.00     0.131 A 
ATOM     73  C   UNL A   1      43.568  34.832  27.500  1.00  0.00     0.055 A 
ATOM     74  C   UNL A   1      44.721  33.924  25.622  1.00  0.00     0.041 A 
ATOM     75  F   UNL A   1      45.691  31.860  25.708  1.00  0.00    -0.206 F 
ATOM     76  C   UNL A   1      43.939  34.926  26.161  1.00  0.00     0.022 A 
BRANCH  73  77
ATOM     77  S   UNL A   1      42.392  36.020  28.189  1.00  0.00     0.124 S 
ATOM     78  O   UNL A   1      42.325  35.595  29.582  1.00  0.00    -0.237 OA
ATOM     79  O   UNL A   1      43.066  37.289  27.932  1.00  0.00    -0.237 OA
ATOM     80  O   UNL A   1      41.180  35.787  27.407  1.00  0.00    -0.744 OA
ENDBRANCH  73  77
ENDBRANCH  56  70
BRANCH  57  81
ATOM     81  C   UNL A   1      37.161  31.602  31.428  1.00  0.00     0.023 A 
ATOM     82  C   UNL A   1      36.371  32.205  32.426  1.00  0.00     0.031 A 
ATOM     83  C   UNL A   1      36.695  31.711  30.097  1.00  0.00     0.131 A 
ATOM     84  C   UNL A   1      35.173  32.873  32.075  1.00  0.00     0.055 A 
ATOM     85  C   UNL A   1      35.510  32.363  29.757  1.00  0.00     0.041 A 
ATOM     86  F   UNL A   1      37.425  31.255  29.064  1.00  0.00    -0.206 F 
ATOM     87  C   UNL A   1      34.745  32.955  30.747  1.00  0.00     0.022 A 
BRANCH  84  88
ATOM     88  S   UNL A   1      34.187  33.721  33.350  1.00  0.00     0.124 S 
ATOM     89  O   UNL A   1      35.004  33.544  34.544  1.00  0.00    -0.237 OA
ATOM     90  O   UNL A   1      34.096  35.077  32.820  1.00  0.00    -0.237 OA
ATOM     91  O   UNL A   1      32.925  32.980  33.355  1.00  0.00    -0.744 OA
ENDBRANCH  84  88
ENDBRANCH  57  81
BRANCH  69  92
ATOM     92  C   UNL A   1      42.917  30.551  34.041  1.00  0.00     0.023 A 
ATOM     93  C   UNL A   1      42.468  29.212  34.102  1.00  0.00     0.031 A 
ATOM     94  C   UNL A   1      43.476  31.104  35.209  1.00  0.00     0.131 A 
ATOM     95  C   UNL A   1      42.583  28.483  35.306  1.00  0.00     0.055 A 
ATOM     96  C   UNL A   1      43.605  30.375  36.391  1.00  0.00     0.041 A 
ATOM     97  F   UNL A   1      43.943  32.364  35.209  1.00  0.00    -0.206 F 
ATOM     98  C   UNL A   1      43.153  29.062  36.444  1.00  0.00     0.022 A 
BRANCH  95  99
ATOM     99  S   UNL A   1      41.979  26.767  35.420  1.00  0.00     0.124 S 
ATOM    100  O   UNL A   1      41.665  26.607  36.834  1.00  0.00    -0.237 OA
ATOM    101  O   UNL A   1      40.841  26.774  34.506  1.00  0.00    -0.237 OA
ATOM    102  O   UNL A   1      43.121  25.974  34.958  1.00  0.00    -0.744 OA
ENDBRANCH  95  99
ENDBRANCH  69  92
ENDBRANCH  43  44
ENDBRANCH  36  38
ENDBRANCH  35  36
ENDBRANCH  34  35
ENDBRANCH  33  34
ENDBRANCH  32  33
ENDBRANCH  31  32
ENDBRANCH   1  31
TORSDOF 24
ENDMDL
MODEL 2
REMARK VINA RESULT:      -8.8      4.255     13.330
REMARK SMILES CCn1c([C@@H]2CCC[N@@H+](Cc3ccc(C(=O)OCCOCCOCCOC(=O)c4ccc(-c5c6nc(c(-c7cc(S(=O)(=O)[O-])ccc7F)c7ccc([nH]7)c(-c7cc(S(=O)(=O)[O-])ccc7F)c7nc(c(-c8cc(S(=O)(=O)[O-])ccc8F)c8ccc5[nH]8)C=C7)C=C6)cc4)cc3)C2)nn(C)c1=O
REMARK SMILES IDX 21 1 20 2 19 3 18 4 17 5 15 6 16 7 14 8 11 9 12 10 93 11
REMARK SMILES IDX 13 12 92 13 10 14 9 15 5 16 6 17 94 18 7 19 8 20 4 22 3 23
REMARK SMILES IDX 98 24 95 25 96 26 99 27 97 28 2 29 1 30 22 31 23 32 24 33
REMARK SMILES IDX 25 34 26 35 27 36 28 37 29 38 30 39 91 40 31 41 90 42 32 43
REMARK SMILES IDX 33 44 34 45 84 46 35 47 89 48 83 49 85 50 36 51 88 52 82 53
REMARK SMILES IDX 81 54 37 56 69 57 49 58 68 59 50 60 53 61 67 62 86 63 51 64
REMARK SMILES IDX 52 65 66 67 87 68 54 69 38 70 39 71 47 72 40 73 46 74 48 75
REMARK SMILES IDX 45 76 41 77 42 78 43 79 44 80 70 81 71 82 79 83 72 84 78 85
REMARK SMILES IDX 80 86 77 87 73 88 74 89 75 90 76 91 55 92 56 93 64 94 57 95
REMARK SMILES IDX 63 96 65 97 62 98 58 99 59 100 60 101 61 102
REMARK H PARENT 9 21 85 55 53 66
REMARK Flexibility Score: inf
ROOT
ATOM      1  C   UNL A   1      44.322  38.802  32.915  1.00  0.00     0.188 C 
ENDROOT
BRANCH   1   2
ATOM      2  O   UNL A   1      43.915  38.945  34.271  1.00  0.00    -0.376 OA
BRANCH   2   3
ATOM      3  C   UNL A   1      43.653  37.792  35.062  1.00  0.00     0.202 C 
BRANCH   3   4
ATOM      4  C   UNL A   1      42.521  36.814  34.684  1.00  0.00     0.261 C 
BRANCH   4   5
ATOM      5  O   UNL A   1      42.872  35.425  34.728  1.00  0.00    -0.460 OA
BRANCH   5   6
ATOM      6  C   UNL A   1      41.905  34.575  35.140  1.00  0.00     0.338 C 
ATOM      7  O   UNL A   1      41.232  34.670  36.153  1.00  0.00    -0.246 OA
BRANCH   6   8
ATOM      8  C   UNL A   1      41.637  33.563  34.089  1.00  0.00     0.060 A 
ATOM      9  C   UNL A   1      41.236  31.742  31.997  1.00  0.00     0.006 A 
ATOM     10  C   UNL A   1      42.478  32.374  32.157  1.00  0.00     0.010 A 
ATOM     11  C   UNL A   1      40.244  31.932  32.972  1.00  0.00     0.010 A 
ATOM     12  C   UNL A   1      42.674  33.280  33.194  1.00  0.00     0.016 A 
ATOM     13  C   UNL A   1      40.430  32.861  33.999  1.00  0.00     0.016 A 
BRANCH   9  14
ATOM     14  C   UNL A   1      40.942  31.015  30.698  1.00  0.00     0.299 C 
BRANCH  14  15
ATOM     15  N   UNL A   1      39.541  30.537  30.555  1.00  0.00    -0.331 N 
ATOM     16  C   UNL A   1      37.432  30.711  29.213  1.00  0.00     0.113 C 
ATOM     17  C   UNL A   1      37.196  29.210  29.368  1.00  0.00     0.023 C 
ATOM     18  C   UNL A   1      38.894  31.111  29.374  1.00  0.00     0.274 C 
ATOM     19  C   UNL A   1      37.986  28.554  30.492  1.00  0.00     0.062 C 
ATOM     20  C   UNL A   1      39.423  29.071  30.604  1.00  0.00     0.262 C 
ATOM     21  H   UNL A   1      39.035  30.877  31.373  1.00  0.00     0.348 HD
BRANCH  16  22
ATOM     22  C   UNL A   1      36.443  31.633  29.917  1.00  0.00     0.142 A 
ATOM     23  N   UNL A   1      35.436  32.347  29.370  1.00  0.00    -0.279 N 
ATOM     24  C   UNL A   1      34.784  32.950  30.434  1.00  0.00     0.345 A 
ATOM     25  N   UNL A   1      36.537  31.749  31.217  1.00  0.00    -0.155 NA
ATOM     26  N   UNL A   1      35.512  32.572  31.561  1.00  0.00    -0.216 N 
ATOM     27  O   UNL A   1      33.788  33.629  30.424  1.00  0.00    -0.246 OA
ATOM     28  C   UNL A   1      35.164  32.846  32.925  1.00  0.00     0.179 C 
BRANCH  23  29
ATOM     29  C   UNL A   1      34.923  32.353  28.009  1.00  0.00     0.125 C 
ATOM     30  C   UNL A   1      34.128  31.135  27.563  1.00  0.00     0.028 C 
ENDBRANCH  23  29
ENDBRANCH  16  22
ENDBRANCH  14  15
ENDBRANCH   9  14
ENDBRANCH   6   8
ENDBRANCH   5   6
ENDBRANCH   4   5
ENDBRANCH   3   4
ENDBRANCH   2   3
ENDBRANCH   1   2
BRANCH   1  31
ATOM     31  C   UNL A   1      43.831  39.785  31.825  1.00  0.00     0.188 C 
BRANCH  31  32
ATOM     32  O   UNL A   1      44.141  39.404  30.499  1.00  0.00    -0.376 OA
BRANCH  32  33
ATOM     33  C   UNL A   1      44.312  38.036  30.158  1.00  0.00     0.202 C 
BRANCH  33  34
ATOM     34  C   UNL A   1      44.523  37.567  28.718  1.00  0.00     0.261 C 
BRANCH  34  35
ATOM     35  O   UNL A   1      44.584  36.169  28.539  1.00  0.00    -0.460 OA
BRANCH  35  36
ATOM     36  C   UNL A   1      44.577  35.780  27.249  1.00  0.00     0.338 C 
ATOM     37  O   UNL A   1      44.972  36.424  26.292  1.00  0.00    -0.246 OA
BRANCH  36  38
ATOM     38  C   UNL A   1      43.987  34.441  27.176  1.00  0.00     0.060 A 
ATOM     39  C   UNL A   1      43.668  33.850  28.397  1.00  0.00     0.016 A 
ATOM     40  C   UNL A   1      44.117  33.705  25.987  1.00  0.00     0.016 A 
ATOM     41  C   UNL A   1      43.806  32.490  28.492  1.00  0.00     0.010 A 
ATOM     42  C   UNL A   1      44.271  32.348  26.087  1.00  0.00     0.010 A 
ATOM     43  C   UNL A   1      44.237  31.790  27.360  1.00  0.00    -0.014 A 
BRANCH  43  44
ATOM     44  C   UNL A   1      44.708  30.443  27.566  1.00  0.00     0.031 A 
ATOM     45  C   UNL A   1      43.619  29.487  27.804  1.00  0.00     0.074 A 
ATOM     46  C   UNL A   1      46.014  30.132  27.492  1.00  0.00     0.049 A 
ATOM     47  N   UNL A   1      43.311  28.892  28.905  1.00  0.00    -0.248 NA
ATOM     48  C   UNL A   1      42.628  29.333  26.729  1.00  0.00     0.031 C 
ATOM     49  C   UNL A   1      47.112  30.964  26.986  1.00  0.00     0.029 A 
ATOM     50  N   UNL A   1      46.621  28.946  27.757  1.00  0.00    -0.354 N 
ATOM     51  C   UNL A   1      42.232  28.083  28.582  1.00  0.00     0.074 A 
ATOM     52  C   UNL A   1      41.715  28.577  27.336  1.00  0.00     0.031 C 
ATOM     53  C   UNL A   1      48.192  30.183  26.765  1.00  0.00     0.029 A 
ATOM     54  C   UNL A   1      47.906  28.839  27.242  1.00  0.00     0.049 A 
ATOM     55  H   UNL A   1      46.188  28.226  28.267  1.00  0.00     0.167 HD
ATOM     56  C   UNL A   1      42.046  26.892  29.208  1.00  0.00     0.034 A 
ATOM     57  C   UNL A   1      48.633  27.699  27.128  1.00  0.00     0.034 A 
ATOM     58  C   UNL A   1      42.750  26.852  30.470  1.00  0.00     0.049 A 
ATOM     59  C   UNL A   1      48.065  26.725  28.093  1.00  0.00     0.074 A 
ATOM     60  C   UNL A   1      42.703  27.602  31.631  1.00  0.00     0.029 A 
ATOM     61  N   UNL A   1      43.940  26.161  30.522  1.00  0.00    -0.354 N 
ATOM     62  N   UNL A   1      48.090  26.892  29.388  1.00  0.00    -0.248 NA
ATOM     63  C   UNL A   1      47.065  25.779  27.619  1.00  0.00     0.031 C 
ATOM     64  C   UNL A   1      44.051  27.671  32.089  1.00  0.00     0.029 A 
ATOM     65  C   UNL A   1      44.848  26.918  31.224  1.00  0.00     0.049 A 
ATOM     66  H   UNL A   1      44.111  25.277  30.124  1.00  0.00     0.167 HD
ATOM     67  C   UNL A   1      46.865  26.421  29.840  1.00  0.00     0.074 A 
ATOM     68  C   UNL A   1      46.332  25.641  28.727  1.00  0.00     0.031 C 
ATOM     69  C   UNL A   1      46.279  26.936  30.962  1.00  0.00     0.034 A 
BRANCH  56  70
ATOM     70  C   UNL A   1      41.570  25.647  28.491  1.00  0.00     0.023 A 
ATOM     71  C   UNL A   1      42.530  24.922  27.765  1.00  0.00     0.031 A 
ATOM     72  C   UNL A   1      40.220  25.292  28.244  1.00  0.00     0.131 A 
ATOM     73  C   UNL A   1      42.143  23.985  26.794  1.00  0.00     0.055 A 
ATOM     74  C   UNL A   1      39.843  24.310  27.327  1.00  0.00     0.041 A 
ATOM     75  F   UNL A   1      39.180  25.929  28.793  1.00  0.00    -0.206 F 
ATOM     76  C   UNL A   1      40.805  23.671  26.569  1.00  0.00     0.022 A 
BRANCH  73  77
ATOM     77  S   UNL A   1      43.416  23.316  25.697  1.00  0.00     0.124 S 
ATOM     78  O   UNL A   1      42.687  22.252  25.014  1.00  0.00    -0.237 OA
ATOM     79  O   UNL A   1      43.758  24.484  24.893  1.00  0.00    -0.237 OA
ATOM     80  O   UNL A   1      44.454  22.866  26.621  1.00  0.00    -0.744 OA
ENDBRANCH  73  77
ENDBRANCH  56  70
BRANCH  57  81
ATOM     81  C   UNL A   1      49.450  27.315  25.944  1.00  0.00     0.023 A 
ATOM     82  C   UNL A   1      48.953  27.356  24.627  1.00  0.00     0.031 A 
ATOM     83  C   UNL A   1      50.843  27.114  26.092  1.00  0.00     0.131 A 
ATOM     84  C   UNL A   1      49.834  27.192  23.531  1.00  0.00     0.055 A 
ATOM     85  C   UNL A   1      51.706  26.945  25.009  1.00  0.00     0.041 A 
ATOM     86  F   UNL A   1      51.428  27.157  27.301  1.00  0.00    -0.206 F 
ATOM     87  C   UNL A   1      51.204  26.991  23.719  1.00  0.00     0.022 A 
BRANCH  84  88
ATOM     88  S   UNL A   1      49.211  27.321  21.825  1.00  0.00     0.124 S 
ATOM     89  O   UNL A   1      48.481  26.069  21.665  1.00  0.00    -0.237 OA
ATOM     90  O   UNL A   1      48.410  28.538  21.877  1.00  0.00    -0.237 OA
ATOM     91  O   UNL A   1      50.431  27.425  21.022  1.00  0.00    -0.744 OA
ENDBRANCH  84  88
ENDBRANCH  57  81
BRANCH  69  92
ATOM     92  C   UNL A   1      47.139  27.758  31.905  1.00  0.00     0.023 A 
ATOM     93  C   UNL A   1      47.328  29.157  31.826  1.00  0.00     0.031 A 
ATOM     94  C   UNL A   1      47.708  27.085  33.003  1.00  0.00     0.131 A 
ATOM     95  C   UNL A   1      48.071  29.825  32.823  1.00  0.00     0.055 A 
ATOM     96  C   UNL A   1      48.426  27.752  33.995  1.00  0.00     0.041 A 
ATOM     97  F   UNL A   1      47.543  25.759  33.147  1.00  0.00    -0.206 F 
ATOM     98  C   UNL A   1      48.614  29.125  33.906  1.00  0.00     0.022 A 
BRANCH  95  99
ATOM     99  S   UNL A   1      48.359  31.623  32.726  1.00  0.00     0.124 S 
ATOM    100  O   UNL A   1      47.083  32.150  32.257  1.00  0.00    -0.237 OA
ATOM    101  O   UNL A   1      48.726  31.956  34.099  1.00  0.00    -0.237 OA
ATOM    102  O   UNL A   1      49.455  31.740  31.762  1.00  0.00    -0.744 OA
ENDBRANCH  95  99
ENDBRANCH  69  92
ENDBRANCH  43  44
ENDBRANCH  36  38
ENDBRANCH  35  36
ENDBRANCH  34  35
ENDBRANCH  33  34
ENDBRANCH  32  33
ENDBRANCH  31  32
ENDBRANCH   1  31
TORSDOF 24
ENDMDL
MODEL 3
REMARK VINA RESULT:      -8.6      6.275     11.614
REMARK SMILES CCn1c([C@@H]2CCC[N@@H+](Cc3ccc(C(=O)OCCOCCOCCOC(=O)c4ccc(-c5c6nc(c(-c7cc(S(=O)(=O)[O-])ccc7F)c7ccc([nH]7)c(-c7cc(S(=O)(=O)[O-])ccc7F)c7nc(c(-c8cc(S(=O)(=O)[O-])ccc8F)c8ccc5[nH]8)C=C7)C=C6)cc4)cc3)C2)nn(C)c1=O
REMARK SMILES IDX 21 1 20 2 19 3 18 4 17 5 15 6 16 7 14 8 11 9 12 10 93 11
REMARK SMILES IDX 13 12 92 13 10 14 9 15 5 16 6 17 94 18 7 19 8 20 4 22 3 23
REMARK SMILES IDX 98 24 95 25 96 26 99 27 97 28 2 29 1 30 22 31 23 32 24 33
REMARK SMILES IDX 25 34 26 35 27 36 28 37 29 38 30 39 91 40 31 41 90 42 32 43
REMARK SMILES IDX 33 44 34 45 84 46 35 47 89 48 83 49 85 50 36 51 88 52 82 53
REMARK SMILES IDX 81 54 37 56 69 57 49 58 68 59 50 60 53 61 67 62 86 63 51 64
REMARK SMILES IDX 52 65 66 67 87 68 54 69 38 70 39 71 47 72 40 73 46 74 48 75
REMARK SMILES IDX 45 76 41 77 42 78 43 79 44 80 70 81 71 82 79 83 72 84 78 85
REMARK SMILES IDX 80 86 77 87 73 88 74 89 75 90 76 91 55 92 56 93 64 94 57 95
REMARK SMILES IDX 63 96 65 97 62 98 58 99 59 100 60 101 61 102
REMARK H PARENT 9 21 85 55 53 66
REMARK Flexibility Score: inf
ROOT
ATOM      1  C   UNL A   1      49.207  40.180  31.854  1.00  0.00     0.188 C 
ENDROOT
BRANCH   1   2
ATOM      2  O   UNL A   1      48.537  41.373  31.463  1.00  0.00    -0.376 OA
BRANCH   2   3
ATOM      3  C   UNL A   1      47.454  41.314  30.542  1.00  0.00     0.202 C 
BRANCH   3   4
ATOM      4  C   UNL A   1      46.365  42.406  30.531  1.00  0.00     0.261 C 
BRANCH   4   5
ATOM      5  O   UNL A   1      46.681  43.579  29.771  1.00  0.00    -0.460 OA
BRANCH   5   6
ATOM      6  C   UNL A   1      45.669  44.126  29.063  1.00  0.00     0.338 C 
ATOM      7  O   UNL A   1      44.634  44.594  29.508  1.00  0.00    -0.246 OA
BRANCH   6   8
ATOM      8  C   UNL A   1      46.054  44.243  27.635  1.00  0.00     0.060 A 
ATOM      9  C   UNL A   1      46.891  44.592  24.983  1.00  0.00     0.006 A 
ATOM     10  C   UNL A   1      47.793  44.779  26.040  1.00  0.00     0.010 A 
ATOM     11  C   UNL A   1      45.606  44.101  25.263  1.00  0.00     0.010 A 
ATOM     12  C   UNL A   1      47.376  44.608  27.356  1.00  0.00     0.016 A 
ATOM     13  C   UNL A   1      45.176  43.955  26.584  1.00  0.00     0.016 A 
BRANCH   9  14
ATOM     14  C   UNL A   1      47.267  45.085  23.598  1.00  0.00     0.299 C 
BRANCH  14  15
ATOM     15  N   UNL A   1      46.737  44.263  22.479  1.00  0.00    -0.331 N 
ATOM     16  C   UNL A   1      45.563  44.309  20.265  1.00  0.00     0.113 C 
ATOM     17  C   UNL A   1      46.457  43.179  19.755  1.00  0.00     0.023 C 
ATOM     18  C   UNL A   1      46.186  45.099  21.411  1.00  0.00     0.274 C 
ATOM     19  C   UNL A   1      47.173  42.394  20.844  1.00  0.00     0.062 C 
ATOM     20  C   UNL A   1      47.707  43.277  21.976  1.00  0.00     0.262 C 
ATOM     21  H   UNL A   1      45.967  43.715  22.862  1.00  0.00     0.348 HD
BRANCH  16  22
ATOM     22  C   UNL A   1      44.087  43.979  20.453  1.00  0.00     0.142 A 
ATOM     23  N   UNL A   1      43.073  44.180  19.585  1.00  0.00    -0.279 N 
ATOM     24  C   UNL A   1      41.950  43.636  20.190  1.00  0.00     0.345 A 
ATOM     25  N   UNL A   1      43.728  43.406  21.573  1.00  0.00    -0.155 NA
ATOM     26  N   UNL A   1      42.395  43.186  21.432  1.00  0.00    -0.216 N 
ATOM     27  O   UNL A   1      40.831  43.530  19.753  1.00  0.00    -0.246 OA
ATOM     28  C   UNL A   1      41.629  42.437  22.386  1.00  0.00     0.179 C 
BRANCH  23  29
ATOM     29  C   UNL A   1      43.097  44.635  18.203  1.00  0.00     0.125 C 
ATOM     30  C   UNL A   1      43.270  43.573  17.128  1.00  0.00     0.028 C 
ENDBRANCH  23  29
ENDBRANCH  16  22
ENDBRANCH  14  15
ENDBRANCH   9  14
ENDBRANCH   6   8
ENDBRANCH   5   6
ENDBRANCH   4   5
ENDBRANCH   3   4
ENDBRANCH   2   3
ENDBRANCH   1   2
BRANCH   1  31
ATOM     31  C   UNL A   1      49.032  38.866  31.055  1.00  0.00     0.188 C 
BRANCH  31  32
ATOM     32  O   UNL A   1      49.788  38.793  29.863  1.00  0.00    -0.376 OA
BRANCH  32  33
ATOM     33  C   UNL A   1      49.340  38.011  28.765  1.00  0.00     0.202 C 
BRANCH  33  34
ATOM     34  C   UNL A   1      47.877  37.978  28.321  1.00  0.00     0.261 C 
BRANCH  34  35
ATOM     35  O   UNL A   1      47.108  36.921  28.852  1.00  0.00    -0.460 OA
BRANCH  35  36
ATOM     36  C   UNL A   1      46.407  36.235  27.927  1.00  0.00     0.338 C 
ATOM     37  O   UNL A   1      46.828  35.804  26.867  1.00  0.00    -0.246 OA
BRANCH  36  38
ATOM     38  C   UNL A   1      45.027  36.104  28.399  1.00  0.00     0.060 A 
ATOM     39  C   UNL A   1      44.865  35.992  29.779  1.00  0.00     0.016 A 
ATOM     40  C   UNL A   1      44.028  35.736  27.484  1.00  0.00     0.016 A 
ATOM     41  C   UNL A   1      43.838  35.203  30.228  1.00  0.00     0.010 A 
ATOM     42  C   UNL A   1      43.012  34.935  27.933  1.00  0.00     0.010 A 
ATOM     43  C   UNL A   1      43.017  34.585  29.279  1.00  0.00    -0.014 A 
BRANCH  43  44
ATOM     44  C   UNL A   1      42.183  33.504  29.743  1.00  0.00     0.031 A 
ATOM     45  C   UNL A   1      40.871  33.959  30.221  1.00  0.00     0.074 A 
ATOM     46  C   UNL A   1      42.587  32.223  29.680  1.00  0.00     0.049 A 
ATOM     47  N   UNL A   1      40.438  33.997  31.435  1.00  0.00    -0.248 NA
ATOM     48  C   UNL A   1      40.013  34.647  29.246  1.00  0.00     0.031 C 
ATOM     49  C   UNL A   1      43.747  31.677  28.966  1.00  0.00     0.029 A 
ATOM     50  N   UNL A   1      41.969  31.114  30.162  1.00  0.00    -0.354 N 
ATOM     51  C   UNL A   1      39.141  34.478  31.335  1.00  0.00     0.074 A 
ATOM     52  C   UNL A   1      39.034  35.082  30.035  1.00  0.00     0.031 C 
ATOM     53  C   UNL A   1      43.613  30.336  28.867  1.00  0.00     0.029 A 
ATOM     54  C   UNL A   1      42.444  29.923  29.627  1.00  0.00     0.049 A 
ATOM     55  H   UNL A   1      41.248  31.150  30.830  1.00  0.00     0.167 HD
ATOM     56  C   UNL A   1      38.181  34.069  32.203  1.00  0.00     0.034 A 
ATOM     57  C   UNL A   1      41.850  28.707  29.724  1.00  0.00     0.034 A 
ATOM     58  C   UNL A   1      38.766  33.540  33.415  1.00  0.00     0.049 A 
ATOM     59  C   UNL A   1      40.940  28.761  30.896  1.00  0.00     0.074 A 
ATOM     60  C   UNL A   1      39.598  34.052  34.394  1.00  0.00     0.029 A 
ATOM     61  N   UNL A   1      38.819  32.172  33.561  1.00  0.00    -0.354 N 
ATOM     62  N   UNL A   1      41.351  28.921  32.124  1.00  0.00    -0.248 NA
ATOM     63  C   UNL A   1      39.540  29.092  30.672  1.00  0.00     0.031 C 
ATOM     64  C   UNL A   1      40.447  32.970  34.770  1.00  0.00     0.029 A 
ATOM     65  C   UNL A   1      40.060  31.838  34.049  1.00  0.00     0.049 A 
ATOM     66  H   UNL A   1      38.093  31.541  33.350  1.00  0.00     0.167 HD
ATOM     67  C   UNL A   1      40.416  29.758  32.717  1.00  0.00     0.074 A 
ATOM     68  C   UNL A   1      39.268  29.729  31.815  1.00  0.00     0.031 C 
ATOM     69  C   UNL A   1      40.765  30.606  33.729  1.00  0.00     0.034 A 
BRANCH  56  70
ATOM     70  C   UNL A   1      36.755  33.781  31.784  1.00  0.00     0.023 A 
ATOM     71  C   UNL A   1      36.575  32.960  30.658  1.00  0.00     0.031 A 
ATOM     72  C   UNL A   1      35.599  34.471  32.229  1.00  0.00     0.131 A 
ATOM     73  C   UNL A   1      35.344  32.924  29.982  1.00  0.00     0.055 A 
ATOM     74  C   UNL A   1      34.360  34.377  31.594  1.00  0.00     0.041 A 
ATOM     75  F   UNL A   1      35.610  35.348  33.239  1.00  0.00    -0.206 F 
ATOM     76  C   UNL A   1      34.233  33.626  30.442  1.00  0.00     0.022 A 
BRANCH  73  77
ATOM     77  S   UNL A   1      35.273  32.086  28.381  1.00  0.00     0.124 S 
ATOM     78  O   UNL A   1      33.848  32.153  28.076  1.00  0.00    -0.237 OA
ATOM     79  O   UNL A   1      36.148  32.925  27.568  1.00  0.00    -0.237 OA
ATOM     80  O   UNL A   1      35.785  30.750  28.677  1.00  0.00    -0.744 OA
ENDBRANCH  73  77
ENDBRANCH  56  70
BRANCH  57  81
ATOM     81  C   UNL A   1      41.718  27.724  28.614  1.00  0.00     0.023 A 
ATOM     82  C   UNL A   1      42.058  26.364  28.753  1.00  0.00     0.031 A 
ATOM     83  C   UNL A   1      41.022  28.088  27.438  1.00  0.00     0.131 A 
ATOM     84  C   UNL A   1      41.708  25.439  27.740  1.00  0.00     0.055 A 
ATOM     85  C   UNL A   1      40.686  27.173  26.439  1.00  0.00     0.041 A 
ATOM     86  F   UNL A   1      40.568  29.339  27.257  1.00  0.00    -0.206 F 
ATOM     87  C   UNL A   1      41.023  25.839  26.590  1.00  0.00     0.022 A 
BRANCH  84  88
ATOM     88  S   UNL A   1      42.075  23.667  27.949  1.00  0.00     0.124 S 
ATOM     89  O   UNL A   1      40.748  23.065  27.893  1.00  0.00    -0.237 OA
ATOM     90  O   UNL A   1      42.958  23.398  26.819  1.00  0.00    -0.237 OA
ATOM     91  O   UNL A   1      42.722  23.604  29.261  1.00  0.00    -0.744 OA
ENDBRANCH  84  88
ENDBRANCH  57  81
BRANCH  69  92
ATOM     92  C   UNL A   1      42.083  30.364  34.441  1.00  0.00     0.023 A 
ATOM     93  C   UNL A   1      43.335  30.884  34.039  1.00  0.00     0.031 A 
ATOM     94  C   UNL A   1      42.034  29.652  35.655  1.00  0.00     0.131 A 
ATOM     95  C   UNL A   1      44.477  30.674  34.841  1.00  0.00     0.055 A 
ATOM     96  C   UNL A   1      43.160  29.462  36.454  1.00  0.00     0.041 A 
ATOM     97  F   UNL A   1      40.869  29.154  36.104  1.00  0.00    -0.206 F 
ATOM     98  C   UNL A   1      44.388  29.969  36.047  1.00  0.00     0.022 A 
BRANCH  95  99
ATOM     99  S   UNL A   1      46.109  31.302  34.327  1.00  0.00     0.124 S 
ATOM    100  O   UNL A   1      46.174  32.626  34.935  1.00  0.00    -0.237 OA
ATOM    101  O   UNL A   1      47.018  30.299  34.874  1.00  0.00    -0.237 OA
ATOM    102  O   UNL A   1      46.025  31.309  32.865  1.00  0.00    -0.744 OA
ENDBRANCH  95  99
ENDBRANCH  69  92
ENDBRANCH  43  44
ENDBRANCH  36  38
ENDBRANCH  35  36
ENDBRANCH  34  35
ENDBRANCH  33  34
ENDBRANCH  32  33
ENDBRANCH  31  32
ENDBRANCH   1  31
TORSDOF 24
ENDMDL
