MODEL 1
REMARK VINA RESULT:      -9.5      0.000      0.000
REMARK SMILES C=C(c1ccccc1)[C@@H](C(=O)OCCOCCOCCOC(=O)c1ccc(-c2c3nc(c(-c4cc(S(=O)(=O)[O-])ccc4F)c4ccc([nH]4)c(-c4cc(S(=O)(=O)[O-])ccc4F)c4nc(c(-c5cc(S(=O)(=O)[O-])ccc5F)c5ccc2[nH]5)C=C4)C=C3)cc1)S(C)(=O)=O
REMARK SMILES IDX 17 1 16 2 15 3 14 4 13 5 12 6 10 7 11 8 9 9 2 10 1 11 3 12
REMARK SMILES IDX 4 13 8 14 5 15 7 16 6 17 87 18 88 19 89 20 90 21 18 22 19 23
REMARK SMILES IDX 20 24 21 25 22 26 23 27 24 28 25 29 86 30 26 31 85 32 27 33
REMARK SMILES IDX 28 34 29 35 79 36 30 37 84 38 78 39 80 40 31 41 83 42 77 43
REMARK SMILES IDX 76 44 32 46 64 47 44 48 63 49 45 50 48 51 62 52 81 53 46 54
REMARK SMILES IDX 47 55 61 57 82 58 49 59 33 60 34 61 42 62 35 63 41 64 43 65
REMARK SMILES IDX 40 66 36 67 37 68 38 69 39 70 65 71 66 72 74 73 67 74 73 75
REMARK SMILES IDX 75 76 72 77 68 78 69 79 70 80 71 81 50 82 51 83 59 84 52 85
REMARK SMILES IDX 58 86 60 87 57 88 53 89 54 90 55 91 56 92
REMARK H PARENT 80 45 48 56
REMARK Flexibility Score: inf
ROOT
ATOM      1  C   UNL A   1      36.797  20.943  25.307  1.00  0.00     0.188 C 
ENDROOT
BRANCH   1   2
ATOM      2  C   UNL A   1      35.563  21.563  24.629  1.00  0.00     0.188 C 
BRANCH   2   3
ATOM      3  O   UNL A   1      34.269  21.213  25.114  1.00  0.00    -0.376 OA
BRANCH   3   4
ATOM      4  C   UNL A   1      33.179  21.177  24.204  1.00  0.00     0.202 C 
BRANCH   4   5
ATOM      5  C   UNL A   1      32.964  22.375  23.261  1.00  0.00     0.261 C 
BRANCH   5   6
ATOM      6  O   UNL A   1      32.586  23.624  23.895  1.00  0.00    -0.462 OA
BRANCH   6   7
ATOM      7  C   UNL A   1      32.961  24.764  23.251  1.00  0.00     0.328 C 
ATOM      8  O   UNL A   1      33.850  24.764  22.404  1.00  0.00    -0.250 OA
BRANCH   7   9
ATOM      9  C   UNL A   1      32.268  26.060  23.703  1.00  0.00     0.247 C 
BRANCH   9  10
ATOM     10  C   UNL A   1      32.216  27.332  22.840  1.00  0.00    -0.019 C 
ATOM     11  C   UNL A   1      33.248  28.054  22.355  1.00  0.00     0.015 C 
BRANCH  10  12
ATOM     12  C   UNL A   1      30.904  28.006  22.675  1.00  0.00    -0.021 A 
ATOM     13  C   UNL A   1      29.734  27.395  23.147  1.00  0.00     0.008 A 
ATOM     14  C   UNL A   1      30.828  29.323  22.191  1.00  0.00     0.008 A 
ATOM     15  C   UNL A   1      28.519  28.083  23.140  1.00  0.00     0.001 A 
ATOM     16  C   UNL A   1      29.613  30.014  22.196  1.00  0.00     0.001 A 
ATOM     17  C   UNL A   1      28.460  29.394  22.671  1.00  0.00     0.000 A 
ENDBRANCH  10  12
ENDBRANCH   9  10
BRANCH   9  18
ATOM     18  S   UNL A   1      32.875  26.403  25.377  1.00  0.00     0.165 S 
ATOM     19  C   UNL A   1      31.839  25.419  26.439  1.00  0.00     0.159 C 
ATOM     20  O   UNL A   1      34.202  25.836  25.529  1.00  0.00    -0.228 OA
ATOM     21  O   UNL A   1      32.637  27.798  25.709  1.00  0.00    -0.228 OA
ENDBRANCH   9  18
ENDBRANCH   7   9
ENDBRANCH   6   7
ENDBRANCH   5   6
ENDBRANCH   4   5
ENDBRANCH   3   4
ENDBRANCH   2   3
ENDBRANCH   1   2
BRANCH   1  22
ATOM     22  O   UNL A   1      37.255  19.768  24.674  1.00  0.00    -0.376 OA
BRANCH  22  23
ATOM     23  C   UNL A   1      38.497  19.241  25.082  1.00  0.00     0.202 C 
BRANCH  23  24
ATOM     24  C   UNL A   1      39.525  20.197  25.706  1.00  0.00     0.261 C 
BRANCH  24  25
ATOM     25  O   UNL A   1      40.617  19.610  26.435  1.00  0.00    -0.460 OA
BRANCH  25  26
ATOM     26  C   UNL A   1      41.869  19.874  25.999  1.00  0.00     0.338 C 
ATOM     27  O   UNL A   1      42.537  19.174  25.249  1.00  0.00    -0.246 OA
BRANCH  26  28
ATOM     28  C   UNL A   1      42.224  21.254  26.406  1.00  0.00     0.060 A 
ATOM     29  C   UNL A   1      42.311  22.254  25.430  1.00  0.00     0.016 A 
ATOM     30  C   UNL A   1      42.477  21.563  27.743  1.00  0.00     0.016 A 
ATOM     31  C   UNL A   1      42.665  23.560  25.780  1.00  0.00     0.010 A 
ATOM     32  C   UNL A   1      42.860  22.865  28.090  1.00  0.00     0.010 A 
ATOM     33  C   UNL A   1      42.980  23.868  27.108  1.00  0.00    -0.014 A 
BRANCH  33  34
ATOM     34  C   UNL A   1      43.607  25.175  27.448  1.00  0.00     0.031 A 
ATOM     35  C   UNL A   1      42.740  26.253  28.040  1.00  0.00     0.074 A 
ATOM     36  C   UNL A   1      44.920  25.406  27.258  1.00  0.00     0.049 A 
ATOM     37  N   UNL A   1      43.021  27.504  28.303  1.00  0.00    -0.248 NA
ATOM     38  C   UNL A   1      41.364  25.862  28.381  1.00  0.00     0.031 C 
ATOM     39  C   UNL A   1      45.890  24.424  26.776  1.00  0.00     0.029 A 
ATOM     40  N   UNL A   1      45.662  26.550  27.440  1.00  0.00    -0.354 N 
ATOM     41  C   UNL A   1      41.854  28.054  28.825  1.00  0.00     0.074 A 
ATOM     42  C   UNL A   1      40.854  27.005  28.810  1.00  0.00     0.031 C 
ATOM     43  C   UNL A   1      47.095  25.015  26.680  1.00  0.00     0.029 A 
ATOM     44  C   UNL A   1      46.974  26.427  27.045  1.00  0.00     0.049 A 
ATOM     45  H   UNL A   1      45.288  27.379  27.817  1.00  0.00     0.167 HD
ATOM     46  C   UNL A   1      41.637  29.313  29.278  1.00  0.00     0.034 A 
ATOM     47  C   UNL A   1      47.952  27.353  26.949  1.00  0.00     0.034 A 
ATOM     48  C   UNL A   1      42.638  30.352  29.277  1.00  0.00     0.049 A 
ATOM     49  C   UNL A   1      47.654  28.783  27.341  1.00  0.00     0.074 A 
ATOM     50  C   UNL A   1      42.522  31.662  29.710  1.00  0.00     0.029 A 
ATOM     51  N   UNL A   1      43.938  30.206  28.809  1.00  0.00    -0.354 N 
ATOM     52  N   UNL A   1      46.541  29.302  27.810  1.00  0.00    -0.248 NA
ATOM     53  C   UNL A   1      48.748  29.755  27.194  1.00  0.00     0.031 C 
ATOM     54  C   UNL A   1      43.719  32.327  29.426  1.00  0.00     0.029 A 
ATOM     55  C   UNL A   1      44.619  31.412  28.907  1.00  0.00     0.049 A 
ATOM     56  H   UNL A   1      44.321  29.369  28.458  1.00  0.00     0.167 HD
ATOM     57  C   UNL A   1      46.816  30.647  28.049  1.00  0.00     0.074 A 
ATOM     58  C   UNL A   1      48.201  30.858  27.682  1.00  0.00     0.031 C 
ATOM     59  C   UNL A   1      46.000  31.619  28.534  1.00  0.00     0.034 A 
BRANCH  46  60
ATOM     60  C   UNL A   1      40.242  29.650  29.750  1.00  0.00     0.023 A 
ATOM     61  C   UNL A   1      39.912  29.706  31.116  1.00  0.00     0.031 A 
ATOM     62  C   UNL A   1      39.217  29.885  28.817  1.00  0.00     0.131 A 
ATOM     63  C   UNL A   1      38.580  29.915  31.506  1.00  0.00     0.055 A 
ATOM     64  C   UNL A   1      37.912  30.180  29.213  1.00  0.00     0.041 A 
ATOM     65  F   UNL A   1      39.464  29.818  27.498  1.00  0.00    -0.206 F 
ATOM     66  C   UNL A   1      37.583  30.181  30.565  1.00  0.00     0.022 A 
BRANCH  63  67
ATOM     67  S   UNL A   1      38.142  29.681  33.251  1.00  0.00     0.124 S 
ATOM     68  O   UNL A   1      37.634  31.004  33.608  1.00  0.00    -0.237 OA
ATOM     69  O   UNL A   1      37.150  28.614  33.188  1.00  0.00    -0.237 OA
ATOM     70  O   UNL A   1      39.411  29.320  33.879  1.00  0.00    -0.744 OA
ENDBRANCH  63  67
ENDBRANCH  46  60
BRANCH  47  71
ATOM     71  C   UNL A   1      49.293  26.988  26.403  1.00  0.00     0.023 A 
ATOM     72  C   UNL A   1      49.695  27.395  25.120  1.00  0.00     0.031 A 
ATOM     73  C   UNL A   1      50.167  26.159  27.131  1.00  0.00     0.131 A 
ATOM     74  C   UNL A   1      50.910  26.934  24.585  1.00  0.00     0.055 A 
ATOM     75  C   UNL A   1      51.403  25.756  26.620  1.00  0.00     0.041 A 
ATOM     76  F   UNL A   1      49.829  25.724  28.354  1.00  0.00    -0.206 F 
ATOM     77  C   UNL A   1      51.774  26.133  25.333  1.00  0.00     0.022 A 
BRANCH  74  78
ATOM     78  S   UNL A   1      51.296  27.310  22.852  1.00  0.00     0.124 S 
ATOM     79  O   UNL A   1      52.352  26.344  22.568  1.00  0.00    -0.237 OA
ATOM     80  O   UNL A   1      50.016  27.072  22.194  1.00  0.00    -0.237 OA
ATOM     81  O   UNL A   1      51.724  28.706  22.893  1.00  0.00    -0.744 OA
ENDBRANCH  74  78
ENDBRANCH  47  71
BRANCH  59  82
ATOM     82  C   UNL A   1      46.601  32.989  28.759  1.00  0.00     0.023 A 
ATOM     83  C   UNL A   1      46.621  33.972  27.753  1.00  0.00     0.031 A 
ATOM     84  C   UNL A   1      47.163  33.314  30.007  1.00  0.00     0.131 A 
ATOM     85  C   UNL A   1      47.241  35.208  27.995  1.00  0.00     0.055 A 
ATOM     86  C   UNL A   1      47.717  34.569  30.264  1.00  0.00     0.041 A 
ATOM     87  F   UNL A   1      47.179  32.416  31.005  1.00  0.00    -0.206 F 
ATOM     88  C   UNL A   1      47.770  35.521  29.251  1.00  0.00     0.022 A 
BRANCH  85  89
ATOM     89  S   UNL A   1      47.438  36.373  26.618  1.00  0.00     0.124 S 
ATOM     90  O   UNL A   1      46.113  36.981  26.543  1.00  0.00    -0.237 OA
ATOM     91  O   UNL A   1      48.511  37.240  27.092  1.00  0.00    -0.237 OA
ATOM     92  O   UNL A   1      47.789  35.513  25.489  1.00  0.00    -0.744 OA
ENDBRANCH  85  89
ENDBRANCH  59  82
ENDBRANCH  33  34
ENDBRANCH  26  28
ENDBRANCH  25  26
ENDBRANCH  24  25
ENDBRANCH  23  24
ENDBRANCH  22  23
ENDBRANCH   1  22
TORSDOF 23
ENDMDL
MODEL 2
REMARK VINA RESULT:      -9.4      6.038     15.751
REMARK SMILES C=C(c1ccccc1)[C@@H](C(=O)OCCOCCOCCOC(=O)c1ccc(-c2c3nc(c(-c4cc(S(=O)(=O)[O-])ccc4F)c4ccc([nH]4)c(-c4cc(S(=O)(=O)[O-])ccc4F)c4nc(c(-c5cc(S(=O)(=O)[O-])ccc5F)c5ccc2[nH]5)C=C4)C=C3)cc1)S(C)(=O)=O
REMARK SMILES IDX 17 1 16 2 15 3 14 4 13 5 12 6 10 7 11 8 9 9 2 10 1 11 3 12
REMARK SMILES IDX 4 13 8 14 5 15 7 16 6 17 87 18 88 19 89 20 90 21 18 22 19 23
REMARK SMILES IDX 20 24 21 25 22 26 23 27 24 28 25 29 86 30 26 31 85 32 27 33
REMARK SMILES IDX 28 34 29 35 79 36 30 37 84 38 78 39 80 40 31 41 83 42 77 43
REMARK SMILES IDX 76 44 32 46 64 47 44 48 63 49 45 50 48 51 62 52 81 53 46 54
REMARK SMILES IDX 47 55 61 57 82 58 49 59 33 60 34 61 42 62 35 63 41 64 43 65
REMARK SMILES IDX 40 66 36 67 37 68 38 69 39 70 65 71 66 72 74 73 67 74 73 75
REMARK SMILES IDX 75 76 72 77 68 78 69 79 70 80 71 81 50 82 51 83 59 84 52 85
REMARK SMILES IDX 58 86 60 87 57 88 53 89 54 90 55 91 56 92
REMARK H PARENT 80 45 48 56
REMARK Flexibility Score: inf
ROOT
ATOM      1  C   UNL A   1      45.063  41.726  28.432  1.00  0.00     0.188 C 
ENDROOT
BRANCH   1   2
ATOM      2  C   UNL A   1      45.475  42.690  27.307  1.00  0.00     0.188 C 
BRANCH   2   3
ATOM      3  O   UNL A   1      45.151  42.350  25.961  1.00  0.00    -0.376 OA
BRANCH   3   4
ATOM      4  C   UNL A   1      43.981  42.900  25.373  1.00  0.00     0.202 C 
BRANCH   4   5
ATOM      5  C   UNL A   1      43.788  42.769  23.852  1.00  0.00     0.261 C 
BRANCH   5   6
ATOM      6  O   UNL A   1      44.900  43.204  23.029  1.00  0.00    -0.462 OA
BRANCH   6   7
ATOM      7  C   UNL A   1      44.810  44.458  22.507  1.00  0.00     0.328 C 
ATOM      8  O   UNL A   1      44.741  45.453  23.224  1.00  0.00    -0.250 OA
BRANCH   7   9
ATOM      9  C   UNL A   1      44.715  44.552  20.974  1.00  0.00     0.247 C 
BRANCH   9  10
ATOM     10  C   UNL A   1      43.555  43.949  20.164  1.00  0.00    -0.019 C 
ATOM     11  C   UNL A   1      43.072  42.688  20.209  1.00  0.00     0.015 C 
BRANCH  10  12
ATOM     12  C   UNL A   1      43.013  44.741  19.033  1.00  0.00    -0.021 A 
ATOM     13  C   UNL A   1      43.667  45.908  18.613  1.00  0.00     0.008 A 
ATOM     14  C   UNL A   1      41.937  44.259  18.268  1.00  0.00     0.008 A 
ATOM     15  C   UNL A   1      43.258  46.575  17.456  1.00  0.00     0.001 A 
ATOM     16  C   UNL A   1      41.538  44.922  17.104  1.00  0.00     0.001 A 
ATOM     17  C   UNL A   1      42.199  46.079  16.699  1.00  0.00     0.000 A 
ENDBRANCH  10  12
ENDBRANCH   9  10
BRANCH   9  18
ATOM     18  S   UNL A   1      46.330  44.033  20.333  1.00  0.00     0.165 S 
ATOM     19  C   UNL A   1      46.807  45.334  19.216  1.00  0.00     0.159 C 
ATOM     20  O   UNL A   1      47.308  44.089  21.403  1.00  0.00    -0.228 OA
ATOM     21  O   UNL A   1      46.178  42.820  19.548  1.00  0.00    -0.228 OA
ENDBRANCH   9  18
ENDBRANCH   7   9
ENDBRANCH   6   7
ENDBRANCH   5   6
ENDBRANCH   4   5
ENDBRANCH   3   4
ENDBRANCH   2   3
ENDBRANCH   1   2
BRANCH   1  22
ATOM     22  O   UNL A   1      44.262  40.653  27.988  1.00  0.00    -0.376 OA
BRANCH  22  23
ATOM     23  C   UNL A   1      44.727  39.343  28.220  1.00  0.00     0.202 C 
BRANCH  23  24
ATOM     24  C   UNL A   1      46.073  38.928  27.607  1.00  0.00     0.261 C 
BRANCH  24  25
ATOM     25  O   UNL A   1      46.248  37.539  27.275  1.00  0.00    -0.460 OA
BRANCH  25  26
ATOM     26  C   UNL A   1      46.831  36.748  28.202  1.00  0.00     0.338 C 
ATOM     27  O   UNL A   1      47.739  37.067  28.959  1.00  0.00    -0.246 OA
BRANCH  26  28
ATOM     28  C   UNL A   1      46.051  35.492  28.301  1.00  0.00     0.060 A 
ATOM     29  C   UNL A   1      46.397  34.547  29.276  1.00  0.00     0.016 A 
ATOM     30  C   UNL A   1      44.987  35.239  27.434  1.00  0.00     0.016 A 
ATOM     31  C   UNL A   1      45.694  33.344  29.381  1.00  0.00     0.010 A 
ATOM     32  C   UNL A   1      44.302  34.020  27.520  1.00  0.00     0.010 A 
ATOM     33  C   UNL A   1      44.665  33.053  28.478  1.00  0.00    -0.014 A 
BRANCH  33  34
ATOM     34  C   UNL A   1      44.090  31.681  28.409  1.00  0.00     0.031 A 
ATOM     35  C   UNL A   1      44.842  30.627  27.642  1.00  0.00     0.074 A 
ATOM     36  C   UNL A   1      42.936  31.361  29.025  1.00  0.00     0.049 A 
ATOM     37  N   UNL A   1      44.492  29.404  27.335  1.00  0.00    -0.248 NA
ATOM     38  C   UNL A   1      46.176  31.010  27.155  1.00  0.00     0.031 C 
ATOM     39  C   UNL A   1      42.152  32.259  29.871  1.00  0.00     0.029 A 
ATOM     40  N   UNL A   1      42.217  30.189  29.021  1.00  0.00    -0.354 N 
ATOM     41  C   UNL A   1      45.552  28.876  26.606  1.00  0.00     0.074 A 
ATOM     42  C   UNL A   1      46.544  29.926  26.490  1.00  0.00     0.031 C 
ATOM     43  C   UNL A   1      41.049  31.610  30.288  1.00  0.00     0.029 A 
ATOM     44  C   UNL A   1      41.022  30.271  29.699  1.00  0.00     0.049 A 
ATOM     45  H   UNL A   1      42.528  29.368  28.575  1.00  0.00     0.167 HD
ATOM     46  C   UNL A   1      45.689  27.633  26.084  1.00  0.00     0.034 A 
ATOM     47  C   UNL A   1      40.007  29.386  29.799  1.00  0.00     0.034 A 
ATOM     48  C   UNL A   1      44.688  26.599  26.196  1.00  0.00     0.049 A 
ATOM     49  C   UNL A   1      40.125  28.047  29.103  1.00  0.00     0.074 A 
ATOM     50  C   UNL A   1      44.725  25.306  25.702  1.00  0.00     0.029 A 
ATOM     51  N   UNL A   1      43.462  26.741  26.835  1.00  0.00    -0.354 N 
ATOM     52  N   UNL A   1      41.121  27.564  28.394  1.00  0.00    -0.248 NA
ATOM     53  C   UNL A   1      38.981  27.131  29.225  1.00  0.00     0.031 C 
ATOM     54  C   UNL A   1      43.493  24.698  25.967  1.00  0.00     0.029 A 
ATOM     55  C   UNL A   1      42.722  25.574  26.713  1.00  0.00     0.049 A 
ATOM     56  H   UNL A   1      43.163  27.552  27.307  1.00  0.00     0.167 HD
ATOM     57  C   UNL A   1      40.736  26.278  28.021  1.00  0.00     0.074 A 
ATOM     58  C   UNL A   1      39.424  26.056  28.591  1.00  0.00     0.031 C 
ATOM     59  C   UNL A   1      41.410  25.359  27.280  1.00  0.00     0.034 A 
BRANCH  46  60
ATOM     60  C   UNL A   1      46.941  27.347  25.288  1.00  0.00     0.023 A 
ATOM     61  C   UNL A   1      47.111  27.819  23.975  1.00  0.00     0.031 A 
ATOM     62  C   UNL A   1      47.967  26.562  25.843  1.00  0.00     0.131 A 
ATOM     63  C   UNL A   1      48.242  27.438  23.236  1.00  0.00     0.055 A 
ATOM     64  C   UNL A   1      49.131  26.260  25.133  1.00  0.00     0.041 A 
ATOM     65  F   UNL A   1      47.851  26.060  27.083  1.00  0.00    -0.206 F 
ATOM     66  C   UNL A   1      49.266  26.686  23.815  1.00  0.00     0.022 A 
BRANCH  63  67
ATOM     67  S   UNL A   1      48.282  27.810  21.461  1.00  0.00     0.124 S 
ATOM     68  O   UNL A   1      46.897  28.202  21.209  1.00  0.00    -0.237 OA
ATOM     69  O   UNL A   1      49.271  28.879  21.383  1.00  0.00    -0.237 OA
ATOM     70  O   UNL A   1      48.682  26.542  20.853  1.00  0.00    -0.744 OA
ENDBRANCH  63  67
ENDBRANCH  46  60
BRANCH  47  71
ATOM     71  C   UNL A   1      38.756  29.743  30.532  1.00  0.00     0.023 A 
ATOM     72  C   UNL A   1      37.781  30.571  29.952  1.00  0.00     0.031 A 
ATOM     73  C   UNL A   1      38.553  29.320  31.859  1.00  0.00     0.131 A 
ATOM     74  C   UNL A   1      36.675  30.990  30.711  1.00  0.00     0.055 A 
ATOM     75  C   UNL A   1      37.419  29.687  32.587  1.00  0.00     0.041 A 
ATOM     76  F   UNL A   1      39.459  28.543  32.471  1.00  0.00    -0.206 F 
ATOM     77  C   UNL A   1      36.478  30.539  32.017  1.00  0.00     0.022 A 
BRANCH  74  78
ATOM     78  S   UNL A   1      35.549  32.223  29.999  1.00  0.00     0.124 S 
ATOM     79  O   UNL A   1      34.563  32.372  31.063  1.00  0.00    -0.237 OA
ATOM     80  O   UNL A   1      36.437  33.360  29.783  1.00  0.00    -0.237 OA
ATOM     81  O   UNL A   1      35.060  31.576  28.783  1.00  0.00    -0.744 OA
ENDBRANCH  74  78
ENDBRANCH  47  71
BRANCH  59  82
ATOM     82  C   UNL A   1      40.767  24.002  27.096  1.00  0.00     0.023 A 
ATOM     83  C   UNL A   1      39.637  23.814  26.280  1.00  0.00     0.031 A 
ATOM     84  C   UNL A   1      41.300  22.877  27.751  1.00  0.00     0.131 A 
ATOM     85  C   UNL A   1      39.045  22.544  26.187  1.00  0.00     0.055 A 
ATOM     86  C   UNL A   1      40.749  21.603  27.600  1.00  0.00     0.041 A 
ATOM     87  F   UNL A   1      42.375  22.994  28.547  1.00  0.00    -0.206 F 
ATOM     88  C   UNL A   1      39.606  21.433  26.824  1.00  0.00     0.022 A 
BRANCH  85  89
ATOM     89  S   UNL A   1      37.471  22.375  25.300  1.00  0.00     0.124 S 
ATOM     90  O   UNL A   1      37.672  21.133  24.560  1.00  0.00    -0.237 OA
ATOM     91  O   UNL A   1      36.503  22.318  26.389  1.00  0.00    -0.237 OA
ATOM     92  O   UNL A   1      37.409  23.583  24.478  1.00  0.00    -0.744 OA
ENDBRANCH  85  89
ENDBRANCH  59  82
ENDBRANCH  33  34
ENDBRANCH  26  28
ENDBRANCH  25  26
ENDBRANCH  24  25
ENDBRANCH  23  24
ENDBRANCH  22  23
ENDBRANCH   1  22
TORSDOF 23
ENDMDL
MODEL 3
REMARK VINA RESULT:      -9.3      2.239      8.301
REMARK SMILES C=C(c1ccccc1)[C@@H](C(=O)OCCOCCOCCOC(=O)c1ccc(-c2c3nc(c(-c4cc(S(=O)(=O)[O-])ccc4F)c4ccc([nH]4)c(-c4cc(S(=O)(=O)[O-])ccc4F)c4nc(c(-c5cc(S(=O)(=O)[O-])ccc5F)c5ccc2[nH]5)C=C4)C=C3)cc1)S(C)(=O)=O
REMARK SMILES IDX 17 1 16 2 15 3 14 4 13 5 12 6 10 7 11 8 9 9 2 10 1 11 3 12
REMARK SMILES IDX 4 13 8 14 5 15 7 16 6 17 87 18 88 19 89 20 90 21 18 22 19 23
REMARK SMILES IDX 20 24 21 25 22 26 23 27 24 28 25 29 86 30 26 31 85 32 27 33
REMARK SMILES IDX 28 34 29 35 79 36 30 37 84 38 78 39 80 40 31 41 83 42 77 43
REMARK SMILES IDX 76 44 32 46 64 47 44 48 63 49 45 50 48 51 62 52 81 53 46 54
REMARK SMILES IDX 47 55 61 57 82 58 49 59 33 60 34 61 42 62 35 63 41 64 43 65
REMARK SMILES IDX 40 66 36 67 37 68 38 69 39 70 65 71 66 72 74 73 67 74 73 75
REMARK SMILES IDX 75 76 72 77 68 78 69 79 70 80 71 81 50 82 51 83 59 84 52 85
REMARK SMILES IDX 58 86 60 87 57 88 53 89 54 90 55 91 56 92
REMARK H PARENT 80 45 48 56
REMARK Flexibility Score: inf
ROOT
ATOM      1  C   UNL A   1      39.643  21.632  26.176  1.00  0.00     0.188 C 
ENDROOT
BRANCH   1   2
ATOM      2  C   UNL A   1      38.514  20.781  25.569  1.00  0.00     0.188 C 
BRANCH   2   3
ATOM      3  O   UNL A   1      37.238  21.383  25.363  1.00  0.00    -0.376 OA
BRANCH   3   4
ATOM      4  C   UNL A   1      37.149  22.552  24.563  1.00  0.00     0.202 C 
BRANCH   4   5
ATOM      5  C   UNL A   1      36.206  22.544  23.347  1.00  0.00     0.261 C 
BRANCH   5   6
ATOM      6  O   UNL A   1      35.723  23.839  22.906  1.00  0.00    -0.462 OA
BRANCH   6   7
ATOM      7  C   UNL A   1      34.412  24.110  23.152  1.00  0.00     0.328 C 
ATOM      8  O   UNL A   1      33.521  23.323  22.842  1.00  0.00    -0.250 OA
BRANCH   7   9
ATOM      9  C   UNL A   1      34.104  25.487  23.762  1.00  0.00     0.247 C 
BRANCH   9  10
ATOM     10  C   UNL A   1      33.599  25.676  25.202  1.00  0.00    -0.019 C 
ATOM     11  C   UNL A   1      33.528  26.818  25.920  1.00  0.00     0.015 C 
BRANCH  10  12
ATOM     12  C   UNL A   1      33.351  24.460  26.016  1.00  0.00    -0.021 A 
ATOM     13  C   UNL A   1      34.428  23.712  26.511  1.00  0.00     0.008 A 
ATOM     14  C   UNL A   1      32.051  24.127  26.433  1.00  0.00     0.008 A 
ATOM     15  C   UNL A   1      34.213  22.660  27.403  1.00  0.00     0.001 A 
ATOM     16  C   UNL A   1      31.839  23.081  27.336  1.00  0.00     0.001 A 
ATOM     17  C   UNL A   1      32.921  22.350  27.821  1.00  0.00     0.000 A 
ENDBRANCH  10  12
ENDBRANCH   9  10
BRANCH   9  18
ATOM     18  S   UNL A   1      33.058  26.353  22.560  1.00  0.00     0.165 S 
ATOM     19  C   UNL A   1      33.565  28.056  22.671  1.00  0.00     0.159 C 
ATOM     20  O   UNL A   1      33.433  25.944  21.220  1.00  0.00    -0.228 OA
ATOM     21  O   UNL A   1      31.669  26.284  22.980  1.00  0.00    -0.228 OA
ENDBRANCH   9  18
ENDBRANCH   7   9
ENDBRANCH   6   7
ENDBRANCH   5   6
ENDBRANCH   4   5
ENDBRANCH   3   4
ENDBRANCH   2   3
ENDBRANCH   1   2
BRANCH   1  22
ATOM     22  O   UNL A   1      40.909  21.016  26.110  1.00  0.00    -0.376 OA
BRANCH  22  23
ATOM     23  C   UNL A   1      40.962  19.609  26.174  1.00  0.00     0.202 C 
BRANCH  23  24
ATOM     24  C   UNL A   1      42.320  18.919  25.969  1.00  0.00     0.261 C 
BRANCH  24  25
ATOM     25  O   UNL A   1      42.996  19.147  24.721  1.00  0.00    -0.460 OA
BRANCH  25  26
ATOM     26  C   UNL A   1      44.267  19.603  24.777  1.00  0.00     0.338 C 
ATOM     27  O   UNL A   1      45.264  19.019  24.372  1.00  0.00    -0.246 OA
BRANCH  26  28
ATOM     28  C   UNL A   1      44.237  21.018  25.217  1.00  0.00     0.060 A 
ATOM     29  C   UNL A   1      43.998  22.022  24.271  1.00  0.00     0.016 A 
ATOM     30  C   UNL A   1      44.448  21.357  26.553  1.00  0.00     0.016 A 
ATOM     31  C   UNL A   1      43.984  23.367  24.651  1.00  0.00     0.010 A 
ATOM     32  C   UNL A   1      44.463  22.706  26.929  1.00  0.00     0.010 A 
ATOM     33  C   UNL A   1      44.255  23.723  25.976  1.00  0.00    -0.014 A 
BRANCH  33  34
ATOM     34  C   UNL A   1      44.503  25.147  26.338  1.00  0.00     0.031 A 
ATOM     35  C   UNL A   1      45.886  25.706  26.139  1.00  0.00     0.074 A 
ATOM     36  C   UNL A   1      43.526  25.941  26.815  1.00  0.00     0.049 A 
ATOM     37  N   UNL A   1      46.379  26.867  26.489  1.00  0.00    -0.248 NA
ATOM     38  C   UNL A   1      46.845  24.830  25.448  1.00  0.00     0.031 C 
ATOM     39  C   UNL A   1      42.125  25.554  26.974  1.00  0.00     0.029 A 
ATOM     40  N   UNL A   1      43.570  27.239  27.265  1.00  0.00    -0.354 N 
ATOM     41  C   UNL A   1      47.708  26.856  26.078  1.00  0.00     0.074 A 
ATOM     42  C   UNL A   1      47.949  25.558  25.480  1.00  0.00     0.031 C 
ATOM     43  C   UNL A   1      41.447  26.588  27.505  1.00  0.00     0.029 A 
ATOM     44  C   UNL A   1      42.372  27.690  27.772  1.00  0.00     0.049 A 
ATOM     45  H   UNL A   1      44.382  27.794  27.228  1.00  0.00     0.167 HD
ATOM     46  C   UNL A   1      48.638  27.836  26.184  1.00  0.00     0.034 A 
ATOM     47  C   UNL A   1      42.067  28.839  28.412  1.00  0.00     0.034 A 
ATOM     48  C   UNL A   1      48.387  29.120  26.792  1.00  0.00     0.049 A 
ATOM     49  C   UNL A   1      43.152  29.870  28.633  1.00  0.00     0.074 A 
ATOM     50  C   UNL A   1      49.261  30.182  26.954  1.00  0.00     0.029 A 
ATOM     51  N   UNL A   1      47.179  29.515  27.353  1.00  0.00    -0.354 N 
ATOM     52  N   UNL A   1      44.413  29.843  28.263  1.00  0.00    -0.248 NA
ATOM     53  C   UNL A   1      42.770  31.092  29.357  1.00  0.00     0.031 C 
ATOM     54  C   UNL A   1      48.608  31.181  27.684  1.00  0.00     0.029 A 
ATOM     55  C   UNL A   1      47.297  30.787  27.894  1.00  0.00     0.049 A 
ATOM     56  H   UNL A   1      46.358  28.971  27.364  1.00  0.00     0.167 HD
ATOM     57  C   UNL A   1      44.959  31.057  28.676  1.00  0.00     0.074 A 
ATOM     58  C   UNL A   1      43.891  31.797  29.313  1.00  0.00     0.031 C 
ATOM     59  C   UNL A   1      46.229  31.520  28.534  1.00  0.00     0.034 A 
BRANCH  46  60
ATOM     60  C   UNL A   1      50.031  27.527  25.688  1.00  0.00     0.023 A 
ATOM     61  C   UNL A   1      50.427  27.797  24.366  1.00  0.00     0.031 A 
ATOM     62  C   UNL A   1      50.968  26.920  26.543  1.00  0.00     0.131 A 
ATOM     63  C   UNL A   1      51.695  27.394  23.919  1.00  0.00     0.055 A 
ATOM     64  C   UNL A   1      52.258  26.602  26.117  1.00  0.00     0.041 A 
ATOM     65  F   UNL A   1      50.640  26.612  27.809  1.00  0.00    -0.206 F 
ATOM     66  C   UNL A   1      52.623  26.824  24.793  1.00  0.00     0.022 A 
BRANCH  63  67
ATOM     67  S   UNL A   1      52.057  27.483  22.144  1.00  0.00     0.124 S 
ATOM     68  O   UNL A   1      50.715  27.594  21.574  1.00  0.00    -0.237 OA
ATOM     69  O   UNL A   1      52.889  28.676  22.049  1.00  0.00    -0.237 OA
ATOM     70  O   UNL A   1      52.740  26.220  21.868  1.00  0.00    -0.744 OA
ENDBRANCH  63  67
ENDBRANCH  46  60
BRANCH  47  71
ATOM     71  C   UNL A   1      40.694  29.066  28.953  1.00  0.00     0.023 A 
ATOM     72  C   UNL A   1      40.431  28.997  30.331  1.00  0.00     0.031 A 
ATOM     73  C   UNL A   1      39.604  29.281  28.088  1.00  0.00     0.131 A 
ATOM     74  C   UNL A   1      39.110  29.092  30.800  1.00  0.00     0.055 A 
ATOM     75  C   UNL A   1      38.301  29.440  28.564  1.00  0.00     0.041 A 
ATOM     76  F   UNL A   1      39.792  29.338  26.761  1.00  0.00    -0.206 F 
ATOM     77  C   UNL A   1      38.046  29.331  29.927  1.00  0.00     0.022 A 
BRANCH  74  78
ATOM     78  S   UNL A   1      38.787  28.791  32.560  1.00  0.00     0.124 S 
ATOM     79  O   UNL A   1      40.123  28.478  33.056  1.00  0.00    -0.237 OA
ATOM     80  O   UNL A   1      38.226  30.067  32.991  1.00  0.00    -0.237 OA
ATOM     81  O   UNL A   1      37.848  27.671  32.548  1.00  0.00    -0.744 OA
ENDBRANCH  74  78
ENDBRANCH  47  71
BRANCH  59  82
ATOM     82  C   UNL A   1      46.518  32.923  29.021  1.00  0.00     0.023 A 
ATOM     83  C   UNL A   1      46.972  33.184  30.326  1.00  0.00     0.031 A 
ATOM     84  C   UNL A   1      46.337  34.019  28.157  1.00  0.00     0.131 A 
ATOM     85  C   UNL A   1      47.173  34.508  30.746  1.00  0.00     0.055 A 
ATOM     86  C   UNL A   1      46.604  35.329  28.559  1.00  0.00     0.041 A 
ATOM     87  F   UNL A   1      45.901  33.835  26.900  1.00  0.00    -0.206 F 
ATOM     88  C   UNL A   1      47.013  35.581  29.864  1.00  0.00     0.022 A 
BRANCH  85  89
ATOM     89  S   UNL A   1      47.553  34.825  32.492  1.00  0.00     0.124 S 
ATOM     90  O   UNL A   1      47.355  36.268  32.589  1.00  0.00    -0.237 OA
ATOM     91  O   UNL A   1      46.567  33.999  33.181  1.00  0.00    -0.237 OA
ATOM     92  O   UNL A   1      48.938  34.378  32.629  1.00  0.00    -0.744 OA
ENDBRANCH  85  89
ENDBRANCH  59  82
ENDBRANCH  33  34
ENDBRANCH  26  28
ENDBRANCH  25  26
ENDBRANCH  24  25
ENDBRANCH  23  24
ENDBRANCH  22  23
ENDBRANCH   1  22
TORSDOF 23
ENDMDL
