MODEL 1
REMARK VINA RESULT:      -7.1      0.000      0.000
REMARK SMILES COc1cccc2c(C)cc(S[C@H](C)C(=O)Nc3ccc(C(=O)OCCOCCOCCOC(=O)c4ccc(-c5c6nc(c(-c7cc(S(=O)(=O)[O-])ccc7F)c7ccc([nH]7)c(-c7cc(S(=O)(=O)[O-])ccc7F)c7nc(c(-c8cc(S(=O)(=O)[O-])ccc8F)c8ccc5[nH]8)C=C7)C=C6)cc4)cc3)nc12
REMARK SMILES IDX 28 1 27 2 26 3 25 4 24 5 22 6 23 7 21 8 18 9 19 10 100 11
REMARK SMILES IDX 20 12 99 13 17 14 15 15 16 16 13 18 14 19 12 20 11 21 3 22
REMARK SMILES IDX 4 23 102 24 5 25 7 26 101 27 6 28 8 29 9 30 10 31 2 32 1 33
REMARK SMILES IDX 29 34 30 35 31 36 32 37 33 38 34 39 35 40 36 41 37 42 98 43
REMARK SMILES IDX 38 44 97 45 39 46 40 47 41 48 91 49 42 50 96 51 90 52 92 53
REMARK SMILES IDX 43 54 95 55 89 56 88 57 44 59 76 60 56 61 75 62 57 63 60 64
REMARK SMILES IDX 74 65 93 66 58 67 59 68 73 70 94 71 61 72 45 73 46 74 54 75
REMARK SMILES IDX 47 76 53 77 55 78 52 79 48 80 49 81 50 82 51 83 77 84 78 85
REMARK SMILES IDX 86 86 79 87 85 88 87 89 84 90 80 91 81 92 82 93 83 94 62 95
REMARK SMILES IDX 63 96 71 97 64 98 70 99 72 100 69 101 65 102 66 103 67 104
REMARK SMILES IDX 68 105
REMARK H PARENT 17 17 92 58 60 69
REMARK Flexibility Score: inf
ROOT
ATOM      1  C   UNL A   1      34.312  36.438  33.015  1.00  0.00     0.188 C 
ENDROOT
BRANCH   1   2
ATOM      2  O   UNL A   1      34.527  35.148  33.563  1.00  0.00    -0.376 OA
BRANCH   2   3
ATOM      3  C   UNL A   1      35.688  34.401  33.237  1.00  0.00     0.202 C 
BRANCH   3   4
ATOM      4  C   UNL A   1      36.555  33.806  34.344  1.00  0.00     0.261 C 
BRANCH   4   5
ATOM      5  O   UNL A   1      37.008  32.483  34.040  1.00  0.00    -0.460 OA
BRANCH   5   6
ATOM      6  C   UNL A   1      37.732  31.888  35.020  1.00  0.00     0.338 C 
ATOM      7  O   UNL A   1      37.472  31.873  36.212  1.00  0.00    -0.246 OA
BRANCH   6   8
ATOM      8  C   UNL A   1      38.839  31.111  34.422  1.00  0.00     0.060 A 
ATOM      9  C   UNL A   1      40.831  29.477  33.380  1.00  0.00     0.041 A 
ATOM     10  C   UNL A   1      39.522  29.344  32.916  1.00  0.00     0.027 A 
ATOM     11  C   UNL A   1      41.171  30.525  34.237  1.00  0.00     0.027 A 
ATOM     12  C   UNL A   1      38.519  30.145  33.461  1.00  0.00     0.018 A 
ATOM     13  C   UNL A   1      40.173  31.333  34.778  1.00  0.00     0.018 A 
BRANCH   9  14
ATOM     14  N   UNL A   1      41.756  28.496  33.021  1.00  0.00    -0.325 N 
ATOM     15  C   UNL A   1      42.674  27.855  33.807  1.00  0.00     0.237 C 
ATOM     16  O   UNL A   1      43.430  27.051  33.240  1.00  0.00    -0.273 OA
ATOM     17  H   UNL A   1      41.747  28.228  32.073  1.00  0.00     0.169 HD
BRANCH  15  18
ATOM     18  C   UNL A   1      42.819  28.039  35.332  1.00  0.00     0.139 C 
ATOM     19  C   UNL A   1      41.758  27.295  36.136  1.00  0.00     0.030 C 
BRANCH  18  20
ATOM     20  S   UNL A   1      44.505  27.668  35.954  1.00  0.00    -0.093 SA
BRANCH  20  21
ATOM     21  C   UNL A   1      45.250  29.198  36.426  1.00  0.00     0.098 A 
ATOM     22  C   UNL A   1      48.706  30.011  37.250  1.00  0.00     0.145 A 
ATOM     23  C   UNL A   1      49.476  31.081  37.717  1.00  0.00     0.049 A 
ATOM     24  C   UNL A   1      47.323  30.137  37.017  1.00  0.00     0.114 A 
ATOM     25  C   UNL A   1      48.891  32.319  37.921  1.00  0.00     0.005 A 
ATOM     26  C   UNL A   1      46.726  31.399  37.239  1.00  0.00     0.007 A 
ATOM     27  N   UNL A   1      46.581  29.082  36.621  1.00  0.00    -0.238 NA
ATOM     28  C   UNL A   1      47.530  32.478  37.678  1.00  0.00     0.011 A 
ATOM     29  C   UNL A   1      45.331  31.518  37.026  1.00  0.00    -0.039 A 
ATOM     30  C   UNL A   1      44.598  32.817  37.229  1.00  0.00     0.045 C 
ATOM     31  C   UNL A   1      44.595  30.393  36.636  1.00  0.00     0.039 A 
BRANCH  22  32
ATOM     32  O   UNL A   1      49.409  28.833  37.128  1.00  0.00    -0.494 OA
ATOM     33  C   UNL A   1      49.922  28.347  38.370  1.00  0.00     0.278 C 
ENDBRANCH  22  32
ENDBRANCH  20  21
ENDBRANCH  18  20
ENDBRANCH  15  18
ENDBRANCH   9  14
ENDBRANCH   6   8
ENDBRANCH   5   6
ENDBRANCH   4   5
ENDBRANCH   3   4
ENDBRANCH   2   3
ENDBRANCH   1   2
BRANCH   1  34
ATOM     34  C   UNL A   1      32.943  36.844  32.427  1.00  0.00     0.188 C 
BRANCH  34  35
ATOM     35  O   UNL A   1      32.830  37.331  31.100  1.00  0.00    -0.376 OA
BRANCH  35  36
ATOM     36  C   UNL A   1      32.645  36.402  30.045  1.00  0.00     0.202 C 
BRANCH  36  37
ATOM     37  C   UNL A   1      33.703  35.323  29.812  1.00  0.00     0.261 C 
BRANCH  37  38
ATOM     38  O   UNL A   1      33.142  34.013  29.646  1.00  0.00    -0.460 OA
BRANCH  38  39
ATOM     39  C   UNL A   1      33.727  33.250  28.690  1.00  0.00     0.338 C 
ATOM     40  O   UNL A   1      33.285  32.982  27.586  1.00  0.00    -0.246 OA
BRANCH  39  41
ATOM     41  C   UNL A   1      35.098  32.914  29.117  1.00  0.00     0.060 A 
ATOM     42  C   UNL A   1      36.168  33.359  28.331  1.00  0.00     0.016 A 
ATOM     43  C   UNL A   1      35.324  32.149  30.262  1.00  0.00     0.016 A 
ATOM     44  C   UNL A   1      37.477  33.038  28.691  1.00  0.00     0.010 A 
ATOM     45  C   UNL A   1      36.635  31.809  30.607  1.00  0.00     0.010 A 
ATOM     46  C   UNL A   1      37.717  32.243  29.819  1.00  0.00    -0.014 A 
BRANCH  46  47
ATOM     47  C   UNL A   1      39.088  31.773  30.133  1.00  0.00     0.031 A 
ATOM     48  C   UNL A   1      39.962  32.611  31.022  1.00  0.00     0.074 A 
ATOM     49  C   UNL A   1      39.553  30.625  29.608  1.00  0.00     0.049 A 
ATOM     50  N   UNL A   1      41.222  32.454  31.331  1.00  0.00    -0.248 NA
ATOM     51  C   UNL A   1      39.326  33.783  31.642  1.00  0.00     0.031 C 
ATOM     52  C   UNL A   1      38.780  29.705  28.774  1.00  0.00     0.029 A 
ATOM     53  N   UNL A   1      40.796  30.050  29.682  1.00  0.00    -0.354 N 
ATOM     54  C   UNL A   1      41.534  33.505  32.186  1.00  0.00     0.074 A 
ATOM     55  C   UNL A   1      40.336  34.306  32.322  1.00  0.00     0.031 C 
ATOM     56  C   UNL A   1      39.578  28.692  28.392  1.00  0.00     0.029 A 
ATOM     57  C   UNL A   1      40.924  28.917  28.913  1.00  0.00     0.049 A 
ATOM     58  H   UNL A   1      41.527  30.412  30.234  1.00  0.00     0.167 HD
ATOM     59  C   UNL A   1      42.714  33.773  32.800  1.00  0.00     0.034 A 
ATOM     60  C   UNL A   1      42.015  28.175  28.626  1.00  0.00     0.034 A 
ATOM     61  C   UNL A   1      43.907  32.983  32.630  1.00  0.00     0.049 A 
ATOM     62  C   UNL A   1      43.349  28.572  29.215  1.00  0.00     0.074 A 
ATOM     63  C   UNL A   1      45.148  33.156  33.219  1.00  0.00     0.029 A 
ATOM     64  N   UNL A   1      44.019  31.882  31.790  1.00  0.00    -0.354 N 
ATOM     65  N   UNL A   1      43.631  29.562  30.031  1.00  0.00    -0.248 NA
ATOM     66  C   UNL A   1      44.509  27.755  28.838  1.00  0.00     0.031 C 
ATOM     67  C   UNL A   1      46.027  32.209  32.681  1.00  0.00     0.029 A 
ATOM     68  C   UNL A   1      45.318  31.396  31.810  1.00  0.00     0.049 A 
ATOM     69  H   UNL A   1      43.283  31.503  31.257  1.00  0.00     0.167 HD
ATOM     70  C   UNL A   1      44.999  29.471  30.278  1.00  0.00     0.074 A 
ATOM     71  C   UNL A   1      45.479  28.321  29.541  1.00  0.00     0.031 C 
ATOM     72  C   UNL A   1      45.788  30.263  31.050  1.00  0.00     0.034 A 
BRANCH  59  73
ATOM     73  C   UNL A   1      42.775  35.005  33.666  1.00  0.00     0.023 A 
ATOM     74  C   UNL A   1      43.102  36.265  33.137  1.00  0.00     0.031 A 
ATOM     75  C   UNL A   1      42.521  34.913  35.046  1.00  0.00     0.131 A 
ATOM     76  C   UNL A   1      43.226  37.371  33.992  1.00  0.00     0.055 A 
ATOM     77  C   UNL A   1      42.578  36.031  35.880  1.00  0.00     0.041 A 
ATOM     78  F   UNL A   1      42.226  33.731  35.609  1.00  0.00    -0.206 F 
ATOM     79  C   UNL A   1      42.944  37.267  35.356  1.00  0.00     0.022 A 
BRANCH  76  80
ATOM     80  S   UNL A   1      43.879  38.922  33.315  1.00  0.00     0.124 S 
ATOM     81  O   UNL A   1      43.796  38.676  31.876  1.00  0.00    -0.237 OA
ATOM     82  O   UNL A   1      42.952  39.914  33.847  1.00  0.00    -0.237 OA
ATOM     83  O   UNL A   1      45.237  38.984  33.851  1.00  0.00    -0.744 OA
ENDBRANCH  76  80
ENDBRANCH  59  73
BRANCH  60  84
ATOM     84  C   UNL A   1      41.925  27.026  27.681  1.00  0.00     0.023 A 
ATOM     85  C   UNL A   1      41.819  25.707  28.150  1.00  0.00     0.031 A 
ATOM     86  C   UNL A   1      42.020  27.226  26.292  1.00  0.00     0.131 A 
ATOM     87  C   UNL A   1      41.861  24.637  27.243  1.00  0.00     0.055 A 
ATOM     88  C   UNL A   1      42.005  26.162  25.390  1.00  0.00     0.041 A 
ATOM     89  F   UNL A   1      42.130  28.467  25.790  1.00  0.00    -0.206 F 
ATOM     90  C   UNL A   1      41.940  24.856  25.865  1.00  0.00     0.022 A 
BRANCH  87  91
ATOM     91  S   UNL A   1      41.908  22.946  27.898  1.00  0.00     0.124 S 
ATOM     92  O   UNL A   1      42.802  22.286  26.953  1.00  0.00    -0.237 OA
ATOM     93  O   UNL A   1      42.436  23.157  29.242  1.00  0.00    -0.237 OA
ATOM     94  O   UNL A   1      40.511  22.519  27.839  1.00  0.00    -0.744 OA
ENDBRANCH  87  91
ENDBRANCH  60  84
BRANCH  72  95
ATOM     95  C   UNL A   1      47.247  29.889  31.149  1.00  0.00     0.023 A 
ATOM     96  C   UNL A   1      47.705  28.943  32.083  1.00  0.00     0.031 A 
ATOM     97  C   UNL A   1      48.192  30.494  30.301  1.00  0.00     0.131 A 
ATOM     98  C   UNL A   1      49.077  28.663  32.179  1.00  0.00     0.055 A 
ATOM     99  C   UNL A   1      49.549  30.171  30.364  1.00  0.00     0.041 A 
ATOM    100  F   UNL A   1      47.810  31.405  29.392  1.00  0.00    -0.206 F 
ATOM    101  C   UNL A   1      49.999  29.260  31.314  1.00  0.00     0.022 A 
BRANCH  98 102
ATOM    102  S   UNL A   1      49.653  27.562  33.499  1.00  0.00     0.124 S 
ATOM    103  O   UNL A   1      50.092  26.391  32.748  1.00  0.00    -0.237 OA
ATOM    104  O   UNL A   1      50.710  28.349  34.126  1.00  0.00    -0.237 OA
ATOM    105  O   UNL A   1      48.462  27.360  34.323  1.00  0.00    -0.744 OA
ENDBRANCH  98 102
ENDBRANCH  72  95
ENDBRANCH  46  47
ENDBRANCH  39  41
ENDBRANCH  38  39
ENDBRANCH  37  38
ENDBRANCH  36  37
ENDBRANCH  35  36
ENDBRANCH  34  35
ENDBRANCH   1  34
TORSDOF 25
ENDMDL
MODEL 2
REMARK VINA RESULT:      -6.8      4.144      6.536
REMARK SMILES COc1cccc2c(C)cc(S[C@H](C)C(=O)Nc3ccc(C(=O)OCCOCCOCCOC(=O)c4ccc(-c5c6nc(c(-c7cc(S(=O)(=O)[O-])ccc7F)c7ccc([nH]7)c(-c7cc(S(=O)(=O)[O-])ccc7F)c7nc(c(-c8cc(S(=O)(=O)[O-])ccc8F)c8ccc5[nH]8)C=C7)C=C6)cc4)cc3)nc12
REMARK SMILES IDX 28 1 27 2 26 3 25 4 24 5 22 6 23 7 21 8 18 9 19 10 100 11
REMARK SMILES IDX 20 12 99 13 17 14 15 15 16 16 13 18 14 19 12 20 11 21 3 22
REMARK SMILES IDX 4 23 102 24 5 25 7 26 101 27 6 28 8 29 9 30 10 31 2 32 1 33
REMARK SMILES IDX 29 34 30 35 31 36 32 37 33 38 34 39 35 40 36 41 37 42 98 43
REMARK SMILES IDX 38 44 97 45 39 46 40 47 41 48 91 49 42 50 96 51 90 52 92 53
REMARK SMILES IDX 43 54 95 55 89 56 88 57 44 59 76 60 56 61 75 62 57 63 60 64
REMARK SMILES IDX 74 65 93 66 58 67 59 68 73 70 94 71 61 72 45 73 46 74 54 75
REMARK SMILES IDX 47 76 53 77 55 78 52 79 48 80 49 81 50 82 51 83 77 84 78 85
REMARK SMILES IDX 86 86 79 87 85 88 87 89 84 90 80 91 81 92 82 93 83 94 62 95
REMARK SMILES IDX 63 96 71 97 64 98 70 99 72 100 69 101 65 102 66 103 67 104
REMARK SMILES IDX 68 105
REMARK H PARENT 17 17 92 58 60 69
REMARK Flexibility Score: inf
ROOT
ATOM      1  C   UNL A   1      33.734  36.958  32.935  1.00  0.00     0.188 C 
ENDROOT
BRANCH   1   2
ATOM      2  O   UNL A   1      34.473  36.191  33.871  1.00  0.00    -0.376 OA
BRANCH   2   3
ATOM      3  C   UNL A   1      35.002  34.923  33.520  1.00  0.00     0.202 C 
BRANCH   3   4
ATOM      4  C   UNL A   1      36.512  34.698  33.504  1.00  0.00     0.261 C 
BRANCH   4   5
ATOM      5  O   UNL A   1      36.987  34.055  34.691  1.00  0.00    -0.460 OA
BRANCH   5   6
ATOM      6  C   UNL A   1      38.195  34.486  35.130  1.00  0.00     0.338 C 
ATOM      7  O   UNL A   1      38.933  35.282  34.571  1.00  0.00    -0.246 OA
BRANCH   6   8
ATOM      8  C   UNL A   1      38.451  33.961  36.488  1.00  0.00     0.060 A 
ATOM      9  C   UNL A   1      39.135  32.972  38.993  1.00  0.00     0.041 A 
ATOM     10  C   UNL A   1      39.564  34.245  38.618  1.00  0.00     0.027 A 
ATOM     11  C   UNL A   1      38.239  32.266  38.190  1.00  0.00     0.027 A 
ATOM     12  C   UNL A   1      39.243  34.729  37.350  1.00  0.00     0.018 A 
ATOM     13  C   UNL A   1      37.910  32.748  36.924  1.00  0.00     0.018 A 
BRANCH   9  14
ATOM     14  N   UNL A   1      39.687  32.408  40.145  1.00  0.00    -0.325 N 
ATOM     15  C   UNL A   1      39.181  32.391  41.417  1.00  0.00     0.237 C 
ATOM     16  O   UNL A   1      39.891  31.870  42.291  1.00  0.00    -0.273 OA
ATOM     17  H   UNL A   1      40.557  31.963  40.026  1.00  0.00     0.169 HD
BRANCH  15  18
ATOM     18  C   UNL A   1      37.802  32.943  41.831  1.00  0.00     0.139 C 
ATOM     19  C   UNL A   1      37.621  34.423  41.510  1.00  0.00     0.030 C 
BRANCH  18  20
ATOM     20  S   UNL A   1      36.398  31.949  41.194  1.00  0.00    -0.093 SA
BRANCH  20  21
ATOM     21  C   UNL A   1      35.020  32.221  42.266  1.00  0.00     0.098 A 
ATOM     22  C   UNL A   1      32.313  34.655  42.096  1.00  0.00     0.145 A 
ATOM     23  C   UNL A   1      31.216  35.096  42.843  1.00  0.00     0.049 A 
ATOM     24  C   UNL A   1      33.132  33.596  42.532  1.00  0.00     0.114 A 
ATOM     25  C   UNL A   1      30.881  34.458  44.024  1.00  0.00     0.005 A 
ATOM     26  C   UNL A   1      32.795  32.955  43.746  1.00  0.00     0.007 A 
ATOM     27  N   UNL A   1      34.220  33.218  41.831  1.00  0.00    -0.238 NA
ATOM     28  C   UNL A   1      31.660  33.393  44.469  1.00  0.00     0.011 A 
ATOM     29  C   UNL A   1      33.632  31.905  44.194  1.00  0.00    -0.039 A 
ATOM     30  C   UNL A   1      33.361  31.153  45.470  1.00  0.00     0.045 C 
ATOM     31  C   UNL A   1      34.764  31.559  43.447  1.00  0.00     0.039 A 
BRANCH  22  32
ATOM     32  O   UNL A   1      32.551  35.405  40.964  1.00  0.00    -0.494 OA
ATOM     33  C   UNL A   1      31.566  36.414  40.734  1.00  0.00     0.278 C 
ENDBRANCH  22  32
ENDBRANCH  20  21
ENDBRANCH  18  20
ENDBRANCH  15  18
ENDBRANCH   9  14
ENDBRANCH   6   8
ENDBRANCH   5   6
ENDBRANCH   4   5
ENDBRANCH   3   4
ENDBRANCH   2   3
ENDBRANCH   1   2
BRANCH   1  34
ATOM     34  C   UNL A   1      32.610  36.323  32.086  1.00  0.00     0.188 C 
BRANCH  34  35
ATOM     35  O   UNL A   1      32.336  36.782  30.773  1.00  0.00    -0.376 OA
BRANCH  35  36
ATOM     36  C   UNL A   1      32.990  36.157  29.681  1.00  0.00     0.202 C 
BRANCH  36  37
ATOM     37  C   UNL A   1      34.059  35.100  29.962  1.00  0.00     0.261 C 
BRANCH  37  38
ATOM     38  O   UNL A   1      33.558  33.758  29.874  1.00  0.00    -0.460 OA
BRANCH  38  39
ATOM     39  C   UNL A   1      33.953  33.064  28.777  1.00  0.00     0.338 C 
ATOM     40  O   UNL A   1      33.375  32.984  27.707  1.00  0.00    -0.246 OA
BRANCH  39  41
ATOM     41  C   UNL A   1      35.311  32.538  29.005  1.00  0.00     0.060 A 
ATOM     42  C   UNL A   1      35.508  31.637  30.059  1.00  0.00     0.016 A 
ATOM     43  C   UNL A   1      36.380  32.945  28.205  1.00  0.00     0.016 A 
ATOM     44  C   UNL A   1      36.785  31.139  30.319  1.00  0.00     0.010 A 
ATOM     45  C   UNL A   1      37.662  32.461  28.483  1.00  0.00     0.010 A 
ATOM     46  C   UNL A   1      37.873  31.565  29.546  1.00  0.00    -0.014 A 
BRANCH  46  47
ATOM     47  C   UNL A   1      39.254  31.157  29.900  1.00  0.00     0.031 A 
ATOM     48  C   UNL A   1      40.064  32.032  30.812  1.00  0.00     0.074 A 
ATOM     49  C   UNL A   1      39.783  30.030  29.391  1.00  0.00     0.049 A 
ATOM     50  N   UNL A   1      41.321  31.931  31.157  1.00  0.00    -0.248 NA
ATOM     51  C   UNL A   1      39.360  33.176  31.411  1.00  0.00     0.031 C 
ATOM     52  C   UNL A   1      39.076  29.075  28.538  1.00  0.00     0.029 A 
ATOM     53  N   UNL A   1      41.048  29.509  29.502  1.00  0.00    -0.354 N 
ATOM     54  C   UNL A   1      41.562  32.996  32.018  1.00  0.00     0.074 A 
ATOM     55  C   UNL A   1      40.326  33.743  32.118  1.00  0.00     0.031 C 
ATOM     56  C   UNL A   1      39.928  28.098  28.180  1.00  0.00     0.029 A 
ATOM     57  C   UNL A   1      41.248  28.382  28.739  1.00  0.00     0.049 A 
ATOM     58  H   UNL A   1      41.747  29.904  30.073  1.00  0.00     0.167 HD
ATOM     59  C   UNL A   1      42.710  33.317  32.665  1.00  0.00     0.034 A 
ATOM     60  C   UNL A   1      42.378  27.689  28.486  1.00  0.00     0.034 A 
ATOM     61  C   UNL A   1      43.942  32.580  32.531  1.00  0.00     0.049 A 
ATOM     62  C   UNL A   1      43.675  28.145  29.112  1.00  0.00     0.074 A 
ATOM     63  C   UNL A   1      45.156  32.808  33.155  1.00  0.00     0.029 A 
ATOM     64  N   UNL A   1      44.126  31.484  31.697  1.00  0.00    -0.354 N 
ATOM     65  N   UNL A   1      43.891  29.147  29.933  1.00  0.00    -0.248 NA
ATOM     66  C   UNL A   1      44.881  27.379  28.770  1.00  0.00     0.031 C 
ATOM     67  C   UNL A   1      46.091  31.899  32.644  1.00  0.00     0.029 A 
ATOM     68  C   UNL A   1      45.443  31.055  31.756  1.00  0.00     0.049 A 
ATOM     69  H   UNL A   1      43.423  31.072  31.144  1.00  0.00     0.167 HD
ATOM     70  C   UNL A   1      45.254  29.116  30.220  1.00  0.00     0.074 A 
ATOM     71  C   UNL A   1      45.805  27.988  29.498  1.00  0.00     0.031 C 
ATOM     72  C   UNL A   1      45.985  29.943  31.011  1.00  0.00     0.034 A 
BRANCH  59  73
ATOM     73  C   UNL A   1      42.692  34.551  33.530  1.00  0.00     0.023 A 
ATOM     74  C   UNL A   1      43.049  35.812  33.025  1.00  0.00     0.031 A 
ATOM     75  C   UNL A   1      42.331  34.460  34.886  1.00  0.00     0.131 A 
ATOM     76  C   UNL A   1      43.096  36.921  33.883  1.00  0.00     0.055 A 
ATOM     77  C   UNL A   1      42.312  35.580  35.718  1.00  0.00     0.041 A 
ATOM     78  F   UNL A   1      42.003  33.276  35.427  1.00  0.00    -0.206 F 
ATOM     79  C   UNL A   1      42.708  36.818  35.221  1.00  0.00     0.022 A 
BRANCH  76  80
ATOM     80  S   UNL A   1      43.787  38.476  33.255  1.00  0.00     0.124 S 
ATOM     81  O   UNL A   1      42.704  39.417  33.536  1.00  0.00    -0.237 OA
ATOM     82  O   UNL A   1      44.994  38.633  34.060  1.00  0.00    -0.237 OA
ATOM     83  O   UNL A   1      44.013  38.202  31.838  1.00  0.00    -0.744 OA
ENDBRANCH  76  80
ENDBRANCH  59  73
BRANCH  60  84
ATOM     84  C   UNL A   1      42.365  26.536  27.540  1.00  0.00     0.023 A 
ATOM     85  C   UNL A   1      42.216  25.219  28.004  1.00  0.00     0.031 A 
ATOM     86  C   UNL A   1      42.580  26.730  26.164  1.00  0.00     0.131 A 
ATOM     87  C   UNL A   1      42.332  24.145  27.108  1.00  0.00     0.055 A 
ATOM     88  C   UNL A   1      42.639  25.662  25.268  1.00  0.00     0.041 A 
ATOM     89  F   UNL A   1      42.737  27.968  25.668  1.00  0.00    -0.206 F 
ATOM     90  C   UNL A   1      42.529  24.358  25.742  1.00  0.00     0.022 A 
BRANCH  87  91
ATOM     91  S   UNL A   1      42.316  22.458  27.772  1.00  0.00     0.124 S 
ATOM     92  O   UNL A   1      43.329  22.541  28.818  1.00  0.00    -0.237 OA
ATOM     93  O   UNL A   1      40.936  22.322  28.225  1.00  0.00    -0.237 OA
ATOM     94  O   UNL A   1      42.676  21.634  26.619  1.00  0.00    -0.744 OA
ENDBRANCH  87  91
ENDBRANCH  60  84
BRANCH  72  95
ATOM     95  C   UNL A   1      47.455  29.634  31.153  1.00  0.00     0.023 A 
ATOM     96  C   UNL A   1      47.933  28.753  32.139  1.00  0.00     0.031 A 
ATOM     97  C   UNL A   1      48.392  30.235  30.292  1.00  0.00     0.131 A 
ATOM     98  C   UNL A   1      49.312  28.534  32.272  1.00  0.00     0.055 A 
ATOM     99  C   UNL A   1      49.758  29.971  30.394  1.00  0.00     0.041 A 
ATOM    100  F   UNL A   1      47.991  31.086  29.335  1.00  0.00    -0.206 F 
ATOM    101  C   UNL A   1      50.226  29.125  31.395  1.00  0.00     0.022 A 
BRANCH  98 102
ATOM    102  S   UNL A   1      49.907  27.521  33.654  1.00  0.00     0.124 S 
ATOM    103  O   UNL A   1      48.928  27.821  34.693  1.00  0.00    -0.237 OA
ATOM    104  O   UNL A   1      49.855  26.173  33.100  1.00  0.00    -0.237 OA
ATOM    105  O   UNL A   1      51.253  28.036  33.902  1.00  0.00    -0.744 OA
ENDBRANCH  98 102
ENDBRANCH  72  95
ENDBRANCH  46  47
ENDBRANCH  39  41
ENDBRANCH  38  39
ENDBRANCH  37  38
ENDBRANCH  36  37
ENDBRANCH  35  36
ENDBRANCH  34  35
ENDBRANCH   1  34
TORSDOF 25
ENDMDL
MODEL 3
REMARK VINA RESULT:      -6.7      1.902      3.168
REMARK SMILES COc1cccc2c(C)cc(S[C@H](C)C(=O)Nc3ccc(C(=O)OCCOCCOCCOC(=O)c4ccc(-c5c6nc(c(-c7cc(S(=O)(=O)[O-])ccc7F)c7ccc([nH]7)c(-c7cc(S(=O)(=O)[O-])ccc7F)c7nc(c(-c8cc(S(=O)(=O)[O-])ccc8F)c8ccc5[nH]8)C=C7)C=C6)cc4)cc3)nc12
REMARK SMILES IDX 28 1 27 2 26 3 25 4 24 5 22 6 23 7 21 8 18 9 19 10 100 11
REMARK SMILES IDX 20 12 99 13 17 14 15 15 16 16 13 18 14 19 12 20 11 21 3 22
REMARK SMILES IDX 4 23 102 24 5 25 7 26 101 27 6 28 8 29 9 30 10 31 2 32 1 33
REMARK SMILES IDX 29 34 30 35 31 36 32 37 33 38 34 39 35 40 36 41 37 42 98 43
REMARK SMILES IDX 38 44 97 45 39 46 40 47 41 48 91 49 42 50 96 51 90 52 92 53
REMARK SMILES IDX 43 54 95 55 89 56 88 57 44 59 76 60 56 61 75 62 57 63 60 64
REMARK SMILES IDX 74 65 93 66 58 67 59 68 73 70 94 71 61 72 45 73 46 74 54 75
REMARK SMILES IDX 47 76 53 77 55 78 52 79 48 80 49 81 50 82 51 83 77 84 78 85
REMARK SMILES IDX 86 86 79 87 85 88 87 89 84 90 80 91 81 92 82 93 83 94 62 95
REMARK SMILES IDX 63 96 71 97 64 98 70 99 72 100 69 101 65 102 66 103 67 104
REMARK SMILES IDX 68 105
REMARK H PARENT 17 17 92 58 60 69
REMARK Flexibility Score: inf
ROOT
ATOM      1  C   UNL A   1      34.021  37.131  32.807  1.00  0.00     0.188 C 
ENDROOT
BRANCH   1   2
ATOM      2  O   UNL A   1      34.753  36.244  33.637  1.00  0.00    -0.376 OA
BRANCH   2   3
ATOM      3  C   UNL A   1      34.409  34.871  33.720  1.00  0.00     0.202 C 
BRANCH   3   4
ATOM      4  C   UNL A   1      35.438  33.799  33.366  1.00  0.00     0.261 C 
BRANCH   4   5
ATOM      5  O   UNL A   1      36.120  33.287  34.515  1.00  0.00    -0.460 OA
BRANCH   5   6
ATOM      6  C   UNL A   1      37.232  33.975  34.874  1.00  0.00     0.338 C 
ATOM      7  O   UNL A   1      37.711  34.938  34.298  1.00  0.00    -0.246 OA
BRANCH   6   8
ATOM      8  C   UNL A   1      37.727  33.481  36.176  1.00  0.00     0.060 A 
ATOM      9  C   UNL A   1      38.637  32.750  38.698  1.00  0.00     0.041 A 
ATOM     10  C   UNL A   1      37.322  33.188  38.544  1.00  0.00     0.027 A 
ATOM     11  C   UNL A   1      39.440  32.526  37.579  1.00  0.00     0.027 A 
ATOM     12  C   UNL A   1      36.875  33.581  37.283  1.00  0.00     0.018 A 
ATOM     13  C   UNL A   1      38.996  32.911  36.315  1.00  0.00     0.018 A 
BRANCH   9  14
ATOM     14  N   UNL A   1      39.136  32.620  39.995  1.00  0.00    -0.325 N 
ATOM     15  C   UNL A   1      40.428  32.734  40.432  1.00  0.00     0.237 C 
ATOM     16  O   UNL A   1      40.630  32.518  41.637  1.00  0.00    -0.273 OA
ATOM     17  H   UNL A   1      38.468  32.418  40.690  1.00  0.00     0.169 HD
BRANCH  15  18
ATOM     18  C   UNL A   1      41.631  33.128  39.550  1.00  0.00     0.139 C 
ATOM     19  C   UNL A   1      41.811  34.636  39.410  1.00  0.00     0.030 C 
BRANCH  18  20
ATOM     20  S   UNL A   1      43.198  32.316  40.050  1.00  0.00    -0.093 SA
BRANCH  20  21
ATOM     21  C   UNL A   1      44.018  31.783  38.579  1.00  0.00     0.098 A 
ATOM     22  C   UNL A   1      43.185  29.141  36.211  1.00  0.00     0.145 A 
ATOM     23  C   UNL A   1      43.709  28.508  35.080  1.00  0.00     0.049 A 
ATOM     24  C   UNL A   1      43.851  30.211  36.839  1.00  0.00     0.114 A 
ATOM     25  C   UNL A   1      44.891  28.959  34.518  1.00  0.00     0.005 A 
ATOM     26  C   UNL A   1      45.065  30.661  36.271  1.00  0.00     0.007 A 
ATOM     27  N   UNL A   1      43.363  30.776  37.963  1.00  0.00    -0.238 NA
ATOM     28  C   UNL A   1      45.559  30.030  35.105  1.00  0.00     0.011 A 
ATOM     29  C   UNL A   1      45.744  31.723  36.916  1.00  0.00    -0.039 A 
ATOM     30  C   UNL A   1      47.040  32.280  36.393  1.00  0.00     0.045 C 
ATOM     31  C   UNL A   1      45.214  32.266  38.093  1.00  0.00     0.039 A 
BRANCH  22  32
ATOM     32  O   UNL A   1      42.026  28.565  36.683  1.00  0.00    -0.494 OA
ATOM     33  C   UNL A   1      41.773  27.269  36.137  1.00  0.00     0.278 C 
ENDBRANCH  22  32
ENDBRANCH  20  21
ENDBRANCH  18  20
ENDBRANCH  15  18
ENDBRANCH   9  14
ENDBRANCH   6   8
ENDBRANCH   5   6
ENDBRANCH   4   5
ENDBRANCH   3   4
ENDBRANCH   2   3
ENDBRANCH   1   2
BRANCH   1  34
ATOM     34  C   UNL A   1      32.732  36.677  32.088  1.00  0.00     0.188 C 
BRANCH  34  35
ATOM     35  O   UNL A   1      32.494  37.011  30.730  1.00  0.00    -0.376 OA
BRANCH  35  36
ATOM     36  C   UNL A   1      32.941  36.121  29.720  1.00  0.00     0.202 C 
BRANCH  36  37
ATOM     37  C   UNL A   1      34.095  35.167  30.030  1.00  0.00     0.261 C 
BRANCH  37  38
ATOM     38  O   UNL A   1      33.686  33.792  30.089  1.00  0.00    -0.460 OA
BRANCH  38  39
ATOM     39  C   UNL A   1      34.059  33.032  29.029  1.00  0.00     0.338 C 
ATOM     40  O   UNL A   1      33.436  32.845  27.999  1.00  0.00    -0.246 OA
BRANCH  39  41
ATOM     41  C   UNL A   1      35.449  32.580  29.228  1.00  0.00     0.060 A 
ATOM     42  C   UNL A   1      35.714  31.680  30.267  1.00  0.00     0.016 A 
ATOM     43  C   UNL A   1      36.480  33.056  28.416  1.00  0.00     0.016 A 
ATOM     44  C   UNL A   1      37.021  31.251  30.500  1.00  0.00     0.010 A 
ATOM     45  C   UNL A   1      37.791  32.642  28.666  1.00  0.00     0.010 A 
ATOM     46  C   UNL A   1      38.070  31.747  29.714  1.00  0.00    -0.014 A 
BRANCH  46  47
ATOM     47  C   UNL A   1      39.478  31.413  30.040  1.00  0.00     0.031 A 
ATOM     48  C   UNL A   1      40.245  32.308  30.970  1.00  0.00     0.074 A 
ATOM     49  C   UNL A   1      40.068  30.336  29.491  1.00  0.00     0.049 A 
ATOM     50  N   UNL A   1      41.510  32.273  31.298  1.00  0.00    -0.248 NA
ATOM     51  C   UNL A   1      39.481  33.388  31.612  1.00  0.00     0.031 C 
ATOM     52  C   UNL A   1      39.409  29.367  28.616  1.00  0.00     0.029 A 
ATOM     53  N   UNL A   1      41.363  29.891  29.571  1.00  0.00    -0.354 N 
ATOM     54  C   UNL A   1      41.697  33.324  32.189  1.00  0.00     0.074 A 
ATOM     55  C   UNL A   1      40.419  33.991  32.326  1.00  0.00     0.031 C 
ATOM     56  C   UNL A   1      40.314  28.455  28.219  1.00  0.00     0.029 A 
ATOM     57  C   UNL A   1      41.621  28.802  28.772  1.00  0.00     0.049 A 
ATOM     58  H   UNL A   1      42.044  30.310  30.147  1.00  0.00     0.167 HD
ATOM     59  C   UNL A   1      42.832  33.694  32.834  1.00  0.00     0.034 A 
ATOM     60  C   UNL A   1      42.788  28.187  28.484  1.00  0.00     0.034 A 
ATOM     61  C   UNL A   1      44.104  33.038  32.663  1.00  0.00     0.049 A 
ATOM     62  C   UNL A   1      44.063  28.702  29.110  1.00  0.00     0.074 A 
ATOM     63  C   UNL A   1      45.311  33.320  33.281  1.00  0.00     0.029 A 
ATOM     64  N   UNL A   1      44.344  31.981  31.793  1.00  0.00    -0.354 N 
ATOM     65  N   UNL A   1      44.228  29.689  29.960  1.00  0.00    -0.248 NA
ATOM     66  C   UNL A   1      45.309  28.021  28.732  1.00  0.00     0.031 C 
ATOM     67  C   UNL A   1      46.292  32.486  32.731  1.00  0.00     0.029 A 
ATOM     68  C   UNL A   1      45.685  31.632  31.824  1.00  0.00     0.049 A 
ATOM     69  H   UNL A   1      43.660  31.544  31.235  1.00  0.00     0.167 HD
ATOM     70  C   UNL A   1      45.594  29.733  30.231  1.00  0.00     0.074 A 
ATOM     71  C   UNL A   1      46.203  28.663  29.469  1.00  0.00     0.031 C 
ATOM     72  C   UNL A   1      46.283  30.578  31.040  1.00  0.00     0.034 A 
BRANCH  59  73
ATOM     73  C   UNL A   1      42.750  34.898  33.737  1.00  0.00     0.023 A 
ATOM     74  C   UNL A   1      43.111  36.181  33.292  1.00  0.00     0.031 A 
ATOM     75  C   UNL A   1      42.325  34.755  35.069  1.00  0.00     0.131 A 
ATOM     76  C   UNL A   1      43.096  37.261  34.188  1.00  0.00     0.055 A 
ATOM     77  C   UNL A   1      42.246  35.846  35.936  1.00  0.00     0.041 A 
ATOM     78  F   UNL A   1      41.990  33.549  35.554  1.00  0.00    -0.206 F 
ATOM     79  C   UNL A   1      42.644  37.106  35.500  1.00  0.00     0.022 A 
BRANCH  76  80
ATOM     80  S   UNL A   1      43.791  38.846  33.647  1.00  0.00     0.124 S 
ATOM     81  O   UNL A   1      44.349  39.366  34.893  1.00  0.00    -0.237 OA
ATOM     82  O   UNL A   1      44.759  38.438  32.635  1.00  0.00    -0.237 OA
ATOM     83  O   UNL A   1      42.630  39.575  33.142  1.00  0.00    -0.744 OA
ENDBRANCH  76  80
ENDBRANCH  59  73
BRANCH  60  84
ATOM     84  C   UNL A   1      42.833  27.064  27.504  1.00  0.00     0.023 A 
ATOM     85  C   UNL A   1      42.898  25.729  27.932  1.00  0.00     0.031 A 
ATOM     86  C   UNL A   1      42.889  27.317  26.121  1.00  0.00     0.131 A 
ATOM     87  C   UNL A   1      43.064  24.700  26.992  1.00  0.00     0.055 A 
ATOM     88  C   UNL A   1      42.999  26.287  25.187  1.00  0.00     0.041 A 
ATOM     89  F   UNL A   1      42.838  28.576  25.658  1.00  0.00    -0.206 F 
ATOM     90  C   UNL A   1      43.102  24.969  25.622  1.00  0.00     0.022 A 
BRANCH  87  91
ATOM     91  S   UNL A   1      43.328  23.010  27.594  1.00  0.00     0.124 S 
ATOM     92  O   UNL A   1      44.740  23.041  27.957  1.00  0.00    -0.237 OA
ATOM     93  O   UNL A   1      42.382  22.932  28.702  1.00  0.00    -0.237 OA
ATOM     94  O   UNL A   1      42.999  22.181  26.436  1.00  0.00    -0.744 OA
ENDBRANCH  87  91
ENDBRANCH  60  84
BRANCH  72  95
ATOM     95  C   UNL A   1      47.772  30.354  31.155  1.00  0.00     0.023 A 
ATOM     96  C   UNL A   1      48.316  29.498  32.128  1.00  0.00     0.031 A 
ATOM     97  C   UNL A   1      48.657  31.015  30.284  1.00  0.00     0.131 A 
ATOM     98  C   UNL A   1      49.708  29.359  32.237  1.00  0.00     0.055 A 
ATOM     99  C   UNL A   1      50.038  30.831  30.362  1.00  0.00     0.041 A 
ATOM    100  F   UNL A   1      48.191  31.846  29.338  1.00  0.00    -0.206 F 
ATOM    101  C   UNL A   1      50.572  30.008  31.349  1.00  0.00     0.022 A 
BRANCH  98 102
ATOM    102  S   UNL A   1      50.384  28.376  33.602  1.00  0.00     0.124 S 
ATOM    103  O   UNL A   1      49.801  29.033  34.767  1.00  0.00    -0.237 OA
ATOM    104  O   UNL A   1      49.879  27.039  33.307  1.00  0.00    -0.237 OA
ATOM    105  O   UNL A   1      51.830  28.536  33.459  1.00  0.00    -0.744 OA
ENDBRANCH  98 102
ENDBRANCH  72  95
ENDBRANCH  46  47
ENDBRANCH  39  41
ENDBRANCH  38  39
ENDBRANCH  37  38
ENDBRANCH  36  37
ENDBRANCH  35  36
ENDBRANCH  34  35
ENDBRANCH   1  34
TORSDOF 25
ENDMDL
