MODEL 1
REMARK VINA RESULT:     -11.6      0.000      0.000
REMARK SMILES O=C(CSc1nnc2sc3ccccc3n12)N[C@H](Cc1c[nH]c2ccccc12)C(=O)OCCOCCOCCOC(=O)c1ccc(-c2c3nc(c(-c4cc(S(=O)(=O)[O-])ccc4F)c4ccc([nH]4)c(-c4cc(S(=O)(=O)[O-])ccc4F)c4nc(c(-c5cc(S(=O)(=O)[O-])ccc5F)c5ccc2[nH]5)C=C4)C=C3)cc1
REMARK SMILES IDX 35 1 34 2 33 3 32 4 31 5 29 6 30 7 18 8 17 9 1 10 2 11 3 13
REMARK SMILES IDX 4 14 5 15 6 16 16 17 7 18 8 19 15 20 9 21 10 22 14 23 11 24
REMARK SMILES IDX 13 25 12 26 19 27 20 28 21 29 28 30 22 31 23 32 27 33 24 35
REMARK SMILES IDX 26 36 25 37 36 38 37 39 38 40 39 41 40 42 41 43 42 44 43 45
REMARK SMILES IDX 44 46 105 47 45 48 104 49 46 50 47 51 48 52 98 53 49 54
REMARK SMILES IDX 103 55 97 56 99 57 50 58 102 59 96 60 95 61 51 63 83 64
REMARK SMILES IDX 63 65 82 66 64 67 67 68 81 69 100 70 65 71 66 72 80 74
REMARK SMILES IDX 101 75 68 76 52 77 53 78 61 79 54 80 60 81 62 82 59 83 55 84
REMARK SMILES IDX 56 85 57 86 58 87 84 88 85 89 93 90 86 91 92 92 94 93 91 94
REMARK SMILES IDX 87 95 88 96 89 97 90 98 69 99 70 100 78 101 71 102 77 103
REMARK SMILES IDX 79 104 76 105 72 106 73 107 74 108 75 109
REMARK H PARENT 17 12 22 34 99 62 67 73
REMARK Flexibility Score: inf
ROOT
ATOM      1  C   UNL A   1      36.656  32.417  28.499  1.00  0.00     0.188 C 
ENDROOT
BRANCH   1   2
ATOM      2  O   UNL A   1      35.956  31.477  27.630  1.00  0.00    -0.376 OA
BRANCH   2   3
ATOM      3  C   UNL A   1      35.474  30.088  27.712  1.00  0.00     0.202 C 
BRANCH   3   4
ATOM      4  C   UNL A   1      34.654  28.905  26.537  1.00  0.00     0.261 C 
BRANCH   4   5
ATOM      5  O   UNL A   1      33.096  27.685  27.084  1.00  0.00    -0.462 OA
BRANCH   5   6
ATOM      6  C   UNL A   1      31.657  27.313  26.822  1.00  0.00     0.329 C 
ATOM      7  O   UNL A   1      30.731  27.469  27.626  1.00  0.00    -0.250 OA
BRANCH   6   8
ATOM      8  C   UNL A   1      31.267  26.765  25.461  1.00  0.00     0.196 C 
BRANCH   8   9
ATOM      9  N   UNL A   1      31.529  25.344  25.330  1.00  0.00    -0.342 N 
ATOM     10  O   UNL A   1      30.281  24.813  23.509  1.00  0.00    -0.274 OA
ATOM     11  C   UNL A   1      30.985  24.465  24.449  1.00  0.00     0.231 C 
ATOM     12  H   UNL A   1      32.185  24.968  25.960  1.00  0.00     0.164 HD
BRANCH  11  13
ATOM     13  C   UNL A   1      31.343  23.013  24.753  1.00  0.00     0.178 C 
BRANCH  13  14
ATOM     14  S   UNL A   1      32.141  22.134  23.361  1.00  0.00    -0.076 SA
BRANCH  14  15
ATOM     15  C   UNL A   1      32.645  20.682  24.152  1.00  0.00     0.197 A 
ATOM     16  N   UNL A   1      32.152  19.473  23.967  1.00  0.00    -0.122 NA
ATOM     17  N   UNL A   1      33.864  20.578  24.733  1.00  0.00    -0.260 N 
ATOM     18  N   UNL A   1      33.156  18.550  24.277  1.00  0.00    -0.118 NA
ATOM     19  C   UNL A   1      34.207  19.253  24.622  1.00  0.00     0.217 A 
ATOM     20  C   UNL A   1      34.844  21.462  25.113  1.00  0.00     0.068 A 
ATOM     21  S   UNL A   1      35.899  18.825  24.810  1.00  0.00    -0.094 S 
ATOM     22  C   UNL A   1      36.314  20.536  25.022  1.00  0.00     0.055 A 
ATOM     23  C   UNL A   1      34.787  23.170  25.467  1.00  0.00     0.028 A 
ATOM     24  C   UNL A   1      37.840  21.356  25.299  1.00  0.00     0.021 A 
ATOM     25  C   UNL A   1      36.278  24.078  25.744  1.00  0.00     0.002 A 
ATOM     26  C   UNL A   1      37.843  23.205  25.702  1.00  0.00     0.002 A 
ENDBRANCH  14  15
ENDBRANCH  13  14
ENDBRANCH  11  13
ENDBRANCH   8   9
BRANCH   8  27
ATOM     27  C   UNL A   1      31.674  27.772  24.346  1.00  0.00     0.074 C 
BRANCH  27  28
ATOM     28  C   UNL A   1      31.031  29.172  24.411  1.00  0.00    -0.020 A 
ATOM     29  C   UNL A   1      31.419  30.244  25.202  1.00  0.00     0.087 A 
ATOM     30  C   UNL A   1      29.861  29.634  23.692  1.00  0.00     0.003 A 
ATOM     31  N   UNL A   1      30.561  31.299  24.996  1.00  0.00    -0.361 N 
ATOM     32  C   UNL A   1      29.610  30.961  24.062  1.00  0.00     0.046 A 
ATOM     33  C   UNL A   1      28.998  29.051  22.741  1.00  0.00     0.010 A 
ATOM     34  H   UNL A   1      30.618  32.170  25.451  1.00  0.00     0.166 HD
ATOM     35  C   UNL A   1      28.585  31.739  23.493  1.00  0.00     0.026 A 
ATOM     36  C   UNL A   1      27.958  29.805  22.178  1.00  0.00     0.001 A 
ATOM     37  C   UNL A   1      27.765  31.136  22.538  1.00  0.00     0.002 A 
ENDBRANCH  27  28
ENDBRANCH   8  27
ENDBRANCH   6   8
ENDBRANCH   5   6
ENDBRANCH   4   5
ENDBRANCH   3   4
ENDBRANCH   2   3
ENDBRANCH   1   2
BRANCH   1  38
ATOM     38  C   UNL A   1      36.096  33.813  29.037  1.00  0.00     0.188 C 
BRANCH  38  39
ATOM     39  O   UNL A   1      34.684  33.947  28.963  1.00  0.00    -0.376 OA
BRANCH  39  40
ATOM     40  C   UNL A   1      34.309  35.268  28.596  1.00  0.00     0.202 C 
BRANCH  40  41
ATOM     41  C   UNL A   1      33.119  35.860  29.414  1.00  0.00     0.261 C 
BRANCH  41  42
ATOM     42  O   UNL A   1      32.681  35.010  30.540  1.00  0.00    -0.460 OA
BRANCH  42  43
ATOM     43  C   UNL A   1      33.050  35.391  31.809  1.00  0.00     0.338 C 
ATOM     44  O   UNL A   1      32.346  36.083  32.531  1.00  0.00    -0.246 OA
BRANCH  43  45
ATOM     45  C   UNL A   1      34.252  34.607  32.336  1.00  0.00     0.060 A 
ATOM     46  C   UNL A   1      34.407  33.220  32.412  1.00  0.00     0.016 A 
ATOM     47  C   UNL A   1      35.285  35.364  32.889  1.00  0.00     0.016 A 
ATOM     48  C   UNL A   1      35.516  32.632  33.123  1.00  0.00     0.010 A 
ATOM     49  C   UNL A   1      36.368  34.778  33.585  1.00  0.00     0.010 A 
ATOM     50  C   UNL A   1      36.482  33.407  33.803  1.00  0.00    -0.014 A 
BRANCH  50  51
ATOM     51  C   UNL A   1      37.806  32.889  34.338  1.00  0.00     0.031 A 
ATOM     52  C   UNL A   1      37.918  33.265  35.749  1.00  0.00     0.074 A 
ATOM     53  C   UNL A   1      38.862  32.134  33.894  1.00  0.00     0.049 A 
ATOM     54  N   UNL A   1      38.573  34.306  36.130  1.00  0.00    -0.248 NA
ATOM     55  C   UNL A   1      37.115  32.616  36.782  1.00  0.00     0.031 C 
ATOM     56  C   UNL A   1      39.143  31.682  32.551  1.00  0.00     0.029 A 
ATOM     57  N   UNL A   1      39.967  31.590  34.555  1.00  0.00    -0.354 N 
ATOM     58  C   UNL A   1      38.489  34.297  37.502  1.00  0.00     0.074 A 
ATOM     59  C   UNL A   1      37.402  33.401  37.824  1.00  0.00     0.031 C 
ATOM     60  C   UNL A   1      40.100  30.726  32.514  1.00  0.00     0.029 A 
ATOM     61  C   UNL A   1      40.679  30.604  33.836  1.00  0.00     0.049 A 
ATOM     62  H   UNL A   1      40.231  31.873  35.460  1.00  0.00     0.167 HD
ATOM     63  C   UNL A   1      39.513  34.810  38.236  1.00  0.00     0.034 A 
ATOM     64  C   UNL A   1      41.922  30.044  33.965  1.00  0.00     0.034 A 
ATOM     65  C   UNL A   1      40.439  35.547  37.400  1.00  0.00     0.049 A 
ATOM     66  C   UNL A   1      42.762  30.972  34.727  1.00  0.00     0.074 A 
ATOM     67  C   UNL A   1      40.351  36.639  36.559  1.00  0.00     0.029 A 
ATOM     68  N   UNL A   1      41.607  34.908  37.059  1.00  0.00    -0.354 N 
ATOM     69  N   UNL A   1      43.240  32.071  34.228  1.00  0.00    -0.248 NA
ATOM     70  C   UNL A   1      42.674  30.899  36.168  1.00  0.00     0.031 C 
ATOM     71  C   UNL A   1      41.257  36.380  35.489  1.00  0.00     0.029 A 
ATOM     72  C   UNL A   1      41.919  35.181  35.750  1.00  0.00     0.049 A 
ATOM     73  H   UNL A   1      42.139  34.340  37.662  1.00  0.00     0.167 HD
ATOM     74  C   UNL A   1      42.973  32.998  35.217  1.00  0.00     0.074 A 
ATOM     75  C   UNL A   1      42.741  32.205  36.426  1.00  0.00     0.031 C 
ATOM     76  C   UNL A   1      42.681  34.290  34.893  1.00  0.00     0.034 A 
BRANCH  63  77
ATOM     77  C   UNL A   1      39.860  34.303  39.607  1.00  0.00     0.023 A 
ATOM     78  C   UNL A   1      39.438  34.937  40.792  1.00  0.00     0.031 A 
ATOM     79  C   UNL A   1      40.465  33.045  39.763  1.00  0.00     0.131 A 
ATOM     80  C   UNL A   1      39.658  34.368  42.050  1.00  0.00     0.055 A 
ATOM     81  C   UNL A   1      40.615  32.437  41.014  1.00  0.00     0.041 A 
ATOM     82  F   UNL A   1      40.880  32.345  38.695  1.00  0.00    -0.206 F 
ATOM     83  C   UNL A   1      40.216  33.102  42.168  1.00  0.00     0.022 A 
BRANCH  80  84
ATOM     84  S   UNL A   1      39.211  35.279  43.554  1.00  0.00     0.124 S 
ATOM     85  O   UNL A   1      37.869  34.776  43.821  1.00  0.00    -0.237 OA
ATOM     86  O   UNL A   1      40.253  34.843  44.479  1.00  0.00    -0.237 OA
ATOM     87  O   UNL A   1      39.295  36.678  43.143  1.00  0.00    -0.744 OA
ENDBRANCH  80  84
ENDBRANCH  63  77
BRANCH  64  88
ATOM     88  C   UNL A   1      42.272  28.591  33.929  1.00  0.00     0.023 A 
ATOM     89  C   UNL A   1      41.768  27.732  34.914  1.00  0.00     0.031 A 
ATOM     90  C   UNL A   1      43.320  28.089  33.120  1.00  0.00     0.131 A 
ATOM     91  C   UNL A   1      42.366  26.482  35.141  1.00  0.00     0.055 A 
ATOM     92  C   UNL A   1      43.891  26.823  33.325  1.00  0.00     0.041 A 
ATOM     93  F   UNL A   1      43.862  28.848  32.155  1.00  0.00    -0.206 F 
ATOM     94  C   UNL A   1      43.428  26.020  34.360  1.00  0.00     0.022 A 
BRANCH  91  95
ATOM     95  S   UNL A   1      41.837  25.479  36.556  1.00  0.00     0.124 S 
ATOM     96  O   UNL A   1      42.207  26.322  37.691  1.00  0.00    -0.237 OA
ATOM     97  O   UNL A   1      40.407  25.352  36.304  1.00  0.00    -0.237 OA
ATOM     98  O   UNL A   1      42.623  24.258  36.408  1.00  0.00    -0.744 OA
ENDBRANCH  91  95
ENDBRANCH  64  88
BRANCH  76  99
ATOM     99  C   UNL A   1      42.999  34.779  33.487  1.00  0.00     0.023 A 
ATOM    100  C   UNL A   1      42.010  34.581  32.509  1.00  0.00     0.031 A 
ATOM    101  C   UNL A   1      44.242  35.276  33.041  1.00  0.00     0.131 A 
ATOM    102  C   UNL A   1      42.280  34.818  31.156  1.00  0.00     0.055 A 
ATOM    103  C   UNL A   1      44.488  35.579  31.695  1.00  0.00     0.041 A 
ATOM    104  F   UNL A   1      45.282  35.426  33.870  1.00  0.00    -0.206 F 
ATOM    105  C   UNL A   1      43.510  35.332  30.740  1.00  0.00     0.022 A 
BRANCH 102 106
ATOM    106  S   UNL A   1      41.085  34.334  29.886  1.00  0.00     0.124 S 
ATOM    107  O   UNL A   1      41.431  35.226  28.783  1.00  0.00    -0.237 OA
ATOM    108  O   UNL A   1      41.416  32.925  29.680  1.00  0.00    -0.237 OA
ATOM    109  O   UNL A   1      39.790  34.580  30.509  1.00  0.00    -0.744 OA
ENDBRANCH 102 106
ENDBRANCH  76  99
ENDBRANCH  50  51
ENDBRANCH  43  45
ENDBRANCH  42  43
ENDBRANCH  41  42
ENDBRANCH  40  41
ENDBRANCH  39  40
ENDBRANCH  38  39
ENDBRANCH   1  38
TORSDOF 26
ENDMDL
MODEL 2
REMARK VINA RESULT:     -11.0      2.211      2.868
REMARK SMILES O=C(CSc1nnc2sc3ccccc3n12)N[C@H](Cc1c[nH]c2ccccc12)C(=O)OCCOCCOCCOC(=O)c1ccc(-c2c3nc(c(-c4cc(S(=O)(=O)[O-])ccc4F)c4ccc([nH]4)c(-c4cc(S(=O)(=O)[O-])ccc4F)c4nc(c(-c5cc(S(=O)(=O)[O-])ccc5F)c5ccc2[nH]5)C=C4)C=C3)cc1
REMARK SMILES IDX 35 1 34 2 33 3 32 4 31 5 29 6 30 7 18 8 17 9 1 10 2 11 3 13
REMARK SMILES IDX 4 14 5 15 6 16 16 17 7 18 8 19 15 20 9 21 10 22 14 23 11 24
REMARK SMILES IDX 13 25 12 26 19 27 20 28 21 29 28 30 22 31 23 32 27 33 24 35
REMARK SMILES IDX 26 36 25 37 36 38 37 39 38 40 39 41 40 42 41 43 42 44 43 45
REMARK SMILES IDX 44 46 105 47 45 48 104 49 46 50 47 51 48 52 98 53 49 54
REMARK SMILES IDX 103 55 97 56 99 57 50 58 102 59 96 60 95 61 51 63 83 64
REMARK SMILES IDX 63 65 82 66 64 67 67 68 81 69 100 70 65 71 66 72 80 74
REMARK SMILES IDX 101 75 68 76 52 77 53 78 61 79 54 80 60 81 62 82 59 83 55 84
REMARK SMILES IDX 56 85 57 86 58 87 84 88 85 89 93 90 86 91 92 92 94 93 91 94
REMARK SMILES IDX 87 95 88 96 89 97 90 98 69 99 70 100 78 101 71 102 77 103
REMARK SMILES IDX 79 104 76 105 72 106 73 107 74 108 75 109
REMARK H PARENT 17 12 22 34 99 62 67 73
REMARK Flexibility Score: inf
ROOT
ATOM      1  C   UNL A   1      36.155  32.731  28.207  1.00  0.00     0.188 C 
ENDROOT
BRANCH   1   2
ATOM      2  O   UNL A   1      35.390  31.774  27.414  1.00  0.00    -0.376 OA
BRANCH   2   3
ATOM      3  C   UNL A   1      34.633  30.534  27.657  1.00  0.00     0.202 C 
BRANCH   3   4
ATOM      4  C   UNL A   1      34.314  28.974  26.699  1.00  0.00     0.261 C 
BRANCH   4   5
ATOM      5  O   UNL A   1      32.738  27.720  27.097  1.00  0.00    -0.462 OA
BRANCH   5   6
ATOM      6  C   UNL A   1      31.827  26.653  26.540  1.00  0.00     0.329 C 
ATOM      7  O   UNL A   1      30.674  26.437  26.930  1.00  0.00    -0.250 OA
BRANCH   6   8
ATOM      8  C   UNL A   1      32.302  25.805  25.374  1.00  0.00     0.196 C 
BRANCH   8   9
ATOM      9  N   UNL A   1      33.649  25.298  25.558  1.00  0.00    -0.342 N 
ATOM     10  O   UNL A   1      33.597  23.396  24.320  1.00  0.00    -0.274 OA
ATOM     11  C   UNL A   1      34.179  24.131  25.107  1.00  0.00     0.231 C 
ATOM     12  H   UNL A   1      34.257  25.872  26.077  1.00  0.00     0.164 HD
BRANCH  11  13
ATOM     13  C   UNL A   1      35.563  23.840  25.680  1.00  0.00     0.178 C 
BRANCH  13  14
ATOM     14  S   UNL A   1      36.799  23.343  24.427  1.00  0.00    -0.076 SA
BRANCH  14  15
ATOM     15  C   UNL A   1      37.455  21.929  25.174  1.00  0.00     0.197 A 
ATOM     16  N   UNL A   1      37.274  20.679  24.793  1.00  0.00    -0.122 NA
ATOM     17  N   UNL A   1      38.546  21.992  25.975  1.00  0.00    -0.260 N 
ATOM     18  N   UNL A   1      38.382  19.938  25.216  1.00  0.00    -0.118 NA
ATOM     19  C   UNL A   1      39.179  20.784  25.821  1.00  0.00     0.217 A 
ATOM     20  C   UNL A   1      39.231  22.995  26.616  1.00  0.00     0.068 A 
ATOM     21  S   UNL A   1      40.864  20.673  26.303  1.00  0.00    -0.094 S 
ATOM     22  C   UNL A   1      40.858  22.391  26.739  1.00  0.00     0.055 A 
ATOM     23  C   UNL A   1      38.747  24.602  27.096  1.00  0.00     0.028 A 
ATOM     24  C   UNL A   1      42.099  23.452  27.383  1.00  0.00     0.021 A 
ATOM     25  C   UNL A   1      39.936  25.741  27.740  1.00  0.00     0.002 A 
ATOM     26  C   UNL A   1      41.634  25.200  27.935  1.00  0.00     0.002 A 
ENDBRANCH  14  15
ENDBRANCH  13  14
ENDBRANCH  11  13
ENDBRANCH   8   9
BRANCH   8  27
ATOM     27  C   UNL A   1      31.855  26.450  24.030  1.00  0.00     0.074 C 
BRANCH  27  28
ATOM     28  C   UNL A   1      30.341  26.680  23.844  1.00  0.00    -0.020 A 
ATOM     29  C   UNL A   1      29.326  25.740  23.944  1.00  0.00     0.087 A 
ATOM     30  C   UNL A   1      29.680  27.916  23.479  1.00  0.00     0.003 A 
ATOM     31  N   UNL A   1      28.119  26.339  23.666  1.00  0.00    -0.361 N 
ATOM     32  C   UNL A   1      28.303  27.675  23.397  1.00  0.00     0.046 A 
ATOM     33  C   UNL A   1      30.123  29.231  23.229  1.00  0.00     0.010 A 
ATOM     34  H   UNL A   1      27.249  25.878  23.658  1.00  0.00     0.166 HD
ATOM     35  C   UNL A   1      27.357  28.682  23.135  1.00  0.00     0.026 A 
ATOM     36  C   UNL A   1      29.197  30.245  22.944  1.00  0.00     0.001 A 
ATOM     37  C   UNL A   1      27.832  29.977  22.914  1.00  0.00     0.002 A 
ENDBRANCH  27  28
ENDBRANCH   8  27
ENDBRANCH   6   8
ENDBRANCH   5   6
ENDBRANCH   4   5
ENDBRANCH   3   4
ENDBRANCH   2   3
ENDBRANCH   1   2
BRANCH   1  38
ATOM     38  C   UNL A   1      35.644  34.147  28.740  1.00  0.00     0.188 C 
BRANCH  38  39
ATOM     39  O   UNL A   1      34.574  34.705  27.992  1.00  0.00    -0.376 OA
BRANCH  39  40
ATOM     40  C   UNL A   1      34.190  35.973  28.506  1.00  0.00     0.202 C 
BRANCH  40  41
ATOM     41  C   UNL A   1      33.222  35.917  29.728  1.00  0.00     0.261 C 
BRANCH  41  42
ATOM     42  O   UNL A   1      33.326  34.675  30.522  1.00  0.00    -0.460 OA
BRANCH  42  43
ATOM     43  C   UNL A   1      33.401  34.798  31.890  1.00  0.00     0.338 C 
ATOM     44  O   UNL A   1      32.471  35.195  32.578  1.00  0.00    -0.246 OA
BRANCH  43  45
ATOM     45  C   UNL A   1      34.620  34.091  32.482  1.00  0.00     0.060 A 
ATOM     46  C   UNL A   1      34.952  32.735  32.396  1.00  0.00     0.016 A 
ATOM     47  C   UNL A   1      35.458  34.872  33.276  1.00  0.00     0.016 A 
ATOM     48  C   UNL A   1      36.030  32.182  33.180  1.00  0.00     0.010 A 
ATOM     49  C   UNL A   1      36.512  34.319  34.041  1.00  0.00     0.010 A 
ATOM     50  C   UNL A   1      36.784  32.954  34.092  1.00  0.00    -0.014 A 
BRANCH  50  51
ATOM     51  C   UNL A   1      38.085  32.520  34.744  1.00  0.00     0.031 A 
ATOM     52  C   UNL A   1      38.104  33.014  36.123  1.00  0.00     0.074 A 
ATOM     53  C   UNL A   1      39.184  31.763  34.427  1.00  0.00     0.049 A 
ATOM     54  N   UNL A   1      38.709  34.102  36.452  1.00  0.00    -0.248 NA
ATOM     55  C   UNL A   1      37.256  32.430  37.158  1.00  0.00     0.031 C 
ATOM     56  C   UNL A   1      39.557  31.211  33.145  1.00  0.00     0.029 A 
ATOM     57  N   UNL A   1      40.261  31.308  35.194  1.00  0.00    -0.354 N 
ATOM     58  C   UNL A   1      38.543  34.204  37.813  1.00  0.00     0.074 A 
ATOM     59  C   UNL A   1      37.461  33.306  38.145  1.00  0.00     0.031 C 
ATOM     60  C   UNL A   1      40.537  30.283  33.243  1.00  0.00     0.029 A 
ATOM     61  C   UNL A   1      41.038  30.287  34.602  1.00  0.00     0.049 A 
ATOM     62  H   UNL A   1      40.463  31.672  36.086  1.00  0.00     0.167 HD
ATOM     63  C   UNL A   1      39.508  34.806  38.559  1.00  0.00     0.034 A 
ATOM     64  C   UNL A   1      42.285  29.777  34.849  1.00  0.00     0.034 A 
ATOM     65  C   UNL A   1      40.465  35.497  37.720  1.00  0.00     0.049 A 
ATOM     66  C   UNL A   1      43.054  30.788  35.578  1.00  0.00     0.074 A 
ATOM     67  C   UNL A   1      40.401  36.513  36.787  1.00  0.00     0.029 A 
ATOM     68  N   UNL A   1      41.665  34.867  37.501  1.00  0.00    -0.354 N 
ATOM     69  N   UNL A   1      43.534  31.856  35.017  1.00  0.00    -0.248 NA
ATOM     70  C   UNL A   1      42.882  30.832  37.013  1.00  0.00     0.031 C 
ATOM     71  C   UNL A   1      41.375  36.194  35.796  1.00  0.00     0.029 A 
ATOM     72  C   UNL A   1      42.049  35.040  36.195  1.00  0.00     0.049 A 
ATOM     73  H   UNL A   1      42.175  34.367  38.179  1.00  0.00     0.167 HD
ATOM     74  C   UNL A   1      43.186  32.853  35.908  1.00  0.00     0.074 A 
ATOM     75  C   UNL A   1      42.901  32.156  37.164  1.00  0.00     0.031 C 
ATOM     76  C   UNL A   1      42.883  34.105  35.460  1.00  0.00     0.034 A 
BRANCH  63  77
ATOM     77  C   UNL A   1      39.784  34.423  39.986  1.00  0.00     0.023 A 
ATOM     78  C   UNL A   1      39.666  33.105  40.467  1.00  0.00     0.031 A 
ATOM     79  C   UNL A   1      40.372  35.349  40.864  1.00  0.00     0.131 A 
ATOM     80  C   UNL A   1      40.062  32.754  41.760  1.00  0.00     0.055 A 
ATOM     81  C   UNL A   1      40.843  34.983  42.130  1.00  0.00     0.041 A 
ATOM     82  F   UNL A   1      40.556  36.626  40.495  1.00  0.00    -0.206 F 
ATOM     83  C   UNL A   1      40.683  33.680  42.588  1.00  0.00     0.022 A 
BRANCH  80  84
ATOM     84  S   UNL A   1      39.773  31.073  42.378  1.00  0.00     0.124 S 
ATOM     85  O   UNL A   1      41.060  30.436  42.128  1.00  0.00    -0.237 OA
ATOM     86  O   UNL A   1      39.449  31.329  43.778  1.00  0.00    -0.237 OA
ATOM     87  O   UNL A   1      38.659  30.596  41.563  1.00  0.00    -0.744 OA
ENDBRANCH  80  84
ENDBRANCH  63  77
BRANCH  64  88
ATOM     88  C   UNL A   1      42.671  28.336  34.956  1.00  0.00     0.023 A 
ATOM     89  C   UNL A   1      43.556  27.785  34.021  1.00  0.00     0.031 A 
ATOM     90  C   UNL A   1      41.966  27.427  35.781  1.00  0.00     0.131 A 
ATOM     91  C   UNL A   1      43.637  26.393  33.853  1.00  0.00     0.055 A 
ATOM     92  C   UNL A   1      42.078  26.036  35.637  1.00  0.00     0.041 A 
ATOM     93  F   UNL A   1      41.097  27.873  36.702  1.00  0.00    -0.206 F 
ATOM     94  C   UNL A   1      42.901  25.511  34.648  1.00  0.00     0.022 A 
BRANCH  91  95
ATOM     95  S   UNL A   1      44.625  25.709  32.496  1.00  0.00     0.124 S 
ATOM     96  O   UNL A   1      44.073  26.398  31.331  1.00  0.00    -0.237 OA
ATOM     97  O   UNL A   1      45.972  26.109  32.887  1.00  0.00    -0.237 OA
ATOM     98  O   UNL A   1      44.338  24.280  32.565  1.00  0.00    -0.744 OA
ENDBRANCH  91  95
ENDBRANCH  64  88
BRANCH  76  99
ATOM     99  C   UNL A   1      43.273  34.485  34.039  1.00  0.00     0.023 A 
ATOM    100  C   UNL A   1      42.287  34.330  33.049  1.00  0.00     0.031 A 
ATOM    101  C   UNL A   1      44.566  34.838  33.598  1.00  0.00     0.131 A 
ATOM    102  C   UNL A   1      42.605  34.468  31.692  1.00  0.00     0.055 A 
ATOM    103  C   UNL A   1      44.865  35.044  32.244  1.00  0.00     0.041 A 
ATOM    104  F   UNL A   1      45.600  34.932  34.443  1.00  0.00    -0.206 F 
ATOM    105  C   UNL A   1      43.886  34.840  31.281  1.00  0.00     0.022 A 
BRANCH 102 106
ATOM    106  S   UNL A   1      41.393  34.032  30.421  1.00  0.00     0.124 S 
ATOM    107  O   UNL A   1      40.133  34.410  31.056  1.00  0.00    -0.237 OA
ATOM    108  O   UNL A   1      41.809  34.877  29.303  1.00  0.00    -0.237 OA
ATOM    109  O   UNL A   1      41.591  32.601  30.222  1.00  0.00    -0.744 OA
ENDBRANCH 102 106
ENDBRANCH  76  99
ENDBRANCH  50  51
ENDBRANCH  43  45
ENDBRANCH  42  43
ENDBRANCH  41  42
ENDBRANCH  40  41
ENDBRANCH  39  40
ENDBRANCH  38  39
ENDBRANCH   1  38
TORSDOF 26
ENDMDL
MODEL 3
REMARK VINA RESULT:     -10.3      6.476     12.614
REMARK SMILES O=C(CSc1nnc2sc3ccccc3n12)N[C@H](Cc1c[nH]c2ccccc12)C(=O)OCCOCCOCCOC(=O)c1ccc(-c2c3nc(c(-c4cc(S(=O)(=O)[O-])ccc4F)c4ccc([nH]4)c(-c4cc(S(=O)(=O)[O-])ccc4F)c4nc(c(-c5cc(S(=O)(=O)[O-])ccc5F)c5ccc2[nH]5)C=C4)C=C3)cc1
REMARK SMILES IDX 35 1 34 2 33 3 32 4 31 5 29 6 30 7 18 8 17 9 1 10 2 11 3 13
REMARK SMILES IDX 4 14 5 15 6 16 16 17 7 18 8 19 15 20 9 21 10 22 14 23 11 24
REMARK SMILES IDX 13 25 12 26 19 27 20 28 21 29 28 30 22 31 23 32 27 33 24 35
REMARK SMILES IDX 26 36 25 37 36 38 37 39 38 40 39 41 40 42 41 43 42 44 43 45
REMARK SMILES IDX 44 46 105 47 45 48 104 49 46 50 47 51 48 52 98 53 49 54
REMARK SMILES IDX 103 55 97 56 99 57 50 58 102 59 96 60 95 61 51 63 83 64
REMARK SMILES IDX 63 65 82 66 64 67 67 68 81 69 100 70 65 71 66 72 80 74
REMARK SMILES IDX 101 75 68 76 52 77 53 78 61 79 54 80 60 81 62 82 59 83 55 84
REMARK SMILES IDX 56 85 57 86 58 87 84 88 85 89 93 90 86 91 92 92 94 93 91 94
REMARK SMILES IDX 87 95 88 96 89 97 90 98 69 99 70 100 78 101 71 102 77 103
REMARK SMILES IDX 79 104 76 105 72 106 73 107 74 108 75 109
REMARK H PARENT 17 12 22 34 99 62 67 73
REMARK Flexibility Score: inf
ROOT
ATOM      1  C   UNL A   1      45.805  24.862  29.080  1.00  0.00     0.188 C 
ENDROOT
BRANCH   1   2
ATOM      2  O   UNL A   1      44.560  25.357  29.659  1.00  0.00    -0.376 OA
BRANCH   2   3
ATOM      3  C   UNL A   1      43.349  26.047  29.182  1.00  0.00     0.202 C 
BRANCH   3   4
ATOM      4  C   UNL A   1      41.935  25.606  28.061  1.00  0.00     0.261 C 
BRANCH   4   5
ATOM      5  O   UNL A   1      40.862  23.866  28.245  1.00  0.00    -0.462 OA
BRANCH   5   6
ATOM      6  C   UNL A   1      40.695  22.451  27.747  1.00  0.00     0.329 C 
ATOM      7  O   UNL A   1      40.679  21.447  28.469  1.00  0.00    -0.250 OA
BRANCH   6   8
ATOM      8  C   UNL A   1      40.462  22.205  26.267  1.00  0.00     0.196 C 
BRANCH   8   9
ATOM      9  N   UNL A   1      39.056  22.206  25.911  1.00  0.00    -0.342 N 
ATOM     10  O   UNL A   1      38.481  24.365  26.311  1.00  0.00    -0.274 OA
ATOM     11  C   UNL A   1      38.159  23.220  26.021  1.00  0.00     0.231 C 
ATOM     12  H   UNL A   1      38.706  21.363  25.541  1.00  0.00     0.164 HD
BRANCH  11  13
ATOM     13  C   UNL A   1      36.723  22.783  25.747  1.00  0.00     0.178 C 
BRANCH  13  14
ATOM     14  S   UNL A   1      35.549  24.170  25.538  1.00  0.00    -0.076 SA
BRANCH  14  15
ATOM     15  C   UNL A   1      34.473  23.499  24.363  1.00  0.00     0.197 A 
ATOM     16  N   UNL A   1      34.332  22.222  24.062  1.00  0.00    -0.122 NA
ATOM     17  N   UNL A   1      33.383  24.177  23.932  1.00  0.00    -0.260 N 
ATOM     18  N   UNL A   1      33.033  22.038  23.577  1.00  0.00    -0.118 NA
ATOM     19  C   UNL A   1      32.455  23.213  23.622  1.00  0.00     0.217 A 
ATOM     20  C   UNL A   1      32.953  25.480  23.997  1.00  0.00     0.068 A 
ATOM     21  S   UNL A   1      30.773  23.702  23.502  1.00  0.00    -0.094 S 
ATOM     22  C   UNL A   1      31.218  25.361  23.940  1.00  0.00     0.055 A 
ATOM     23  C   UNL A   1      33.821  26.973  24.246  1.00  0.00     0.028 A 
ATOM     24  C   UNL A   1      30.271  26.825  24.144  1.00  0.00     0.021 A 
ATOM     25  C   UNL A   1      32.946  28.492  24.476  1.00  0.00     0.002 A 
ATOM     26  C   UNL A   1      31.155  28.477  24.403  1.00  0.00     0.002 A 
ENDBRANCH  14  15
ENDBRANCH  13  14
ENDBRANCH  11  13
ENDBRANCH   8   9
BRANCH   8  27
ATOM     27  C   UNL A   1      41.430  21.101  25.753  1.00  0.00     0.074 C 
BRANCH  27  28
ATOM     28  C   UNL A   1      42.853  21.553  25.366  1.00  0.00    -0.020 A 
ATOM     29  C   UNL A   1      43.279  22.840  25.074  1.00  0.00     0.087 A 
ATOM     30  C   UNL A   1      44.020  20.715  25.184  1.00  0.00     0.003 A 
ATOM     31  N   UNL A   1      44.612  22.814  24.735  1.00  0.00    -0.361 N 
ATOM     32  C   UNL A   1      45.097  21.530  24.814  1.00  0.00     0.046 A 
ATOM     33  C   UNL A   1      44.269  19.334  25.320  1.00  0.00     0.010 A 
ATOM     34  H   UNL A   1      45.143  23.601  24.474  1.00  0.00     0.166 HD
ATOM     35  C   UNL A   1      46.404  21.045  24.629  1.00  0.00     0.026 A 
ATOM     36  C   UNL A   1      45.562  18.828  25.119  1.00  0.00     0.001 A 
ATOM     37  C   UNL A   1      46.618  19.674  24.794  1.00  0.00     0.002 A 
ENDBRANCH  27  28
ENDBRANCH   8  27
ENDBRANCH   6   8
ENDBRANCH   5   6
ENDBRANCH   4   5
ENDBRANCH   3   4
ENDBRANCH   2   3
ENDBRANCH   1   2
BRANCH   1  38
ATOM     38  C   UNL A   1      45.949  23.933  27.789  1.00  0.00     0.188 C 
BRANCH  38  39
ATOM     39  O   UNL A   1      47.166  24.102  27.076  1.00  0.00    -0.376 OA
BRANCH  39  40
ATOM     40  C   UNL A   1      47.660  25.429  27.204  1.00  0.00     0.202 C 
BRANCH  40  41
ATOM     41  C   UNL A   1      49.210  25.537  27.354  1.00  0.00     0.261 C 
BRANCH  41  42
ATOM     42  O   UNL A   1      49.652  26.584  28.299  1.00  0.00    -0.460 OA
BRANCH  42  43
ATOM     43  C   UNL A   1      50.684  26.276  29.153  1.00  0.00     0.338 C 
ATOM     44  O   UNL A   1      51.862  26.359  28.836  1.00  0.00    -0.246 OA
BRANCH  43  45
ATOM     45  C   UNL A   1      50.230  26.141  30.607  1.00  0.00     0.060 A 
ATOM     46  C   UNL A   1      51.022  26.158  31.759  1.00  0.00     0.016 A 
ATOM     47  C   UNL A   1      48.873  25.884  30.806  1.00  0.00     0.016 A 
ATOM     48  C   UNL A   1      50.469  25.816  33.047  1.00  0.00     0.010 A 
ATOM     49  C   UNL A   1      48.342  25.549  32.073  1.00  0.00     0.010 A 
ATOM     50  C   UNL A   1      49.124  25.417  33.219  1.00  0.00    -0.014 A 
BRANCH  50  51
ATOM     51  C   UNL A   1      48.405  25.302  34.551  1.00  0.00     0.031 A 
ATOM     52  C   UNL A   1      48.108  23.890  34.801  1.00  0.00     0.074 A 
ATOM     53  C   UNL A   1      48.027  26.124  35.582  1.00  0.00     0.049 A 
ATOM     54  N   UNL A   1      46.958  23.375  34.534  1.00  0.00    -0.248 NA
ATOM     55  C   UNL A   1      49.156  22.936  35.153  1.00  0.00     0.031 C 
ATOM     56  C   UNL A   1      48.061  27.567  35.641  1.00  0.00     0.029 A 
ATOM     57  N   UNL A   1      47.499  25.856  36.848  1.00  0.00    -0.354 N 
ATOM     58  C   UNL A   1      47.050  22.066  34.942  1.00  0.00     0.074 A 
ATOM     59  C   UNL A   1      48.463  21.796  35.079  1.00  0.00     0.031 C 
ATOM     60  C   UNL A   1      47.892  28.041  36.897  1.00  0.00     0.029 A 
ATOM     61  C   UNL A   1      47.530  26.934  37.760  1.00  0.00     0.049 A 
ATOM     62  H   UNL A   1      47.130  24.975  37.089  1.00  0.00     0.167 HD
ATOM     63  C   UNL A   1      45.939  21.429  35.398  1.00  0.00     0.034 A 
ATOM     64  C   UNL A   1      46.893  27.199  38.943  1.00  0.00     0.034 A 
ATOM     65  C   UNL A   1      44.742  22.197  35.118  1.00  0.00     0.049 A 
ATOM     66  C   UNL A   1      45.673  26.390  38.994  1.00  0.00     0.074 A 
ATOM     67  C   UNL A   1      44.129  22.682  33.979  1.00  0.00     0.029 A 
ATOM     68  N   UNL A   1      44.207  22.913  36.161  1.00  0.00    -0.354 N 
ATOM     69  N   UNL A   1      44.614  26.657  38.292  1.00  0.00    -0.248 NA
ATOM     70  C   UNL A   1      45.809  25.031  39.470  1.00  0.00     0.031 C 
ATOM     71  C   UNL A   1      43.556  23.934  34.349  1.00  0.00     0.029 A 
ATOM     72  C   UNL A   1      43.773  24.134  35.711  1.00  0.00     0.049 A 
ATOM     73  H   UNL A   1      44.144  22.596  37.091  1.00  0.00     0.167 HD
ATOM     74  C   UNL A   1      44.271  25.424  37.773  1.00  0.00     0.074 A 
ATOM     75  C   UNL A   1      44.959  24.450  38.623  1.00  0.00     0.031 C 
ATOM     76  C   UNL A   1      43.704  25.328  36.536  1.00  0.00     0.034 A 
BRANCH  63  77
ATOM     77  C   UNL A   1      45.996  20.336  36.428  1.00  0.00     0.023 A 
ATOM     78  C   UNL A   1      46.413  20.551  37.756  1.00  0.00     0.031 A 
ATOM     79  C   UNL A   1      45.440  19.076  36.152  1.00  0.00     0.131 A 
ATOM     80  C   UNL A   1      46.325  19.549  38.726  1.00  0.00     0.055 A 
ATOM     81  C   UNL A   1      45.277  18.098  37.140  1.00  0.00     0.041 A 
ATOM     82  F   UNL A   1      44.987  18.777  34.924  1.00  0.00    -0.206 F 
ATOM     83  C   UNL A   1      45.727  18.330  38.435  1.00  0.00     0.022 A 
BRANCH  80  84
ATOM     84  S   UNL A   1      46.991  19.830  40.391  1.00  0.00     0.124 S 
ATOM     85  O   UNL A   1      47.486  18.505  40.743  1.00  0.00    -0.237 OA
ATOM     86  O   UNL A   1      48.010  20.843  40.128  1.00  0.00    -0.237 OA
ATOM     87  O   UNL A   1      45.833  20.298  41.147  1.00  0.00    -0.744 OA
ENDBRANCH  80  84
ENDBRANCH  63  77
BRANCH  64  88
ATOM     88  C   UNL A   1      47.508  27.688  40.216  1.00  0.00     0.023 A 
ATOM     89  C   UNL A   1      48.719  27.141  40.656  1.00  0.00     0.031 A 
ATOM     90  C   UNL A   1      46.784  28.471  41.147  1.00  0.00     0.131 A 
ATOM     91  C   UNL A   1      49.118  27.283  41.995  1.00  0.00     0.055 A 
ATOM     92  C   UNL A   1      47.205  28.643  42.475  1.00  0.00     0.041 A 
ATOM     93  F   UNL A   1      45.613  29.031  40.807  1.00  0.00    -0.206 F 
ATOM     94  C   UNL A   1      48.370  28.024  42.913  1.00  0.00     0.022 A 
BRANCH  91  95
ATOM     95  S   UNL A   1      50.577  26.390  42.595  1.00  0.00     0.124 S 
ATOM     96  O   UNL A   1      50.778  25.386  41.552  1.00  0.00    -0.237 OA
ATOM     97  O   UNL A   1      51.571  27.455  42.645  1.00  0.00    -0.237 OA
ATOM     98  O   UNL A   1      50.138  25.865  43.884  1.00  0.00    -0.744 OA
ENDBRANCH  91  95
ENDBRANCH  64  88
BRANCH  76  99
ATOM     99  C   UNL A   1      43.132  26.585  35.897  1.00  0.00     0.023 A 
ATOM    100  C   UNL A   1      43.955  27.260  34.980  1.00  0.00     0.031 A 
ATOM    101  C   UNL A   1      41.919  27.216  36.245  1.00  0.00     0.131 A 
ATOM    102  C   UNL A   1      43.598  28.522  34.488  1.00  0.00     0.055 A 
ATOM    103  C   UNL A   1      41.531  28.447  35.698  1.00  0.00     0.041 A 
ATOM    104  F   UNL A   1      41.097  26.706  37.170  1.00  0.00    -0.206 F 
ATOM    105  C   UNL A   1      42.382  29.116  34.828  1.00  0.00     0.022 A 
BRANCH 102 106
ATOM    106  S   UNL A   1      44.771  29.483  33.500  1.00  0.00     0.124 S 
ATOM    107  O   UNL A   1      45.809  28.497  33.212  1.00  0.00    -0.237 OA
ATOM    108  O   UNL A   1      43.951  29.881  32.358  1.00  0.00    -0.237 OA
ATOM    109  O   UNL A   1      45.168  30.572  34.387  1.00  0.00    -0.744 OA
ENDBRANCH 102 106
ENDBRANCH  76  99
ENDBRANCH  50  51
ENDBRANCH  43  45
ENDBRANCH  42  43
ENDBRANCH  41  42
ENDBRANCH  40  41
ENDBRANCH  39  40
ENDBRANCH  38  39
ENDBRANCH   1  38
TORSDOF 26
ENDMDL
