MODEL 1
REMARK VINA RESULT:      -8.9      0.000      0.000
REMARK SMILES O=C(OCCOCCOCCOC(=O)c1ccc(-c2c3nc(c(-c4cc(S(=O)(=O)[O-])ccc4F)c4ccc([nH]4)c(-c4cc(S(=O)(=O)[O-])ccc4F)c4nc(c(-c5cc(S(=O)(=O)[O-])ccc5F)c5ccc2[nH]5)C=C4)C=C3)cc1)c1ccc(NC(=O)[C@@H]2CC=CC[C@H]2C(=O)Nc2cccc([N+](=O)[O-])c2)cc1
REMARK SMILES IDX 7 1 6 2 5 3 4 4 3 5 2 6 1 7 78 8 79 9 104 10 80 11 103 12
REMARK SMILES IDX 81 13 82 14 83 15 84 17 85 18 86 19 90 20 87 21 89 22 88 23
REMARK SMILES IDX 91 24 92 25 93 26 94 28 95 29 102 30 96 31 98 32 97 33 99 34
REMARK SMILES IDX 100 35 101 36 8 37 9 38 10 39 11 40 12 41 13 42 14 43 15 44
REMARK SMILES IDX 16 45 77 46 17 47 76 48 18 49 19 50 20 51 70 52 21 53 75 54
REMARK SMILES IDX 69 55 71 56 22 57 74 58 68 59 67 60 23 62 55 63 35 64 54 65
REMARK SMILES IDX 36 66 39 67 53 68 72 69 37 70 38 71 52 73 73 74 40 75 24 76
REMARK SMILES IDX 25 77 33 78 26 79 32 80 34 81 31 82 27 83 28 84 29 85 30 86
REMARK SMILES IDX 56 87 57 88 65 89 58 90 64 91 66 92 63 93 59 94 60 95 61 96
REMARK SMILES IDX 62 97 41 98 42 99 50 100 43 101 49 102 51 103 48 104 44 105
REMARK SMILES IDX 45 106 46 107 47 108
REMARK H PARENT 82 16 93 27 71 61 39 72
REMARK Flexibility Score: inf
ROOT
ATOM      1  C   UNL A   1      40.670  24.005  26.648  1.00  0.00     0.188 C 
ENDROOT
BRANCH   1   2
ATOM      2  O   UNL A   1      40.809  25.042  27.622  1.00  0.00    -0.376 OA
BRANCH   2   3
ATOM      3  C   UNL A   1      42.133  25.277  28.081  1.00  0.00     0.202 C 
BRANCH   3   4
ATOM      4  C   UNL A   1      42.944  26.317  27.302  1.00  0.00     0.261 C 
BRANCH   4   5
ATOM      5  O   UNL A   1      42.455  27.664  27.409  1.00  0.00    -0.460 OA
BRANCH   5   6
ATOM      6  C   UNL A   1      42.075  28.264  28.565  1.00  0.00     0.338 C 
ATOM      7  O   UNL A   1      42.832  28.348  29.522  1.00  0.00    -0.246 OA
BRANCH   6   8
ATOM      8  C   UNL A   1      40.727  28.859  28.640  1.00  0.00     0.060 A 
ATOM      9  C   UNL A   1      39.939  28.978  27.495  1.00  0.00     0.018 A 
ATOM     10  C   UNL A   1      40.207  29.218  29.886  1.00  0.00     0.018 A 
ATOM     11  C   UNL A   1      38.686  29.579  27.572  1.00  0.00     0.027 A 
ATOM     12  C   UNL A   1      38.930  29.780  29.968  1.00  0.00     0.027 A 
ATOM     13  C   UNL A   1      38.195  30.017  28.803  1.00  0.00     0.041 A 
BRANCH  13  14
ATOM     14  N   UNL A   1      36.932  30.623  28.916  1.00  0.00    -0.326 N 
ATOM     15  C   UNL A   1      36.638  31.914  28.590  1.00  0.00     0.228 C 
ATOM     16  H   UNL A   1      36.196  30.066  29.260  1.00  0.00     0.169 HD
ATOM     17  O   UNL A   1      35.760  32.146  27.759  1.00  0.00    -0.274 OA
BRANCH  15  18
ATOM     18  C   UNL A   1      37.237  33.069  29.410  1.00  0.00     0.095 C 
ATOM     19  C   UNL A   1      38.683  33.507  29.128  1.00  0.00     0.041 C 
ATOM     20  C   UNL A   1      37.074  32.744  30.913  1.00  0.00     0.095 C 
ATOM     21  C   UNL A   1      39.183  34.535  30.106  1.00  0.00    -0.030 C 
ATOM     22  C   UNL A   1      37.507  33.892  31.843  1.00  0.00     0.041 C 
ATOM     23  C   UNL A   1      38.644  34.716  31.317  1.00  0.00    -0.030 C 
BRANCH  20  24
ATOM     24  C   UNL A   1      35.752  32.117  31.389  1.00  0.00     0.228 C 
ATOM     25  O   UNL A   1      35.784  30.968  31.852  1.00  0.00    -0.274 OA
ATOM     26  N   UNL A   1      34.569  32.795  31.501  1.00  0.00    -0.326 N 
ATOM     27  H   UNL A   1      33.847  32.278  31.927  1.00  0.00     0.169 HD
BRANCH  26  28
ATOM     28  C   UNL A   1      34.203  34.088  31.119  1.00  0.00     0.048 A 
ATOM     29  C   UNL A   1      33.813  34.295  29.792  1.00  0.00     0.026 A 
ATOM     30  C   UNL A   1      34.214  35.163  31.998  1.00  0.00     0.111 A 
ATOM     31  C   UNL A   1      33.294  35.531  29.392  1.00  0.00     0.009 A 
ATOM     32  C   UNL A   1      33.652  36.385  31.612  1.00  0.00     0.271 A 
ATOM     33  C   UNL A   1      33.180  36.573  30.310  1.00  0.00     0.086 A 
BRANCH  32  34
ATOM     34  N   UNL A   1      33.493  37.450  32.606  1.00  0.00     0.062 N 
ATOM     35  O   UNL A   1      33.983  37.270  33.731  1.00  0.00    -0.258 OA
ATOM     36  O   UNL A   1      32.928  38.494  32.248  1.00  0.00    -0.258 OA
ENDBRANCH  32  34
ENDBRANCH  26  28
ENDBRANCH  20  24
ENDBRANCH  15  18
ENDBRANCH  13  14
ENDBRANCH   6   8
ENDBRANCH   5   6
ENDBRANCH   4   5
ENDBRANCH   3   4
ENDBRANCH   2   3
ENDBRANCH   1   2
BRANCH   1  37
ATOM     37  C   UNL A   1      40.888  22.655  27.336  1.00  0.00     0.188 C 
BRANCH  37  38
ATOM     38  O   UNL A   1      41.162  21.580  26.431  1.00  0.00    -0.376 OA
BRANCH  38  39
ATOM     39  C   UNL A   1      42.465  21.003  26.496  1.00  0.00     0.202 C 
BRANCH  39  40
ATOM     40  C   UNL A   1      43.446  21.423  25.398  1.00  0.00     0.261 C 
BRANCH  40  41
ATOM     41  O   UNL A   1      43.996  22.742  25.560  1.00  0.00    -0.460 OA
BRANCH  41  42
ATOM     42  C   UNL A   1      45.326  22.770  25.818  1.00  0.00     0.338 C 
ATOM     43  O   UNL A   1      46.102  21.830  25.801  1.00  0.00    -0.246 OA
BRANCH  42  44
ATOM     44  C   UNL A   1      45.754  24.136  26.163  1.00  0.00     0.060 A 
ATOM     45  C   UNL A   1      45.865  25.103  25.160  1.00  0.00     0.016 A 
ATOM     46  C   UNL A   1      46.232  24.391  27.449  1.00  0.00     0.016 A 
ATOM     47  C   UNL A   1      46.497  26.321  25.435  1.00  0.00     0.010 A 
ATOM     48  C   UNL A   1      46.855  25.610  27.725  1.00  0.00     0.010 A 
ATOM     49  C   UNL A   1      47.032  26.567  26.709  1.00  0.00    -0.014 A 
BRANCH  49  50
ATOM     50  C   UNL A   1      47.907  27.739  26.975  1.00  0.00     0.031 A 
ATOM     51  C   UNL A   1      47.278  29.042  27.391  1.00  0.00     0.074 A 
ATOM     52  C   UNL A   1      49.236  27.672  26.783  1.00  0.00     0.049 A 
ATOM     53  N   UNL A   1      47.808  30.236  27.480  1.00  0.00    -0.248 NA
ATOM     54  C   UNL A   1      45.851  28.987  27.740  1.00  0.00     0.031 C 
ATOM     55  C   UNL A   1      49.975  26.468  26.416  1.00  0.00     0.029 A 
ATOM     56  N   UNL A   1      50.192  28.657  26.831  1.00  0.00    -0.354 N 
ATOM     57  C   UNL A   1      46.775  31.082  27.873  1.00  0.00     0.074 A 
ATOM     58  C   UNL A   1      45.584  30.262  27.979  1.00  0.00     0.031 C 
ATOM     59  C   UNL A   1      51.264  26.793  26.222  1.00  0.00     0.029 A 
ATOM     60  C   UNL A   1      51.429  28.234  26.408  1.00  0.00     0.049 A 
ATOM     61  H   UNL A   1      50.009  29.575  27.137  1.00  0.00     0.167 HD
ATOM     62  C   UNL A   1      46.816  32.415  28.124  1.00  0.00     0.034 A 
ATOM     63  C   UNL A   1      52.551  28.933  26.144  1.00  0.00     0.034 A 
ATOM     64  C   UNL A   1      48.009  33.220  28.005  1.00  0.00     0.049 A 
ATOM     65  C   UNL A   1      52.565  30.427  26.346  1.00  0.00     0.074 A 
ATOM     66  C   UNL A   1      48.170  34.570  28.271  1.00  0.00     0.029 A 
ATOM     67  N   UNL A   1      49.243  32.756  27.569  1.00  0.00    -0.354 N 
ATOM     68  N   UNL A   1      51.588  31.220  26.722  1.00  0.00    -0.248 NA
ATOM     69  C   UNL A   1      53.836  31.119  26.090  1.00  0.00     0.031 C 
ATOM     70  C   UNL A   1      49.478  34.934  27.930  1.00  0.00     0.029 A 
ATOM     71  C   UNL A   1      50.158  33.797  27.523  1.00  0.00     0.049 A 
ATOM     72  H   UNL A   1      49.440  31.821  27.328  1.00  0.00     0.167 HD
ATOM     73  C   UNL A   1      52.136  32.500  26.774  1.00  0.00     0.074 A 
ATOM     74  C   UNL A   1      53.527  32.374  26.389  1.00  0.00     0.031 C 
ATOM     75  C   UNL A   1      51.541  33.669  27.124  1.00  0.00     0.034 A 
BRANCH  62  76
ATOM     76  C   UNL A   1      45.512  33.088  28.486  1.00  0.00     0.023 A 
ATOM     77  C   UNL A   1      44.725  33.748  27.526  1.00  0.00     0.031 A 
ATOM     78  C   UNL A   1      45.077  33.115  29.823  1.00  0.00     0.131 A 
ATOM     79  C   UNL A   1      43.595  34.478  27.927  1.00  0.00     0.055 A 
ATOM     80  C   UNL A   1      43.907  33.774  30.204  1.00  0.00     0.041 A 
ATOM     81  F   UNL A   1      45.795  32.519  30.788  1.00  0.00    -0.206 F 
ATOM     82  C   UNL A   1      43.169  34.478  29.257  1.00  0.00     0.022 A 
BRANCH  79  83
ATOM     83  S   UNL A   1      42.790  35.564  26.718  1.00  0.00     0.124 S 
ATOM     84  O   UNL A   1      42.932  34.794  25.485  1.00  0.00    -0.237 OA
ATOM     85  O   UNL A   1      41.438  35.679  27.250  1.00  0.00    -0.237 OA
ATOM     86  O   UNL A   1      43.588  36.788  26.772  1.00  0.00    -0.744 OA
ENDBRANCH  79  83
ENDBRANCH  62  76
BRANCH  63  87
ATOM     87  C   UNL A   1      53.740  28.230  25.590  1.00  0.00     0.023 A 
ATOM     88  C   UNL A   1      53.978  28.170  24.210  1.00  0.00     0.031 A 
ATOM     89  C   UNL A   1      54.657  27.599  26.452  1.00  0.00     0.131 A 
ATOM     90  C   UNL A   1      55.096  27.473  23.727  1.00  0.00     0.055 A 
ATOM     91  C   UNL A   1      55.787  26.939  25.969  1.00  0.00     0.041 A 
ATOM     92  F   UNL A   1      54.476  27.639  27.780  1.00  0.00    -0.206 F 
ATOM     93  C   UNL A   1      56.007  26.867  24.597  1.00  0.00     0.022 A 
BRANCH  90  94
ATOM     94  S   UNL A   1      55.332  27.341  21.933  1.00  0.00     0.124 S 
ATOM     95  O   UNL A   1      55.287  28.739  21.523  1.00  0.00    -0.237 OA
ATOM     96  O   UNL A   1      56.634  26.686  21.846  1.00  0.00    -0.237 OA
ATOM     97  O   UNL A   1      54.201  26.523  21.501  1.00  0.00    -0.744 OA
ENDBRANCH  90  94
ENDBRANCH  63  87
BRANCH  75  98
ATOM     98  C   UNL A   1      52.411  34.903  27.167  1.00  0.00     0.023 A 
ATOM     99  C   UNL A   1      52.625  35.706  26.033  1.00  0.00     0.031 A 
ATOM    100  C   UNL A   1      53.023  35.285  28.375  1.00  0.00     0.131 A 
ATOM    101  C   UNL A   1      53.460  36.833  26.123  1.00  0.00     0.055 A 
ATOM    102  C   UNL A   1      53.814  36.432  28.469  1.00  0.00     0.041 A 
ATOM    103  F   UNL A   1      52.853  34.554  29.488  1.00  0.00    -0.206 F 
ATOM    104  C   UNL A   1      54.041  37.208  27.337  1.00  0.00     0.022 A 
BRANCH 101 105
ATOM    105  S   UNL A   1      53.824  37.779  24.618  1.00  0.00     0.124 S 
ATOM    106  O   UNL A   1      55.241  37.492  24.415  1.00  0.00    -0.237 OA
ATOM    107  O   UNL A   1      52.908  37.190  23.647  1.00  0.00    -0.237 OA
ATOM    108  O   UNL A   1      53.520  39.157  24.996  1.00  0.00    -0.744 OA
ENDBRANCH 101 105
ENDBRANCH  75  98
ENDBRANCH  49  50
ENDBRANCH  42  44
ENDBRANCH  41  42
ENDBRANCH  40  41
ENDBRANCH  39  40
ENDBRANCH  38  39
ENDBRANCH  37  38
ENDBRANCH   1  37
TORSDOF 25
ENDMDL
MODEL 2
REMARK VINA RESULT:      -8.8      1.861      2.226
REMARK SMILES O=C(OCCOCCOCCOC(=O)c1ccc(-c2c3nc(c(-c4cc(S(=O)(=O)[O-])ccc4F)c4ccc([nH]4)c(-c4cc(S(=O)(=O)[O-])ccc4F)c4nc(c(-c5cc(S(=O)(=O)[O-])ccc5F)c5ccc2[nH]5)C=C4)C=C3)cc1)c1ccc(NC(=O)[C@@H]2CC=CC[C@H]2C(=O)Nc2cccc([N+](=O)[O-])c2)cc1
REMARK SMILES IDX 7 1 6 2 5 3 4 4 3 5 2 6 1 7 78 8 79 9 104 10 80 11 103 12
REMARK SMILES IDX 81 13 82 14 83 15 84 17 85 18 86 19 90 20 87 21 89 22 88 23
REMARK SMILES IDX 91 24 92 25 93 26 94 28 95 29 102 30 96 31 98 32 97 33 99 34
REMARK SMILES IDX 100 35 101 36 8 37 9 38 10 39 11 40 12 41 13 42 14 43 15 44
REMARK SMILES IDX 16 45 77 46 17 47 76 48 18 49 19 50 20 51 70 52 21 53 75 54
REMARK SMILES IDX 69 55 71 56 22 57 74 58 68 59 67 60 23 62 55 63 35 64 54 65
REMARK SMILES IDX 36 66 39 67 53 68 72 69 37 70 38 71 52 73 73 74 40 75 24 76
REMARK SMILES IDX 25 77 33 78 26 79 32 80 34 81 31 82 27 83 28 84 29 85 30 86
REMARK SMILES IDX 56 87 57 88 65 89 58 90 64 91 66 92 63 93 59 94 60 95 61 96
REMARK SMILES IDX 62 97 41 98 42 99 50 100 43 101 49 102 51 103 48 104 44 105
REMARK SMILES IDX 45 106 46 107 47 108
REMARK H PARENT 82 16 93 27 71 61 39 72
REMARK Flexibility Score: inf
ROOT
ATOM      1  C   UNL A   1      40.667  23.939  26.711  1.00  0.00     0.188 C 
ENDROOT
BRANCH   1   2
ATOM      2  O   UNL A   1      40.936  25.012  27.616  1.00  0.00    -0.376 OA
BRANCH   2   3
ATOM      3  C   UNL A   1      42.295  25.419  27.697  1.00  0.00     0.202 C 
BRANCH   3   4
ATOM      4  C   UNL A   1      42.721  26.544  26.749  1.00  0.00     0.261 C 
BRANCH   4   5
ATOM      5  O   UNL A   1      42.008  27.780  26.924  1.00  0.00    -0.460 OA
BRANCH   5   6
ATOM      6  C   UNL A   1      41.903  28.459  28.093  1.00  0.00     0.338 C 
ATOM      7  O   UNL A   1      42.883  28.705  28.781  1.00  0.00    -0.246 OA
BRANCH   6   8
ATOM      8  C   UNL A   1      40.572  28.938  28.512  1.00  0.00     0.060 A 
ATOM      9  C   UNL A   1      39.498  28.916  27.623  1.00  0.00     0.018 A 
ATOM     10  C   UNL A   1      40.373  29.329  29.839  1.00  0.00     0.018 A 
ATOM     11  C   UNL A   1      38.258  29.411  28.018  1.00  0.00     0.027 A 
ATOM     12  C   UNL A   1      39.115  29.782  30.247  1.00  0.00     0.027 A 
ATOM     13  C   UNL A   1      38.074  29.881  29.320  1.00  0.00     0.041 A 
BRANCH  13  14
ATOM     14  N   UNL A   1      36.834  30.381  29.752  1.00  0.00    -0.326 N 
ATOM     15  C   UNL A   1      36.303  31.590  29.413  1.00  0.00     0.228 C 
ATOM     16  H   UNL A   1      36.303  29.808  30.352  1.00  0.00     0.169 HD
ATOM     17  O   UNL A   1      35.201  31.638  28.866  1.00  0.00    -0.274 OA
BRANCH  15  18
ATOM     18  C   UNL A   1      36.968  32.887  29.904  1.00  0.00     0.095 C 
ATOM     19  C   UNL A   1      38.247  33.375  29.205  1.00  0.00     0.041 C 
ATOM     20  C   UNL A   1      37.218  32.769  31.425  1.00  0.00     0.095 C 
ATOM     21  C   UNL A   1      38.870  34.562  29.889  1.00  0.00    -0.030 C 
ATOM     22  C   UNL A   1      37.750  34.063  32.065  1.00  0.00     0.041 C 
ATOM     23  C   UNL A   1      38.633  34.877  31.168  1.00  0.00    -0.030 C 
BRANCH  20  24
ATOM     24  C   UNL A   1      36.125  32.129  32.300  1.00  0.00     0.228 C 
ATOM     25  O   UNL A   1      36.370  31.040  32.837  1.00  0.00    -0.274 OA
ATOM     26  N   UNL A   1      34.965  32.753  32.670  1.00  0.00    -0.326 N 
ATOM     27  H   UNL A   1      34.426  32.249  33.323  1.00  0.00     0.169 HD
BRANCH  26  28
ATOM     28  C   UNL A   1      34.409  33.977  32.288  1.00  0.00     0.048 A 
ATOM     29  C   UNL A   1      34.331  34.991  33.247  1.00  0.00     0.026 A 
ATOM     30  C   UNL A   1      33.934  34.218  31.005  1.00  0.00     0.111 A 
ATOM     31  C   UNL A   1      33.925  36.279  32.883  1.00  0.00     0.009 A 
ATOM     32  C   UNL A   1      33.572  35.516  30.628  1.00  0.00     0.271 A 
ATOM     33  C   UNL A   1      33.575  36.555  31.562  1.00  0.00     0.086 A 
BRANCH  32  34
ATOM     34  N   UNL A   1      33.258  35.797  29.225  1.00  0.00     0.062 N 
ATOM     35  O   UNL A   1      32.300  36.547  28.986  1.00  0.00    -0.258 OA
ATOM     36  O   UNL A   1      34.002  35.313  28.359  1.00  0.00    -0.258 OA
ENDBRANCH  32  34
ENDBRANCH  26  28
ENDBRANCH  20  24
ENDBRANCH  15  18
ENDBRANCH  13  14
ENDBRANCH   6   8
ENDBRANCH   5   6
ENDBRANCH   4   5
ENDBRANCH   3   4
ENDBRANCH   2   3
ENDBRANCH   1   2
BRANCH   1  37
ATOM     37  C   UNL A   1      40.814  22.614  27.465  1.00  0.00     0.188 C 
BRANCH  37  38
ATOM     38  O   UNL A   1      41.234  21.522  26.642  1.00  0.00    -0.376 OA
BRANCH  38  39
ATOM     39  C   UNL A   1      42.618  21.178  26.688  1.00  0.00     0.202 C 
BRANCH  39  40
ATOM     40  C   UNL A   1      43.487  21.717  25.548  1.00  0.00     0.261 C 
BRANCH  40  41
ATOM     41  O   UNL A   1      43.974  23.055  25.748  1.00  0.00    -0.460 OA
BRANCH  41  42
ATOM     42  C   UNL A   1      45.300  23.137  26.016  1.00  0.00     0.338 C 
ATOM     43  O   UNL A   1      46.083  22.215  26.162  1.00  0.00    -0.246 OA
BRANCH  42  44
ATOM     44  C   UNL A   1      45.713  24.545  26.140  1.00  0.00     0.060 A 
ATOM     45  C   UNL A   1      45.741  25.363  25.008  1.00  0.00     0.016 A 
ATOM     46  C   UNL A   1      46.256  24.987  27.348  1.00  0.00     0.016 A 
ATOM     47  C   UNL A   1      46.358  26.618  25.072  1.00  0.00     0.010 A 
ATOM     48  C   UNL A   1      46.863  26.243  27.413  1.00  0.00     0.010 A 
ATOM     49  C   UNL A   1      46.957  27.050  26.264  1.00  0.00    -0.014 A 
BRANCH  49  50
ATOM     50  C   UNL A   1      47.817  28.263  26.312  1.00  0.00     0.031 A 
ATOM     51  C   UNL A   1      47.182  29.598  26.600  1.00  0.00     0.074 A 
ATOM     52  C   UNL A   1      49.130  28.195  26.033  1.00  0.00     0.049 A 
ATOM     53  N   UNL A   1      47.684  30.802  26.494  1.00  0.00    -0.248 NA
ATOM     54  C   UNL A   1      45.785  29.563  27.056  1.00  0.00     0.031 C 
ATOM     55  C   UNL A   1      49.874  26.967  25.772  1.00  0.00     0.029 A 
ATOM     56  N   UNL A   1      50.060  29.195  25.883  1.00  0.00    -0.354 N 
ATOM     57  C   UNL A   1      46.659  31.674  26.849  1.00  0.00     0.074 A 
ATOM     58  C   UNL A   1      45.502  30.854  27.147  1.00  0.00     0.031 C 
ATOM     59  C   UNL A   1      51.137  27.287  25.444  1.00  0.00     0.029 A 
ATOM     60  C   UNL A   1      51.275  28.742  25.429  1.00  0.00     0.049 A 
ATOM     61  H   UNL A   1      49.873  30.142  26.080  1.00  0.00     0.167 HD
ATOM     62  C   UNL A   1      46.681  33.029  26.920  1.00  0.00     0.034 A 
ATOM     63  C   UNL A   1      52.356  29.421  24.995  1.00  0.00     0.034 A 
ATOM     64  C   UNL A   1      47.839  33.833  26.612  1.00  0.00     0.049 A 
ATOM     65  C   UNL A   1      52.343  30.929  25.000  1.00  0.00     0.074 A 
ATOM     66  C   UNL A   1      47.982  35.209  26.687  1.00  0.00     0.029 A 
ATOM     67  N   UNL A   1      49.052  33.338  26.150  1.00  0.00    -0.354 N 
ATOM     68  N   UNL A   1      51.374  31.747  25.340  1.00  0.00    -0.248 NA
ATOM     69  C   UNL A   1      53.574  31.604  24.564  1.00  0.00     0.031 C 
ATOM     70  C   UNL A   1      49.253  35.548  26.207  1.00  0.00     0.029 A 
ATOM     71  C   UNL A   1      49.933  34.380  25.903  1.00  0.00     0.049 A 
ATOM     72  H   UNL A   1      49.257  32.383  26.018  1.00  0.00     0.167 HD
ATOM     73  C   UNL A   1      51.888  33.032  25.185  1.00  0.00     0.074 A 
ATOM     74  C   UNL A   1      53.252  32.882  24.720  1.00  0.00     0.031 C 
ATOM     75  C   UNL A   1      51.288  34.226  25.424  1.00  0.00     0.034 A 
BRANCH  62  76
ATOM     76  C   UNL A   1      45.387  33.720  27.287  1.00  0.00     0.023 A 
ATOM     77  C   UNL A   1      44.917  33.763  28.611  1.00  0.00     0.031 A 
ATOM     78  C   UNL A   1      44.587  34.299  26.286  1.00  0.00     0.131 A 
ATOM     79  C   UNL A   1      43.646  34.291  28.887  1.00  0.00     0.055 A 
ATOM     80  C   UNL A   1      43.360  34.897  26.578  1.00  0.00     0.041 A 
ATOM     81  F   UNL A   1      44.973  34.274  25.000  1.00  0.00    -0.206 F 
ATOM     82  C   UNL A   1      42.874  34.878  27.883  1.00  0.00     0.022 A 
BRANCH  79  83
ATOM     83  S   UNL A   1      42.947  34.048  30.543  1.00  0.00     0.124 S 
ATOM     84  O   UNL A   1      42.227  35.302  30.749  1.00  0.00    -0.237 OA
ATOM     85  O   UNL A   1      42.124  32.858  30.365  1.00  0.00    -0.237 OA
ATOM     86  O   UNL A   1      44.126  33.870  31.389  1.00  0.00    -0.744 OA
ENDBRANCH  79  83
ENDBRANCH  62  76
BRANCH  63  87
ATOM     87  C   UNL A   1      53.522  28.673  24.452  1.00  0.00     0.023 A 
ATOM     88  C   UNL A   1      53.671  28.447  23.076  1.00  0.00     0.031 A 
ATOM     89  C   UNL A   1      54.508  28.166  25.319  1.00  0.00     0.131 A 
ATOM     90  C   UNL A   1      54.770  27.713  22.607  1.00  0.00     0.055 A 
ATOM     91  C   UNL A   1      55.618  27.469  24.845  1.00  0.00     0.041 A 
ATOM     92  F   UNL A   1      54.413  28.367  26.643  1.00  0.00    -0.206 F 
ATOM     93  C   UNL A   1      55.750  27.232  23.480  1.00  0.00     0.022 A 
BRANCH  90  94
ATOM     94  S   UNL A   1      54.892  27.365  20.831  1.00  0.00     0.124 S 
ATOM     95  O   UNL A   1      53.516  27.016  20.501  1.00  0.00    -0.237 OA
ATOM     96  O   UNL A   1      55.378  28.637  20.305  1.00  0.00    -0.237 OA
ATOM     97  O   UNL A   1      55.851  26.264  20.766  1.00  0.00    -0.744 OA
ENDBRANCH  90  94
ENDBRANCH  63  87
BRANCH  75  98
ATOM     98  C   UNL A   1      52.124  35.471  25.243  1.00  0.00     0.023 A 
ATOM     99  C   UNL A   1      52.671  36.169  26.334  1.00  0.00     0.031 A 
ATOM    100  C   UNL A   1      52.385  35.954  23.948  1.00  0.00     0.131 A 
ATOM    101  C   UNL A   1      53.424  37.334  26.110  1.00  0.00     0.055 A 
ATOM    102  C   UNL A   1      53.173  37.086  23.729  1.00  0.00     0.041 A 
ATOM    103  F   UNL A   1      51.886  35.327  22.871  1.00  0.00    -0.206 F 
ATOM    104  C   UNL A   1      53.690  37.786  24.815  1.00  0.00     0.022 A 
BRANCH 101 105
ATOM    105  S   UNL A   1      54.011  38.289  27.537  1.00  0.00     0.124 S 
ATOM    106  O   UNL A   1      53.812  39.663  27.086  1.00  0.00    -0.237 OA
ATOM    107  O   UNL A   1      53.126  37.834  28.605  1.00  0.00    -0.237 OA
ATOM    108  O   UNL A   1      55.407  37.879  27.675  1.00  0.00    -0.744 OA
ENDBRANCH 101 105
ENDBRANCH  75  98
ENDBRANCH  49  50
ENDBRANCH  42  44
ENDBRANCH  41  42
ENDBRANCH  40  41
ENDBRANCH  39  40
ENDBRANCH  38  39
ENDBRANCH  37  38
ENDBRANCH   1  37
TORSDOF 25
ENDMDL
MODEL 3
REMARK VINA RESULT:      -8.7      7.625     10.436
REMARK SMILES O=C(OCCOCCOCCOC(=O)c1ccc(-c2c3nc(c(-c4cc(S(=O)(=O)[O-])ccc4F)c4ccc([nH]4)c(-c4cc(S(=O)(=O)[O-])ccc4F)c4nc(c(-c5cc(S(=O)(=O)[O-])ccc5F)c5ccc2[nH]5)C=C4)C=C3)cc1)c1ccc(NC(=O)[C@@H]2CC=CC[C@H]2C(=O)Nc2cccc([N+](=O)[O-])c2)cc1
REMARK SMILES IDX 7 1 6 2 5 3 4 4 3 5 2 6 1 7 78 8 79 9 104 10 80 11 103 12
REMARK SMILES IDX 81 13 82 14 83 15 84 17 85 18 86 19 90 20 87 21 89 22 88 23
REMARK SMILES IDX 91 24 92 25 93 26 94 28 95 29 102 30 96 31 98 32 97 33 99 34
REMARK SMILES IDX 100 35 101 36 8 37 9 38 10 39 11 40 12 41 13 42 14 43 15 44
REMARK SMILES IDX 16 45 77 46 17 47 76 48 18 49 19 50 20 51 70 52 21 53 75 54
REMARK SMILES IDX 69 55 71 56 22 57 74 58 68 59 67 60 23 62 55 63 35 64 54 65
REMARK SMILES IDX 36 66 39 67 53 68 72 69 37 70 38 71 52 73 73 74 40 75 24 76
REMARK SMILES IDX 25 77 33 78 26 79 32 80 34 81 31 82 27 83 28 84 29 85 30 86
REMARK SMILES IDX 56 87 57 88 65 89 58 90 64 91 66 92 63 93 59 94 60 95 61 96
REMARK SMILES IDX 62 97 41 98 42 99 50 100 43 101 49 102 51 103 48 104 44 105
REMARK SMILES IDX 45 106 46 107 47 108
REMARK H PARENT 82 16 93 27 71 61 39 72
REMARK Flexibility Score: inf
ROOT
ATOM      1  C   UNL A   1      46.469  27.446  25.616  1.00  0.00     0.188 C 
ENDROOT
BRANCH   1   2
ATOM      2  O   UNL A   1      46.442  27.270  27.034  1.00  0.00    -0.376 OA
BRANCH   2   3
ATOM      3  C   UNL A   1      46.445  28.467  27.800  1.00  0.00     0.202 C 
BRANCH   3   4
ATOM      4  C   UNL A   1      45.243  28.680  28.725  1.00  0.00     0.261 C 
BRANCH   4   5
ATOM      5  O   UNL A   1      43.992  28.195  28.208  1.00  0.00    -0.460 OA
BRANCH   5   6
ATOM      6  C   UNL A   1      43.125  28.924  27.462  1.00  0.00     0.338 C 
ATOM      7  O   UNL A   1      43.411  29.304  26.336  1.00  0.00    -0.246 OA
BRANCH   6   8
ATOM      8  C   UNL A   1      41.793  29.224  28.023  1.00  0.00     0.060 A 
ATOM      9  C   UNL A   1      41.670  29.822  29.276  1.00  0.00     0.018 A 
ATOM     10  C   UNL A   1      40.656  28.989  27.245  1.00  0.00     0.018 A 
ATOM     11  C   UNL A   1      40.407  30.061  29.811  1.00  0.00     0.027 A 
ATOM     12  C   UNL A   1      39.390  29.273  27.766  1.00  0.00     0.027 A 
ATOM     13  C   UNL A   1      39.263  29.751  29.073  1.00  0.00     0.041 A 
BRANCH  13  14
ATOM     14  N   UNL A   1      37.975  29.985  29.581  1.00  0.00    -0.326 N 
ATOM     15  C   UNL A   1      37.229  31.106  29.369  1.00  0.00     0.228 C 
ATOM     16  H   UNL A   1      37.576  29.278  30.139  1.00  0.00     0.169 HD
ATOM     17  O   UNL A   1      36.113  31.006  28.858  1.00  0.00    -0.274 OA
BRANCH  15  18
ATOM     18  C   UNL A   1      37.680  32.452  29.961  1.00  0.00     0.095 C 
ATOM     19  C   UNL A   1      38.944  33.122  29.402  1.00  0.00     0.041 C 
ATOM     20  C   UNL A   1      37.804  32.301  31.494  1.00  0.00     0.095 C 
ATOM     21  C   UNL A   1      39.349  34.347  30.178  1.00  0.00    -0.030 C 
ATOM     22  C   UNL A   1      38.111  33.622  32.222  1.00  0.00     0.041 C 
ATOM     23  C   UNL A   1      38.961  34.575  31.437  1.00  0.00    -0.030 C 
BRANCH  20  24
ATOM     24  C   UNL A   1      36.727  31.496  32.242  1.00  0.00     0.228 C 
ATOM     25  O   UNL A   1      37.066  30.442  32.799  1.00  0.00    -0.274 OA
ATOM     26  N   UNL A   1      35.457  31.943  32.487  1.00  0.00    -0.326 N 
ATOM     27  H   UNL A   1      34.928  31.355  33.074  1.00  0.00     0.169 HD
BRANCH  26  28
ATOM     28  C   UNL A   1      34.776  33.082  32.051  1.00  0.00     0.048 A 
ATOM     29  C   UNL A   1      34.457  34.059  32.998  1.00  0.00     0.026 A 
ATOM     30  C   UNL A   1      34.406  33.276  30.726  1.00  0.00     0.111 A 
ATOM     31  C   UNL A   1      33.912  35.283  32.597  1.00  0.00     0.009 A 
ATOM     32  C   UNL A   1      33.906  34.517  30.316  1.00  0.00     0.271 A 
ATOM     33  C   UNL A   1      33.665  35.530  31.247  1.00  0.00     0.086 A 
BRANCH  32  34
ATOM     34  N   UNL A   1      33.702  34.774  28.888  1.00  0.00     0.062 N 
ATOM     35  O   UNL A   1      32.612  34.454  28.392  1.00  0.00    -0.258 OA
ATOM     36  O   UNL A   1      34.610  35.349  28.269  1.00  0.00    -0.258 OA
ENDBRANCH  32  34
ENDBRANCH  26  28
ENDBRANCH  20  24
ENDBRANCH  15  18
ENDBRANCH  13  14
ENDBRANCH   6   8
ENDBRANCH   5   6
ENDBRANCH   4   5
ENDBRANCH   3   4
ENDBRANCH   2   3
ENDBRANCH   1   2
BRANCH   1  37
ATOM     37  C   UNL A   1      47.532  26.514  25.028  1.00  0.00     0.188 C 
BRANCH  37  38
ATOM     38  O   UNL A   1      46.993  25.396  24.315  1.00  0.00    -0.376 OA
BRANCH  38  39
ATOM     39  C   UNL A   1      45.922  24.691  24.940  1.00  0.00     0.202 C 
BRANCH  39  40
ATOM     40  C   UNL A   1      46.217  23.247  25.358  1.00  0.00     0.261 C 
BRANCH  40  41
ATOM     41  O   UNL A   1      46.138  23.006  26.773  1.00  0.00    -0.460 OA
BRANCH  41  42
ATOM     42  C   UNL A   1      44.883  22.796  27.240  1.00  0.00     0.338 C 
ATOM     43  O   UNL A   1      44.019  22.093  26.746  1.00  0.00    -0.246 OA
BRANCH  42  44
ATOM     44  C   UNL A   1      44.656  23.572  28.471  1.00  0.00     0.060 A 
ATOM     45  C   UNL A   1      45.573  24.555  28.852  1.00  0.00     0.016 A 
ATOM     46  C   UNL A   1      43.635  23.180  29.339  1.00  0.00     0.016 A 
ATOM     47  C   UNL A   1      45.495  25.121  30.129  1.00  0.00     0.010 A 
ATOM     48  C   UNL A   1      43.553  23.752  30.610  1.00  0.00     0.010 A 
ATOM     49  C   UNL A   1      44.509  24.694  31.031  1.00  0.00    -0.014 A 
BRANCH  49  50
ATOM     50  C   UNL A   1      44.534  25.096  32.463  1.00  0.00     0.031 A 
ATOM     51  C   UNL A   1      44.145  26.503  32.835  1.00  0.00     0.074 A 
ATOM     52  C   UNL A   1      44.963  24.250  33.415  1.00  0.00     0.049 A 
ATOM     53  N   UNL A   1      44.281  27.135  33.973  1.00  0.00    -0.248 NA
ATOM     54  C   UNL A   1      43.532  27.306  31.767  1.00  0.00     0.031 C 
ATOM     55  C   UNL A   1      45.335  22.855  33.197  1.00  0.00     0.029 A 
ATOM     56  N   UNL A   1      45.197  24.460  34.752  1.00  0.00    -0.354 N 
ATOM     57  C   UNL A   1      43.792  28.419  33.755  1.00  0.00     0.074 A 
ATOM     58  C   UNL A   1      43.381  28.477  32.367  1.00  0.00     0.031 C 
ATOM     59  C   UNL A   1      45.798  22.345  34.351  1.00  0.00     0.029 A 
ATOM     60  C   UNL A   1      45.797  23.391  35.373  1.00  0.00     0.049 A 
ATOM     61  H   UNL A   1      44.959  25.294  35.219  1.00  0.00     0.167 HD
ATOM     62  C   UNL A   1      43.694  29.452  34.631  1.00  0.00     0.034 A 
ATOM     63  C   UNL A   1      46.337  23.283  36.604  1.00  0.00     0.034 A 
ATOM     64  C   UNL A   1      44.116  29.381  36.010  1.00  0.00     0.049 A 
ATOM     65  C   UNL A   1      46.297  24.462  37.543  1.00  0.00     0.074 A 
ATOM     66  C   UNL A   1      44.027  30.354  36.992  1.00  0.00     0.029 A 
ATOM     67  N   UNL A   1      44.724  28.281  36.601  1.00  0.00    -0.354 N 
ATOM     68  N   UNL A   1      45.830  25.670  37.334  1.00  0.00    -0.248 NA
ATOM     69  C   UNL A   1      46.857  24.258  38.887  1.00  0.00     0.031 C 
ATOM     70  C   UNL A   1      44.642  29.868  38.152  1.00  0.00     0.029 A 
ATOM     71  C   UNL A   1      45.048  28.564  37.920  1.00  0.00     0.049 A 
ATOM     72  H   UNL A   1      44.899  27.424  36.149  1.00  0.00     0.167 HD
ATOM     73  C   UNL A   1      46.015  26.362  38.529  1.00  0.00     0.074 A 
ATOM     74  C   UNL A   1      46.637  25.437  39.453  1.00  0.00     0.031 C 
ATOM     75  C   UNL A   1      45.682  27.642  38.834  1.00  0.00     0.034 A 
BRANCH  62  76
ATOM     76  C   UNL A   1      43.166  30.762  34.094  1.00  0.00     0.023 A 
ATOM     77  C   UNL A   1      44.025  31.791  33.669  1.00  0.00     0.031 A 
ATOM     78  C   UNL A   1      41.782  31.005  34.055  1.00  0.00     0.131 A 
ATOM     79  C   UNL A   1      43.498  33.041  33.309  1.00  0.00     0.055 A 
ATOM     80  C   UNL A   1      41.259  32.223  33.618  1.00  0.00     0.041 A 
ATOM     81  F   UNL A   1      40.911  30.069  34.465  1.00  0.00    -0.206 F 
ATOM     82  C   UNL A   1      42.120  33.257  33.260  1.00  0.00     0.022 A 
BRANCH  79  83
ATOM     83  S   UNL A   1      44.642  34.428  33.071  1.00  0.00     0.124 S 
ATOM     84  O   UNL A   1      45.653  34.159  34.090  1.00  0.00    -0.237 OA
ATOM     85  O   UNL A   1      45.065  34.253  31.687  1.00  0.00    -0.237 OA
ATOM     86  O   UNL A   1      43.812  35.604  33.325  1.00  0.00    -0.744 OA
ENDBRANCH  79  83
ENDBRANCH  62  76
BRANCH  63  87
ATOM     87  C   UNL A   1      47.027  22.023  36.993  1.00  0.00     0.023 A 
ATOM     88  C   UNL A   1      46.379  21.036  37.749  1.00  0.00     0.031 A 
ATOM     89  C   UNL A   1      48.363  21.798  36.610  1.00  0.00     0.131 A 
ATOM     90  C   UNL A   1      47.075  19.875  38.119  1.00  0.00     0.055 A 
ATOM     91  C   UNL A   1      49.038  20.626  36.948  1.00  0.00     0.041 A 
ATOM     92  F   UNL A   1      49.020  22.710  35.877  1.00  0.00    -0.206 F 
ATOM     93  C   UNL A   1      48.395  19.658  37.714  1.00  0.00     0.022 A 
BRANCH  90  94
ATOM     94  S   UNL A   1      46.238  18.654  39.167  1.00  0.00     0.124 S 
ATOM     95  O   UNL A   1      45.299  18.051  38.229  1.00  0.00    -0.237 OA
ATOM     96  O   UNL A   1      47.349  17.812  39.598  1.00  0.00    -0.237 OA
ATOM     97  O   UNL A   1      45.636  19.468  40.221  1.00  0.00    -0.744 OA
ENDBRANCH  90  94
ENDBRANCH  63  87
BRANCH  75  98
ATOM     98  C   UNL A   1      45.931  28.104  40.251  1.00  0.00     0.023 A 
ATOM     99  C   UNL A   1      46.989  28.971  40.579  1.00  0.00     0.031 A 
ATOM    100  C   UNL A   1      45.080  27.674  41.285  1.00  0.00     0.131 A 
ATOM    101  C   UNL A   1      47.187  29.354  41.917  1.00  0.00     0.055 A 
ATOM    102  C   UNL A   1      45.255  28.095  42.605  1.00  0.00     0.041 A 
ATOM    103  F   UNL A   1      44.057  26.845  41.027  1.00  0.00    -0.206 F 
ATOM    104  C   UNL A   1      46.318  28.933  42.927  1.00  0.00     0.022 A 
BRANCH 101 105
ATOM    105  S   UNL A   1      48.633  30.368  42.335  1.00  0.00     0.124 S 
ATOM    106  O   UNL A   1      48.024  31.666  42.609  1.00  0.00    -0.237 OA
ATOM    107  O   UNL A   1      49.186  29.666  43.489  1.00  0.00    -0.237 OA
ATOM    108  O   UNL A   1      49.453  30.312  41.127  1.00  0.00    -0.744 OA
ENDBRANCH 101 105
ENDBRANCH  75  98
ENDBRANCH  49  50
ENDBRANCH  42  44
ENDBRANCH  41  42
ENDBRANCH  40  41
ENDBRANCH  39  40
ENDBRANCH  38  39
ENDBRANCH  37  38
ENDBRANCH   1  37
TORSDOF 25
ENDMDL
