MODEL 1
REMARK VINA RESULT:     -10.7      0.000      0.000
REMARK SMILES Cc1onc(-c2cccc(Br)c2)c1C(=O)OCCOCCOCCOC(=O)c1ccc(-c2c3nc(c(-c4cc(S(=O)(=O)[O-])ccc4F)c4ccc([nH]4)c(-c4cc(S(=O)(=O)[O-])ccc4F)c4nc(c(-c5cc(S(=O)(=O)[O-])ccc5F)c5ccc2[nH]5)C=C4)C=C3)cc1
REMARK SMILES IDX 21 1 20 2 19 3 18 4 17 5 16 6 14 7 15 8 13 9 1 10 2 11 3 12
REMARK SMILES IDX 4 13 5 14 6 15 7 16 12 17 8 18 10 19 9 20 11 21 22 22 23 23
REMARK SMILES IDX 24 24 25 25 26 26 27 27 28 28 29 29 90 30 30 31 89 32 31 33
REMARK SMILES IDX 32 34 33 35 83 36 34 37 88 38 82 39 84 40 35 41 87 42 81 43
REMARK SMILES IDX 80 44 36 46 68 47 48 48 67 49 49 50 52 51 66 52 85 53 50 54
REMARK SMILES IDX 51 55 65 57 86 58 53 59 37 60 38 61 46 62 39 63 45 64 47 65
REMARK SMILES IDX 44 66 40 67 41 68 42 69 43 70 69 71 70 72 78 73 71 74 77 75
REMARK SMILES IDX 79 76 76 77 72 78 73 79 74 80 75 81 54 82 55 83 63 84 56 85
REMARK SMILES IDX 62 86 64 87 61 88 57 89 58 90 59 91 60 92
REMARK H PARENT 84 45 52 56
REMARK Flexibility Score: inf
ROOT
ATOM      1  C   UNL A   1      34.850  23.174  26.498  1.00  0.00     0.188 C 
ENDROOT
BRANCH   1   2
ATOM      2  C   UNL A   1      34.931  23.977  25.189  1.00  0.00     0.188 C 
BRANCH   2   3
ATOM      3  O   UNL A   1      34.718  25.375  25.381  1.00  0.00    -0.376 OA
BRANCH   3   4
ATOM      4  C   UNL A   1      33.940  26.008  24.371  1.00  0.00     0.202 C 
BRANCH   4   5
ATOM      5  C   UNL A   1      33.037  27.080  24.981  1.00  0.00     0.261 C 
BRANCH   5   6
ATOM      6  O   UNL A   1      32.500  28.002  24.017  1.00  0.00    -0.459 OA
BRANCH   6   7
ATOM      7  C   UNL A   1      31.779  27.464  22.996  1.00  0.00     0.344 C 
ATOM      8  O   UNL A   1      32.291  26.991  21.989  1.00  0.00    -0.246 OA
BRANCH   7   9
ATOM      9  C   UNL A   1      30.357  27.452  23.259  1.00  0.00     0.130 A 
ATOM     10  C   UNL A   1      29.499  29.895  22.728  1.00  0.00     0.092 C 
ATOM     11  C   UNL A   1      29.442  28.475  23.127  1.00  0.00     0.148 A 
ATOM     12  O   UNL A   1      28.205  28.016  23.459  1.00  0.00    -0.360 OA
ATOM     13  N   UNL A   1      28.289  26.702  23.876  1.00  0.00    -0.079 NA
ATOM     14  C   UNL A   1      29.585  26.378  23.798  1.00  0.00     0.128 A 
BRANCH  14  15
ATOM     15  C   UNL A   1      30.111  25.140  24.343  1.00  0.00     0.006 A 
ATOM     16  C   UNL A   1      30.162  25.009  25.734  1.00  0.00     0.010 A 
ATOM     17  C   UNL A   1      30.675  24.158  23.528  1.00  0.00     0.026 A 
ATOM     18  C   UNL A   1      30.892  23.984  26.315  1.00  0.00     0.002 A 
ATOM     19  C   UNL A   1      31.355  23.096  24.122  1.00  0.00     0.018 A 
ATOM     20  C   UNL A   1      31.494  23.023  25.507  1.00  0.00     0.016 A 
ATOM     21  Br  UNL A   1      32.151  21.764  23.044  1.00  0.00    -0.051 Br
ENDBRANCH  14  15
ENDBRANCH   7   9
ENDBRANCH   6   7
ENDBRANCH   5   6
ENDBRANCH   4   5
ENDBRANCH   3   4
ENDBRANCH   2   3
ENDBRANCH   1   2
BRANCH   1  22
ATOM     22  O   UNL A   1      34.951  21.753  26.461  1.00  0.00    -0.376 OA
BRANCH  22  23
ATOM     23  C   UNL A   1      35.178  21.117  25.214  1.00  0.00     0.202 C 
BRANCH  23  24
ATOM     24  C   UNL A   1      36.547  20.463  25.011  1.00  0.00     0.261 C 
BRANCH  24  25
ATOM     25  O   UNL A   1      37.637  21.397  24.943  1.00  0.00    -0.460 OA
BRANCH  25  26
ATOM     26  C   UNL A   1      38.722  21.053  25.682  1.00  0.00     0.338 C 
ATOM     27  O   UNL A   1      39.226  19.946  25.761  1.00  0.00    -0.246 OA
BRANCH  26  28
ATOM     28  C   UNL A   1      39.318  22.255  26.308  1.00  0.00     0.060 A 
ATOM     29  C   UNL A   1      38.722  23.494  26.041  1.00  0.00     0.016 A 
ATOM     30  C   UNL A   1      40.483  22.189  27.079  1.00  0.00     0.016 A 
ATOM     31  C   UNL A   1      39.311  24.670  26.508  1.00  0.00     0.010 A 
ATOM     32  C   UNL A   1      41.086  23.373  27.528  1.00  0.00     0.010 A 
ATOM     33  C   UNL A   1      40.521  24.621  27.218  1.00  0.00    -0.014 A 
BRANCH  33  34
ATOM     34  C   UNL A   1      41.258  25.885  27.485  1.00  0.00     0.031 A 
ATOM     35  C   UNL A   1      40.628  26.915  28.375  1.00  0.00     0.074 A 
ATOM     36  C   UNL A   1      42.481  26.105  26.973  1.00  0.00     0.049 A 
ATOM     37  N   UNL A   1      41.099  28.071  28.761  1.00  0.00    -0.248 NA
ATOM     38  C   UNL A   1      39.279  26.609  28.871  1.00  0.00     0.031 C 
ATOM     39  C   UNL A   1      43.167  25.196  26.070  1.00  0.00     0.029 A 
ATOM     40  N   UNL A   1      43.368  27.139  27.139  1.00  0.00    -0.354 N 
ATOM     41  C   UNL A   1      40.100  28.645  29.535  1.00  0.00     0.074 A 
ATOM     42  C   UNL A   1      38.993  27.710  29.552  1.00  0.00     0.031 C 
ATOM     43  C   UNL A   1      44.396  25.669  25.813  1.00  0.00     0.029 A 
ATOM     44  C   UNL A   1      44.564  26.953  26.484  1.00  0.00     0.049 A 
ATOM     45  H   UNL A   1      43.167  27.939  27.678  1.00  0.00     0.167 HD
ATOM     46  C   UNL A   1      40.100  29.848  30.159  1.00  0.00     0.034 A 
ATOM     47  C   UNL A   1      45.663  27.733  26.414  1.00  0.00     0.034 A 
ATOM     48  C   UNL A   1      41.195  30.786  30.098  1.00  0.00     0.049 A 
ATOM     49  C   UNL A   1      45.637  29.069  27.113  1.00  0.00     0.074 A 
ATOM     50  C   UNL A   1      41.288  32.041  30.674  1.00  0.00     0.029 A 
ATOM     51  N   UNL A   1      42.384  30.579  29.409  1.00  0.00    -0.354 N 
ATOM     52  N   UNL A   1      44.679  29.600  27.838  1.00  0.00    -0.248 NA
ATOM     53  C   UNL A   1      46.823  29.920  26.965  1.00  0.00     0.031 C 
ATOM     54  C   UNL A   1      42.504  32.616  30.282  1.00  0.00     0.029 A 
ATOM     55  C   UNL A   1      43.203  31.693  29.521  1.00  0.00     0.049 A 
ATOM     56  H   UNL A   1      42.612  29.760  28.912  1.00  0.00     0.167 HD
ATOM     57  C   UNL A   1      45.149  30.850  28.228  1.00  0.00     0.074 A 
ATOM     58  C   UNL A   1      46.488  30.977  27.691  1.00  0.00     0.031 C 
ATOM     59  C   UNL A   1      44.525  31.814  28.953  1.00  0.00     0.034 A 
BRANCH  46  60
ATOM     60  C   UNL A   1      38.836  30.234  30.883  1.00  0.00     0.023 A 
ATOM     61  C   UNL A   1      37.835  31.004  30.264  1.00  0.00     0.031 A 
ATOM     62  C   UNL A   1      38.663  29.886  32.235  1.00  0.00     0.131 A 
ATOM     63  C   UNL A   1      36.747  31.467  31.018  1.00  0.00     0.055 A 
ATOM     64  C   UNL A   1      37.537  30.285  32.957  1.00  0.00     0.041 A 
ATOM     65  F   UNL A   1      39.600  29.177  32.883  1.00  0.00    -0.206 F 
ATOM     66  C   UNL A   1      36.579  31.094  32.354  1.00  0.00     0.022 A 
BRANCH  63  67
ATOM     67  S   UNL A   1      35.633  32.689  30.271  1.00  0.00     0.124 S 
ATOM     68  O   UNL A   1      35.614  32.256  28.876  1.00  0.00    -0.237 OA
ATOM     69  O   UNL A   1      34.398  32.490  31.020  1.00  0.00    -0.237 OA
ATOM     70  O   UNL A   1      36.310  33.961  30.512  1.00  0.00    -0.744 OA
ENDBRANCH  63  67
ENDBRANCH  46  60
BRANCH  47  71
ATOM     71  C   UNL A   1      46.859  27.311  25.624  1.00  0.00     0.023 A 
ATOM     72  C   UNL A   1      47.084  27.804  24.326  1.00  0.00     0.031 A 
ATOM     73  C   UNL A   1      47.768  26.365  26.130  1.00  0.00     0.131 A 
ATOM     74  C   UNL A   1      48.162  27.319  23.568  1.00  0.00     0.055 A 
ATOM     75  C   UNL A   1      48.873  25.932  25.396  1.00  0.00     0.041 A 
ATOM     76  F   UNL A   1      47.601  25.855  27.361  1.00  0.00    -0.206 F 
ATOM     77  C   UNL A   1      49.068  26.400  24.101  1.00  0.00     0.022 A 
BRANCH  74  78
ATOM     78  S   UNL A   1      48.309  27.827  21.831  1.00  0.00     0.124 S 
ATOM     79  O   UNL A   1      49.589  28.525  21.834  1.00  0.00    -0.237 OA
ATOM     80  O   UNL A   1      48.278  26.545  21.135  1.00  0.00    -0.237 OA
ATOM     81  O   UNL A   1      47.137  28.675  21.625  1.00  0.00    -0.744 OA
ENDBRANCH  74  78
ENDBRANCH  47  71
BRANCH  59  82
ATOM     82  C   UNL A   1      45.303  33.079  29.208  1.00  0.00     0.023 A 
ATOM     83  C   UNL A   1      45.228  34.178  28.332  1.00  0.00     0.031 A 
ATOM     84  C   UNL A   1      46.144  33.180  30.329  1.00  0.00     0.131 A 
ATOM     85  C   UNL A   1      46.021  35.312  28.565  1.00  0.00     0.055 A 
ATOM     86  C   UNL A   1      46.891  34.331  30.584  1.00  0.00     0.041 A 
ATOM     87  F   UNL A   1      46.253  32.161  31.196  1.00  0.00    -0.206 F 
ATOM     88  C   UNL A   1      46.842  35.400  29.693  1.00  0.00     0.022 A 
BRANCH  85  89
ATOM     89  S   UNL A   1      46.030  36.641  27.330  1.00  0.00     0.124 S 
ATOM     90  O   UNL A   1      47.431  37.046  27.329  1.00  0.00    -0.237 OA
ATOM     91  O   UNL A   1      45.564  35.954  26.129  1.00  0.00    -0.237 OA
ATOM     92  O   UNL A   1      45.099  37.626  27.879  1.00  0.00    -0.744 OA
ENDBRANCH  85  89
ENDBRANCH  59  82
ENDBRANCH  33  34
ENDBRANCH  26  28
ENDBRANCH  25  26
ENDBRANCH  24  25
ENDBRANCH  23  24
ENDBRANCH  22  23
ENDBRANCH   1  22
TORSDOF 21
ENDMDL
MODEL 2
REMARK VINA RESULT:     -10.6      1.545      2.562
REMARK SMILES Cc1onc(-c2cccc(Br)c2)c1C(=O)OCCOCCOCCOC(=O)c1ccc(-c2c3nc(c(-c4cc(S(=O)(=O)[O-])ccc4F)c4ccc([nH]4)c(-c4cc(S(=O)(=O)[O-])ccc4F)c4nc(c(-c5cc(S(=O)(=O)[O-])ccc5F)c5ccc2[nH]5)C=C4)C=C3)cc1
REMARK SMILES IDX 21 1 20 2 19 3 18 4 17 5 16 6 14 7 15 8 13 9 1 10 2 11 3 12
REMARK SMILES IDX 4 13 5 14 6 15 7 16 12 17 8 18 10 19 9 20 11 21 22 22 23 23
REMARK SMILES IDX 24 24 25 25 26 26 27 27 28 28 29 29 90 30 30 31 89 32 31 33
REMARK SMILES IDX 32 34 33 35 83 36 34 37 88 38 82 39 84 40 35 41 87 42 81 43
REMARK SMILES IDX 80 44 36 46 68 47 48 48 67 49 49 50 52 51 66 52 85 53 50 54
REMARK SMILES IDX 51 55 65 57 86 58 53 59 37 60 38 61 46 62 39 63 45 64 47 65
REMARK SMILES IDX 44 66 40 67 41 68 42 69 43 70 69 71 70 72 78 73 71 74 77 75
REMARK SMILES IDX 79 76 76 77 72 78 73 79 74 80 75 81 54 82 55 83 63 84 56 85
REMARK SMILES IDX 62 86 64 87 61 88 57 89 58 90 59 91 60 92
REMARK H PARENT 84 45 52 56
REMARK Flexibility Score: inf
ROOT
ATOM      1  C   UNL A   1      34.984  23.520  25.619  1.00  0.00     0.188 C 
ENDROOT
BRANCH   1   2
ATOM      2  C   UNL A   1      35.192  23.881  24.139  1.00  0.00     0.188 C 
BRANCH   2   3
ATOM      3  O   UNL A   1      34.203  24.781  23.642  1.00  0.00    -0.376 OA
BRANCH   3   4
ATOM      4  C   UNL A   1      33.640  24.420  22.386  1.00  0.00     0.202 C 
BRANCH   4   5
ATOM      5  C   UNL A   1      32.913  23.078  22.489  1.00  0.00     0.261 C 
BRANCH   5   6
ATOM      6  O   UNL A   1      32.123  22.939  23.683  1.00  0.00    -0.459 OA
BRANCH   6   7
ATOM      7  C   UNL A   1      31.077  23.797  23.824  1.00  0.00     0.344 C 
ATOM      8  O   UNL A   1      30.158  23.873  23.019  1.00  0.00    -0.246 OA
BRANCH   7   9
ATOM      9  C   UNL A   1      31.135  24.554  25.054  1.00  0.00     0.130 A 
ATOM     10  C   UNL A   1      31.086  22.775  27.008  1.00  0.00     0.092 C 
ATOM     11  C   UNL A   1      31.147  24.097  26.355  1.00  0.00     0.148 A 
ATOM     12  O   UNL A   1      31.235  25.158  27.203  1.00  0.00    -0.360 OA
ATOM     13  N   UNL A   1      31.219  26.336  26.483  1.00  0.00    -0.079 NA
ATOM     14  C   UNL A   1      31.114  25.975  25.199  1.00  0.00     0.128 A 
BRANCH  14  15
ATOM     15  C   UNL A   1      30.863  26.936  24.140  1.00  0.00     0.006 A 
ATOM     16  C   UNL A   1      31.966  27.443  23.444  1.00  0.00     0.010 A 
ATOM     17  C   UNL A   1      29.589  27.451  23.900  1.00  0.00     0.026 A 
ATOM     18  C   UNL A   1      31.826  28.549  22.620  1.00  0.00     0.002 A 
ATOM     19  C   UNL A   1      29.448  28.524  23.021  1.00  0.00     0.018 A 
ATOM     20  C   UNL A   1      30.563  29.095  22.408  1.00  0.00     0.016 A 
ATOM     21  Br  UNL A   1      27.739  29.258  22.694  1.00  0.00    -0.051 Br
ENDBRANCH  14  15
ENDBRANCH   7   9
ENDBRANCH   6   7
ENDBRANCH   5   6
ENDBRANCH   4   5
ENDBRANCH   3   4
ENDBRANCH   2   3
ENDBRANCH   1   2
BRANCH   1  22
ATOM     22  O   UNL A   1      35.619  22.364  26.159  1.00  0.00    -0.376 OA
BRANCH  22  23
ATOM     23  C   UNL A   1      35.669  21.183  25.375  1.00  0.00     0.202 C 
BRANCH  23  24
ATOM     24  C   UNL A   1      37.044  20.537  25.186  1.00  0.00     0.261 C 
BRANCH  24  25
ATOM     25  O   UNL A   1      38.129  21.477  25.133  1.00  0.00    -0.460 OA
BRANCH  25  26
ATOM     26  C   UNL A   1      39.137  21.225  26.006  1.00  0.00     0.338 C 
ATOM     27  O   UNL A   1      39.675  20.149  26.204  1.00  0.00    -0.246 OA
BRANCH  26  28
ATOM     28  C   UNL A   1      39.607  22.485  26.624  1.00  0.00     0.060 A 
ATOM     29  C   UNL A   1      39.035  23.683  26.178  1.00  0.00     0.016 A 
ATOM     30  C   UNL A   1      40.643  22.509  27.564  1.00  0.00     0.016 A 
ATOM     31  C   UNL A   1      39.523  24.907  26.641  1.00  0.00     0.010 A 
ATOM     32  C   UNL A   1      41.147  23.739  28.009  1.00  0.00     0.010 A 
ATOM     33  C   UNL A   1      40.611  24.945  27.526  1.00  0.00    -0.014 A 
BRANCH  33  34
ATOM     34  C   UNL A   1      41.274  26.246  27.807  1.00  0.00     0.031 A 
ATOM     35  C   UNL A   1      40.523  27.289  28.579  1.00  0.00     0.074 A 
ATOM     36  C   UNL A   1      42.535  26.491  27.411  1.00  0.00     0.049 A 
ATOM     37  N   UNL A   1      40.913  28.478  28.956  1.00  0.00    -0.248 NA
ATOM     38  C   UNL A   1      39.141  26.954  28.951  1.00  0.00     0.031 C 
ATOM     39  C   UNL A   1      43.340  25.571  26.624  1.00  0.00     0.029 A 
ATOM     40  N   UNL A   1      43.365  27.564  27.616  1.00  0.00    -0.354 N 
ATOM     41  C   UNL A   1      39.821  29.046  29.598  1.00  0.00     0.074 A 
ATOM     42  C   UNL A   1      38.750  28.071  29.548  1.00  0.00     0.031 C 
ATOM     43  C   UNL A   1      44.572  26.079  26.470  1.00  0.00     0.029 A 
ATOM     44  C   UNL A   1      44.628  27.395  27.094  1.00  0.00     0.049 A 
ATOM     45  H   UNL A   1      43.084  28.378  28.094  1.00  0.00     0.167 HD
ATOM     46  C   UNL A   1      39.717  30.274  30.162  1.00  0.00     0.034 A 
ATOM     47  C   UNL A   1      45.701  28.213  27.098  1.00  0.00     0.034 A 
ATOM     48  C   UNL A   1      40.780  31.249  30.168  1.00  0.00     0.049 A 
ATOM     49  C   UNL A   1      45.559  29.576  27.728  1.00  0.00     0.074 A 
ATOM     50  C   UNL A   1      40.772  32.531  30.691  1.00  0.00     0.029 A 
ATOM     51  N   UNL A   1      42.040  31.059  29.612  1.00  0.00    -0.354 N 
ATOM     52  N   UNL A   1      44.514  30.101  28.327  1.00  0.00    -0.248 NA
ATOM     53  C   UNL A   1      46.725  30.465  27.660  1.00  0.00     0.031 C 
ATOM     54  C   UNL A   1      42.001  33.134  30.397  1.00  0.00     0.029 A 
ATOM     55  C   UNL A   1      42.805  32.206  29.754  1.00  0.00     0.049 A 
ATOM     56  H   UNL A   1      42.344  30.228  29.179  1.00  0.00     0.167 HD
ATOM     57  C   UNL A   1      44.900  31.384  28.703  1.00  0.00     0.074 A 
ATOM     58  C   UNL A   1      46.282  31.538  28.299  1.00  0.00     0.031 C 
ATOM     59  C   UNL A   1      44.174  32.353  29.316  1.00  0.00     0.034 A 
BRANCH  46  60
ATOM     60  C   UNL A   1      38.373  30.642  30.737  1.00  0.00     0.023 A 
ATOM     61  C   UNL A   1      37.370  31.234  29.950  1.00  0.00     0.031 A 
ATOM     62  C   UNL A   1      38.119  30.463  32.109  1.00  0.00     0.131 A 
ATOM     63  C   UNL A   1      36.192  31.697  30.555  1.00  0.00     0.055 A 
ATOM     64  C   UNL A   1      36.912  30.856  32.689  1.00  0.00     0.041 A 
ATOM     65  F   UNL A   1      39.052  29.930  32.912  1.00  0.00    -0.206 F 
ATOM     66  C   UNL A   1      35.947  31.492  31.915  1.00  0.00     0.022 A 
BRANCH  63  67
ATOM     67  S   UNL A   1      35.053  32.709  29.571  1.00  0.00     0.124 S 
ATOM     68  O   UNL A   1      34.207  33.294  30.608  1.00  0.00    -0.237 OA
ATOM     69  O   UNL A   1      35.957  33.628  28.888  1.00  0.00    -0.237 OA
ATOM     70  O   UNL A   1      34.387  31.736  28.709  1.00  0.00    -0.744 OA
ENDBRANCH  63  67
ENDBRANCH  46  60
BRANCH  47  71
ATOM     71  C   UNL A   1      46.985  27.804  26.453  1.00  0.00     0.023 A 
ATOM     72  C   UNL A   1      47.188  27.965  25.071  1.00  0.00     0.031 A 
ATOM     73  C   UNL A   1      48.010  27.193  27.197  1.00  0.00     0.131 A 
ATOM     74  C   UNL A   1      48.365  27.484  24.473  1.00  0.00     0.055 A 
ATOM     75  C   UNL A   1      49.204  26.772  26.609  1.00  0.00     0.041 A 
ATOM     76  F   UNL A   1      47.870  27.006  28.519  1.00  0.00    -0.206 F 
ATOM     77  C   UNL A   1      49.381  26.905  25.236  1.00  0.00     0.022 A 
BRANCH  74  78
ATOM     78  S   UNL A   1      48.509  27.531  22.664  1.00  0.00     0.124 S 
ATOM     79  O   UNL A   1      47.388  28.389  22.300  1.00  0.00    -0.237 OA
ATOM     80  O   UNL A   1      49.840  28.099  22.478  1.00  0.00    -0.237 OA
ATOM     81  O   UNL A   1      48.372  26.129  22.276  1.00  0.00    -0.744 OA
ENDBRANCH  74  78
ENDBRANCH  47  71
BRANCH  59  82
ATOM     82  C   UNL A   1      44.879  33.658  29.589  1.00  0.00     0.023 A 
ATOM     83  C   UNL A   1      44.882  34.703  28.647  1.00  0.00     0.031 A 
ATOM     84  C   UNL A   1      45.570  33.850  30.797  1.00  0.00     0.131 A 
ATOM     85  C   UNL A   1      45.608  35.875  28.907  1.00  0.00     0.055 A 
ATOM     86  C   UNL A   1      46.248  35.038  31.071  1.00  0.00     0.041 A 
ATOM     87  F   UNL A   1      45.600  32.884  31.729  1.00  0.00    -0.206 F 
ATOM     88  C   UNL A   1      46.280  36.054  30.120  1.00  0.00     0.022 A 
BRANCH  85  89
ATOM     89  S   UNL A   1      45.733  37.133  27.606  1.00  0.00     0.124 S 
ATOM     90  O   UNL A   1      44.341  37.536  27.438  1.00  0.00    -0.237 OA
ATOM     91  O   UNL A   1      46.615  38.125  28.214  1.00  0.00    -0.237 OA
ATOM     92  O   UNL A   1      46.308  36.404  26.477  1.00  0.00    -0.744 OA
ENDBRANCH  85  89
ENDBRANCH  59  82
ENDBRANCH  33  34
ENDBRANCH  26  28
ENDBRANCH  25  26
ENDBRANCH  24  25
ENDBRANCH  23  24
ENDBRANCH  22  23
ENDBRANCH   1  22
TORSDOF 21
ENDMDL
MODEL 3
REMARK VINA RESULT:     -10.5      1.406      2.541
REMARK SMILES Cc1onc(-c2cccc(Br)c2)c1C(=O)OCCOCCOCCOC(=O)c1ccc(-c2c3nc(c(-c4cc(S(=O)(=O)[O-])ccc4F)c4ccc([nH]4)c(-c4cc(S(=O)(=O)[O-])ccc4F)c4nc(c(-c5cc(S(=O)(=O)[O-])ccc5F)c5ccc2[nH]5)C=C4)C=C3)cc1
REMARK SMILES IDX 21 1 20 2 19 3 18 4 17 5 16 6 14 7 15 8 13 9 1 10 2 11 3 12
REMARK SMILES IDX 4 13 5 14 6 15 7 16 12 17 8 18 10 19 9 20 11 21 22 22 23 23
REMARK SMILES IDX 24 24 25 25 26 26 27 27 28 28 29 29 90 30 30 31 89 32 31 33
REMARK SMILES IDX 32 34 33 35 83 36 34 37 88 38 82 39 84 40 35 41 87 42 81 43
REMARK SMILES IDX 80 44 36 46 68 47 48 48 67 49 49 50 52 51 66 52 85 53 50 54
REMARK SMILES IDX 51 55 65 57 86 58 53 59 37 60 38 61 46 62 39 63 45 64 47 65
REMARK SMILES IDX 44 66 40 67 41 68 42 69 43 70 69 71 70 72 78 73 71 74 77 75
REMARK SMILES IDX 79 76 76 77 72 78 73 79 74 80 75 81 54 82 55 83 63 84 56 85
REMARK SMILES IDX 62 86 64 87 61 88 57 89 58 90 59 91 60 92
REMARK H PARENT 84 45 52 56
REMARK Flexibility Score: inf
ROOT
ATOM      1  C   UNL A   1      34.709  23.323  26.682  1.00  0.00     0.188 C 
ENDROOT
BRANCH   1   2
ATOM      2  C   UNL A   1      34.519  24.175  25.416  1.00  0.00     0.188 C 
BRANCH   2   3
ATOM      3  O   UNL A   1      34.402  25.569  25.696  1.00  0.00    -0.376 OA
BRANCH   3   4
ATOM      4  C   UNL A   1      33.672  26.316  24.730  1.00  0.00     0.202 C 
BRANCH   4   5
ATOM      5  C   UNL A   1      32.749  27.324  25.417  1.00  0.00     0.261 C 
BRANCH   5   6
ATOM      6  O   UNL A   1      32.266  28.357  24.539  1.00  0.00    -0.459 OA
BRANCH   6   7
ATOM      7  C   UNL A   1      31.756  27.951  23.345  1.00  0.00     0.344 C 
ATOM      8  O   UNL A   1      32.414  27.909  22.314  1.00  0.00    -0.246 OA
BRANCH   7   9
ATOM      9  C   UNL A   1      30.381  27.514  23.442  1.00  0.00     0.130 A 
ATOM     10  C   UNL A   1      30.465  24.878  23.606  1.00  0.00     0.092 C 
ATOM     11  C   UNL A   1      29.884  26.233  23.559  1.00  0.00     0.148 A 
ATOM     12  O   UNL A   1      28.527  26.285  23.645  1.00  0.00    -0.360 OA
ATOM     13  N   UNL A   1      28.099  27.593  23.523  1.00  0.00    -0.079 NA
ATOM     14  C   UNL A   1      29.206  28.323  23.357  1.00  0.00     0.128 A 
BRANCH  14  15
ATOM     15  C   UNL A   1      29.163  29.727  22.991  1.00  0.00     0.006 A 
ATOM     16  C   UNL A   1      29.435  30.670  23.988  1.00  0.00     0.010 A 
ATOM     17  C   UNL A   1      28.736  30.147  21.731  1.00  0.00     0.026 A 
ATOM     18  C   UNL A   1      29.149  32.010  23.781  1.00  0.00     0.002 A 
ATOM     19  C   UNL A   1      28.509  31.505  21.512  1.00  0.00     0.018 A 
ATOM     20  C   UNL A   1      28.682  32.432  22.540  1.00  0.00     0.016 A 
ATOM     21  Br  UNL A   1      27.907  32.102  19.824  1.00  0.00    -0.051 Br
ENDBRANCH  14  15
ENDBRANCH   7   9
ENDBRANCH   6   7
ENDBRANCH   5   6
ENDBRANCH   4   5
ENDBRANCH   3   4
ENDBRANCH   2   3
ENDBRANCH   1   2
BRANCH   1  22
ATOM     22  O   UNL A   1      34.995  21.932  26.560  1.00  0.00    -0.376 OA
BRANCH  22  23
ATOM     23  C   UNL A   1      35.192  21.386  25.266  1.00  0.00     0.202 C 
BRANCH  23  24
ATOM     24  C   UNL A   1      36.474  20.580  25.044  1.00  0.00     0.261 C 
BRANCH  24  25
ATOM     25  O   UNL A   1      37.654  21.386  24.895  1.00  0.00    -0.460 OA
BRANCH  25  26
ATOM     26  C   UNL A   1      38.682  21.037  25.709  1.00  0.00     0.338 C 
ATOM     27  O   UNL A   1      39.141  19.918  25.861  1.00  0.00    -0.246 OA
BRANCH  26  28
ATOM     28  C   UNL A   1      39.284  22.243  26.321  1.00  0.00     0.060 A 
ATOM     29  C   UNL A   1      38.654  23.473  26.095  1.00  0.00     0.016 A 
ATOM     30  C   UNL A   1      40.485  22.191  27.036  1.00  0.00     0.016 A 
ATOM     31  C   UNL A   1      39.242  24.656  26.548  1.00  0.00     0.010 A 
ATOM     32  C   UNL A   1      41.086  23.381  27.470  1.00  0.00     0.010 A 
ATOM     33  C   UNL A   1      40.484  24.622  27.201  1.00  0.00    -0.014 A 
BRANCH  33  34
ATOM     34  C   UNL A   1      41.209  25.896  27.448  1.00  0.00     0.031 A 
ATOM     35  C   UNL A   1      40.570  26.934  28.321  1.00  0.00     0.074 A 
ATOM     36  C   UNL A   1      42.431  26.120  26.932  1.00  0.00     0.049 A 
ATOM     37  N   UNL A   1      41.031  28.101  28.689  1.00  0.00    -0.248 NA
ATOM     38  C   UNL A   1      39.224  26.624  28.822  1.00  0.00     0.031 C 
ATOM     39  C   UNL A   1      43.125  25.203  26.044  1.00  0.00     0.029 A 
ATOM     40  N   UNL A   1      43.308  27.165  27.082  1.00  0.00    -0.354 N 
ATOM     41  C   UNL A   1      40.026  28.677  29.454  1.00  0.00     0.074 A 
ATOM     42  C   UNL A   1      38.928  27.732  29.486  1.00  0.00     0.031 C 
ATOM     43  C   UNL A   1      44.350  25.684  25.779  1.00  0.00     0.029 A 
ATOM     44  C   UNL A   1      44.506  26.979  26.429  1.00  0.00     0.049 A 
ATOM     45  H   UNL A   1      43.100  27.971  27.608  1.00  0.00     0.167 HD
ATOM     46  C   UNL A   1      40.015  29.890  30.059  1.00  0.00     0.034 A 
ATOM     47  C   UNL A   1      45.597  27.768  26.347  1.00  0.00     0.034 A 
ATOM     48  C   UNL A   1      41.101  30.837  29.984  1.00  0.00     0.049 A 
ATOM     49  C   UNL A   1      45.559  29.115  27.025  1.00  0.00     0.074 A 
ATOM     50  C   UNL A   1      41.183  32.102  30.540  1.00  0.00     0.029 A 
ATOM     51  N   UNL A   1      42.292  30.630  29.297  1.00  0.00    -0.354 N 
ATOM     52  N   UNL A   1      44.596  29.649  27.742  1.00  0.00    -0.248 NA
ATOM     53  C   UNL A   1      46.737  29.974  26.864  1.00  0.00     0.031 C 
ATOM     54  C   UNL A   1      42.393  32.682  30.139  1.00  0.00     0.029 A 
ATOM     55  C   UNL A   1      43.101  31.753  29.392  1.00  0.00     0.049 A 
ATOM     56  H   UNL A   1      42.527  29.806  28.813  1.00  0.00     0.167 HD
ATOM     57  C   UNL A   1      45.054  30.909  28.112  1.00  0.00     0.074 A 
ATOM     58  C   UNL A   1      46.393  31.040  27.573  1.00  0.00     0.031 C 
ATOM     59  C   UNL A   1      44.422  31.878  28.822  1.00  0.00     0.034 A 
BRANCH  46  60
ATOM     60  C   UNL A   1      38.747  30.276  30.777  1.00  0.00     0.023 A 
ATOM     61  C   UNL A   1      37.810  31.153  30.203  1.00  0.00     0.031 A 
ATOM     62  C   UNL A   1      38.509  29.815  32.085  1.00  0.00     0.131 A 
ATOM     63  C   UNL A   1      36.720  31.602  30.964  1.00  0.00     0.055 A 
ATOM     64  C   UNL A   1      37.380  30.206  32.806  1.00  0.00     0.041 A 
ATOM     65  F   UNL A   1      39.384  28.999  32.692  1.00  0.00    -0.206 F 
ATOM     66  C   UNL A   1      36.486  31.117  32.252  1.00  0.00     0.022 A 
BRANCH  63  67
ATOM     67  S   UNL A   1      35.699  32.947  30.301  1.00  0.00     0.124 S 
ATOM     68  O   UNL A   1      35.793  33.941  31.367  1.00  0.00    -0.237 OA
ATOM     69  O   UNL A   1      36.381  33.278  29.055  1.00  0.00    -0.237 OA
ATOM     70  O   UNL A   1      34.382  32.333  30.146  1.00  0.00    -0.744 OA
ENDBRANCH  63  67
ENDBRANCH  46  60
BRANCH  47  71
ATOM     71  C   UNL A   1      46.797  27.345  25.563  1.00  0.00     0.023 A 
ATOM     72  C   UNL A   1      47.013  27.813  24.255  1.00  0.00     0.031 A 
ATOM     73  C   UNL A   1      47.720  26.423  26.088  1.00  0.00     0.131 A 
ATOM     74  C   UNL A   1      48.096  27.326  23.505  1.00  0.00     0.055 A 
ATOM     75  C   UNL A   1      48.829  25.988  25.361  1.00  0.00     0.041 A 
ATOM     76  F   UNL A   1      47.562  25.937  27.330  1.00  0.00    -0.206 F 
ATOM     77  C   UNL A   1      49.015  26.430  24.056  1.00  0.00     0.022 A 
BRANCH  74  78
ATOM     78  S   UNL A   1      48.233  27.798  21.758  1.00  0.00     0.124 S 
ATOM     79  O   UNL A   1      49.420  28.645  21.771  1.00  0.00    -0.237 OA
ATOM     80  O   UNL A   1      48.376  26.502  21.102  1.00  0.00    -0.237 OA
ATOM     81  O   UNL A   1      46.975  28.492  21.494  1.00  0.00    -0.744 OA
ENDBRANCH  74  78
ENDBRANCH  47  71
BRANCH  59  82
ATOM     82  C   UNL A   1      45.188  33.155  29.057  1.00  0.00     0.023 A 
ATOM     83  C   UNL A   1      45.101  34.240  28.165  1.00  0.00     0.031 A 
ATOM     84  C   UNL A   1      46.030  33.280  30.175  1.00  0.00     0.131 A 
ATOM     85  C   UNL A   1      45.883  35.385  28.380  1.00  0.00     0.055 A 
ATOM     86  C   UNL A   1      46.766  34.441  30.411  1.00  0.00     0.041 A 
ATOM     87  F   UNL A   1      46.150  32.274  31.056  1.00  0.00    -0.206 F 
ATOM     88  C   UNL A   1      46.705  35.497  29.505  1.00  0.00     0.022 A 
BRANCH  85  89
ATOM     89  S   UNL A   1      45.877  36.695  27.126  1.00  0.00     0.124 S 
ATOM     90  O   UNL A   1      46.464  36.018  25.975  1.00  0.00    -0.237 OA
ATOM     91  O   UNL A   1      44.457  37.018  27.020  1.00  0.00    -0.237 OA
ATOM     92  O   UNL A   1      46.705  37.743  27.720  1.00  0.00    -0.744 OA
ENDBRANCH  85  89
ENDBRANCH  59  82
ENDBRANCH  33  34
ENDBRANCH  26  28
ENDBRANCH  25  26
ENDBRANCH  24  25
ENDBRANCH  23  24
ENDBRANCH  22  23
ENDBRANCH   1  22
TORSDOF 21
ENDMDL
