MODEL 1
REMARK VINA RESULT:     -11.2      0.000      0.000
REMARK SMILES NS(=O)(=O)c1ccc(-n2nc(C(=O)OCCOCCOCCOC(=O)c3ccc(-c4c5nc(c(-c6cc(S(=O)(=O)[O-])ccc6F)c6ccc([nH]6)c(-c6cc(S(=O)(=O)[O-])ccc6F)c6nc(c(-c7cc(S(=O)(=O)[O-])ccc7F)c7ccc4[nH]7)C=C6)C=C5)cc3)cc2-c2ccc(Cl)s2)cc1
REMARK SMILES IDX 18 1 17 2 16 3 15 4 14 5 12 6 13 7 11 8 9 9 10 10 90 11
REMARK SMILES IDX 89 12 8 13 5 14 6 15 98 16 7 17 97 18 2 19 3 20 4 21 1 22
REMARK SMILES IDX 91 25 92 26 96 27 93 28 94 29 95 30 19 31 20 32 21 33 22 34
REMARK SMILES IDX 23 35 24 36 25 37 26 38 27 39 88 40 28 41 87 42 29 43 30 44
REMARK SMILES IDX 31 45 81 46 32 47 86 48 80 49 82 50 33 51 85 52 79 53 78 54
REMARK SMILES IDX 34 56 66 57 46 58 65 59 47 60 50 61 64 62 83 63 48 64 49 65
REMARK SMILES IDX 63 67 84 68 51 69 35 70 36 71 44 72 37 73 43 74 45 75 42 76
REMARK SMILES IDX 38 77 39 78 40 79 41 80 67 81 68 82 76 83 69 84 75 85 77 86
REMARK SMILES IDX 74 87 70 88 71 89 72 90 73 91 52 92 53 93 61 94 54 95 60 96
REMARK SMILES IDX 62 97 59 98 55 99 56 100 57 101 58 102
REMARK H PARENT 1 23 1 24 82 55 50 66
REMARK Flexibility Score: inf
ROOT
ATOM      1  C   UNL A   1      32.555  28.178  23.439  1.00  0.00     0.188 C 
ENDROOT
BRANCH   1   2
ATOM      2  O   UNL A   1      31.322  27.900  22.785  1.00  0.00    -0.376 OA
BRANCH   2   3
ATOM      3  C   UNL A   1      30.087  28.115  23.444  1.00  0.00     0.202 C 
BRANCH   3   4
ATOM      4  C   UNL A   1      29.138  26.920  23.624  1.00  0.00     0.261 C 
BRANCH   4   5
ATOM      5  O   UNL A   1      29.778  25.634  23.642  1.00  0.00    -0.458 OA
BRANCH   5   6
ATOM      6  C   UNL A   1      30.300  25.250  24.846  1.00  0.00     0.358 C 
ATOM      7  O   UNL A   1      29.783  25.492  25.931  1.00  0.00    -0.244 OA
BRANCH   6   8
ATOM      8  C   UNL A   1      31.531  24.455  24.697  1.00  0.00     0.171 A 
ATOM      9  N   UNL A   1      32.747  22.725  24.353  1.00  0.00    -0.231 N 
ATOM     10  N   UNL A   1      31.480  23.184  24.260  1.00  0.00    -0.160 NA
ATOM     11  C   UNL A   1      33.642  23.726  24.697  1.00  0.00     0.085 A 
ATOM     12  C   UNL A   1      32.878  24.860  24.896  1.00  0.00     0.068 A 
BRANCH   9  13
ATOM     13  C   UNL A   1      32.970  21.330  24.283  1.00  0.00     0.065 A 
ATOM     14  C   UNL A   1      33.384  18.586  24.187  1.00  0.00     0.082 A 
ATOM     15  C   UNL A   1      34.029  19.347  25.166  1.00  0.00     0.024 A 
ATOM     16  C   UNL A   1      32.528  19.189  23.258  1.00  0.00     0.024 A 
ATOM     17  C   UNL A   1      33.835  20.725  25.204  1.00  0.00     0.030 A 
ATOM     18  C   UNL A   1      32.293  20.566  23.324  1.00  0.00     0.030 A 
BRANCH  14  19
ATOM     19  S   UNL A   1      33.631  16.839  24.093  1.00  0.00     0.238 S 
ATOM     20  O   UNL A   1      34.028  16.495  22.751  1.00  0.00    -0.207 OA
ATOM     21  O   UNL A   1      32.551  16.183  24.793  1.00  0.00    -0.207 OA
BRANCH  19  22
ATOM     22  N   UNL A   1      35.000  16.555  25.037  1.00  0.00    -0.225 NA
ATOM     23  H   UNL A   1      35.700  17.271  24.845  1.00  0.00     0.137 HD
ATOM     24  H   UNL A   1      35.382  15.636  24.814  1.00  0.00     0.137 HD
ENDBRANCH  19  22
ENDBRANCH  14  19
ENDBRANCH   9  13
BRANCH  11  25
ATOM     25  C   UNL A   1      35.066  23.564  24.809  1.00  0.00     0.054 A 
ATOM     26  C   UNL A   1      35.951  23.330  23.773  1.00  0.00     0.024 A 
ATOM     27  S   UNL A   1      35.887  23.659  26.318  1.00  0.00    -0.122 S 
ATOM     28  C   UNL A   1      37.310  23.321  24.210  1.00  0.00     0.033 A 
ATOM     29  C   UNL A   1      37.393  23.504  25.566  1.00  0.00     0.094 A 
ATOM     30  Cl  UNL A   1      38.833  23.589  26.499  1.00  0.00    -0.072 Cl
ENDBRANCH  11  25
ENDBRANCH   6   8
ENDBRANCH   5   6
ENDBRANCH   4   5
ENDBRANCH   3   4
ENDBRANCH   2   3
ENDBRANCH   1   2
BRANCH   1  31
ATOM     31  C   UNL A   1      32.662  29.131  24.652  1.00  0.00     0.188 C 
BRANCH  31  32
ATOM     32  O   UNL A   1      33.763  28.914  25.524  1.00  0.00    -0.376 OA
BRANCH  32  33
ATOM     33  C   UNL A   1      33.809  29.751  26.675  1.00  0.00     0.202 C 
BRANCH  33  34
ATOM     34  C   UNL A   1      34.865  29.348  27.700  1.00  0.00     0.261 C 
BRANCH  34  35
ATOM     35  O   UNL A   1      35.838  30.351  27.965  1.00  0.00    -0.460 OA
BRANCH  35  36
ATOM     36  C   UNL A   1      36.690  30.081  28.976  1.00  0.00     0.338 C 
ATOM     37  O   UNL A   1      36.658  30.551  30.100  1.00  0.00    -0.246 OA
BRANCH  36  38
ATOM     38  C   UNL A   1      37.731  29.175  28.477  1.00  0.00     0.060 A 
ATOM     39  C   UNL A   1      38.160  28.165  29.337  1.00  0.00     0.016 A 
ATOM     40  C   UNL A   1      38.434  29.508  27.307  1.00  0.00     0.016 A 
ATOM     41  C   UNL A   1      39.415  27.633  29.137  1.00  0.00     0.010 A 
ATOM     42  C   UNL A   1      39.695  28.989  27.120  1.00  0.00     0.010 A 
ATOM     43  C   UNL A   1      40.199  28.128  28.090  1.00  0.00    -0.014 A 
BRANCH  43  44
ATOM     44  C   UNL A   1      41.596  27.759  28.082  1.00  0.00     0.031 A 
ATOM     45  C   UNL A   1      41.909  26.490  27.411  1.00  0.00     0.074 A 
ATOM     46  C   UNL A   1      42.549  28.541  28.617  1.00  0.00     0.049 A 
ATOM     47  N   UNL A   1      42.294  25.388  27.957  1.00  0.00    -0.248 NA
ATOM     48  C   UNL A   1      41.654  26.402  25.969  1.00  0.00     0.031 C 
ATOM     49  C   UNL A   1      42.437  29.938  29.042  1.00  0.00     0.029 A 
ATOM     50  N   UNL A   1      43.866  28.255  28.803  1.00  0.00    -0.354 N 
ATOM     51  C   UNL A   1      42.545  24.520  26.905  1.00  0.00     0.074 A 
ATOM     52  C   UNL A   1      41.966  25.128  25.736  1.00  0.00     0.031 C 
ATOM     53  C   UNL A   1      43.678  30.437  29.237  1.00  0.00     0.029 A 
ATOM     54  C   UNL A   1      44.648  29.364  29.083  1.00  0.00     0.049 A 
ATOM     55  H   UNL A   1      44.232  27.343  28.744  1.00  0.00     0.167 HD
ATOM     56  C   UNL A   1      43.409  23.480  27.043  1.00  0.00     0.034 A 
ATOM     57  C   UNL A   1      46.003  29.409  29.103  1.00  0.00     0.034 A 
ATOM     58  C   UNL A   1      43.640  23.165  28.435  1.00  0.00     0.049 A 
ATOM     59  C   UNL A   1      46.493  28.028  29.338  1.00  0.00     0.074 A 
ATOM     60  C   UNL A   1      42.821  22.816  29.495  1.00  0.00     0.029 A 
ATOM     61  N   UNL A   1      44.839  23.529  29.004  1.00  0.00    -0.354 N 
ATOM     62  N   UNL A   1      46.298  27.370  30.448  1.00  0.00    -0.248 NA
ATOM     63  C   UNL A   1      46.841  27.204  28.190  1.00  0.00     0.031 C 
ATOM     64  C   UNL A   1      43.399  23.444  30.637  1.00  0.00     0.029 A 
ATOM     65  C   UNL A   1      44.559  24.101  30.223  1.00  0.00     0.049 A 
ATOM     66  H   UNL A   1      45.732  23.404  28.611  1.00  0.00     0.167 HD
ATOM     67  C   UNL A   1      46.080  26.057  30.059  1.00  0.00     0.074 A 
ATOM     68  C   UNL A   1      46.547  25.996  28.677  1.00  0.00     0.031 C 
ATOM     69  C   UNL A   1      45.293  25.217  30.794  1.00  0.00     0.034 A 
BRANCH  56  70
ATOM     70  C   UNL A   1      44.293  22.964  25.933  1.00  0.00     0.023 A 
ATOM     71  C   UNL A   1      44.205  21.596  25.620  1.00  0.00     0.031 A 
ATOM     72  C   UNL A   1      45.387  23.655  25.362  1.00  0.00     0.131 A 
ATOM     73  C   UNL A   1      45.202  20.963  24.859  1.00  0.00     0.055 A 
ATOM     74  C   UNL A   1      46.332  23.038  24.537  1.00  0.00     0.041 A 
ATOM     75  F   UNL A   1      45.666  24.933  25.642  1.00  0.00    -0.206 F 
ATOM     76  C   UNL A   1      46.262  21.677  24.308  1.00  0.00     0.022 A 
BRANCH  73  77
ATOM     77  S   UNL A   1      45.195  19.155  24.776  1.00  0.00     0.124 S 
ATOM     78  O   UNL A   1      44.103  18.822  25.684  1.00  0.00    -0.237 OA
ATOM     79  O   UNL A   1      44.951  18.922  23.358  1.00  0.00    -0.237 OA
ATOM     80  O   UNL A   1      46.530  18.790  25.248  1.00  0.00    -0.744 OA
ENDBRANCH  73  77
ENDBRANCH  56  70
BRANCH  57  81
ATOM     81  C   UNL A   1      46.844  30.519  28.588  1.00  0.00     0.023 A 
ATOM     82  C   UNL A   1      47.942  31.025  29.306  1.00  0.00     0.031 A 
ATOM     83  C   UNL A   1      46.702  30.952  27.249  1.00  0.00     0.131 A 
ATOM     84  C   UNL A   1      48.836  31.928  28.688  1.00  0.00     0.055 A 
ATOM     85  C   UNL A   1      47.577  31.857  26.649  1.00  0.00     0.041 A 
ATOM     86  F   UNL A   1      45.752  30.443  26.448  1.00  0.00    -0.206 F 
ATOM     87  C   UNL A   1      48.656  32.345  27.366  1.00  0.00     0.022 A 
BRANCH  84  88
ATOM     88  S   UNL A   1      50.321  32.489  29.575  1.00  0.00     0.124 S 
ATOM     89  O   UNL A   1      51.160  31.297  29.560  1.00  0.00    -0.237 OA
ATOM     90  O   UNL A   1      50.770  33.610  28.756  1.00  0.00    -0.237 OA
ATOM     91  O   UNL A   1      49.808  32.864  30.894  1.00  0.00    -0.744 OA
ENDBRANCH  84  88
ENDBRANCH  57  81
BRANCH  69  92
ATOM     92  C   UNL A   1      44.957  25.601  32.222  1.00  0.00     0.023 A 
ATOM     93  C   UNL A   1      43.792  26.295  32.614  1.00  0.00     0.031 A 
ATOM     94  C   UNL A   1      45.810  25.134  33.239  1.00  0.00     0.131 A 
ATOM     95  C   UNL A   1      43.525  26.511  33.982  1.00  0.00     0.055 A 
ATOM     96  C   UNL A   1      45.534  25.333  34.591  1.00  0.00     0.041 A 
ATOM     97  F   UNL A   1      46.919  24.440  32.933  1.00  0.00    -0.206 F 
ATOM     98  C   UNL A   1      44.392  26.029  34.969  1.00  0.00     0.022 A 
BRANCH  95  99
ATOM     99  S   UNL A   1      42.044  27.433  34.501  1.00  0.00     0.124 S 
ATOM    100  O   UNL A   1      41.124  26.389  34.937  1.00  0.00    -0.237 OA
ATOM    101  O   UNL A   1      42.568  28.304  35.551  1.00  0.00    -0.237 OA
ATOM    102  O   UNL A   1      41.635  28.134  33.282  1.00  0.00    -0.744 OA
ENDBRANCH  95  99
ENDBRANCH  69  92
ENDBRANCH  43  44
ENDBRANCH  36  38
ENDBRANCH  35  36
ENDBRANCH  34  35
ENDBRANCH  33  34
ENDBRANCH  32  33
ENDBRANCH  31  32
ENDBRANCH   1  31
TORSDOF 24
ENDMDL
MODEL 2
REMARK VINA RESULT:     -11.1      1.390      1.569
REMARK SMILES NS(=O)(=O)c1ccc(-n2nc(C(=O)OCCOCCOCCOC(=O)c3ccc(-c4c5nc(c(-c6cc(S(=O)(=O)[O-])ccc6F)c6ccc([nH]6)c(-c6cc(S(=O)(=O)[O-])ccc6F)c6nc(c(-c7cc(S(=O)(=O)[O-])ccc7F)c7ccc4[nH]7)C=C6)C=C5)cc3)cc2-c2ccc(Cl)s2)cc1
REMARK SMILES IDX 18 1 17 2 16 3 15 4 14 5 12 6 13 7 11 8 9 9 10 10 90 11
REMARK SMILES IDX 89 12 8 13 5 14 6 15 98 16 7 17 97 18 2 19 3 20 4 21 1 22
REMARK SMILES IDX 91 25 92 26 96 27 93 28 94 29 95 30 19 31 20 32 21 33 22 34
REMARK SMILES IDX 23 35 24 36 25 37 26 38 27 39 88 40 28 41 87 42 29 43 30 44
REMARK SMILES IDX 31 45 81 46 32 47 86 48 80 49 82 50 33 51 85 52 79 53 78 54
REMARK SMILES IDX 34 56 66 57 46 58 65 59 47 60 50 61 64 62 83 63 48 64 49 65
REMARK SMILES IDX 63 67 84 68 51 69 35 70 36 71 44 72 37 73 43 74 45 75 42 76
REMARK SMILES IDX 38 77 39 78 40 79 41 80 67 81 68 82 76 83 69 84 75 85 77 86
REMARK SMILES IDX 74 87 70 88 71 89 72 90 73 91 52 92 53 93 61 94 54 95 60 96
REMARK SMILES IDX 62 97 59 98 55 99 56 100 57 101 58 102
REMARK H PARENT 1 23 1 24 82 55 50 66
REMARK Flexibility Score: inf
ROOT
ATOM      1  C   UNL A   1      32.584  27.983  23.486  1.00  0.00     0.188 C 
ENDROOT
BRANCH   1   2
ATOM      2  O   UNL A   1      31.347  27.677  22.852  1.00  0.00    -0.376 OA
BRANCH   2   3
ATOM      3  C   UNL A   1      30.117  28.075  23.430  1.00  0.00     0.202 C 
BRANCH   3   4
ATOM      4  C   UNL A   1      29.132  26.981  23.872  1.00  0.00     0.261 C 
BRANCH   4   5
ATOM      5  O   UNL A   1      29.666  25.648  23.876  1.00  0.00    -0.458 OA
BRANCH   5   6
ATOM      6  C   UNL A   1      30.191  25.225  25.065  1.00  0.00     0.358 C 
ATOM      7  O   UNL A   1      29.710  25.483  26.162  1.00  0.00    -0.244 OA
BRANCH   6   8
ATOM      8  C   UNL A   1      31.373  24.367  24.883  1.00  0.00     0.171 A 
ATOM      9  N   UNL A   1      32.491  22.560  24.605  1.00  0.00    -0.231 N 
ATOM     10  N   UNL A   1      31.238  23.062  24.585  1.00  0.00    -0.160 NA
ATOM     11  C   UNL A   1      33.450  23.550  24.758  1.00  0.00     0.085 A 
ATOM     12  C   UNL A   1      32.746  24.730  24.911  1.00  0.00     0.068 A 
BRANCH   9  13
ATOM     13  C   UNL A   1      32.660  21.156  24.658  1.00  0.00     0.065 A 
ATOM     14  C   UNL A   1      32.951  18.398  24.791  1.00  0.00     0.082 A 
ATOM     15  C   UNL A   1      33.219  19.176  25.921  1.00  0.00     0.024 A 
ATOM     16  C   UNL A   1      32.533  18.993  23.594  1.00  0.00     0.024 A 
ATOM     17  C   UNL A   1      33.089  20.560  25.850  1.00  0.00     0.030 A 
ATOM     18  C   UNL A   1      32.355  20.378  23.534  1.00  0.00     0.030 A 
BRANCH  14  19
ATOM     19  S   UNL A   1      33.134  16.641  24.839  1.00  0.00     0.238 S 
ATOM     20  O   UNL A   1      33.755  16.203  23.615  1.00  0.00    -0.207 OA
ATOM     21  O   UNL A   1      31.916  16.066  25.360  1.00  0.00    -0.207 OA
BRANCH  19  22
ATOM     22  N   UNL A   1      34.292  16.370  26.035  1.00  0.00    -0.225 NA
ATOM     23  H   UNL A   1      33.838  16.340  26.948  1.00  0.00     0.137 HD
ATOM     24  H   UNL A   1      34.979  17.123  26.021  1.00  0.00     0.137 HD
ENDBRANCH  19  22
ENDBRANCH  14  19
ENDBRANCH   9  13
BRANCH  11  25
ATOM     25  C   UNL A   1      34.871  23.339  24.751  1.00  0.00     0.054 A 
ATOM     26  C   UNL A   1      35.659  23.083  23.644  1.00  0.00     0.024 A 
ATOM     27  S   UNL A   1      35.816  23.393  26.187  1.00  0.00    -0.122 S 
ATOM     28  C   UNL A   1      37.049  23.024  23.968  1.00  0.00     0.033 A 
ATOM     29  C   UNL A   1      37.249  23.193  25.312  1.00  0.00     0.094 A 
ATOM     30  Cl  UNL A   1      38.763  23.220  26.123  1.00  0.00    -0.072 Cl
ENDBRANCH  11  25
ENDBRANCH   6   8
ENDBRANCH   5   6
ENDBRANCH   4   5
ENDBRANCH   3   4
ENDBRANCH   2   3
ENDBRANCH   1   2
BRANCH   1  31
ATOM     31  C   UNL A   1      32.698  28.997  24.649  1.00  0.00     0.188 C 
BRANCH  31  32
ATOM     32  O   UNL A   1      33.797  28.816  25.531  1.00  0.00    -0.376 OA
BRANCH  32  33
ATOM     33  C   UNL A   1      33.832  29.691  26.655  1.00  0.00     0.202 C 
BRANCH  33  34
ATOM     34  C   UNL A   1      34.875  29.319  27.705  1.00  0.00     0.261 C 
BRANCH  34  35
ATOM     35  O   UNL A   1      35.856  30.321  27.938  1.00  0.00    -0.460 OA
BRANCH  35  36
ATOM     36  C   UNL A   1      36.740  30.049  28.921  1.00  0.00     0.338 C 
ATOM     37  O   UNL A   1      36.736  30.507  30.051  1.00  0.00    -0.246 OA
BRANCH  36  38
ATOM     38  C   UNL A   1      37.777  29.163  28.382  1.00  0.00     0.060 A 
ATOM     39  C   UNL A   1      38.288  28.188  29.238  1.00  0.00     0.016 A 
ATOM     40  C   UNL A   1      38.400  29.486  27.164  1.00  0.00     0.016 A 
ATOM     41  C   UNL A   1      39.544  27.688  28.976  1.00  0.00     0.010 A 
ATOM     42  C   UNL A   1      39.662  29.000  26.913  1.00  0.00     0.010 A 
ATOM     43  C   UNL A   1      40.250  28.179  27.871  1.00  0.00    -0.014 A 
BRANCH  43  44
ATOM     44  C   UNL A   1      41.654  27.851  27.789  1.00  0.00     0.031 A 
ATOM     45  C   UNL A   1      41.963  26.546  27.188  1.00  0.00     0.074 A 
ATOM     46  C   UNL A   1      42.616  28.697  28.196  1.00  0.00     0.049 A 
ATOM     47  N   UNL A   1      42.422  25.498  27.782  1.00  0.00    -0.248 NA
ATOM     48  C   UNL A   1      41.609  26.345  25.779  1.00  0.00     0.031 C 
ATOM     49  C   UNL A   1      42.486  30.118  28.527  1.00  0.00     0.029 A 
ATOM     50  N   UNL A   1      43.952  28.464  28.305  1.00  0.00    -0.354 N 
ATOM     51  C   UNL A   1      42.628  24.564  26.779  1.00  0.00     0.074 A 
ATOM     52  C   UNL A   1      41.947  25.066  25.614  1.00  0.00     0.031 C 
ATOM     53  C   UNL A   1      43.720  30.666  28.595  1.00  0.00     0.029 A 
ATOM     54  C   UNL A   1      44.713  29.613  28.448  1.00  0.00     0.049 A 
ATOM     55  H   UNL A   1      44.343  27.561  28.284  1.00  0.00     0.167 HD
ATOM     56  C   UNL A   1      43.535  23.561  26.927  1.00  0.00     0.034 A 
ATOM     57  C   UNL A   1      46.063  29.698  28.366  1.00  0.00     0.034 A 
ATOM     58  C   UNL A   1      43.874  23.356  28.318  1.00  0.00     0.049 A 
ATOM     59  C   UNL A   1      46.616  28.354  28.662  1.00  0.00     0.074 A 
ATOM     60  C   UNL A   1      43.144  23.063  29.457  1.00  0.00     0.029 A 
ATOM     61  N   UNL A   1      45.097  23.796  28.771  1.00  0.00    -0.354 N 
ATOM     62  N   UNL A   1      46.522  27.773  29.827  1.00  0.00    -0.248 NA
ATOM     63  C   UNL A   1      46.910  27.457  27.554  1.00  0.00     0.031 C 
ATOM     64  C   UNL A   1      43.779  23.789  30.506  1.00  0.00     0.029 A 
ATOM     65  C   UNL A   1      44.884  24.448  29.963  1.00  0.00     0.049 A 
ATOM     66  H   UNL A   1      45.964  23.668  28.324  1.00  0.00     0.167 HD
ATOM     67  C   UNL A   1      46.322  26.429  29.549  1.00  0.00     0.074 A 
ATOM     68  C   UNL A   1      46.692  26.280  28.145  1.00  0.00     0.031 C 
ATOM     69  C   UNL A   1      45.618  25.623  30.398  1.00  0.00     0.034 A 
BRANCH  56  70
ATOM     70  C   UNL A   1      44.355  22.991  25.795  1.00  0.00     0.023 A 
ATOM     71  C   UNL A   1      44.158  21.637  25.474  1.00  0.00     0.031 A 
ATOM     72  C   UNL A   1      45.487  23.603  25.208  1.00  0.00     0.131 A 
ATOM     73  C   UNL A   1      45.090  20.938  24.687  1.00  0.00     0.055 A 
ATOM     74  C   UNL A   1      46.366  22.925  24.359  1.00  0.00     0.041 A 
ATOM     75  F   UNL A   1      45.867  24.854  25.493  1.00  0.00    -0.206 F 
ATOM     76  C   UNL A   1      46.189  21.575  24.120  1.00  0.00     0.022 A 
BRANCH  73  77
ATOM     77  S   UNL A   1      44.945  19.136  24.590  1.00  0.00     0.124 S 
ATOM     78  O   UNL A   1      45.638  18.718  25.804  1.00  0.00    -0.237 OA
ATOM     79  O   UNL A   1      43.498  18.953  24.575  1.00  0.00    -0.237 OA
ATOM     80  O   UNL A   1      45.628  18.810  23.339  1.00  0.00    -0.744 OA
ENDBRANCH  73  77
ENDBRANCH  56  70
BRANCH  57  81
ATOM     81  C   UNL A   1      46.827  30.791  27.713  1.00  0.00     0.023 A 
ATOM     82  C   UNL A   1      46.197  31.909  27.136  1.00  0.00     0.031 A 
ATOM     83  C   UNL A   1      48.234  30.852  27.851  1.00  0.00     0.131 A 
ATOM     84  C   UNL A   1      46.966  33.018  26.721  1.00  0.00     0.055 A 
ATOM     85  C   UNL A   1      48.990  31.942  27.423  1.00  0.00     0.041 A 
ATOM     86  F   UNL A   1      48.915  29.885  28.487  1.00  0.00    -0.206 F 
ATOM     87  C   UNL A   1      48.357  33.037  26.860  1.00  0.00     0.022 A 
BRANCH  84  88
ATOM     88  S   UNL A   1      46.142  34.510  26.086  1.00  0.00     0.124 S 
ATOM     89  O   UNL A   1      45.676  34.073  24.776  1.00  0.00    -0.237 OA
ATOM     90  O   UNL A   1      45.116  34.753  27.094  1.00  0.00    -0.237 OA
ATOM     91  O   UNL A   1      47.216  35.505  26.057  1.00  0.00    -0.744 OA
ENDBRANCH  84  88
ENDBRANCH  57  81
BRANCH  69  92
ATOM     92  C   UNL A   1      45.371  26.101  31.815  1.00  0.00     0.023 A 
ATOM     93  C   UNL A   1      44.187  26.732  32.256  1.00  0.00     0.031 A 
ATOM     94  C   UNL A   1      46.343  25.793  32.785  1.00  0.00     0.131 A 
ATOM     95  C   UNL A   1      44.017  27.043  33.620  1.00  0.00     0.055 A 
ATOM     96  C   UNL A   1      46.165  26.085  34.137  1.00  0.00     0.041 A 
ATOM     97  F   UNL A   1      47.479  25.166  32.435  1.00  0.00    -0.206 F 
ATOM     98  C   UNL A   1      45.002  26.718  34.560  1.00  0.00     0.022 A 
BRANCH  95  99
ATOM     99  S   UNL A   1      42.511  27.886  34.198  1.00  0.00     0.124 S 
ATOM    100  O   UNL A   1      41.768  26.833  34.880  1.00  0.00    -0.237 OA
ATOM    101  O   UNL A   1      43.048  28.945  35.048  1.00  0.00    -0.237 OA
ATOM    102  O   UNL A   1      41.891  28.360  32.958  1.00  0.00    -0.744 OA
ENDBRANCH  95  99
ENDBRANCH  69  92
ENDBRANCH  43  44
ENDBRANCH  36  38
ENDBRANCH  35  36
ENDBRANCH  34  35
ENDBRANCH  33  34
ENDBRANCH  32  33
ENDBRANCH  31  32
ENDBRANCH   1  31
TORSDOF 24
ENDMDL
MODEL 3
REMARK VINA RESULT:     -11.1      2.171      2.979
REMARK SMILES NS(=O)(=O)c1ccc(-n2nc(C(=O)OCCOCCOCCOC(=O)c3ccc(-c4c5nc(c(-c6cc(S(=O)(=O)[O-])ccc6F)c6ccc([nH]6)c(-c6cc(S(=O)(=O)[O-])ccc6F)c6nc(c(-c7cc(S(=O)(=O)[O-])ccc7F)c7ccc4[nH]7)C=C6)C=C5)cc3)cc2-c2ccc(Cl)s2)cc1
REMARK SMILES IDX 18 1 17 2 16 3 15 4 14 5 12 6 13 7 11 8 9 9 10 10 90 11
REMARK SMILES IDX 89 12 8 13 5 14 6 15 98 16 7 17 97 18 2 19 3 20 4 21 1 22
REMARK SMILES IDX 91 25 92 26 96 27 93 28 94 29 95 30 19 31 20 32 21 33 22 34
REMARK SMILES IDX 23 35 24 36 25 37 26 38 27 39 88 40 28 41 87 42 29 43 30 44
REMARK SMILES IDX 31 45 81 46 32 47 86 48 80 49 82 50 33 51 85 52 79 53 78 54
REMARK SMILES IDX 34 56 66 57 46 58 65 59 47 60 50 61 64 62 83 63 48 64 49 65
REMARK SMILES IDX 63 67 84 68 51 69 35 70 36 71 44 72 37 73 43 74 45 75 42 76
REMARK SMILES IDX 38 77 39 78 40 79 41 80 67 81 68 82 76 83 69 84 75 85 77 86
REMARK SMILES IDX 74 87 70 88 71 89 72 90 73 91 52 92 53 93 61 94 54 95 60 96
REMARK SMILES IDX 62 97 59 98 55 99 56 100 57 101 58 102
REMARK H PARENT 1 23 1 24 82 55 50 66
REMARK Flexibility Score: inf
ROOT
ATOM      1  C   UNL A   1      31.945  29.311  25.399  1.00  0.00     0.188 C 
ENDROOT
BRANCH   1   2
ATOM      2  O   UNL A   1      31.037  29.435  24.310  1.00  0.00    -0.376 OA
BRANCH   2   3
ATOM      3  C   UNL A   1      31.091  28.538  23.215  1.00  0.00     0.202 C 
BRANCH   3   4
ATOM      4  C   UNL A   1      32.353  27.682  23.035  1.00  0.00     0.261 C 
BRANCH   4   5
ATOM      5  O   UNL A   1      32.115  26.275  22.874  1.00  0.00    -0.458 OA
BRANCH   5   6
ATOM      6  C   UNL A   1      33.152  25.556  22.348  1.00  0.00     0.358 C 
ATOM      7  O   UNL A   1      33.728  25.839  21.304  1.00  0.00    -0.244 OA
BRANCH   6   8
ATOM      8  C   UNL A   1      33.547  24.428  23.208  1.00  0.00     0.171 A 
ATOM      9  N   UNL A   1      34.818  23.222  24.441  1.00  0.00    -0.231 N 
ATOM     10  N   UNL A   1      34.729  24.432  23.850  1.00  0.00    -0.160 NA
ATOM     11  C   UNL A   1      33.645  22.493  24.321  1.00  0.00     0.085 A 
ATOM     12  C   UNL A   1      32.800  23.269  23.550  1.00  0.00     0.068 A 
BRANCH   9  13
ATOM     13  C   UNL A   1      36.079  22.789  24.917  1.00  0.00     0.065 A 
ATOM     14  C   UNL A   1      38.570  21.943  25.804  1.00  0.00     0.082 A 
ATOM     15  C   UNL A   1      37.809  21.106  24.983  1.00  0.00     0.024 A 
ATOM     16  C   UNL A   1      38.093  23.205  26.180  1.00  0.00     0.024 A 
ATOM     17  C   UNL A   1      36.553  21.523  24.551  1.00  0.00     0.030 A 
ATOM     18  C   UNL A   1      36.853  23.646  25.709  1.00  0.00     0.030 A 
BRANCH  14  19
ATOM     19  S   UNL A   1      40.156  21.433  26.392  1.00  0.00     0.238 S 
ATOM     20  O   UNL A   1      40.232  21.687  27.809  1.00  0.00    -0.207 OA
ATOM     21  O   UNL A   1      41.160  21.876  25.452  1.00  0.00    -0.207 OA
BRANCH  19  22
ATOM     22  N   UNL A   1      40.137  19.752  26.253  1.00  0.00    -0.225 NA
ATOM     23  H   UNL A   1      39.335  19.378  26.759  1.00  0.00     0.137 HD
ATOM     24  H   UNL A   1      40.996  19.369  26.646  1.00  0.00     0.137 HD
ENDBRANCH  19  22
ENDBRANCH  14  19
ENDBRANCH   9  13
BRANCH  11  25
ATOM     25  C   UNL A   1      33.407  21.199  24.900  1.00  0.00     0.054 A 
ATOM     26  C   UNL A   1      33.413  20.887  26.246  1.00  0.00     0.024 A 
ATOM     27  S   UNL A   1      33.058  19.813  23.943  1.00  0.00    -0.122 S 
ATOM     28  C   UNL A   1      33.039  19.531  26.492  1.00  0.00     0.033 A 
ATOM     29  C   UNL A   1      32.810  18.862  25.319  1.00  0.00     0.094 A 
ATOM     30  Cl  UNL A   1      32.314  17.226  25.155  1.00  0.00    -0.072 Cl
ENDBRANCH  11  25
ENDBRANCH   6   8
ENDBRANCH   5   6
ENDBRANCH   4   5
ENDBRANCH   3   4
ENDBRANCH   2   3
ENDBRANCH   1   2
BRANCH   1  31
ATOM     31  C   UNL A   1      32.159  30.434  26.441  1.00  0.00     0.188 C 
BRANCH  31  32
ATOM     32  O   UNL A   1      33.331  30.332  27.240  1.00  0.00    -0.376 OA
BRANCH  32  33
ATOM     33  C   UNL A   1      33.860  31.567  27.712  1.00  0.00     0.202 C 
BRANCH  33  34
ATOM     34  C   UNL A   1      35.005  31.416  28.709  1.00  0.00     0.261 C 
BRANCH  34  35
ATOM     35  O   UNL A   1      35.680  30.166  28.641  1.00  0.00    -0.460 OA
BRANCH  35  36
ATOM     36  C   UNL A   1      36.619  29.961  29.589  1.00  0.00     0.338 C 
ATOM     37  O   UNL A   1      36.642  30.446  30.707  1.00  0.00    -0.246 OA
BRANCH  36  38
ATOM     38  C   UNL A   1      37.671  29.109  29.024  1.00  0.00     0.060 A 
ATOM     39  C   UNL A   1      38.188  28.108  29.847  1.00  0.00     0.016 A 
ATOM     40  C   UNL A   1      38.299  29.488  27.826  1.00  0.00     0.016 A 
ATOM     41  C   UNL A   1      39.453  27.636  29.576  1.00  0.00     0.010 A 
ATOM     42  C   UNL A   1      39.570  29.028  27.567  1.00  0.00     0.010 A 
ATOM     43  C   UNL A   1      40.161  28.178  28.498  1.00  0.00    -0.014 A 
BRANCH  43  44
ATOM     44  C   UNL A   1      41.570  27.872  28.414  1.00  0.00     0.031 A 
ATOM     45  C   UNL A   1      41.905  26.634  27.696  1.00  0.00     0.074 A 
ATOM     46  C   UNL A   1      42.514  28.683  28.923  1.00  0.00     0.049 A 
ATOM     47  N   UNL A   1      42.363  25.538  28.196  1.00  0.00    -0.248 NA
ATOM     48  C   UNL A   1      41.584  26.569  26.267  1.00  0.00     0.031 C 
ATOM     49  C   UNL A   1      42.362  30.063  29.388  1.00  0.00     0.029 A 
ATOM     50  N   UNL A   1      43.849  28.452  29.038  1.00  0.00    -0.354 N 
ATOM     51  C   UNL A   1      42.600  24.707  27.111  1.00  0.00     0.074 A 
ATOM     52  C   UNL A   1      41.938  25.315  25.986  1.00  0.00     0.031 C 
ATOM     53  C   UNL A   1      43.588  30.613  29.536  1.00  0.00     0.029 A 
ATOM     54  C   UNL A   1      44.595  29.588  29.309  1.00  0.00     0.049 A 
ATOM     55  H   UNL A   1      44.250  27.558  28.938  1.00  0.00     0.167 HD
ATOM     56  C   UNL A   1      43.514  23.703  27.181  1.00  0.00     0.034 A 
ATOM     57  C   UNL A   1      45.946  29.692  29.265  1.00  0.00     0.034 A 
ATOM     58  C   UNL A   1      43.826  23.366  28.552  1.00  0.00     0.049 A 
ATOM     59  C   UNL A   1      46.506  28.330  29.442  1.00  0.00     0.074 A 
ATOM     60  C   UNL A   1      43.076  22.957  29.641  1.00  0.00     0.029 A 
ATOM     61  N   UNL A   1      45.035  23.771  29.072  1.00  0.00    -0.354 N 
ATOM     62  N   UNL A   1      46.394  27.637  30.542  1.00  0.00    -0.248 NA
ATOM     63  C   UNL A   1      46.833  27.548  28.257  1.00  0.00     0.031 C 
ATOM     64  C   UNL A   1      43.681  23.583  30.769  1.00  0.00     0.029 A 
ATOM     65  C   UNL A   1      44.790  24.301  30.317  1.00  0.00     0.049 A 
ATOM     66  H   UNL A   1      45.912  23.694  28.634  1.00  0.00     0.167 HD
ATOM     67  C   UNL A   1      46.215  26.326  30.130  1.00  0.00     0.074 A 
ATOM     68  C   UNL A   1      46.616  26.317  28.727  1.00  0.00     0.031 C 
ATOM     69  C   UNL A   1      45.501  25.434  30.881  1.00  0.00     0.034 A 
BRANCH  56  70
ATOM     70  C   UNL A   1      44.364  23.253  26.017  1.00  0.00     0.023 A 
ATOM     71  C   UNL A   1      44.324  21.889  25.678  1.00  0.00     0.031 A 
ATOM     72  C   UNL A   1      45.395  24.007  25.409  1.00  0.00     0.131 A 
ATOM     73  C   UNL A   1      45.311  21.320  24.854  1.00  0.00     0.055 A 
ATOM     74  C   UNL A   1      46.325  23.453  24.525  1.00  0.00     0.041 A 
ATOM     75  F   UNL A   1      45.628  25.291  25.706  1.00  0.00    -0.206 F 
ATOM     76  C   UNL A   1      46.307  22.095  24.268  1.00  0.00     0.022 A 
BRANCH  73  77
ATOM     77  S   UNL A   1      45.383  19.516  24.729  1.00  0.00     0.124 S 
ATOM     78  O   UNL A   1      46.747  19.244  25.170  1.00  0.00    -0.237 OA
ATOM     79  O   UNL A   1      44.317  19.111  25.638  1.00  0.00    -0.237 OA
ATOM     80  O   UNL A   1      45.125  19.265  23.313  1.00  0.00    -0.744 OA
ENDBRANCH  73  77
ENDBRANCH  56  70
BRANCH  57  81
ATOM     81  C   UNL A   1      46.712  30.850  28.739  1.00  0.00     0.023 A 
ATOM     82  C   UNL A   1      47.580  31.606  29.547  1.00  0.00     0.031 A 
ATOM     83  C   UNL A   1      46.765  31.090  27.345  1.00  0.00     0.131 A 
ATOM     84  C   UNL A   1      48.444  32.557  28.959  1.00  0.00     0.055 A 
ATOM     85  C   UNL A   1      47.607  32.042  26.773  1.00  0.00     0.041 A 
ATOM     86  F   UNL A   1      46.057  30.344  26.482  1.00  0.00    -0.206 F 
ATOM     87  C   UNL A   1      48.458  32.777  27.578  1.00  0.00     0.022 A 
BRANCH  84  88
ATOM     88  S   UNL A   1      49.650  33.449  29.988  1.00  0.00     0.124 S 
ATOM     89  O   UNL A   1      49.549  32.747  31.262  1.00  0.00    -0.237 OA
ATOM     90  O   UNL A   1      50.891  33.268  29.243  1.00  0.00    -0.237 OA
ATOM     91  O   UNL A   1      49.139  34.821  29.999  1.00  0.00    -0.744 OA
ENDBRANCH  84  88
ENDBRANCH  57  81
BRANCH  69  92
ATOM     92  C   UNL A   1      45.220  25.770  32.332  1.00  0.00     0.023 A 
ATOM     93  C   UNL A   1      44.024  26.355  32.804  1.00  0.00     0.031 A 
ATOM     94  C   UNL A   1      46.168  25.366  33.290  1.00  0.00     0.131 A 
ATOM     95  C   UNL A   1      43.822  26.529  34.188  1.00  0.00     0.055 A 
ATOM     96  C   UNL A   1      45.958  25.523  34.659  1.00  0.00     0.041 A 
ATOM     97  F   UNL A   1      47.314  24.775  32.907  1.00  0.00    -0.206 F 
ATOM     98  C   UNL A   1      44.784  26.112  35.114  1.00  0.00     0.022 A 
BRANCH  95  99
ATOM     99  S   UNL A   1      42.300  27.312  34.810  1.00  0.00     0.124 S 
ATOM    100  O   UNL A   1      41.369  26.198  34.942  1.00  0.00    -0.237 OA
ATOM    101  O   UNL A   1      42.748  27.924  36.058  1.00  0.00    -0.237 OA
ATOM    102  O   UNL A   1      41.956  28.269  33.756  1.00  0.00    -0.744 OA
ENDBRANCH  95  99
ENDBRANCH  69  92
ENDBRANCH  43  44
ENDBRANCH  36  38
ENDBRANCH  35  36
ENDBRANCH  34  35
ENDBRANCH  33  34
ENDBRANCH  32  33
ENDBRANCH  31  32
ENDBRANCH   1  31
TORSDOF 24
ENDMDL
