MODEL 1
REMARK VINA RESULT:     -10.2      0.000      0.000
REMARK SMILES CCC1CN(c2cc(F)ccc2C(=O)OCCOCCOCCOC(=O)c2ccc(-c3c4nc(c(-c5cc(S(=O)(=O)[O-])ccc5F)c5ccc([nH]5)c(-c5cc(S(=O)(=O)[O-])ccc5F)c5nc(c(-c6cc(S(=O)(=O)[O-])ccc6F)c6ccc3[nH]6)C=C5)C=C4)cc2)C1
REMARK SMILES IDX 20 1 19 2 18 3 17 4 16 5 15 6 13 7 14 8 12 9 6 10 7 11 8 12
REMARK SMILES IDX 11 13 9 14 10 15 5 16 3 17 4 18 90 19 2 20 1 21 21 22 22 23
REMARK SMILES IDX 23 24 24 25 25 26 26 27 27 28 28 29 89 30 29 31 88 32 30 33
REMARK SMILES IDX 31 34 32 35 82 36 33 37 87 38 81 39 83 40 34 41 86 42 80 43
REMARK SMILES IDX 79 44 35 46 67 47 47 48 66 49 48 50 51 51 65 52 84 53 49 54
REMARK SMILES IDX 50 55 64 57 85 58 52 59 36 60 37 61 45 62 38 63 44 64 46 65
REMARK SMILES IDX 43 66 39 67 40 68 41 69 42 70 68 71 69 72 77 73 70 74 76 75
REMARK SMILES IDX 78 76 75 77 71 78 72 79 73 80 74 81 53 82 54 83 62 84 55 85
REMARK SMILES IDX 61 86 63 87 60 88 56 89 57 90 58 91 59 92
REMARK H PARENT 83 45 51 56
REMARK Flexibility Score: inf
ROOT
ATOM      1  C   UNL A   1      36.878  22.082  25.408  1.00  0.00     0.188 C 
ENDROOT
BRANCH   1   2
ATOM      2  C   UNL A   1      35.547  22.784  25.052  1.00  0.00     0.188 C 
BRANCH   2   3
ATOM      3  O   UNL A   1      34.808  23.431  26.087  1.00  0.00    -0.376 OA
BRANCH   3   4
ATOM      4  C   UNL A   1      34.519  22.709  27.281  1.00  0.00     0.202 C 
BRANCH   4   5
ATOM      5  C   UNL A   1      33.055  22.431  27.654  1.00  0.00     0.261 C 
BRANCH   5   6
ATOM      6  O   UNL A   1      32.198  23.573  27.503  1.00  0.00    -0.460 OA
BRANCH   6   7
ATOM      7  C   UNL A   1      31.197  23.477  26.594  1.00  0.00     0.340 C 
ATOM      8  O   UNL A   1      30.002  23.554  26.825  1.00  0.00    -0.246 OA
BRANCH   7   9
ATOM      9  C   UNL A   1      31.758  23.478  25.219  1.00  0.00     0.083 A 
ATOM     10  C   UNL A   1      32.088  24.642  24.497  1.00  0.00     0.054 A 
ATOM     11  C   UNL A   1      32.532  24.478  23.170  1.00  0.00     0.066 A 
ATOM     12  C   UNL A   1      32.643  23.218  22.591  1.00  0.00     0.125 A 
ATOM     13  C   UNL A   1      31.852  22.206  24.610  1.00  0.00     0.021 A 
ATOM     14  F   UNL A   1      33.103  23.111  21.338  1.00  0.00    -0.207 F 
ATOM     15  C   UNL A   1      32.293  22.078  23.294  1.00  0.00     0.040 A 
BRANCH  10  16
ATOM     16  N   UNL A   1      32.028  25.945  25.007  1.00  0.00    -0.370 N 
ATOM     17  C   UNL A   1      31.955  27.939  25.446  1.00  0.00     0.028 C 
ATOM     18  C   UNL A   1      32.962  26.791  25.662  1.00  0.00     0.122 C 
ATOM     19  C   UNL A   1      30.923  26.834  25.167  1.00  0.00     0.122 C 
BRANCH  17  20
ATOM     20  C   UNL A   1      31.704  28.863  26.626  1.00  0.00     0.004 C 
ATOM     21  C   UNL A   1      32.859  29.843  26.763  1.00  0.00     0.004 C 
ENDBRANCH  17  20
ENDBRANCH  10  16
ENDBRANCH   7   9
ENDBRANCH   6   7
ENDBRANCH   5   6
ENDBRANCH   4   5
ENDBRANCH   3   4
ENDBRANCH   2   3
ENDBRANCH   1   2
BRANCH   1  22
ATOM     22  O   UNL A   1      36.783  20.674  25.444  1.00  0.00    -0.376 OA
BRANCH  22  23
ATOM     23  C   UNL A   1      37.770  19.916  24.768  1.00  0.00     0.202 C 
BRANCH  23  24
ATOM     24  C   UNL A   1      39.029  19.357  25.466  1.00  0.00     0.261 C 
BRANCH  24  25
ATOM     25  O   UNL A   1      39.553  20.069  26.595  1.00  0.00    -0.460 OA
BRANCH  25  26
ATOM     26  C   UNL A   1      40.859  20.407  26.553  1.00  0.00     0.338 C 
ATOM     27  O   UNL A   1      41.765  19.751  26.051  1.00  0.00    -0.246 OA
BRANCH  26  28
ATOM     28  C   UNL A   1      41.002  21.796  27.036  1.00  0.00     0.060 A 
ATOM     29  C   UNL A   1      40.444  22.834  26.278  1.00  0.00     0.016 A 
ATOM     30  C   UNL A   1      41.696  22.078  28.216  1.00  0.00     0.016 A 
ATOM     31  C   UNL A   1      40.615  24.159  26.676  1.00  0.00     0.010 A 
ATOM     32  C   UNL A   1      41.883  23.410  28.603  1.00  0.00     0.010 A 
ATOM     33  C   UNL A   1      41.377  24.458  27.814  1.00  0.00    -0.014 A 
BRANCH  33  34
ATOM     34  C   UNL A   1      41.813  25.859  28.048  1.00  0.00     0.031 A 
ATOM     35  C   UNL A   1      43.141  26.299  27.491  1.00  0.00     0.074 A 
ATOM     36  C   UNL A   1      41.021  26.746  28.679  1.00  0.00     0.049 A 
ATOM     37  N   UNL A   1      43.725  27.466  27.558  1.00  0.00    -0.248 NA
ATOM     38  C   UNL A   1      43.911  25.281  26.759  1.00  0.00     0.031 C 
ATOM     39  C   UNL A   1      39.690  26.461  29.210  1.00  0.00     0.029 A 
ATOM     40  N   UNL A   1      41.222  28.074  28.966  1.00  0.00    -0.354 N 
ATOM     41  C   UNL A   1      44.927  27.326  26.872  1.00  0.00     0.074 A 
ATOM     42  C   UNL A   1      45.008  25.949  26.440  1.00  0.00     0.031 C 
ATOM     43  C   UNL A   1      39.186  27.586  29.746  1.00  0.00     0.029 A 
ATOM     44  C   UNL A   1      40.170  28.663  29.629  1.00  0.00     0.049 A 
ATOM     45  H   UNL A   1      42.042  28.561  28.719  1.00  0.00     0.167 HD
ATOM     46  C   UNL A   1      45.867  28.265  26.609  1.00  0.00     0.034 A 
ATOM     47  C   UNL A   1      40.022  29.920  30.097  1.00  0.00     0.034 A 
ATOM     48  C   UNL A   1      45.782  29.634  27.047  1.00  0.00     0.049 A 
ATOM     49  C   UNL A   1      41.131  30.922  29.894  1.00  0.00     0.074 A 
ATOM     50  C   UNL A   1      46.680  30.663  26.829  1.00  0.00     0.029 A 
ATOM     51  N   UNL A   1      44.743  30.163  27.800  1.00  0.00    -0.354 N 
ATOM     52  N   UNL A   1      42.274  30.770  29.267  1.00  0.00    -0.248 NA
ATOM     53  C   UNL A   1      40.933  32.263  30.464  1.00  0.00     0.031 C 
ATOM     54  C   UNL A   1      46.222  31.793  27.511  1.00  0.00     0.029 A 
ATOM     55  C   UNL A   1      44.998  31.495  28.088  1.00  0.00     0.049 A 
ATOM     56  H   UNL A   1      43.943  29.667  28.088  1.00  0.00     0.167 HD
ATOM     57  C   UNL A   1      42.921  32.000  29.348  1.00  0.00     0.074 A 
ATOM     58  C   UNL A   1      42.043  32.885  30.086  1.00  0.00     0.031 C 
ATOM     59  C   UNL A   1      44.126  32.364  28.843  1.00  0.00     0.034 A 
BRANCH  46  60
ATOM     60  C   UNL A   1      47.089  27.827  25.842  1.00  0.00     0.023 A 
ATOM     61  C   UNL A   1      47.201  28.030  24.456  1.00  0.00     0.031 A 
ATOM     62  C   UNL A   1      48.153  27.192  26.507  1.00  0.00     0.131 A 
ATOM     63  C   UNL A   1      48.329  27.555  23.770  1.00  0.00     0.055 A 
ATOM     64  C   UNL A   1      49.304  26.786  25.830  1.00  0.00     0.041 A 
ATOM     65  F   UNL A   1      48.090  26.954  27.827  1.00  0.00    -0.206 F 
ATOM     66  C   UNL A   1      49.391  26.956  24.452  1.00  0.00     0.022 A 
BRANCH  63  67
ATOM     67  S   UNL A   1      48.341  27.634  21.959  1.00  0.00     0.124 S 
ATOM     68  O   UNL A   1      49.493  28.496  21.709  1.00  0.00    -0.237 OA
ATOM     69  O   UNL A   1      48.495  26.234  21.582  1.00  0.00    -0.237 OA
ATOM     70  O   UNL A   1      47.044  28.228  21.633  1.00  0.00    -0.744 OA
ENDBRANCH  63  67
ENDBRANCH  46  60
BRANCH  47  71
ATOM     71  C   UNL A   1      38.775  30.289  30.821  1.00  0.00     0.023 A 
ATOM     72  C   UNL A   1      37.777  31.056  30.201  1.00  0.00     0.031 A 
ATOM     73  C   UNL A   1      38.554  29.852  32.139  1.00  0.00     0.131 A 
ATOM     74  C   UNL A   1      36.599  31.364  30.901  1.00  0.00     0.055 A 
ATOM     75  C   UNL A   1      37.367  30.133  32.819  1.00  0.00     0.041 A 
ATOM     76  F   UNL A   1      39.479  29.114  32.772  1.00  0.00    -0.206 F 
ATOM     77  C   UNL A   1      36.382  30.895  32.199  1.00  0.00     0.022 A 
BRANCH  74  78
ATOM     78  S   UNL A   1      35.343  32.390  30.088  1.00  0.00     0.124 S 
ATOM     79  O   UNL A   1      34.281  32.406  31.087  1.00  0.00    -0.237 OA
ATOM     80  O   UNL A   1      36.057  33.647  29.888  1.00  0.00    -0.237 OA
ATOM     81  O   UNL A   1      35.040  31.649  28.865  1.00  0.00    -0.744 OA
ENDBRANCH  74  78
ENDBRANCH  47  71
BRANCH  59  82
ATOM     82  C   UNL A   1      44.577  33.789  29.041  1.00  0.00     0.023 A 
ATOM     83  C   UNL A   1      44.036  34.844  28.288  1.00  0.00     0.031 A 
ATOM     84  C   UNL A   1      45.492  34.102  30.062  1.00  0.00     0.131 A 
ATOM     85  C   UNL A   1      44.426  36.165  28.559  1.00  0.00     0.055 A 
ATOM     86  C   UNL A   1      45.843  35.420  30.357  1.00  0.00     0.041 A 
ATOM     87  F   UNL A   1      46.032  33.130  30.815  1.00  0.00    -0.206 F 
ATOM     88  C   UNL A   1      45.310  36.461  29.602  1.00  0.00     0.022 A 
BRANCH  85  89
ATOM     89  S   UNL A   1      43.773  37.502  27.522  1.00  0.00     0.124 S 
ATOM     90  O   UNL A   1      42.922  38.225  28.461  1.00  0.00    -0.237 OA
ATOM     91  O   UNL A   1      44.987  38.194  27.098  1.00  0.00    -0.237 OA
ATOM     92  O   UNL A   1      43.063  36.796  26.457  1.00  0.00    -0.744 OA
ENDBRANCH  85  89
ENDBRANCH  59  82
ENDBRANCH  33  34
ENDBRANCH  26  28
ENDBRANCH  25  26
ENDBRANCH  24  25
ENDBRANCH  23  24
ENDBRANCH  22  23
ENDBRANCH   1  22
TORSDOF 22
ENDMDL
MODEL 2
REMARK VINA RESULT:     -10.0      2.352      2.785
REMARK SMILES CCC1CN(c2cc(F)ccc2C(=O)OCCOCCOCCOC(=O)c2ccc(-c3c4nc(c(-c5cc(S(=O)(=O)[O-])ccc5F)c5ccc([nH]5)c(-c5cc(S(=O)(=O)[O-])ccc5F)c5nc(c(-c6cc(S(=O)(=O)[O-])ccc6F)c6ccc3[nH]6)C=C5)C=C4)cc2)C1
REMARK SMILES IDX 20 1 19 2 18 3 17 4 16 5 15 6 13 7 14 8 12 9 6 10 7 11 8 12
REMARK SMILES IDX 11 13 9 14 10 15 5 16 3 17 4 18 90 19 2 20 1 21 21 22 22 23
REMARK SMILES IDX 23 24 24 25 25 26 26 27 27 28 28 29 89 30 29 31 88 32 30 33
REMARK SMILES IDX 31 34 32 35 82 36 33 37 87 38 81 39 83 40 34 41 86 42 80 43
REMARK SMILES IDX 79 44 35 46 67 47 47 48 66 49 48 50 51 51 65 52 84 53 49 54
REMARK SMILES IDX 50 55 64 57 85 58 52 59 36 60 37 61 45 62 38 63 44 64 46 65
REMARK SMILES IDX 43 66 39 67 40 68 41 69 42 70 68 71 69 72 77 73 70 74 76 75
REMARK SMILES IDX 78 76 75 77 71 78 72 79 73 80 74 81 53 82 54 83 62 84 55 85
REMARK SMILES IDX 61 86 63 87 60 88 56 89 57 90 58 91 59 92
REMARK H PARENT 83 45 51 56
REMARK Flexibility Score: inf
ROOT
ATOM      1  C   UNL A   1      36.993  22.160  25.611  1.00  0.00     0.188 C 
ENDROOT
BRANCH   1   2
ATOM      2  C   UNL A   1      35.592  22.806  25.497  1.00  0.00     0.188 C 
BRANCH   2   3
ATOM      3  O   UNL A   1      34.890  23.150  26.690  1.00  0.00    -0.376 OA
BRANCH   3   4
ATOM      4  C   UNL A   1      34.323  22.108  27.480  1.00  0.00     0.202 C 
BRANCH   4   5
ATOM      5  C   UNL A   1      32.898  22.276  28.031  1.00  0.00     0.261 C 
BRANCH   5   6
ATOM      6  O   UNL A   1      32.142  23.298  27.364  1.00  0.00    -0.460 OA
BRANCH   6   7
ATOM      7  C   UNL A   1      31.246  22.893  26.432  1.00  0.00     0.340 C 
ATOM      8  O   UNL A   1      30.069  22.633  26.626  1.00  0.00    -0.246 OA
BRANCH   7   9
ATOM      9  C   UNL A   1      31.835  23.013  25.075  1.00  0.00     0.083 A 
ATOM     10  C   UNL A   1      32.107  24.238  24.433  1.00  0.00     0.054 A 
ATOM     11  C   UNL A   1      32.589  24.183  23.110  1.00  0.00     0.066 A 
ATOM     12  C   UNL A   1      32.791  22.970  22.459  1.00  0.00     0.125 A 
ATOM     13  C   UNL A   1      32.021  21.790  24.393  1.00  0.00     0.021 A 
ATOM     14  F   UNL A   1      33.284  22.968  21.213  1.00  0.00    -0.207 F 
ATOM     15  C   UNL A   1      32.498  21.770  23.083  1.00  0.00     0.040 A 
BRANCH  10  16
ATOM     16  N   UNL A   1      31.955  25.501  25.018  1.00  0.00    -0.370 N 
ATOM     17  C   UNL A   1      31.797  27.196  26.148  1.00  0.00     0.028 C 
ATOM     18  C   UNL A   1      30.834  26.316  25.325  1.00  0.00     0.122 C 
ATOM     19  C   UNL A   1      32.925  26.482  25.386  1.00  0.00     0.122 C 
BRANCH  17  20
ATOM     20  C   UNL A   1      31.667  28.700  25.978  1.00  0.00     0.004 C 
ATOM     21  C   UNL A   1      32.135  29.399  27.246  1.00  0.00     0.004 C 
ENDBRANCH  17  20
ENDBRANCH  10  16
ENDBRANCH   7   9
ENDBRANCH   6   7
ENDBRANCH   5   6
ENDBRANCH   4   5
ENDBRANCH   3   4
ENDBRANCH   2   3
ENDBRANCH   1   2
BRANCH   1  22
ATOM     22  O   UNL A   1      36.965  20.749  25.633  1.00  0.00    -0.376 OA
BRANCH  22  23
ATOM     23  C   UNL A   1      37.918  20.046  24.858  1.00  0.00     0.202 C 
BRANCH  23  24
ATOM     24  C   UNL A   1      39.141  19.330  25.470  1.00  0.00     0.261 C 
BRANCH  24  25
ATOM     25  O   UNL A   1      39.992  20.073  26.353  1.00  0.00    -0.460 OA
BRANCH  25  26
ATOM     26  C   UNL A   1      41.322  19.875  26.231  1.00  0.00     0.338 C 
ATOM     27  O   UNL A   1      41.873  18.855  25.833  1.00  0.00    -0.246 OA
BRANCH  26  28
ATOM     28  C   UNL A   1      42.012  21.160  26.469  1.00  0.00     0.060 A 
ATOM     29  C   UNL A   1      42.357  21.506  27.781  1.00  0.00     0.016 A 
ATOM     30  C   UNL A   1      42.301  22.026  25.411  1.00  0.00     0.016 A 
ATOM     31  C   UNL A   1      42.954  22.739  28.045  1.00  0.00     0.010 A 
ATOM     32  C   UNL A   1      42.882  23.271  25.679  1.00  0.00     0.010 A 
ATOM     33  C   UNL A   1      43.174  23.649  27.001  1.00  0.00    -0.014 A 
BRANCH  33  34
ATOM     34  C   UNL A   1      43.512  25.059  27.327  1.00  0.00     0.031 A 
ATOM     35  C   UNL A   1      44.915  25.538  27.064  1.00  0.00     0.074 A 
ATOM     36  C   UNL A   1      42.582  25.919  27.781  1.00  0.00     0.049 A 
ATOM     37  N   UNL A   1      45.440  26.720  27.256  1.00  0.00    -0.248 NA
ATOM     38  C   UNL A   1      45.850  24.548  26.506  1.00  0.00     0.031 C 
ATOM     39  C   UNL A   1      41.177  25.594  28.019  1.00  0.00     0.029 A 
ATOM     40  N   UNL A   1      42.681  27.249  28.109  1.00  0.00    -0.354 N 
ATOM     41  C   UNL A   1      46.762  26.618  26.838  1.00  0.00     0.074 A 
ATOM     42  C   UNL A   1      46.971  25.247  26.427  1.00  0.00     0.031 C 
ATOM     43  C   UNL A   1      40.540  26.701  28.441  1.00  0.00     0.029 A 
ATOM     44  C   UNL A   1      41.498  27.803  28.538  1.00  0.00     0.049 A 
ATOM     45  H   UNL A   1      43.521  27.759  28.042  1.00  0.00     0.167 HD
ATOM     46  C   UNL A   1      47.711  27.583  26.782  1.00  0.00     0.034 A 
ATOM     47  C   UNL A   1      41.220  29.052  28.969  1.00  0.00     0.034 A 
ATOM     48  C   UNL A   1      47.497  28.946  27.198  1.00  0.00     0.049 A 
ATOM     49  C   UNL A   1      42.319  30.084  29.008  1.00  0.00     0.074 A 
ATOM     50  C   UNL A   1      48.393  30.000  27.178  1.00  0.00     0.029 A 
ATOM     51  N   UNL A   1      46.309  29.440  27.718  1.00  0.00    -0.354 N 
ATOM     52  N   UNL A   1      43.572  29.968  28.635  1.00  0.00    -0.248 NA
ATOM     53  C   UNL A   1      41.969  31.414  29.529  1.00  0.00     0.031 C 
ATOM     54  C   UNL A   1      47.771  31.111  27.753  1.00  0.00     0.029 A 
ATOM     55  C   UNL A   1      46.461  30.775  28.058  1.00  0.00     0.049 A 
ATOM     56  H   UNL A   1      45.481  28.921  27.829  1.00  0.00     0.167 HD
ATOM     57  C   UNL A   1      44.153  31.214  28.855  1.00  0.00     0.074 A 
ATOM     58  C   UNL A   1      43.116  32.069  29.396  1.00  0.00     0.031 C 
ATOM     59  C   UNL A   1      45.427  31.614  28.616  1.00  0.00     0.034 A 
BRANCH  46  60
ATOM     60  C   UNL A   1      49.078  27.185  26.288  1.00  0.00     0.023 A 
ATOM     61  C   UNL A   1      50.135  26.922  27.176  1.00  0.00     0.031 A 
ATOM     62  C   UNL A   1      49.328  27.073  24.909  1.00  0.00     0.131 A 
ATOM     63  C   UNL A   1      51.407  26.612  26.675  1.00  0.00     0.055 A 
ATOM     64  C   UNL A   1      50.579  26.694  24.418  1.00  0.00     0.041 A 
ATOM     65  F   UNL A   1      48.361  27.333  24.015  1.00  0.00    -0.206 F 
ATOM     66  C   UNL A   1      51.630  26.472  25.303  1.00  0.00     0.022 A 
BRANCH  63  67
ATOM     67  S   UNL A   1      52.795  26.498  27.837  1.00  0.00     0.124 S 
ATOM     68  O   UNL A   1      53.341  27.851  27.777  1.00  0.00    -0.237 OA
ATOM     69  O   UNL A   1      52.133  26.129  29.083  1.00  0.00    -0.237 OA
ATOM     70  O   UNL A   1      53.646  25.461  27.254  1.00  0.00    -0.744 OA
ENDBRANCH  63  67
ENDBRANCH  46  60
BRANCH  47  71
ATOM     71  C   UNL A   1      39.839  29.382  29.416  1.00  0.00     0.023 A 
ATOM     72  C   UNL A   1      39.506  29.410  30.779  1.00  0.00     0.031 A 
ATOM     73  C   UNL A   1      38.839  29.704  28.482  1.00  0.00     0.131 A 
ATOM     74  C   UNL A   1      38.202  29.754  31.171  1.00  0.00     0.055 A 
ATOM     75  C   UNL A   1      37.554  30.077  28.877  1.00  0.00     0.041 A 
ATOM     76  F   UNL A   1      39.112  29.693  27.167  1.00  0.00    -0.206 F 
ATOM     77  C   UNL A   1      37.228  30.102  30.230  1.00  0.00     0.022 A 
BRANCH  74  78
ATOM     78  S   UNL A   1      37.789  29.743  32.937  1.00  0.00     0.124 S 
ATOM     79  O   UNL A   1      39.060  30.122  33.542  1.00  0.00    -0.237 OA
ATOM     80  O   UNL A   1      36.721  30.736  33.008  1.00  0.00    -0.237 OA
ATOM     81  O   UNL A   1      37.368  28.364  33.178  1.00  0.00    -0.744 OA
ENDBRANCH  74  78
ENDBRANCH  47  71
BRANCH  59  82
ATOM     82  C   UNL A   1      45.786  33.049  28.910  1.00  0.00     0.023 A 
ATOM     83  C   UNL A   1      45.596  34.065  27.960  1.00  0.00     0.031 A 
ATOM     84  C   UNL A   1      46.239  33.412  30.192  1.00  0.00     0.131 A 
ATOM     85  C   UNL A   1      45.870  35.399  28.303  1.00  0.00     0.055 A 
ATOM     86  C   UNL A   1      46.467  34.744  30.541  1.00  0.00     0.041 A 
ATOM     87  F   UNL A   1      46.430  32.478  31.137  1.00  0.00    -0.206 F 
ATOM     88  C   UNL A   1      46.284  35.746  29.592  1.00  0.00     0.022 A 
BRANCH  85  89
ATOM     89  S   UNL A   1      45.691  36.684  27.035  1.00  0.00     0.124 S 
ATOM     90  O   UNL A   1      46.354  37.822  27.663  1.00  0.00    -0.237 OA
ATOM     91  O   UNL A   1      46.381  36.096  25.890  1.00  0.00    -0.237 OA
ATOM     92  O   UNL A   1      44.243  36.816  26.881  1.00  0.00    -0.744 OA
ENDBRANCH  85  89
ENDBRANCH  59  82
ENDBRANCH  33  34
ENDBRANCH  26  28
ENDBRANCH  25  26
ENDBRANCH  24  25
ENDBRANCH  23  24
ENDBRANCH  22  23
ENDBRANCH   1  22
TORSDOF 22
ENDMDL
MODEL 3
REMARK VINA RESULT:      -9.7      3.000      4.075
REMARK SMILES CCC1CN(c2cc(F)ccc2C(=O)OCCOCCOCCOC(=O)c2ccc(-c3c4nc(c(-c5cc(S(=O)(=O)[O-])ccc5F)c5ccc([nH]5)c(-c5cc(S(=O)(=O)[O-])ccc5F)c5nc(c(-c6cc(S(=O)(=O)[O-])ccc6F)c6ccc3[nH]6)C=C5)C=C4)cc2)C1
REMARK SMILES IDX 20 1 19 2 18 3 17 4 16 5 15 6 13 7 14 8 12 9 6 10 7 11 8 12
REMARK SMILES IDX 11 13 9 14 10 15 5 16 3 17 4 18 90 19 2 20 1 21 21 22 22 23
REMARK SMILES IDX 23 24 24 25 25 26 26 27 27 28 28 29 89 30 29 31 88 32 30 33
REMARK SMILES IDX 31 34 32 35 82 36 33 37 87 38 81 39 83 40 34 41 86 42 80 43
REMARK SMILES IDX 79 44 35 46 67 47 47 48 66 49 48 50 51 51 65 52 84 53 49 54
REMARK SMILES IDX 50 55 64 57 85 58 52 59 36 60 37 61 45 62 38 63 44 64 46 65
REMARK SMILES IDX 43 66 39 67 40 68 41 69 42 70 68 71 69 72 77 73 70 74 76 75
REMARK SMILES IDX 78 76 75 77 71 78 72 79 73 80 74 81 53 82 54 83 62 84 55 85
REMARK SMILES IDX 61 86 63 87 60 88 56 89 57 90 58 91 59 92
REMARK H PARENT 83 45 51 56
REMARK Flexibility Score: inf
ROOT
ATOM      1  C   UNL A   1      37.129  22.158  25.565  1.00  0.00     0.188 C 
ENDROOT
BRANCH   1   2
ATOM      2  C   UNL A   1      35.776  22.874  25.343  1.00  0.00     0.188 C 
BRANCH   2   3
ATOM      3  O   UNL A   1      35.005  23.262  26.477  1.00  0.00    -0.376 OA
BRANCH   3   4
ATOM      4  C   UNL A   1      34.457  22.250  27.317  1.00  0.00     0.202 C 
BRANCH   4   5
ATOM      5  C   UNL A   1      32.968  22.309  27.691  1.00  0.00     0.261 C 
BRANCH   5   6
ATOM      6  O   UNL A   1      32.194  23.160  26.831  1.00  0.00    -0.460 OA
BRANCH   6   7
ATOM      7  C   UNL A   1      31.431  22.555  25.890  1.00  0.00     0.340 C 
ATOM      8  O   UNL A   1      30.422  21.898  26.091  1.00  0.00    -0.246 OA
BRANCH   7   9
ATOM      9  C   UNL A   1      31.864  22.978  24.535  1.00  0.00     0.083 A 
ATOM     10  C   UNL A   1      32.523  22.140  23.613  1.00  0.00     0.054 A 
ATOM     11  C   UNL A   1      32.944  22.716  22.399  1.00  0.00     0.066 A 
ATOM     12  C   UNL A   1      32.720  24.060  22.115  1.00  0.00     0.125 A 
ATOM     13  C   UNL A   1      31.665  24.346  24.244  1.00  0.00     0.021 A 
ATOM     14  F   UNL A   1      33.108  24.554  20.932  1.00  0.00    -0.207 F 
ATOM     15  C   UNL A   1      32.095  24.887  23.033  1.00  0.00     0.040 A 
BRANCH  10  16
ATOM     16  N   UNL A   1      32.769  20.775  23.806  1.00  0.00    -0.370 N 
ATOM     17  C   UNL A   1      32.873  18.790  24.277  1.00  0.00     0.028 C 
ATOM     18  C   UNL A   1      33.727  20.044  24.557  1.00  0.00     0.122 C 
ATOM     19  C   UNL A   1      32.204  19.627  23.175  1.00  0.00     0.122 C 
BRANCH  17  20
ATOM     20  C   UNL A   1      33.616  17.532  23.861  1.00  0.00     0.004 C 
ATOM     21  C   UNL A   1      33.094  16.344  24.655  1.00  0.00     0.004 C 
ENDBRANCH  17  20
ENDBRANCH  10  16
ENDBRANCH   7   9
ENDBRANCH   6   7
ENDBRANCH   5   6
ENDBRANCH   4   5
ENDBRANCH   3   4
ENDBRANCH   2   3
ENDBRANCH   1   2
BRANCH   1  22
ATOM     22  O   UNL A   1      37.025  20.751  25.603  1.00  0.00    -0.376 OA
BRANCH  22  23
ATOM     23  C   UNL A   1      37.940  19.989  24.838  1.00  0.00     0.202 C 
BRANCH  23  24
ATOM     24  C   UNL A   1      39.151  19.256  25.456  1.00  0.00     0.261 C 
BRANCH  24  25
ATOM     25  O   UNL A   1      39.979  19.972  26.381  1.00  0.00    -0.460 OA
BRANCH  25  26
ATOM     26  C   UNL A   1      41.312  19.776  26.286  1.00  0.00     0.338 C 
ATOM     27  O   UNL A   1      41.873  18.760  25.892  1.00  0.00    -0.246 OA
BRANCH  26  28
ATOM     28  C   UNL A   1      41.996  21.059  26.549  1.00  0.00     0.060 A 
ATOM     29  C   UNL A   1      42.269  21.417  27.876  1.00  0.00     0.016 A 
ATOM     30  C   UNL A   1      42.349  21.912  25.500  1.00  0.00     0.016 A 
ATOM     31  C   UNL A   1      42.858  22.650  28.159  1.00  0.00     0.010 A 
ATOM     32  C   UNL A   1      42.922  23.157  25.788  1.00  0.00     0.010 A 
ATOM     33  C   UNL A   1      43.142  23.547  27.121  1.00  0.00    -0.014 A 
BRANCH  33  34
ATOM     34  C   UNL A   1      43.470  24.958  27.451  1.00  0.00     0.031 A 
ATOM     35  C   UNL A   1      44.888  25.428  27.259  1.00  0.00     0.074 A 
ATOM     36  C   UNL A   1      42.522  25.828  27.846  1.00  0.00     0.049 A 
ATOM     37  N   UNL A   1      45.409  26.609  27.468  1.00  0.00    -0.248 NA
ATOM     38  C   UNL A   1      45.846  24.427  26.762  1.00  0.00     0.031 C 
ATOM     39  C   UNL A   1      41.104  25.512  28.011  1.00  0.00     0.029 A 
ATOM     40  N   UNL A   1      42.611  27.160  28.165  1.00  0.00    -0.354 N 
ATOM     41  C   UNL A   1      46.751  26.496  27.123  1.00  0.00     0.074 A 
ATOM     42  C   UNL A   1      46.973  25.120  26.737  1.00  0.00     0.031 C 
ATOM     43  C   UNL A   1      40.452  26.627  28.387  1.00  0.00     0.029 A 
ATOM     44  C   UNL A   1      41.409  27.725  28.525  1.00  0.00     0.049 A 
ATOM     45  H   UNL A   1      43.456  27.666  28.140  1.00  0.00     0.167 HD
ATOM     46  C   UNL A   1      47.707  27.455  27.109  1.00  0.00     0.034 A 
ATOM     47  C   UNL A   1      41.116  28.979  28.929  1.00  0.00     0.034 A 
ATOM     48  C   UNL A   1      47.479  28.822  27.500  1.00  0.00     0.049 A 
ATOM     49  C   UNL A   1      42.217  30.006  29.017  1.00  0.00     0.074 A 
ATOM     50  C   UNL A   1      48.381  29.871  27.518  1.00  0.00     0.029 A 
ATOM     51  N   UNL A   1      46.268  29.329  27.950  1.00  0.00    -0.354 N 
ATOM     52  N   UNL A   1      43.488  29.880  28.713  1.00  0.00    -0.248 NA
ATOM     53  C   UNL A   1      41.847  31.343  29.505  1.00  0.00     0.031 C 
ATOM     54  C   UNL A   1      47.735  30.992  28.048  1.00  0.00     0.029 A 
ATOM     55  C   UNL A   1      46.409  30.666  28.285  1.00  0.00     0.049 A 
ATOM     56  H   UNL A   1      45.432  28.814  28.022  1.00  0.00     0.167 HD
ATOM     57  C   UNL A   1      44.064  31.125  28.952  1.00  0.00     0.074 A 
ATOM     58  C   UNL A   1      43.004  31.990  29.428  1.00  0.00     0.031 C 
ATOM     59  C   UNL A   1      45.351  31.516  28.778  1.00  0.00     0.034 A 
BRANCH  46  60
ATOM     60  C   UNL A   1      49.097  27.044  26.693  1.00  0.00     0.023 A 
ATOM     61  C   UNL A   1      50.130  26.886  27.633  1.00  0.00     0.031 A 
ATOM     62  C   UNL A   1      49.392  26.814  25.339  1.00  0.00     0.131 A 
ATOM     63  C   UNL A   1      51.423  26.560  27.199  1.00  0.00     0.055 A 
ATOM     64  C   UNL A   1      50.664  26.421  24.921  1.00  0.00     0.041 A 
ATOM     65  F   UNL A   1      48.448  26.972  24.397  1.00  0.00    -0.206 F 
ATOM     66  C   UNL A   1      51.691  26.303  25.853  1.00  0.00     0.022 A 
BRANCH  63  67
ATOM     67  S   UNL A   1      52.776  26.582  28.407  1.00  0.00     0.124 S 
ATOM     68  O   UNL A   1      53.808  25.823  27.707  1.00  0.00    -0.237 OA
ATOM     69  O   UNL A   1      53.030  28.009  28.570  1.00  0.00    -0.237 OA
ATOM     70  O   UNL A   1      52.203  25.914  29.575  1.00  0.00    -0.744 OA
ENDBRANCH  63  67
ENDBRANCH  46  60
BRANCH  47  71
ATOM     71  C   UNL A   1      39.715  29.321  29.297  1.00  0.00     0.023 A 
ATOM     72  C   UNL A   1      39.308  29.363  30.639  1.00  0.00     0.031 A 
ATOM     73  C   UNL A   1      38.769  29.641  28.307  1.00  0.00     0.131 A 
ATOM     74  C   UNL A   1      37.987  29.718  30.957  1.00  0.00     0.055 A 
ATOM     75  C   UNL A   1      37.467  30.025  28.629  1.00  0.00     0.041 A 
ATOM     76  F   UNL A   1      39.113  29.617  27.010  1.00  0.00    -0.206 F 
ATOM     77  C   UNL A   1      37.069  30.063  29.962  1.00  0.00     0.022 A 
BRANCH  74  78
ATOM     78  S   UNL A   1      37.479  29.725  32.698  1.00  0.00     0.124 S 
ATOM     79  O   UNL A   1      38.572  30.459  33.324  1.00  0.00    -0.237 OA
ATOM     80  O   UNL A   1      36.193  30.413  32.639  1.00  0.00    -0.237 OA
ATOM     81  O   UNL A   1      37.405  28.304  33.036  1.00  0.00    -0.744 OA
ENDBRANCH  74  78
ENDBRANCH  47  71
BRANCH  59  82
ATOM     82  C   UNL A   1      45.703  32.951  29.078  1.00  0.00     0.023 A 
ATOM     83  C   UNL A   1      46.214  33.338  30.327  1.00  0.00     0.031 A 
ATOM     84  C   UNL A   1      45.608  33.925  28.067  1.00  0.00     0.131 A 
ATOM     85  C   UNL A   1      46.603  34.671  30.538  1.00  0.00     0.055 A 
ATOM     86  C   UNL A   1      46.036  35.237  28.268  1.00  0.00     0.041 A 
ATOM     87  F   UNL A   1      45.131  33.602  26.853  1.00  0.00    -0.206 F 
ATOM     88  C   UNL A   1      46.536  35.617  29.510  1.00  0.00     0.022 A 
BRANCH  85  89
ATOM     89  S   UNL A   1      47.187  35.164  32.182  1.00  0.00     0.124 S 
ATOM     90  O   UNL A   1      48.478  34.488  32.259  1.00  0.00    -0.237 OA
ATOM     91  O   UNL A   1      47.235  36.619  32.077  1.00  0.00    -0.237 OA
ATOM     92  O   UNL A   1      46.159  34.644  33.083  1.00  0.00    -0.744 OA
ENDBRANCH  85  89
ENDBRANCH  59  82
ENDBRANCH  33  34
ENDBRANCH  26  28
ENDBRANCH  25  26
ENDBRANCH  24  25
ENDBRANCH  23  24
ENDBRANCH  22  23
ENDBRANCH   1  22
TORSDOF 22
ENDMDL
