MODEL 1
REMARK VINA RESULT:      -6.6      0.000      0.000
REMARK SMILES CCc1nc(=O)n([C@H]2CCCOC2)c(CC)c1CC(=O)OCCOCCOCCOC(=O)c1ccc(-c2c3nc(c(-c4cc(S(=O)(=O)[O-])ccc4F)c4ccc([nH]4)c(-c4cc(S(=O)(=O)[O-])ccc4F)c4nc(c(-c5cc(S(=O)(=O)[O-])ccc5F)c5ccc2[nH]5)C=C4)C=C3)cc1
REMARK SMILES IDX 26 1 25 2 24 3 23 4 22 5 21 6 19 7 20 8 18 9 17 10 3 11 4 12
REMARK SMILES IDX 5 13 14 14 6 15 7 16 2 17 1 18 15 19 16 20 8 21 9 22 13 23
REMARK SMILES IDX 10 24 12 25 11 26 27 27 28 28 29 29 30 30 31 31 32 32 33 33
REMARK SMILES IDX 34 34 95 35 35 36 94 37 36 38 37 39 38 40 88 41 39 42 93 43
REMARK SMILES IDX 87 44 89 45 40 46 92 47 86 48 85 49 41 51 73 52 53 53 72 54
REMARK SMILES IDX 54 55 57 56 71 57 90 58 55 59 56 60 70 62 91 63 58 64 42 65
REMARK SMILES IDX 43 66 51 67 44 68 50 69 52 70 49 71 45 72 46 73 47 74 48 75
REMARK SMILES IDX 74 76 75 77 83 78 76 79 82 80 84 81 81 82 77 83 78 84 79 85
REMARK SMILES IDX 80 86 59 87 60 88 68 89 61 90 67 91 69 92 66 93 62 94 63 95
REMARK SMILES IDX 64 96 65 97
REMARK H PARENT 89 50 57 61
REMARK Flexibility Score: inf
ROOT
ATOM      1  C   UNL A   1      43.881  26.428  25.757  1.00  0.00     0.188 C 
ENDROOT
BRANCH   1   2
ATOM      2  C   UNL A   1      43.713  27.912  26.035  1.00  0.00     0.188 C 
BRANCH   2   3
ATOM      3  O   UNL A   1      42.538  28.333  26.697  1.00  0.00    -0.376 OA
BRANCH   3   4
ATOM      4  C   UNL A   1      42.691  29.316  27.703  1.00  0.00     0.202 C 
BRANCH   4   5
ATOM      5  C   UNL A   1      42.294  28.890  29.132  1.00  0.00     0.261 C 
BRANCH   5   6
ATOM      6  O   UNL A   1      41.844  29.926  30.071  1.00  0.00    -0.463 OA
BRANCH   6   7
ATOM      7  C   UNL A   1      41.714  29.522  31.361  1.00  0.00     0.310 C 
ATOM      8  O   UNL A   1      42.683  29.193  32.045  1.00  0.00    -0.252 OA
BRANCH   7   9
ATOM      9  C   UNL A   1      40.287  29.345  31.955  1.00  0.00     0.162 C 
BRANCH   9  10
ATOM     10  C   UNL A   1      39.177  30.281  32.481  1.00  0.00     0.005 A 
ATOM     11  C   UNL A   1      39.221  30.749  33.898  1.00  0.00     0.051 A 
ATOM     12  N   UNL A   1      38.351  31.528  34.437  1.00  0.00    -0.198 NA
ATOM     13  C   UNL A   1      37.300  32.020  33.712  1.00  0.00     0.348 A 
ATOM     14  C   UNL A   1      38.256  30.978  31.751  1.00  0.00     0.028 A 
ATOM     15  O   UNL A   1      36.338  32.508  34.290  1.00  0.00    -0.246 OA
ATOM     16  N   UNL A   1      37.361  31.942  32.296  1.00  0.00    -0.291 N 
BRANCH  11  17
ATOM     17  C   UNL A   1      40.362  30.315  34.813  1.00  0.00     0.053 C 
ATOM     18  C   UNL A   1      40.491  31.215  36.035  1.00  0.00     0.011 C 
ENDBRANCH  11  17
BRANCH  14  19
ATOM     19  C   UNL A   1      37.990  30.544  30.364  1.00  0.00     0.051 C 
ATOM     20  C   UNL A   1      37.122  29.307  30.556  1.00  0.00     0.010 C 
ENDBRANCH  14  19
BRANCH  16  21
ATOM     21  C   UNL A   1      36.232  32.739  31.576  1.00  0.00     0.118 C 
ATOM     22  C   UNL A   1      36.764  33.994  30.842  1.00  0.00     0.030 C 
ATOM     23  C   UNL A   1      35.086  32.161  30.638  1.00  0.00     0.185 C 
ATOM     24  C   UNL A   1      37.136  33.696  29.392  1.00  0.00     0.031 C 
ATOM     25  O   UNL A   1      34.863  32.919  29.444  1.00  0.00    -0.379 OA
ATOM     26  C   UNL A   1      36.038  32.948  28.646  1.00  0.00     0.160 C 
ENDBRANCH  16  21
ENDBRANCH   9  10
ENDBRANCH   7   9
ENDBRANCH   6   7
ENDBRANCH   5   6
ENDBRANCH   4   5
ENDBRANCH   3   4
ENDBRANCH   2   3
ENDBRANCH   1   2
BRANCH   1  27
ATOM     27  O   UNL A   1      45.090  26.082  25.092  1.00  0.00    -0.376 OA
BRANCH  27  28
ATOM     28  C   UNL A   1      45.147  24.675  24.868  1.00  0.00     0.202 C 
BRANCH  28  29
ATOM     29  C   UNL A   1      46.526  24.088  25.228  1.00  0.00     0.261 C 
BRANCH  29  30
ATOM     30  O   UNL A   1      46.481  23.101  26.295  1.00  0.00    -0.460 OA
BRANCH  30  31
ATOM     31  C   UNL A   1      45.373  23.121  27.072  1.00  0.00     0.338 C 
ATOM     32  O   UNL A   1      44.398  22.399  26.922  1.00  0.00    -0.246 OA
BRANCH  31  33
ATOM     33  C   UNL A   1      45.461  24.080  28.212  1.00  0.00     0.060 A 
ATOM     34  C   UNL A   1      46.682  24.702  28.437  1.00  0.00     0.016 A 
ATOM     35  C   UNL A   1      44.338  24.561  28.894  1.00  0.00     0.016 A 
ATOM     36  C   UNL A   1      46.768  25.775  29.332  1.00  0.00     0.010 A 
ATOM     37  C   UNL A   1      44.397  25.747  29.639  1.00  0.00     0.010 A 
ATOM     38  C   UNL A   1      45.619  26.355  29.915  1.00  0.00    -0.014 A 
BRANCH  38  39
ATOM     39  C   UNL A   1      45.752  27.577  30.775  1.00  0.00     0.031 A 
ATOM     40  C   UNL A   1      45.834  28.974  30.201  1.00  0.00     0.074 A 
ATOM     41  C   UNL A   1      45.740  27.433  32.119  1.00  0.00     0.049 A 
ATOM     42  N   UNL A   1      45.593  30.117  30.797  1.00  0.00    -0.248 NA
ATOM     43  C   UNL A   1      46.276  29.131  28.807  1.00  0.00     0.031 C 
ATOM     44  C   UNL A   1      45.857  26.154  32.822  1.00  0.00     0.029 A 
ATOM     45  N   UNL A   1      45.565  28.349  33.132  1.00  0.00    -0.354 N 
ATOM     46  C   UNL A   1      45.824  31.108  29.847  1.00  0.00     0.074 A 
ATOM     47  C   UNL A   1      46.328  30.448  28.670  1.00  0.00     0.031 C 
ATOM     48  C   UNL A   1      45.625  26.345  34.127  1.00  0.00     0.029 A 
ATOM     49  C   UNL A   1      45.373  27.765  34.367  1.00  0.00     0.049 A 
ATOM     50  H   UNL A   1      45.575  29.323  32.988  1.00  0.00     0.167 HD
ATOM     51  C   UNL A   1      45.589  32.440  29.928  1.00  0.00     0.034 A 
ATOM     52  C   UNL A   1      44.984  28.293  35.547  1.00  0.00     0.034 A 
ATOM     53  C   UNL A   1      45.077  33.080  31.112  1.00  0.00     0.049 A 
ATOM     54  C   UNL A   1      44.632  29.758  35.605  1.00  0.00     0.074 A 
ATOM     55  C   UNL A   1      44.699  34.400  31.276  1.00  0.00     0.029 A 
ATOM     56  N   UNL A   1      44.880  32.454  32.334  1.00  0.00    -0.354 N 
ATOM     57  N   UNL A   1      44.650  30.648  34.640  1.00  0.00    -0.248 NA
ATOM     58  C   UNL A   1      44.186  30.291  36.900  1.00  0.00     0.031 C 
ATOM     59  C   UNL A   1      44.354  34.590  32.613  1.00  0.00     0.029 A 
ATOM     60  C   UNL A   1      44.428  33.371  33.268  1.00  0.00     0.049 A 
ATOM     61  H   UNL A   1      45.040  31.499  32.512  1.00  0.00     0.167 HD
ATOM     62  C   UNL A   1      44.217  31.842  35.209  1.00  0.00     0.074 A 
ATOM     63  C   UNL A   1      43.893  31.548  36.590  1.00  0.00     0.031 C 
ATOM     64  C   UNL A   1      44.115  33.074  34.646  1.00  0.00     0.034 A 
BRANCH  51  65
ATOM     65  C   UNL A   1      45.806  33.306  28.703  1.00  0.00     0.023 A 
ATOM     66  C   UNL A   1      44.855  33.325  27.665  1.00  0.00     0.031 A 
ATOM     67  C   UNL A   1      47.028  33.974  28.489  1.00  0.00     0.131 A 
ATOM     68  C   UNL A   1      45.160  33.951  26.448  1.00  0.00     0.055 A 
ATOM     69  C   UNL A   1      47.304  34.642  27.295  1.00  0.00     0.041 A 
ATOM     70  F   UNL A   1      47.978  33.981  29.438  1.00  0.00    -0.206 F 
ATOM     71  C   UNL A   1      46.375  34.617  26.261  1.00  0.00     0.022 A 
BRANCH  68  72
ATOM     72  S   UNL A   1      44.035  33.848  25.028  1.00  0.00     0.124 S 
ATOM     73  O   UNL A   1      42.998  34.810  25.396  1.00  0.00    -0.237 OA
ATOM     74  O   UNL A   1      44.900  34.256  23.925  1.00  0.00    -0.237 OA
ATOM     75  O   UNL A   1      43.610  32.454  25.017  1.00  0.00    -0.744 OA
ENDBRANCH  68  72
ENDBRANCH  51  65
BRANCH  52  76
ATOM     76  C   UNL A   1      44.796  27.384  36.720  1.00  0.00     0.023 A 
ATOM     77  C   UNL A   1      45.884  27.048  37.546  1.00  0.00     0.031 A 
ATOM     78  C   UNL A   1      43.574  26.725  36.943  1.00  0.00     0.131 A 
ATOM     79  C   UNL A   1      45.755  26.017  38.487  1.00  0.00     0.055 A 
ATOM     80  C   UNL A   1      43.426  25.760  37.942  1.00  0.00     0.041 A 
ATOM     81  F   UNL A   1      42.508  26.997  36.175  1.00  0.00    -0.206 F 
ATOM     82  C   UNL A   1      44.528  25.383  38.703  1.00  0.00     0.022 A 
BRANCH  79  83
ATOM     83  S   UNL A   1      47.217  25.349  39.330  1.00  0.00     0.124 S 
ATOM     84  O   UNL A   1      48.187  25.271  38.243  1.00  0.00    -0.237 OA
ATOM     85  O   UNL A   1      47.476  26.377  40.335  1.00  0.00    -0.237 OA
ATOM     86  O   UNL A   1      46.754  24.070  39.856  1.00  0.00    -0.744 OA
ENDBRANCH  79  83
ENDBRANCH  52  76
BRANCH  64  87
ATOM     87  C   UNL A   1      43.670  34.230  35.510  1.00  0.00     0.023 A 
ATOM     88  C   UNL A   1      42.299  34.477  35.715  1.00  0.00     0.031 A 
ATOM     89  C   UNL A   1      44.594  35.173  35.997  1.00  0.00     0.131 A 
ATOM     90  C   UNL A   1      41.890  35.658  36.348  1.00  0.00     0.055 A 
ATOM     91  C   UNL A   1      44.184  36.317  36.681  1.00  0.00     0.041 A 
ATOM     92  F   UNL A   1      45.911  34.995  35.810  1.00  0.00    -0.206 F 
ATOM     93  C   UNL A   1      42.826  36.571  36.845  1.00  0.00     0.022 A 
BRANCH  90  94
ATOM     94  S   UNL A   1      40.135  36.102  36.459  1.00  0.00     0.124 S 
ATOM     95  O   UNL A   1      39.487  34.795  36.374  1.00  0.00    -0.237 OA
ATOM     96  O   UNL A   1      40.064  36.749  37.766  1.00  0.00    -0.237 OA
ATOM     97  O   UNL A   1      39.919  36.978  35.312  1.00  0.00    -0.744 OA
ENDBRANCH  90  94
ENDBRANCH  64  87
ENDBRANCH  38  39
ENDBRANCH  31  33
ENDBRANCH  30  31
ENDBRANCH  29  30
ENDBRANCH  28  29
ENDBRANCH  27  28
ENDBRANCH   1  27
TORSDOF 24
ENDMDL
MODEL 2
REMARK VINA RESULT:      -6.5      5.787     10.059
REMARK SMILES CCc1nc(=O)n([C@H]2CCCOC2)c(CC)c1CC(=O)OCCOCCOCCOC(=O)c1ccc(-c2c3nc(c(-c4cc(S(=O)(=O)[O-])ccc4F)c4ccc([nH]4)c(-c4cc(S(=O)(=O)[O-])ccc4F)c4nc(c(-c5cc(S(=O)(=O)[O-])ccc5F)c5ccc2[nH]5)C=C4)C=C3)cc1
REMARK SMILES IDX 26 1 25 2 24 3 23 4 22 5 21 6 19 7 20 8 18 9 17 10 3 11 4 12
REMARK SMILES IDX 5 13 14 14 6 15 7 16 2 17 1 18 15 19 16 20 8 21 9 22 13 23
REMARK SMILES IDX 10 24 12 25 11 26 27 27 28 28 29 29 30 30 31 31 32 32 33 33
REMARK SMILES IDX 34 34 95 35 35 36 94 37 36 38 37 39 38 40 88 41 39 42 93 43
REMARK SMILES IDX 87 44 89 45 40 46 92 47 86 48 85 49 41 51 73 52 53 53 72 54
REMARK SMILES IDX 54 55 57 56 71 57 90 58 55 59 56 60 70 62 91 63 58 64 42 65
REMARK SMILES IDX 43 66 51 67 44 68 50 69 52 70 49 71 45 72 46 73 47 74 48 75
REMARK SMILES IDX 74 76 75 77 83 78 76 79 82 80 84 81 81 82 77 83 78 84 79 85
REMARK SMILES IDX 80 86 59 87 60 88 68 89 61 90 67 91 69 92 66 93 62 94 63 95
REMARK SMILES IDX 64 96 65 97
REMARK H PARENT 89 50 57 61
REMARK Flexibility Score: inf
ROOT
ATOM      1  C   UNL A   1      51.649  36.431  33.867  1.00  0.00     0.188 C 
ENDROOT
BRANCH   1   2
ATOM      2  C   UNL A   1      51.769  37.214  32.571  1.00  0.00     0.188 C 
BRANCH   2   3
ATOM      3  O   UNL A   1      51.051  36.747  31.447  1.00  0.00    -0.376 OA
BRANCH   3   4
ATOM      4  C   UNL A   1      49.734  37.237  31.284  1.00  0.00     0.202 C 
BRANCH   4   5
ATOM      5  C   UNL A   1      49.425  37.909  29.930  1.00  0.00     0.261 C 
BRANCH   5   6
ATOM      6  O   UNL A   1      48.020  38.141  29.568  1.00  0.00    -0.463 OA
BRANCH   6   7
ATOM      7  C   UNL A   1      47.737  39.385  29.105  1.00  0.00     0.310 C 
ATOM      8  O   UNL A   1      48.601  40.255  28.997  1.00  0.00    -0.252 OA
BRANCH   7   9
ATOM      9  C   UNL A   1      46.256  39.766  28.822  1.00  0.00     0.162 C 
BRANCH   9  10
ATOM     10  C   UNL A   1      45.025  40.150  29.672  1.00  0.00     0.005 A 
ATOM     11  C   UNL A   1      43.687  40.256  29.018  1.00  0.00     0.051 A 
ATOM     12  N   UNL A   1      42.598  40.566  29.629  1.00  0.00    -0.198 NA
ATOM     13  C   UNL A   1      42.589  40.804  30.978  1.00  0.00     0.348 A 
ATOM     14  C   UNL A   1      44.920  40.164  31.034  1.00  0.00     0.028 A 
ATOM     15  O   UNL A   1      41.635  41.373  31.488  1.00  0.00    -0.246 OA
ATOM     16  N   UNL A   1      43.705  40.380  31.744  1.00  0.00    -0.291 N 
BRANCH  11  17
ATOM     17  C   UNL A   1      43.538  39.976  27.526  1.00  0.00     0.053 C 
ATOM     18  C   UNL A   1      42.094  40.106  27.060  1.00  0.00     0.011 C 
ENDBRANCH  11  17
BRANCH  14  19
ATOM     19  C   UNL A   1      46.164  40.206  31.830  1.00  0.00     0.051 C 
ATOM     20  C   UNL A   1      46.585  41.667  31.724  1.00  0.00     0.010 C 
ENDBRANCH  14  19
BRANCH  16  21
ATOM     21  C   UNL A   1      43.483  40.486  33.284  1.00  0.00     0.118 C 
ATOM     22  C   UNL A   1      43.317  39.103  33.958  1.00  0.00     0.030 C 
ATOM     23  C   UNL A   1      44.309  41.361  34.322  1.00  0.00     0.185 C 
ATOM     24  C   UNL A   1      44.650  38.536  34.441  1.00  0.00     0.031 C 
ATOM     25  O   UNL A   1      44.646  40.676  35.533  1.00  0.00    -0.379 OA
ATOM     26  C   UNL A   1      45.455  39.541  35.255  1.00  0.00     0.160 C 
ENDBRANCH  16  21
ENDBRANCH   9  10
ENDBRANCH   7   9
ENDBRANCH   6   7
ENDBRANCH   5   6
ENDBRANCH   4   5
ENDBRANCH   3   4
ENDBRANCH   2   3
ENDBRANCH   1   2
BRANCH   1  27
ATOM     27  O   UNL A   1      52.810  35.691  34.223  1.00  0.00    -0.376 OA
BRANCH  27  28
ATOM     28  C   UNL A   1      52.566  34.293  34.095  1.00  0.00     0.202 C 
BRANCH  28  29
ATOM     29  C   UNL A   1      51.064  33.958  34.180  1.00  0.00     0.261 C 
BRANCH  29  30
ATOM     30  O   UNL A   1      50.680  33.305  35.422  1.00  0.00    -0.460 OA
BRANCH  30  31
ATOM     31  C   UNL A   1      50.150  34.109  36.374  1.00  0.00     0.338 C 
ATOM     32  O   UNL A   1      50.791  34.684  37.241  1.00  0.00    -0.246 OA
BRANCH  31  33
ATOM     33  C   UNL A   1      48.677  34.303  36.238  1.00  0.00     0.060 A 
ATOM     34  C   UNL A   1      48.214  35.597  36.041  1.00  0.00     0.016 A 
ATOM     35  C   UNL A   1      47.781  33.245  36.054  1.00  0.00     0.016 A 
ATOM     36  C   UNL A   1      46.880  35.816  35.676  1.00  0.00     0.010 A 
ATOM     37  C   UNL A   1      46.508  33.461  35.509  1.00  0.00     0.010 A 
ATOM     38  C   UNL A   1      46.010  34.752  35.351  1.00  0.00    -0.014 A 
BRANCH  38  39
ATOM     39  C   UNL A   1      44.625  35.042  34.852  1.00  0.00     0.031 A 
ATOM     40  C   UNL A   1      44.282  35.088  33.380  1.00  0.00     0.074 A 
ATOM     41  C   UNL A   1      43.630  35.213  35.751  1.00  0.00     0.049 A 
ATOM     42  N   UNL A   1      43.106  34.969  32.812  1.00  0.00    -0.248 NA
ATOM     43  C   UNL A   1      45.366  35.337  32.418  1.00  0.00     0.031 C 
ATOM     44  C   UNL A   1      43.828  35.386  37.191  1.00  0.00     0.029 A 
ATOM     45  N   UNL A   1      42.261  35.210  35.606  1.00  0.00    -0.354 N 
ATOM     46  C   UNL A   1      43.320  35.098  31.442  1.00  0.00     0.074 A 
ATOM     47  C   UNL A   1      44.715  35.411  31.266  1.00  0.00     0.031 C 
ATOM     48  C   UNL A   1      42.640  35.343  37.808  1.00  0.00     0.029 A 
ATOM     49  C   UNL A   1      41.586  35.172  36.809  1.00  0.00     0.049 A 
ATOM     50  H   UNL A   1      41.810  35.231  34.731  1.00  0.00     0.167 HD
ATOM     51  C   UNL A   1      42.448  34.919  30.421  1.00  0.00     0.034 A 
ATOM     52  C   UNL A   1      40.280  34.968  37.088  1.00  0.00     0.034 A 
ATOM     53  C   UNL A   1      41.058  34.597  30.618  1.00  0.00     0.049 A 
ATOM     54  C   UNL A   1      39.334  34.676  35.952  1.00  0.00     0.074 A 
ATOM     55  C   UNL A   1      40.107  34.288  29.663  1.00  0.00     0.029 A 
ATOM     56  N   UNL A   1      40.417  34.553  31.848  1.00  0.00    -0.354 N 
ATOM     57  N   UNL A   1      39.591  34.587  34.667  1.00  0.00    -0.248 NA
ATOM     58  C   UNL A   1      37.926  34.431  36.297  1.00  0.00     0.031 C 
ATOM     59  C   UNL A   1      38.878  34.139  30.305  1.00  0.00     0.029 A 
ATOM     60  C   UNL A   1      39.074  34.264  31.671  1.00  0.00     0.049 A 
ATOM     61  H   UNL A   1      40.852  34.704  32.718  1.00  0.00     0.167 HD
ATOM     62  C   UNL A   1      38.381  34.277  34.052  1.00  0.00     0.074 A 
ATOM     63  C   UNL A   1      37.404  34.138  35.112  1.00  0.00     0.031 C 
ATOM     64  C   UNL A   1      38.102  34.136  32.731  1.00  0.00     0.034 A 
BRANCH  51  65
ATOM     65  C   UNL A   1      42.953  34.991  28.994  1.00  0.00     0.023 A 
ATOM     66  C   UNL A   1      43.659  33.910  28.432  1.00  0.00     0.031 A 
ATOM     67  C   UNL A   1      42.886  36.189  28.256  1.00  0.00     0.131 A 
ATOM     68  C   UNL A   1      44.309  34.065  27.199  1.00  0.00     0.055 A 
ATOM     69  C   UNL A   1      43.489  36.320  27.004  1.00  0.00     0.041 A 
ATOM     70  F   UNL A   1      42.236  37.258  28.746  1.00  0.00    -0.206 F 
ATOM     71  C   UNL A   1      44.220  35.260  26.478  1.00  0.00     0.022 A 
BRANCH  68  72
ATOM     72  S   UNL A   1      45.372  32.758  26.524  1.00  0.00     0.124 S 
ATOM     73  O   UNL A   1      44.397  31.882  25.879  1.00  0.00    -0.237 OA
ATOM     74  O   UNL A   1      46.234  33.507  25.614  1.00  0.00    -0.237 OA
ATOM     75  O   UNL A   1      46.027  32.197  27.699  1.00  0.00    -0.744 OA
ENDBRANCH  68  72
ENDBRANCH  51  65
BRANCH  52  76
ATOM     76  C   UNL A   1      39.846  34.917  38.518  1.00  0.00     0.023 A 
ATOM     77  C   UNL A   1      39.638  33.682  39.158  1.00  0.00     0.031 A 
ATOM     78  C   UNL A   1      39.492  36.086  39.215  1.00  0.00     0.131 A 
ATOM     79  C   UNL A   1      39.006  33.641  40.408  1.00  0.00     0.055 A 
ATOM     80  C   UNL A   1      38.943  36.044  40.498  1.00  0.00     0.041 A 
ATOM     81  F   UNL A   1      39.657  37.290  38.645  1.00  0.00    -0.206 F 
ATOM     82  C   UNL A   1      38.673  34.815  41.091  1.00  0.00     0.022 A 
BRANCH  79  83
ATOM     83  S   UNL A   1      38.435  32.064  41.103  1.00  0.00     0.124 S 
ATOM     84  O   UNL A   1      37.836  31.418  39.940  1.00  0.00    -0.237 OA
ATOM     85  O   UNL A   1      39.687  31.479  41.576  1.00  0.00    -0.237 OA
ATOM     86  O   UNL A   1      37.504  32.468  42.151  1.00  0.00    -0.744 OA
ENDBRANCH  79  83
ENDBRANCH  52  76
BRANCH  64  87
ATOM     87  C   UNL A   1      36.676  33.853  32.319  1.00  0.00     0.023 A 
ATOM     88  C   UNL A   1      35.740  34.901  32.233  1.00  0.00     0.031 A 
ATOM     89  C   UNL A   1      36.211  32.534  32.166  1.00  0.00     0.131 A 
ATOM     90  C   UNL A   1      34.382  34.610  32.046  1.00  0.00     0.055 A 
ATOM     91  C   UNL A   1      34.868  32.253  31.918  1.00  0.00     0.041 A 
ATOM     92  F   UNL A   1      37.059  31.497  32.259  1.00  0.00    -0.206 F 
ATOM     93  C   UNL A   1      33.944  33.293  31.874  1.00  0.00     0.022 A 
BRANCH  90  94
ATOM     94  S   UNL A   1      33.125  35.916  32.122  1.00  0.00     0.124 S 
ATOM     95  O   UNL A   1      31.930  35.162  32.497  1.00  0.00    -0.237 OA
ATOM     96  O   UNL A   1      33.658  36.794  33.160  1.00  0.00    -0.237 OA
ATOM     97  O   UNL A   1      33.112  36.472  30.774  1.00  0.00    -0.744 OA
ENDBRANCH  90  94
ENDBRANCH  64  87
ENDBRANCH  38  39
ENDBRANCH  31  33
ENDBRANCH  30  31
ENDBRANCH  29  30
ENDBRANCH  28  29
ENDBRANCH  27  28
ENDBRANCH   1  27
TORSDOF 24
ENDMDL
MODEL 3
REMARK VINA RESULT:      -6.5      8.064     14.147
REMARK SMILES CCc1nc(=O)n([C@H]2CCCOC2)c(CC)c1CC(=O)OCCOCCOCCOC(=O)c1ccc(-c2c3nc(c(-c4cc(S(=O)(=O)[O-])ccc4F)c4ccc([nH]4)c(-c4cc(S(=O)(=O)[O-])ccc4F)c4nc(c(-c5cc(S(=O)(=O)[O-])ccc5F)c5ccc2[nH]5)C=C4)C=C3)cc1
REMARK SMILES IDX 26 1 25 2 24 3 23 4 22 5 21 6 19 7 20 8 18 9 17 10 3 11 4 12
REMARK SMILES IDX 5 13 14 14 6 15 7 16 2 17 1 18 15 19 16 20 8 21 9 22 13 23
REMARK SMILES IDX 10 24 12 25 11 26 27 27 28 28 29 29 30 30 31 31 32 32 33 33
REMARK SMILES IDX 34 34 95 35 35 36 94 37 36 38 37 39 38 40 88 41 39 42 93 43
REMARK SMILES IDX 87 44 89 45 40 46 92 47 86 48 85 49 41 51 73 52 53 53 72 54
REMARK SMILES IDX 54 55 57 56 71 57 90 58 55 59 56 60 70 62 91 63 58 64 42 65
REMARK SMILES IDX 43 66 51 67 44 68 50 69 52 70 49 71 45 72 46 73 47 74 48 75
REMARK SMILES IDX 74 76 75 77 83 78 76 79 82 80 84 81 81 82 77 83 78 84 79 85
REMARK SMILES IDX 80 86 59 87 60 88 68 89 61 90 67 91 69 92 66 93 62 94 63 95
REMARK SMILES IDX 64 96 65 97
REMARK H PARENT 89 50 57 61
REMARK Flexibility Score: inf
ROOT
ATOM      1  C   UNL A   1      47.394  42.841  27.497  1.00  0.00     0.188 C 
ENDROOT
BRANCH   1   2
ATOM      2  C   UNL A   1      46.894  44.261  27.299  1.00  0.00     0.188 C 
BRANCH   2   3
ATOM      3  O   UNL A   1      47.347  44.971  26.164  1.00  0.00    -0.376 OA
BRANCH   3   4
ATOM      4  C   UNL A   1      47.982  44.214  25.152  1.00  0.00     0.202 C 
BRANCH   4   5
ATOM      5  C   UNL A   1      47.120  43.877  23.917  1.00  0.00     0.261 C 
BRANCH   5   6
ATOM      6  O   UNL A   1      47.427  44.546  22.645  1.00  0.00    -0.463 OA
BRANCH   6   7
ATOM      7  C   UNL A   1      46.803  44.032  21.555  1.00  0.00     0.310 C 
ATOM      8  O   UNL A   1      47.390  43.323  20.738  1.00  0.00    -0.252 OA
BRANCH   7   9
ATOM      9  C   UNL A   1      45.337  44.457  21.255  1.00  0.00     0.162 C 
BRANCH   9  10
ATOM     10  C   UNL A   1      44.493  44.726  19.990  1.00  0.00     0.005 A 
ATOM     11  C   UNL A   1      43.313  43.859  19.697  1.00  0.00     0.051 A 
ATOM     12  N   UNL A   1      42.543  43.994  18.675  1.00  0.00    -0.198 NA
ATOM     13  C   UNL A   1      42.746  44.998  17.767  1.00  0.00     0.348 A 
ATOM     14  C   UNL A   1      44.509  45.837  19.194  1.00  0.00     0.028 A 
ATOM     15  O   UNL A   1      42.208  44.944  16.671  1.00  0.00    -0.246 OA
ATOM     16  N   UNL A   1      43.590  46.079  18.133  1.00  0.00    -0.291 N 
BRANCH  11  17
ATOM     17  C   UNL A   1      42.940  42.725  20.647  1.00  0.00     0.053 C 
ATOM     18  C   UNL A   1      41.563  42.924  21.265  1.00  0.00     0.011 C 
ENDBRANCH  11  17
BRANCH  14  19
ATOM     19  C   UNL A   1      45.684  46.729  19.263  1.00  0.00     0.051 C 
ATOM     20  C   UNL A   1      45.300  47.713  20.361  1.00  0.00     0.010 C 
ENDBRANCH  14  19
BRANCH  16  21
ATOM     21  C   UNL A   1      43.558  47.267  17.125  1.00  0.00     0.118 C 
ATOM     22  C   UNL A   1      42.486  48.324  17.484  1.00  0.00     0.030 C 
ATOM     23  C   UNL A   1      44.794  48.098  16.569  1.00  0.00     0.185 C 
ATOM     24  C   UNL A   1      43.045  49.426  18.381  1.00  0.00     0.031 C 
ATOM     25  O   UNL A   1      44.589  49.514  16.543  1.00  0.00    -0.379 OA
ATOM     26  C   UNL A   1      44.350  50.007  17.854  1.00  0.00     0.160 C 
ENDBRANCH  16  21
ENDBRANCH   9  10
ENDBRANCH   7   9
ENDBRANCH   6   7
ENDBRANCH   5   6
ENDBRANCH   4   5
ENDBRANCH   3   4
ENDBRANCH   2   3
ENDBRANCH   1   2
BRANCH   1  27
ATOM     27  O   UNL A   1      46.507  41.995  28.219  1.00  0.00    -0.376 OA
BRANCH  27  28
ATOM     28  C   UNL A   1      46.046  40.934  27.386  1.00  0.00     0.202 C 
BRANCH  28  29
ATOM     29  C   UNL A   1      45.850  39.624  28.175  1.00  0.00     0.261 C 
BRANCH  29  30
ATOM     30  O   UNL A   1      44.561  38.991  27.945  1.00  0.00    -0.460 OA
BRANCH  30  31
ATOM     31  C   UNL A   1      44.598  37.684  27.593  1.00  0.00     0.338 C 
ATOM     32  O   UNL A   1      44.941  37.262  26.498  1.00  0.00    -0.246 OA
BRANCH  31  33
ATOM     33  C   UNL A   1      44.241  36.756  28.706  1.00  0.00     0.060 A 
ATOM     34  C   UNL A   1      43.946  37.316  29.941  1.00  0.00     0.016 A 
ATOM     35  C   UNL A   1      43.952  35.402  28.508  1.00  0.00     0.016 A 
ATOM     36  C   UNL A   1      43.382  36.528  30.952  1.00  0.00     0.010 A 
ATOM     37  C   UNL A   1      43.219  34.672  29.454  1.00  0.00     0.010 A 
ATOM     38  C   UNL A   1      42.958  35.202  30.716  1.00  0.00    -0.014 A 
BRANCH  38  39
ATOM     39  C   UNL A   1      42.253  34.438  31.797  1.00  0.00     0.031 A 
ATOM     40  C   UNL A   1      42.970  33.895  33.013  1.00  0.00     0.074 A 
ATOM     41  C   UNL A   1      40.914  34.276  31.714  1.00  0.00     0.049 A 
ATOM     42  N   UNL A   1      42.463  33.544  34.171  1.00  0.00    -0.248 NA
ATOM     43  C   UNL A   1      44.422  33.675  32.927  1.00  0.00     0.031 C 
ATOM     44  C   UNL A   1      40.111  34.570  30.526  1.00  0.00     0.029 A 
ATOM     45  N   UNL A   1      39.983  33.886  32.651  1.00  0.00    -0.354 N 
ATOM     46  C   UNL A   1      43.531  33.097  34.944  1.00  0.00     0.074 A 
ATOM     47  C   UNL A   1      44.696  33.116  34.097  1.00  0.00     0.031 C 
ATOM     48  C   UNL A   1      38.811  34.476  30.837  1.00  0.00     0.029 A 
ATOM     49  C   UNL A   1      38.681  34.083  32.239  1.00  0.00     0.049 A 
ATOM     50  H   UNL A   1      40.224  33.505  33.526  1.00  0.00     0.167 HD
ATOM     51  C   UNL A   1      43.551  32.752  36.254  1.00  0.00     0.034 A 
ATOM     52  C   UNL A   1      37.516  34.014  32.919  1.00  0.00     0.034 A 
ATOM     53  C   UNL A   1      42.376  32.747  37.087  1.00  0.00     0.049 A 
ATOM     54  C   UNL A   1      37.555  33.723  34.398  1.00  0.00     0.074 A 
ATOM     55  C   UNL A   1      42.292  32.521  38.448  1.00  0.00     0.029 A 
ATOM     56  N   UNL A   1      41.081  32.968  36.638  1.00  0.00    -0.354 N 
ATOM     57  N   UNL A   1      38.597  33.512  35.168  1.00  0.00    -0.248 NA
ATOM     58  C   UNL A   1      36.270  33.684  35.108  1.00  0.00     0.031 C 
ATOM     59  C   UNL A   1      40.945  32.522  38.807  1.00  0.00     0.029 A 
ATOM     60  C   UNL A   1      40.189  32.839  37.690  1.00  0.00     0.049 A 
ATOM     61  H   UNL A   1      40.833  33.183  35.710  1.00  0.00     0.167 HD
ATOM     62  C   UNL A   1      38.094  33.316  36.451  1.00  0.00     0.074 A 
ATOM     63  C   UNL A   1      36.659  33.489  36.362  1.00  0.00     0.031 C 
ATOM     64  C   UNL A   1      38.758  33.004  37.594  1.00  0.00     0.034 A 
BRANCH  51  65
ATOM     65  C   UNL A   1      44.875  32.416  36.911  1.00  0.00     0.023 A 
ATOM     66  C   UNL A   1      45.736  33.442  37.346  1.00  0.00     0.031 A 
ATOM     67  C   UNL A   1      45.356  31.092  36.949  1.00  0.00     0.131 A 
ATOM     68  C   UNL A   1      47.043  33.133  37.750  1.00  0.00     0.055 A 
ATOM     69  C   UNL A   1      46.639  30.785  37.404  1.00  0.00     0.041 A 
ATOM     70  F   UNL A   1      44.584  30.073  36.537  1.00  0.00    -0.206 F 
ATOM     71  C   UNL A   1      47.496  31.811  37.790  1.00  0.00     0.022 A 
BRANCH  68  72
ATOM     72  S   UNL A   1      48.238  34.439  38.150  1.00  0.00     0.124 S 
ATOM     73  O   UNL A   1      49.303  34.178  37.184  1.00  0.00    -0.237 OA
ATOM     74  O   UNL A   1      47.459  35.649  37.907  1.00  0.00    -0.237 OA
ATOM     75  O   UNL A   1      48.588  34.180  39.542  1.00  0.00    -0.744 OA
ENDBRANCH  68  72
ENDBRANCH  51  65
BRANCH  52  76
ATOM     76  C   UNL A   1      36.244  34.350  32.208  1.00  0.00     0.023 A 
ATOM     77  C   UNL A   1      35.536  35.524  32.524  1.00  0.00     0.031 A 
ATOM     78  C   UNL A   1      35.643  33.441  31.319  1.00  0.00     0.131 A 
ATOM     79  C   UNL A   1      34.237  35.710  32.033  1.00  0.00     0.055 A 
ATOM     80  C   UNL A   1      34.383  33.673  30.763  1.00  0.00     0.041 A 
ATOM     81  F   UNL A   1      36.269  32.298  30.994  1.00  0.00    -0.206 F 
ATOM     82  C   UNL A   1      33.662  34.801  31.140  1.00  0.00     0.022 A 
BRANCH  79  83
ATOM     83  S   UNL A   1      33.188  37.043  32.680  1.00  0.00     0.124 S 
ATOM     84  O   UNL A   1      33.668  37.171  34.052  1.00  0.00    -0.237 OA
ATOM     85  O   UNL A   1      33.529  38.148  31.787  1.00  0.00    -0.237 OA
ATOM     86  O   UNL A   1      31.835  36.518  32.530  1.00  0.00    -0.744 OA
ENDBRANCH  79  83
ENDBRANCH  52  76
BRANCH  64  87
ATOM     87  C   UNL A   1      37.959  32.784  38.857  1.00  0.00     0.023 A 
ATOM     88  C   UNL A   1      38.113  33.651  39.956  1.00  0.00     0.031 A 
ATOM     89  C   UNL A   1      37.169  31.632  39.027  1.00  0.00     0.131 A 
ATOM     90  C   UNL A   1      37.525  33.331  41.186  1.00  0.00     0.055 A 
ATOM     91  C   UNL A   1      36.534  31.350  40.237  1.00  0.00     0.041 A 
ATOM     92  F   UNL A   1      37.005  30.762  38.019  1.00  0.00    -0.206 F 
ATOM     93  C   UNL A   1      36.724  32.193  41.328  1.00  0.00     0.022 A 
BRANCH  90  94
ATOM     94  S   UNL A   1      37.858  34.320  42.670  1.00  0.00     0.124 S 
ATOM     95  O   UNL A   1      37.560  35.672  42.204  1.00  0.00    -0.237 OA
ATOM     96  O   UNL A   1      36.905  33.766  43.627  1.00  0.00    -0.237 OA
ATOM     97  O   UNL A   1      39.264  34.058  42.960  1.00  0.00    -0.744 OA
ENDBRANCH  90  94
ENDBRANCH  64  87
ENDBRANCH  38  39
ENDBRANCH  31  33
ENDBRANCH  30  31
ENDBRANCH  29  30
ENDBRANCH  28  29
ENDBRANCH  27  28
ENDBRANCH   1  27
TORSDOF 24
ENDMDL
